MODEL 1
REMARK VINA RESULT:    -2.412      0.000      0.000
REMARK INTER + INTRA:          -2.944
REMARK INTER:                  -2.765
REMARK INTRA:                  -0.180
REMARK UNBOUND:                -0.180
REMARK SMILES CC=Cc1ccc(O)c(OC)c1
REMARK SMILES IDX 4 1 12 2 9 3 7 4 6 5 5 6 3 7 1 8 2 9 10 10 11 11 8 12
REMARK H PARENT 8 13
REMARK Flexibility Score: inf
ROOT
ATOM      1  C   UNL     1     126.561 110.345 134.945  1.00  0.00    -0.022 A 
ATOM      2  C   UNL     1     126.875 111.715 134.841  1.00  0.00     0.058 A 
ATOM      3  C   UNL     1     126.626 112.595 135.914  1.00  0.00     0.161 A 
ATOM      4  C   UNL     1     126.069 112.089 137.102  1.00  0.00     0.157 A 
ATOM      5  C   UNL     1     125.773 110.728 137.212  1.00  0.00     0.051 A 
ATOM      6  C   UNL     1     126.022 109.861 136.147  1.00  0.00     0.012 A 
ENDROOT
BRANCH   1   7
ATOM      7  C   UNL     1     126.814 109.381 133.845  1.00  0.00     0.003 C 
ATOM      8  C   UNL     1     127.123 107.147 132.853  1.00  0.00     0.035 C 
ATOM      9  C   UNL     1     126.846 108.053 134.009  1.00  0.00    -0.030 C 
ENDBRANCH   1   7
BRANCH   3  10
ATOM     10  O   UNL     1     126.923 113.965 135.836  1.00  0.00    -0.493 OA
ATOM     11  C   UNL     1     126.797 114.755 134.659  1.00  0.00     0.278 C 
ENDBRANCH   3  10
BRANCH   4  12
ATOM     12  O   UNL     1     125.804 112.924 138.187  1.00  0.00    -0.504 OA
ATOM     13  H   UNL     1     125.339 113.818 138.080  1.00  0.00     0.293 HD
ENDBRANCH   4  12
TORSDOF 3
ENDMDL
MODEL 2
REMARK VINA RESULT:    -2.320      3.013      5.411
REMARK INTER + INTRA:          -2.839
REMARK INTER:                  -2.667
REMARK INTRA:                  -0.172
REMARK UNBOUND:                -0.180
REMARK SMILES CC=Cc1ccc(O)c(OC)c1
REMARK SMILES IDX 4 1 12 2 9 3 7 4 6 5 5 6 3 7 1 8 2 9 10 10 11 11 8 12
REMARK H PARENT 8 13
REMARK Flexibility Score: inf
ROOT
ATOM      1  C   UNL     1     126.337 110.848 135.102  1.00  0.00    -0.022 A 
ATOM      2  C   UNL     1     125.884 109.779 135.901  1.00  0.00     0.058 A 
ATOM      3  C   UNL     1     126.037 108.445 135.472  1.00  0.00     0.161 A 
ATOM      4  C   UNL     1     126.661 108.187 134.238  1.00  0.00     0.157 A 
ATOM      5  C   UNL     1     127.125 109.245 133.454  1.00  0.00     0.051 A 
ATOM      6  C   UNL     1     126.971 110.564 133.883  1.00  0.00     0.012 A 
ENDROOT
BRANCH   1   7
ATOM      7  C   UNL     1     126.206 112.267 135.517  1.00  0.00     0.003 C 
ATOM      8  C   UNL     1     126.913 114.350 136.627  1.00  0.00     0.035 C 
ATOM      9  C   UNL     1     127.125 112.923 136.234  1.00  0.00    -0.030 C 
ENDBRANCH   1   7
BRANCH   3  10
ATOM     10  O   UNL     1     125.590 107.360 136.244  1.00  0.00    -0.493 OA
ATOM     11  C   UNL     1     126.236 106.881 137.418  1.00  0.00     0.278 C 
ENDBRANCH   3  10
BRANCH   4  12
ATOM     12  O   UNL     1     126.830 106.882 133.775  1.00  0.00    -0.504 OA
ATOM     13  H   UNL     1     126.159 106.435 133.162  1.00  0.00     0.293 HD
ENDBRANCH   4  12
TORSDOF 3
ENDMDL
MODEL 3
REMARK VINA RESULT:    -2.312      1.355      3.001
REMARK INTER + INTRA:          -2.830
REMARK INTER:                  -2.680
REMARK INTRA:                  -0.150
REMARK UNBOUND:                -0.180
REMARK SMILES CC=Cc1ccc(O)c(OC)c1
REMARK SMILES IDX 4 1 12 2 9 3 7 4 6 5 5 6 3 7 1 8 2 9 10 10 11 11 8 12
REMARK H PARENT 8 13
REMARK Flexibility Score: inf
ROOT
ATOM      1  C   UNL     1     126.509 110.658 135.034  1.00  0.00    -0.022 A 
ATOM      2  C   UNL     1     126.086 110.039 136.227  1.00  0.00     0.058 A 
ATOM      3  C   UNL     1     126.156 110.723 137.458  1.00  0.00     0.161 A 
ATOM      4  C   UNL     1     126.645 112.042 137.484  1.00  0.00     0.157 A 
ATOM      5  C   UNL     1     127.048 112.662 136.300  1.00  0.00     0.051 A 
ATOM      6  C   UNL     1     126.977 111.980 135.084  1.00  0.00     0.012 A 
ENDROOT
BRANCH   1   7
ATOM      7  C   UNL     1     126.445 109.981 133.716  1.00  0.00     0.003 C 
ATOM      8  C   UNL     1     126.818 108.135 132.127  1.00  0.00     0.035 C 
ATOM      9  C   UNL     1     126.905 108.745 133.488  1.00  0.00    -0.030 C 
ENDBRANCH   1   7
BRANCH   3  10
ATOM     10  O   UNL     1     125.748 110.129 138.663  1.00  0.00    -0.493 OA
ATOM     11  C   UNL     1     126.164 108.845 139.115  1.00  0.00     0.278 C 
ENDBRANCH   3  10
BRANCH   4  12
ATOM     12  O   UNL     1     126.734 112.754 138.680  1.00  0.00    -0.504 OA
ATOM     13  H   UNL     1     125.982 113.345 139.014  1.00  0.00     0.293 HD
ENDBRANCH   4  12
TORSDOF 3
ENDMDL
MODEL 4
REMARK VINA RESULT:    -2.310      1.075      2.630
REMARK INTER + INTRA:          -2.828
REMARK INTER:                  -2.685
REMARK INTRA:                  -0.142
REMARK UNBOUND:                -0.180
REMARK SMILES CC=Cc1ccc(O)c(OC)c1
REMARK SMILES IDX 4 1 12 2 9 3 7 4 6 5 5 6 3 7 1 8 2 9 10 10 11 11 8 12
REMARK H PARENT 8 13
REMARK Flexibility Score: inf
ROOT
ATOM      1  C   UNL     1     126.994 110.930 134.087  1.00  0.00    -0.022 A 
ATOM      2  C   UNL     1     126.751 111.140 135.459  1.00  0.00     0.058 A 
ATOM      3  C   UNL     1     126.668 112.446 135.985  1.00  0.00     0.161 A 
ATOM      4  C   UNL     1     126.820 113.545 135.120  1.00  0.00     0.157 A 
ATOM      5  C   UNL     1     127.044 113.338 133.758  1.00  0.00     0.051 A 
ATOM      6  C   UNL     1     127.125 112.043 133.243  1.00  0.00     0.012 A 
ENDROOT
BRANCH   1   7
ATOM      7  C   UNL     1     127.079 109.575 133.489  1.00  0.00     0.003 C 
ATOM      8  C   UNL     1     126.881 107.119 133.472  1.00  0.00     0.035 C 
ATOM      9  C   UNL     1     126.754 108.451 134.138  1.00  0.00    -0.030 C 
ENDBRANCH   1   7
BRANCH   3  10
ATOM     10  O   UNL     1     126.433 112.686 137.348  1.00  0.00    -0.493 OA
ATOM     11  C   UNL     1     126.403 111.679 138.354  1.00  0.00     0.278 C 
ENDBRANCH   3  10
BRANCH   4  12
ATOM     12  O   UNL     1     126.749 114.853 135.599  1.00  0.00    -0.504 OA
ATOM     13  H   UNL     1     127.456 115.245 136.208  1.00  0.00     0.293 HD
ENDBRANCH   4  12
TORSDOF 3
ENDMDL
MODEL 5
REMARK VINA RESULT:    -2.252      2.531      4.223
REMARK INTER + INTRA:          -2.761
REMARK INTER:                  -2.597
REMARK INTRA:                  -0.163
REMARK UNBOUND:                -0.180
REMARK SMILES CC=Cc1ccc(O)c(OC)c1
REMARK SMILES IDX 4 1 12 2 9 3 7 4 6 5 5 6 3 7 1 8 2 9 10 10 11 11 8 12
REMARK H PARENT 8 13
REMARK Flexibility Score: inf
ROOT
ATOM      1  C   UNL     1     126.693 109.709 134.002  1.00  0.00    -0.022 A 
ATOM      2  C   UNL     1     126.244 110.140 135.267  1.00  0.00     0.058 A 
ATOM      3  C   UNL     1     125.853 109.207 136.248  1.00  0.00     0.161 A 
ATOM      4  C   UNL     1     125.928 107.832 135.958  1.00  0.00     0.157 A 
ATOM      5  C   UNL     1     126.389 107.405 134.712  1.00  0.00     0.051 A 
ATOM      6  C   UNL     1     126.775 108.333 133.743  1.00  0.00     0.012 A 
ENDROOT
BRANCH   1   7
ATOM      7  C   UNL     1     127.123 110.655 132.942  1.00  0.00     0.003 C 
ATOM      8  C   UNL     1     127.068 112.761 131.665  1.00  0.00     0.035 C 
ATOM      9  C   UNL     1     126.592 111.870 132.767  1.00  0.00    -0.030 C 
ENDBRANCH   1   7
BRANCH   3  10
ATOM     10  O   UNL     1     125.395 109.606 137.514  1.00  0.00    -0.493 OA
ATOM     11  C   UNL     1     126.231 110.073 138.568  1.00  0.00     0.278 C 
ENDBRANCH   3  10
BRANCH   4  12
ATOM     12  O   UNL     1     125.549 106.875 136.900  1.00  0.00    -0.504 OA
ATOM     13  H   UNL     1     124.655 106.402 136.859  1.00  0.00     0.293 HD
ENDBRANCH   4  12
TORSDOF 3
ENDMDL
MODEL 6
REMARK VINA RESULT:    -2.194      1.832      2.517
REMARK INTER + INTRA:          -2.694
REMARK INTER:                  -2.528
REMARK INTRA:                  -0.165
REMARK UNBOUND:                -0.180
REMARK SMILES CC=Cc1ccc(O)c(OC)c1
REMARK SMILES IDX 4 1 12 2 9 3 7 4 6 5 5 6 3 7 1 8 2 9 10 10 11 11 8 12
REMARK H PARENT 8 13
REMARK Flexibility Score: inf
ROOT
ATOM      1  C   UNL     1     126.732 110.685 134.270  1.00  0.00    -0.022 A 
ATOM      2  C   UNL     1     126.902 111.488 133.124  1.00  0.00     0.058 A 
ATOM      3  C   UNL     1     126.963 112.892 133.231  1.00  0.00     0.161 A 
ATOM      4  C   UNL     1     126.863 113.489 134.501  1.00  0.00     0.157 A 
ATOM      5  C   UNL     1     126.712 112.693 135.638  1.00  0.00     0.051 A 
ATOM      6  C   UNL     1     126.653 111.303 135.526  1.00  0.00     0.012 A 
ENDROOT
BRANCH   1   7
ATOM      7  C   UNL     1     126.673 109.204 134.205  1.00  0.00     0.003 C 
ATOM      8  C   UNL     1     127.015 106.992 133.175  1.00  0.00     0.035 C 
ATOM      9  C   UNL     1     127.125 108.483 133.173  1.00  0.00    -0.030 C 
ENDBRANCH   1   7
BRANCH   3  10
ATOM     10  O   UNL     1     127.125 113.718 132.107  1.00  0.00    -0.493 OA
ATOM     11  C   UNL     1     126.076 114.097 131.223  1.00  0.00     0.278 C 
ENDBRANCH   3  10
BRANCH   4  12
ATOM     12  O   UNL     1     126.916 114.875 134.652  1.00  0.00    -0.504 OA
ATOM     13  H   UNL     1     126.084 115.435 134.794  1.00  0.00     0.293 HD
ENDBRANCH   4  12
TORSDOF 3
ENDMDL
MODEL 7
REMARK VINA RESULT:    -2.069      2.540      4.945
REMARK INTER + INTRA:          -2.551
REMARK INTER:                  -2.407
REMARK INTRA:                  -0.144
REMARK UNBOUND:                -0.180
REMARK SMILES CC=Cc1ccc(O)c(OC)c1
REMARK SMILES IDX 4 1 12 2 9 3 7 4 6 5 5 6 3 7 1 8 2 9 10 10 11 11 8 12
REMARK H PARENT 8 13
REMARK Flexibility Score: inf
ROOT
ATOM      1  C   UNL     1     126.750 111.207 134.467  1.00  0.00    -0.022 A 
ATOM      2  C   UNL     1     126.205 110.646 135.640  1.00  0.00     0.058 A 
ATOM      3  C   UNL     1     126.011 109.254 135.749  1.00  0.00     0.161 A 
ATOM      4  C   UNL     1     126.380 108.422 134.676  1.00  0.00     0.157 A 
ATOM      5  C   UNL     1     126.935 108.976 133.521  1.00  0.00     0.051 A 
ATOM      6  C   UNL     1     127.125 110.355 133.418  1.00  0.00     0.012 A 
ENDROOT
BRANCH   1   7
ATOM      7  C   UNL     1     126.979 112.665 134.311  1.00  0.00     0.003 C 
ATOM      8  C   UNL     1     126.608 115.053 134.788  1.00  0.00     0.035 C 
ATOM      9  C   UNL     1     126.331 113.602 135.013  1.00  0.00    -0.030 C 
ENDBRANCH   1   7
BRANCH   3  10
ATOM     10  O   UNL     1     125.464 108.667 136.902  1.00  0.00    -0.493 OA
ATOM     11  C   UNL     1     124.512 109.292 137.755  1.00  0.00     0.278 C 
ENDBRANCH   3  10
BRANCH   4  12
ATOM     12  O   UNL     1     126.203 107.040 134.741  1.00  0.00    -0.504 OA
ATOM     13  H   UNL     1     126.240 106.451 133.918  1.00  0.00     0.293 HD
ENDBRANCH   4  12
TORSDOF 3
ENDMDL
MODEL 8
REMARK VINA RESULT:    -1.988      3.209      4.962
REMARK INTER + INTRA:          -2.458
REMARK INTER:                  -2.264
REMARK INTRA:                  -0.194
REMARK UNBOUND:                -0.180
REMARK SMILES CC=Cc1ccc(O)c(OC)c1
REMARK SMILES IDX 4 1 12 2 9 3 7 4 6 5 5 6 3 7 1 8 2 9 10 10 11 11 8 12
REMARK H PARENT 8 13
REMARK Flexibility Score: inf
ROOT
ATOM      1  C   UNL     1     126.399 109.873 134.701  1.00  0.00    -0.022 A 
ATOM      2  C   UNL     1     126.568 110.626 133.521  1.00  0.00     0.058 A 
ATOM      3  C   UNL     1     126.813 109.987 132.289  1.00  0.00     0.161 A 
ATOM      4  C   UNL     1     126.877 108.583 132.243  1.00  0.00     0.157 A 
ATOM      5  C   UNL     1     126.693 107.836 133.408  1.00  0.00     0.051 A 
ATOM      6  C   UNL     1     126.450 108.473 134.626  1.00  0.00     0.012 A 
ENDROOT
BRANCH   1   7
ATOM      7  C   UNL     1     126.131 110.502 136.018  1.00  0.00     0.003 C 
ATOM      8  C   UNL     1     125.873 110.543 138.468  1.00  0.00     0.035 C 
ATOM      9  C   UNL     1     126.171 109.843 137.182  1.00  0.00    -0.030 C 
ENDBRANCH   1   7
BRANCH   3  10
ATOM     10  O   UNL     1     126.992 110.711 131.098  1.00  0.00    -0.493 OA
ATOM     11  C   UNL     1     125.936 111.260 130.318  1.00  0.00     0.278 C 
ENDBRANCH   3  10
BRANCH   4  12
ATOM     12  O   UNL     1     127.120 107.911 131.045  1.00  0.00    -0.504 OA
ATOM     13  H   UNL     1     127.378 106.932 131.017  1.00  0.00     0.293 HD
ENDBRANCH   4  12
TORSDOF 3
ENDMDL
MODEL 9
REMARK VINA RESULT:    -1.953      1.892      2.743
REMARK INTER + INTRA:          -2.418
REMARK INTER:                  -2.235
REMARK INTRA:                  -0.183
REMARK UNBOUND:                -0.180
REMARK SMILES CC=Cc1ccc(O)c(OC)c1
REMARK SMILES IDX 4 1 12 2 9 3 7 4 6 5 5 6 3 7 1 8 2 9 10 10 11 11 8 12
REMARK H PARENT 8 13
REMARK Flexibility Score: inf
ROOT
ATOM      1  C   UNL     1     126.736 111.019 134.388  1.00  0.00    -0.022 A 
ATOM      2  C   UNL     1     126.783 111.915 135.475  1.00  0.00     0.058 A 
ATOM      3  C   UNL     1     126.412 111.497 136.769  1.00  0.00     0.161 A 
ATOM      4  C   UNL     1     126.003 110.166 136.971  1.00  0.00     0.157 A 
ATOM      5  C   UNL     1     125.973 109.274 135.897  1.00  0.00     0.051 A 
ATOM      6  C   UNL     1     126.341 109.693 134.618  1.00  0.00     0.012 A 
ENDROOT
BRANCH   1   7
ATOM      7  C   UNL     1     127.125 111.412 133.011  1.00  0.00     0.003 C 
ATOM      8  C   UNL     1     126.898 111.501 130.559  1.00  0.00     0.035 C 
ATOM      9  C   UNL     1     126.432 111.080 131.916  1.00  0.00    -0.030 C 
ENDBRANCH   1   7
BRANCH   3  10
ATOM     10  O   UNL     1     126.443 112.369 137.870  1.00  0.00    -0.493 OA
ATOM     11  C   UNL     1     125.398 113.271 138.218  1.00  0.00     0.278 C 
ENDBRANCH   3  10
BRANCH   4  12
ATOM     12  O   UNL     1     125.626 109.712 138.234  1.00  0.00    -0.504 OA
ATOM     13  H   UNL     1     125.026 110.253 138.846  1.00  0.00     0.293 HD
ENDBRANCH   4  12
TORSDOF 3
ENDMDL
