MODEL 1
REMARK VINA RESULT:    -7.257      0.000      0.000
REMARK INTER + INTRA:          -8.833
REMARK INTER:                  -8.530
REMARK INTRA:                  -0.303
REMARK UNBOUND:                -0.303
REMARK SMILES O=c1cc(-c2ccc(O)c(O)c2)oc2cc(O)cc(O)c12
REMARK SMILES IDX 4 1 3 2 2 3 1 4 21 5 19 6 18 7 16 8 15 9 14 10 13 11 5 12
REMARK SMILES IDX 6 13 7 14 8 15 12 16 10 17 9 18 11 20 20 22 17 24
REMARK H PARENT 9 19 11 21 20 23 17 25
REMARK Flexibility Score: inf
ROOT
ATOM      1  C   UNL     1       0.662  20.962 -34.542  1.00  0.00     0.138 A 
ATOM      2  C   UNL     1      -0.360  21.495 -35.340  1.00  0.00     0.100 A 
ATOM      3  C   UNL     1      -0.113  21.771 -36.685  1.00  0.00     0.197 A 
ATOM      4  O   UNL     1      -1.030  22.306 -37.360  1.00  0.00    -0.289 OA
ATOM      5  C   UNL     1       1.156  21.484 -37.240  1.00  0.00     0.107 A 
ATOM      6  C   UNL     1       1.510  21.687 -38.608  1.00  0.00     0.134 A 
ATOM      7  C   UNL     1       2.833  21.476 -39.017  1.00  0.00     0.093 A 
ATOM      8  C   UNL     1       3.798  21.011 -38.125  1.00  0.00     0.123 A 
ATOM      9  C   UNL     1       3.451  20.758 -36.797  1.00  0.00     0.094 A 
ATOM     10  C   UNL     1       2.148  20.993 -36.350  1.00  0.00     0.146 A 
ATOM     11  O   UNL     1       1.861  20.753 -35.074  1.00  0.00    -0.456 OA
ENDROOT
BRANCH   1  12
ATOM     12  C   UNL     1       0.453  20.648 -33.106  1.00  0.00     0.021 A 
ATOM     13  C   UNL     1      -0.775  20.149 -32.629  1.00  0.00     0.016 A 
ATOM     14  C   UNL     1      -0.940  19.852 -31.273  1.00  0.00     0.051 A 
ATOM     15  C   UNL     1       0.116  20.040 -30.374  1.00  0.00     0.157 A 
ATOM     16  C   UNL     1       1.513  20.821 -32.197  1.00  0.00     0.062 A 
ATOM     17  C   UNL     1       1.349  20.525 -30.840  1.00  0.00     0.158 A 
BRANCH  15  18
ATOM     18  O   UNL     1      -0.054  19.744 -29.022  1.00  0.00    -0.504 OA
ATOM     19  H   UNL     1       0.533  19.067 -28.550  1.00  0.00     0.293 HD
ENDBRANCH  15  18
BRANCH  17  20
ATOM     20  O   UNL     1       2.421  20.720 -29.970  1.00  0.00    -0.504 OA
ATOM     21  H   UNL     1       3.335  20.319 -30.143  1.00  0.00     0.293 HD
ENDBRANCH  17  20
ENDBRANCH   1  12
BRANCH   6  22
ATOM     22  O   UNL     1       0.603  22.068 -39.600  1.00  0.00    -0.507 OA
ATOM     23  H   UNL     1       0.533  21.642 -40.512  1.00  0.00     0.293 HD
ENDBRANCH   6  22
BRANCH   8  24
ATOM     24  O   UNL     1       5.101  20.797 -38.571  1.00  0.00    -0.508 OA
ATOM     25  H   UNL     1       5.865  20.647 -37.923  1.00  0.00     0.293 HD
ENDBRANCH   8  24
TORSDOF 5
ENDMDL
MODEL 2
REMARK VINA RESULT:    -7.211      1.769      7.454
REMARK INTER + INTRA:          -8.779
REMARK INTER:                  -8.507
REMARK INTRA:                  -0.271
REMARK UNBOUND:                -0.303
REMARK SMILES O=c1cc(-c2ccc(O)c(O)c2)oc2cc(O)cc(O)c12
REMARK SMILES IDX 4 1 3 2 2 3 1 4 21 5 19 6 18 7 16 8 15 9 14 10 13 11 5 12
REMARK SMILES IDX 6 13 7 14 8 15 12 16 10 17 9 18 11 20 20 22 17 24
REMARK H PARENT 9 19 11 21 20 23 17 25
REMARK Flexibility Score: inf
ROOT
ATOM      1  C   UNL     1       0.673  20.452 -33.397  1.00  0.00     0.138 A 
ATOM      2  C   UNL     1       1.412  20.836 -32.269  1.00  0.00     0.100 A 
ATOM      3  C   UNL     1       0.901  20.594 -30.994  1.00  0.00     0.197 A 
ATOM      4  O   UNL     1       1.558  21.004 -30.003  1.00  0.00    -0.289 OA
ATOM      5  C   UNL     1      -0.344  19.937 -30.848  1.00  0.00     0.107 A 
ATOM      6  C   UNL     1      -0.944  19.602 -29.598  1.00  0.00     0.134 A 
ATOM      7  C   UNL     1      -2.234  19.057 -29.576  1.00  0.00     0.093 A 
ATOM      8  C   UNL     1      -2.919  18.778 -30.758  1.00  0.00     0.123 A 
ATOM      9  C   UNL     1      -2.319  19.051 -31.988  1.00  0.00     0.094 A 
ATOM     10  C   UNL     1      -1.048  19.628 -32.042  1.00  0.00     0.146 A 
ATOM     11  O   UNL     1      -0.517  19.886 -33.233  1.00  0.00    -0.456 OA
ENDROOT
BRANCH   1  12
ATOM     12  C   UNL     1       1.171  20.684 -34.777  1.00  0.00     0.021 A 
ATOM     13  C   UNL     1       0.393  21.353 -35.741  1.00  0.00     0.016 A 
ATOM     14  C   UNL     1       0.891  21.567 -37.029  1.00  0.00     0.051 A 
ATOM     15  C   UNL     1       2.174  21.125 -37.374  1.00  0.00     0.157 A 
ATOM     16  C   UNL     1       2.465  20.256 -35.128  1.00  0.00     0.062 A 
ATOM     17  C   UNL     1       2.964  20.469 -36.417  1.00  0.00     0.158 A 
BRANCH  15  18
ATOM     18  O   UNL     1       2.667  21.339 -38.661  1.00  0.00    -0.504 OA
ATOM     19  H   UNL     1       2.160  21.028 -39.481  1.00  0.00     0.293 HD
ENDBRANCH  15  18
BRANCH  17  20
ATOM     20  O   UNL     1       4.247  20.020 -36.728  1.00  0.00    -0.504 OA
ATOM     21  H   UNL     1       4.605  20.025 -37.676  1.00  0.00     0.293 HD
ENDBRANCH  17  20
ENDBRANCH   1  12
BRANCH   6  22
ATOM     22  O   UNL     1      -0.313  19.760 -28.361  1.00  0.00    -0.507 OA
ATOM     23  H   UNL     1      -0.275  20.622 -27.839  1.00  0.00     0.293 HD
ENDBRANCH   6  22
BRANCH   8  24
ATOM     24  O   UNL     1      -4.195  18.220 -30.698  1.00  0.00    -0.508 OA
ATOM     25  H   UNL     1      -4.905  18.449 -31.383  1.00  0.00     0.293 HD
ENDBRANCH   8  24
TORSDOF 5
ENDMDL
MODEL 3
REMARK VINA RESULT:    -7.126      1.841      3.367
REMARK INTER + INTRA:          -8.678
REMARK INTER:                  -8.407
REMARK INTRA:                  -0.272
REMARK UNBOUND:                -0.303
REMARK SMILES O=c1cc(-c2ccc(O)c(O)c2)oc2cc(O)cc(O)c12
REMARK SMILES IDX 4 1 3 2 2 3 1 4 21 5 19 6 18 7 16 8 15 9 14 10 13 11 5 12
REMARK SMILES IDX 6 13 7 14 8 15 12 16 10 17 9 18 11 20 20 22 17 24
REMARK H PARENT 9 19 11 21 20 23 17 25
REMARK Flexibility Score: inf
ROOT
ATOM      1  C   UNL     1       1.062  20.126 -34.805  1.00  0.00     0.138 A 
ATOM      2  C   UNL     1       2.411  19.757 -34.712  1.00  0.00     0.100 A 
ATOM      3  C   UNL     1       3.282  20.057 -35.760  1.00  0.00     0.197 A 
ATOM      4  O   UNL     1       4.473  19.659 -35.675  1.00  0.00    -0.289 OA
ATOM      5  C   UNL     1       2.805  20.757 -36.893  1.00  0.00     0.107 A 
ATOM      6  C   UNL     1       3.610  21.152 -38.003  1.00  0.00     0.134 A 
ATOM      7  C   UNL     1       3.004  21.738 -39.122  1.00  0.00     0.093 A 
ATOM      8  C   UNL     1       1.635  21.998 -39.146  1.00  0.00     0.123 A 
ATOM      9  C   UNL     1       0.846  21.666 -38.044  1.00  0.00     0.094 A 
ATOM     10  C   UNL     1       1.415  21.048 -36.927  1.00  0.00     0.146 A 
ATOM     11  O   UNL     1       0.628  20.734 -35.903  1.00  0.00    -0.456 OA
ENDROOT
BRANCH   1  12
ATOM     12  C   UNL     1       0.092  19.833 -33.719  1.00  0.00     0.021 A 
ATOM     13  C   UNL     1       0.161  20.481 -32.471  1.00  0.00     0.016 A 
ATOM     14  C   UNL     1      -0.772  20.193 -31.471  1.00  0.00     0.051 A 
ATOM     15  C   UNL     1      -1.791  19.261 -31.701  1.00  0.00     0.157 A 
ATOM     16  C   UNL     1      -0.944  18.908 -33.947  1.00  0.00     0.062 A 
ATOM     17  C   UNL     1      -1.877  18.618 -32.946  1.00  0.00     0.158 A 
BRANCH  15  18
ATOM     18  O   UNL     1      -2.718  18.976 -30.700  1.00  0.00    -0.504 OA
ATOM     19  H   UNL     1      -3.673  19.311 -30.750  1.00  0.00     0.293 HD
ENDBRANCH  15  18
BRANCH  17  20
ATOM     20  O   UNL     1      -2.882  17.688 -33.208  1.00  0.00    -0.504 OA
ATOM     21  H   UNL     1      -3.800  17.964 -33.537  1.00  0.00     0.293 HD
ENDBRANCH  17  20
ENDBRANCH   1  12
BRANCH   6  22
ATOM     22  O   UNL     1       5.001  21.015 -38.047  1.00  0.00    -0.507 OA
ATOM     23  H   UNL     1       5.505  20.468 -38.728  1.00  0.00     0.293 HD
ENDBRANCH   6  22
BRANCH   8  24
ATOM     24  O   UNL     1       1.068  22.597 -40.270  1.00  0.00    -0.508 OA
ATOM     25  H   UNL     1       1.640  22.954 -41.025  1.00  0.00     0.293 HD
ENDBRANCH   8  24
TORSDOF 5
ENDMDL
MODEL 4
REMARK VINA RESULT:    -7.078      2.209      7.113
REMARK INTER + INTRA:          -8.622
REMARK INTER:                  -8.331
REMARK INTRA:                  -0.290
REMARK UNBOUND:                -0.303
REMARK SMILES O=c1cc(-c2ccc(O)c(O)c2)oc2cc(O)cc(O)c12
REMARK SMILES IDX 4 1 3 2 2 3 1 4 21 5 19 6 18 7 16 8 15 9 14 10 13 11 5 12
REMARK SMILES IDX 6 13 7 14 8 15 12 16 10 17 9 18 11 20 20 22 17 24
REMARK H PARENT 9 19 11 21 20 23 17 25
REMARK Flexibility Score: inf
ROOT
ATOM      1  C   UNL     1       0.044  19.800 -33.761  1.00  0.00     0.138 A 
ATOM      2  C   UNL     1      -1.220  19.271 -34.057  1.00  0.00     0.100 A 
ATOM      3  C   UNL     1      -2.113  18.995 -33.021  1.00  0.00     0.197 A 
ATOM      4  O   UNL     1      -3.215  18.463 -33.312  1.00  0.00    -0.289 OA
ATOM      5  C   UNL     1      -1.748  19.278 -31.683  1.00  0.00     0.107 A 
ATOM      6  C   UNL     1      -2.591  19.075 -30.550  1.00  0.00     0.134 A 
ATOM      7  C   UNL     1      -2.079  19.283 -29.263  1.00  0.00     0.093 A 
ATOM      8  C   UNL     1      -0.777  19.744 -29.071  1.00  0.00     0.123 A 
ATOM      9  C   UNL     1       0.039  19.998 -30.174  1.00  0.00     0.094 A 
ATOM     10  C   UNL     1      -0.431  19.767 -31.469  1.00  0.00     0.146 A 
ATOM     11  O   UNL     1       0.382  20.007 -32.493  1.00  0.00    -0.456 OA
ENDROOT
BRANCH   1  12
ATOM     12  C   UNL     1       1.031  20.114 -34.825  1.00  0.00     0.021 A 
ATOM     13  C   UNL     1       0.680  20.872 -35.959  1.00  0.00     0.016 A 
ATOM     14  C   UNL     1       1.634  21.162 -36.939  1.00  0.00     0.051 A 
ATOM     15  C   UNL     1       2.951  20.708 -36.801  1.00  0.00     0.157 A 
ATOM     16  C   UNL     1       2.360  19.675 -34.687  1.00  0.00     0.062 A 
ATOM     17  C   UNL     1       3.315  19.963 -35.669  1.00  0.00     0.158 A 
BRANCH  15  18
ATOM     18  O   UNL     1       3.898  20.998 -37.783  1.00  0.00    -0.504 OA
ATOM     19  H   UNL     1       4.676  21.620 -37.601  1.00  0.00     0.293 HD
ENDBRANCH  15  18
BRANCH  17  20
ATOM     20  O   UNL     1       4.620  19.500 -35.500  1.00  0.00    -0.504 OA
ATOM     21  H   UNL     1       5.424  20.033 -35.807  1.00  0.00     0.293 HD
ENDBRANCH  17  20
ENDBRANCH   1  12
BRANCH   6  22
ATOM     22  O   UNL     1      -3.934  18.697 -30.634  1.00  0.00    -0.507 OA
ATOM     23  H   UNL     1      -4.263  17.745 -30.686  1.00  0.00     0.293 HD
ENDBRANCH   6  22
BRANCH   8  24
ATOM     24  O   UNL     1      -0.307  19.955 -27.776  1.00  0.00    -0.508 OA
ATOM     25  H   UNL     1      -0.590  20.762 -27.235  1.00  0.00     0.293 HD
ENDBRANCH   8  24
TORSDOF 5
ENDMDL
MODEL 5
REMARK VINA RESULT:    -6.999      1.559      6.845
REMARK INTER + INTRA:          -8.530
REMARK INTER:                  -8.238
REMARK INTRA:                  -0.291
REMARK UNBOUND:                -0.303
REMARK SMILES O=c1cc(-c2ccc(O)c(O)c2)oc2cc(O)cc(O)c12
REMARK SMILES IDX 4 1 3 2 2 3 1 4 21 5 19 6 18 7 16 8 15 9 14 10 13 11 5 12
REMARK SMILES IDX 6 13 7 14 8 15 12 16 10 17 9 18 11 20 20 22 17 24
REMARK H PARENT 9 19 11 21 20 23 17 25
REMARK Flexibility Score: inf
ROOT
ATOM      1  C   UNL     1       0.041  21.182 -35.080  1.00  0.00     0.138 A 
ATOM      2  C   UNL     1      -1.258  20.724 -34.822  1.00  0.00     0.100 A 
ATOM      3  C   UNL     1      -1.596  20.292 -33.539  1.00  0.00     0.197 A 
ATOM      4  O   UNL     1      -2.750  19.829 -33.352  1.00  0.00    -0.289 OA
ATOM      5  C   UNL     1      -0.634  20.348 -32.502  1.00  0.00     0.107 A 
ATOM      6  C   UNL     1      -0.877  19.972 -31.147  1.00  0.00     0.134 A 
ATOM      7  C   UNL     1       0.184  19.960 -30.233  1.00  0.00     0.093 A 
ATOM      8  C   UNL     1       1.463  20.367 -30.609  1.00  0.00     0.123 A 
ATOM      9  C   UNL     1       1.700  20.788 -31.918  1.00  0.00     0.094 A 
ATOM     10  C   UNL     1       0.671  20.779 -32.862  1.00  0.00     0.146 A 
ATOM     11  O   UNL     1       0.941  21.174 -34.102  1.00  0.00    -0.456 OA
ENDROOT
BRANCH   1  12
ATOM     12  C   UNL     1       0.454  21.654 -36.426  1.00  0.00     0.021 A 
ATOM     13  C   UNL     1      -0.325  22.571 -37.159  1.00  0.00     0.016 A 
ATOM     14  C   UNL     1       0.093  23.006 -38.419  1.00  0.00     0.051 A 
ATOM     15  C   UNL     1       1.296  22.541 -38.965  1.00  0.00     0.157 A 
ATOM     16  C   UNL     1       1.668  21.204 -36.976  1.00  0.00     0.062 A 
ATOM     17  C   UNL     1       2.087  21.638 -38.239  1.00  0.00     0.158 A 
BRANCH  15  18
ATOM     18  O   UNL     1       1.708  22.978 -40.224  1.00  0.00    -0.504 OA
ATOM     19  H   UNL     1       2.687  23.127 -40.439  1.00  0.00     0.293 HD
ENDBRANCH  15  18
BRANCH  17  20
ATOM     20  O   UNL     1       3.291  21.160 -38.753  1.00  0.00    -0.504 OA
ATOM     21  H   UNL     1       3.487  21.152 -39.747  1.00  0.00     0.293 HD
ENDBRANCH  17  20
ENDBRANCH   1  12
BRANCH   6  22
ATOM     22  O   UNL     1      -2.136  19.630 -30.645  1.00  0.00    -0.507 OA
ATOM     23  H   UNL     1      -2.302  19.193 -29.751  1.00  0.00     0.293 HD
ENDBRANCH   6  22
BRANCH   8  24
ATOM     24  O   UNL     1       2.492  20.357 -29.669  1.00  0.00    -0.508 OA
ATOM     25  H   UNL     1       3.181  21.097 -29.630  1.00  0.00     0.293 HD
ENDBRANCH   8  24
TORSDOF 5
ENDMDL
MODEL 6
REMARK VINA RESULT:    -6.972      1.385      3.121
REMARK INTER + INTRA:          -8.498
REMARK INTER:                  -8.202
REMARK INTRA:                  -0.296
REMARK UNBOUND:                -0.303
REMARK SMILES O=c1cc(-c2ccc(O)c(O)c2)oc2cc(O)cc(O)c12
REMARK SMILES IDX 4 1 3 2 2 3 1 4 21 5 19 6 18 7 16 8 15 9 14 10 13 11 5 12
REMARK SMILES IDX 6 13 7 14 8 15 12 16 10 17 9 18 11 20 20 22 17 24
REMARK H PARENT 9 19 11 21 20 23 17 25
REMARK Flexibility Score: inf
ROOT
ATOM      1  C   UNL     1       1.138  20.588 -33.771  1.00  0.00     0.138 A 
ATOM      2  C   UNL     1       2.373  20.151 -34.269  1.00  0.00     0.100 A 
ATOM      3  C   UNL     1       2.678  20.337 -35.618  1.00  0.00     0.197 A 
ATOM      4  O   UNL     1       3.767  19.879 -36.050  1.00  0.00    -0.289 OA
ATOM      5  C   UNL     1       1.752  20.991 -36.465  1.00  0.00     0.107 A 
ATOM      6  C   UNL     1       1.971  21.271 -37.847  1.00  0.00     0.134 A 
ATOM      7  C   UNL     1       0.935  21.820 -38.613  1.00  0.00     0.093 A 
ATOM      8  C   UNL     1      -0.289  22.155 -38.035  1.00  0.00     0.123 A 
ATOM      9  C   UNL     1      -0.496  21.935 -36.673  1.00  0.00     0.094 A 
ATOM     10  C   UNL     1       0.506  21.357 -35.889  1.00  0.00     0.146 A 
ATOM     11  O   UNL     1       0.264  21.151 -34.599  1.00  0.00    -0.456 OA
ENDROOT
BRANCH   1  12
ATOM     12  C   UNL     1       0.763  20.418 -32.344  1.00  0.00     0.021 A 
ATOM     13  C   UNL     1       1.672  20.687 -31.303  1.00  0.00     0.016 A 
ATOM     14  C   UNL     1       1.288  20.528 -29.969  1.00  0.00     0.051 A 
ATOM     15  C   UNL     1      -0.008  20.105 -29.651  1.00  0.00     0.157 A 
ATOM     16  C   UNL     1      -0.542  20.007 -32.015  1.00  0.00     0.062 A 
ATOM     17  C   UNL     1      -0.927  19.846 -30.680  1.00  0.00     0.158 A 
BRANCH  15  18
ATOM     18  O   UNL     1      -0.386  19.946 -28.318  1.00  0.00    -0.504 OA
ATOM     19  H   UNL     1      -0.123  19.124 -27.787  1.00  0.00     0.293 HD
ENDBRANCH  15  18
BRANCH  17  20
ATOM     20  O   UNL     1      -2.226  19.427 -30.396  1.00  0.00    -0.504 OA
ATOM     21  H   UNL     1      -2.451  18.894 -29.564  1.00  0.00     0.293 HD
ENDBRANCH  17  20
ENDBRANCH   1  12
BRANCH   6  22
ATOM     22  O   UNL     1       3.185  21.054 -38.504  1.00  0.00    -0.507 OA
ATOM     23  H   UNL     1       3.400  20.246 -39.067  1.00  0.00     0.293 HD
ENDBRANCH   6  22
BRANCH   8  24
ATOM     24  O   UNL     1      -1.292  22.713 -38.825  1.00  0.00    -0.508 OA
ATOM     25  H   UNL     1      -1.836  23.506 -38.508  1.00  0.00     0.293 HD
ENDBRANCH   8  24
TORSDOF 5
ENDMDL
MODEL 7
REMARK VINA RESULT:    -6.941      1.483      2.344
REMARK INTER + INTRA:          -8.461
REMARK INTER:                  -8.176
REMARK INTRA:                  -0.285
REMARK UNBOUND:                -0.303
REMARK SMILES O=c1cc(-c2ccc(O)c(O)c2)oc2cc(O)cc(O)c12
REMARK SMILES IDX 4 1 3 2 2 3 1 4 21 5 19 6 18 7 16 8 15 9 14 10 13 11 5 12
REMARK SMILES IDX 6 13 7 14 8 15 12 16 10 17 9 18 11 20 20 22 17 24
REMARK H PARENT 9 19 11 21 20 23 17 25
REMARK Flexibility Score: inf
ROOT
ATOM      1  C   UNL     1       0.060  20.430 -32.980  1.00  0.00     0.138 A 
ATOM      2  C   UNL     1      -1.028  20.834 -33.766  1.00  0.00     0.100 A 
ATOM      3  C   UNL     1      -0.845  21.077 -35.127  1.00  0.00     0.197 A 
ATOM      4  O   UNL     1      -1.825  21.497 -35.794  1.00  0.00    -0.289 OA
ATOM      5  C   UNL     1       0.431  20.886 -35.710  1.00  0.00     0.107 A 
ATOM      6  C   UNL     1       0.727  21.065 -37.095  1.00  0.00     0.134 A 
ATOM      7  C   UNL     1       2.052  20.960 -37.536  1.00  0.00     0.093 A 
ATOM      8  C   UNL     1       3.080  20.623 -36.657  1.00  0.00     0.123 A 
ATOM      9  C   UNL     1       2.794  20.393 -35.311  1.00  0.00     0.094 A 
ATOM     10  C   UNL     1       1.488  20.524 -34.833  1.00  0.00     0.146 A 
ATOM     11  O   UNL     1       1.259  20.311 -33.541  1.00  0.00    -0.456 OA
ENDROOT
BRANCH   1  12
ATOM     12  C   UNL     1      -0.080  20.157 -31.527  1.00  0.00     0.021 A 
ATOM     13  C   UNL     1       0.969  20.410 -30.623  1.00  0.00     0.016 A 
ATOM     14  C   UNL     1       0.805  20.153 -29.258  1.00  0.00     0.051 A 
ATOM     15  C   UNL     1      -0.408  19.647 -28.775  1.00  0.00     0.157 A 
ATOM     16  C   UNL     1      -1.300  19.662 -31.030  1.00  0.00     0.062 A 
ATOM     17  C   UNL     1      -1.465  19.402 -29.665  1.00  0.00     0.158 A 
BRANCH  15  18
ATOM     18  O   UNL     1      -0.566  19.390 -27.413  1.00  0.00    -0.504 OA
ATOM     19  H   UNL     1      -1.477  19.415 -26.971  1.00  0.00     0.293 HD
ENDBRANCH  15  18
BRANCH  17  20
ATOM     20  O   UNL     1      -2.686  18.902 -29.214  1.00  0.00    -0.504 OA
ATOM     21  H   UNL     1      -2.756  18.027 -28.708  1.00  0.00     0.293 HD
ENDBRANCH  17  20
ENDBRANCH   1  12
BRANCH   6  22
ATOM     22  O   UNL     1      -0.238  21.320 -38.073  1.00  0.00    -0.507 OA
ATOM     23  H   UNL     1      -1.094  21.832 -37.920  1.00  0.00     0.293 HD
ENDBRANCH   6  22
BRANCH   8  24
ATOM     24  O   UNL     1       4.385  20.512 -37.135  1.00  0.00    -0.508 OA
ATOM     25  H   UNL     1       5.150  20.245 -36.528  1.00  0.00     0.293 HD
ENDBRANCH   8  24
TORSDOF 5
ENDMDL
MODEL 8
REMARK VINA RESULT:    -6.847      2.002      7.184
REMARK INTER + INTRA:          -8.351
REMARK INTER:                  -8.058
REMARK INTRA:                  -0.293
REMARK UNBOUND:                -0.303
REMARK SMILES O=c1cc(-c2ccc(O)c(O)c2)oc2cc(O)cc(O)c12
REMARK SMILES IDX 4 1 3 2 2 3 1 4 21 5 19 6 18 7 16 8 15 9 14 10 13 11 5 12
REMARK SMILES IDX 6 13 7 14 8 15 12 16 10 17 9 18 11 20 20 22 17 24
REMARK H PARENT 9 19 11 21 20 23 17 25
REMARK Flexibility Score: inf
ROOT
ATOM      1  C   UNL     1       1.120  20.202 -34.147  1.00  0.00     0.138 A 
ATOM      2  C   UNL     1       1.449  20.601 -32.844  1.00  0.00     0.100 A 
ATOM      3  C   UNL     1       0.537  20.397 -31.808  1.00  0.00     0.197 A 
ATOM      4  O   UNL     1       0.834  20.820 -30.662  1.00  0.00    -0.289 OA
ATOM      5  C   UNL     1      -0.700  19.763 -32.075  1.00  0.00     0.107 A 
ATOM      6  C   UNL     1      -1.690  19.467 -31.092  1.00  0.00     0.134 A 
ATOM      7  C   UNL     1      -2.925  18.942 -31.492  1.00  0.00     0.093 A 
ATOM      8  C   UNL     1      -3.183  18.645 -32.830  1.00  0.00     0.123 A 
ATOM      9  C   UNL     1      -2.202  18.881 -33.794  1.00  0.00     0.094 A 
ATOM     10  C   UNL     1      -0.972  19.436 -33.431  1.00  0.00     0.146 A 
ATOM     11  O   UNL     1      -0.069  19.658 -34.380  1.00  0.00    -0.456 OA
ENDROOT
BRANCH   1  12
ATOM     12  C   UNL     1       2.054  20.394 -35.285  1.00  0.00     0.021 A 
ATOM     13  C   UNL     1       3.414  20.039 -35.194  1.00  0.00     0.016 A 
ATOM     14  C   UNL     1       4.268  20.221 -36.285  1.00  0.00     0.051 A 
ATOM     15  C   UNL     1       3.780  20.752 -37.485  1.00  0.00     0.157 A 
ATOM     16  C   UNL     1       1.569  20.913 -36.499  1.00  0.00     0.062 A 
ATOM     17  C   UNL     1       2.423  21.097 -37.592  1.00  0.00     0.158 A 
BRANCH  15  18
ATOM     18  O   UNL     1       4.636  20.933 -38.571  1.00  0.00    -0.504 OA
ATOM     19  H   UNL     1       5.122  21.809 -38.723  1.00  0.00     0.293 HD
ENDBRANCH  15  18
BRANCH  17  20
ATOM     20  O   UNL     1       1.905  21.624 -38.775  1.00  0.00    -0.504 OA
ATOM     21  H   UNL     1       1.112  22.254 -38.781  1.00  0.00     0.293 HD
ENDBRANCH  17  20
ENDBRANCH   1  12
BRANCH   6  22
ATOM     22  O   UNL     1      -1.504  19.644 -29.718  1.00  0.00    -0.507 OA
ATOM     23  H   UNL     1      -0.693  19.340 -29.202  1.00  0.00     0.293 HD
ENDBRANCH   6  22
BRANCH   8  24
ATOM     24  O   UNL     1      -4.418  18.109 -33.190  1.00  0.00    -0.508 OA
ATOM     25  H   UNL     1      -4.782  18.204 -34.130  1.00  0.00     0.293 HD
ENDBRANCH   8  24
TORSDOF 5
ENDMDL
MODEL 9
REMARK VINA RESULT:    -6.759      2.834      7.831
REMARK INTER + INTRA:          -8.247
REMARK INTER:                  -7.953
REMARK INTRA:                  -0.295
REMARK UNBOUND:                -0.303
REMARK SMILES O=c1cc(-c2ccc(O)c(O)c2)oc2cc(O)cc(O)c12
REMARK SMILES IDX 4 1 3 2 2 3 1 4 21 5 19 6 18 7 16 8 15 9 14 10 13 11 5 12
REMARK SMILES IDX 6 13 7 14 8 15 12 16 10 17 9 18 11 20 20 22 17 24
REMARK H PARENT 9 19 11 21 20 23 17 25
REMARK Flexibility Score: inf
ROOT
ATOM      1  C   UNL     1       1.030  21.506 -39.348  1.00  0.00     0.138 A 
ATOM      2  C   UNL     1       2.394  21.796 -39.491  1.00  0.00     0.100 A 
ATOM      3  C   UNL     1       3.276  21.500 -38.451  1.00  0.00     0.197 A 
ATOM      4  O   UNL     1       4.483  21.828 -38.583  1.00  0.00    -0.289 OA
ATOM      5  C   UNL     1       2.792  20.882 -37.273  1.00  0.00     0.107 A 
ATOM      6  C   UNL     1       3.604  20.498 -36.164  1.00  0.00     0.134 A 
ATOM      7  C   UNL     1       2.997  20.000 -35.005  1.00  0.00     0.093 A 
ATOM      8  C   UNL     1       1.617  19.815 -34.935  1.00  0.00     0.123 A 
ATOM      9  C   UNL     1       0.818  20.137 -36.034  1.00  0.00     0.094 A 
ATOM     10  C   UNL     1       1.390  20.668 -37.192  1.00  0.00     0.146 A 
ATOM     11  O   UNL     1       0.593  20.975 -38.211  1.00  0.00    -0.456 OA
ENDROOT
BRANCH   1  12
ATOM     12  C   UNL     1       0.049  21.799 -40.424  1.00  0.00     0.021 A 
ATOM     13  C   UNL     1      -1.331  21.589 -40.243  1.00  0.00     0.016 A 
ATOM     14  C   UNL     1      -2.233  21.884 -41.270  1.00  0.00     0.051 A 
ATOM     15  C   UNL     1      -1.774  22.399 -42.488  1.00  0.00     0.157 A 
ATOM     16  C   UNL     1       0.500  22.331 -41.646  1.00  0.00     0.062 A 
ATOM     17  C   UNL     1      -0.401  22.625 -42.675  1.00  0.00     0.158 A 
BRANCH  15  18
ATOM     18  O   UNL     1      -2.677  22.690 -43.510  1.00  0.00    -0.504 OA
ATOM     19  H   UNL     1      -2.603  23.540 -44.057  1.00  0.00     0.293 HD
ENDBRANCH  15  18
BRANCH  17  20
ATOM     20  O   UNL     1       0.087  23.141 -43.875  1.00  0.00    -0.504 OA
ATOM     21  H   UNL     1       0.040  24.128 -44.096  1.00  0.00     0.293 HD
ENDBRANCH  17  20
ENDBRANCH   1  12
BRANCH   6  22
ATOM     22  O   UNL     1       5.000  20.561 -36.160  1.00  0.00    -0.507 OA
ATOM     23  H   UNL     1       5.580  20.441 -35.344  1.00  0.00     0.293 HD
ENDBRANCH   6  22
BRANCH   8  24
ATOM     24  O   UNL     1       1.049  19.302 -33.770  1.00  0.00    -0.508 OA
ATOM     25  H   UNL     1       0.390  19.840 -33.222  1.00  0.00     0.293 HD
ENDBRANCH   8  24
TORSDOF 5
ENDMDL
