MODEL 1
REMARK VINA RESULT:    -4.625      0.000      0.000
REMARK INTER + INTRA:         -15.224
REMARK INTER:                 -11.654
REMARK INTRA:                  -3.570
REMARK UNBOUND:                -3.570
REMARK SMILES CCCCCCCCCCCCCCCCCCCCCCCCCCCC(=O)[O-]
REMARK SMILES IDX 15 1 16 2 17 3 18 4 19 5 20 6 21 7 22 8 23 9 24 10 25 11
REMARK SMILES IDX 26 12 27 13 28 14 29 15 30 16 14 17 13 18 12 19 11 20 10 21
REMARK SMILES IDX 9 22 8 23 7 24 6 25 5 26 4 27 3 28 2 29 1 30
REMARK H PARENT
REMARK Flexibility Score: inf
ROOT
ATOM      1  C   UNL     1     -46.335 -50.810  40.975  1.00  0.00     0.000 C 
ENDROOT
BRANCH   1   2
ATOM      2  C   UNL     1     -45.910 -51.523  39.678  1.00  0.00     0.000 C 
BRANCH   2   3
ATOM      3  C   UNL     1     -46.916 -51.318  38.534  1.00  0.00     0.000 C 
BRANCH   3   4
ATOM      4  C   UNL     1     -46.436 -51.919  37.204  1.00  0.00     0.000 C 
BRANCH   4   5
ATOM      5  C   UNL     1     -44.933 -52.218  37.245  1.00  0.00     0.000 C 
BRANCH   5   6
ATOM      6  C   UNL     1     -44.157 -51.248  36.343  1.00  0.00     0.000 C 
BRANCH   6   7
ATOM      7  C   UNL     1     -44.871 -49.897  36.178  1.00  0.00     0.000 C 
BRANCH   7   8
ATOM      8  C   UNL     1     -44.126 -48.743  36.873  1.00  0.00     0.000 C 
BRANCH   8   9
ATOM      9  C   UNL     1     -44.936 -48.119  38.025  1.00  0.00     0.000 C 
BRANCH   9  10
ATOM     10  C   UNL     1     -44.302 -48.282  39.418  1.00  0.00     0.000 C 
BRANCH  10  11
ATOM     11  C   UNL     1     -43.136 -47.309  39.657  1.00  0.00     0.000 C 
BRANCH  11  12
ATOM     12  C   UNL     1     -43.550 -46.101  40.511  1.00  0.00     0.006 C 
BRANCH  12  13
ATOM     13  C   UNL     1     -42.475 -45.005  40.530  1.00  0.00     0.053 C 
BRANCH  13  14
ATOM     14  C   UNL     1     -41.792 -44.959  41.861  1.00  0.00     0.041 C 
ATOM     15  O   UNL     1     -41.716 -45.995  42.573  1.00  0.00    -0.550 OA
ATOM     16  O   UNL     1     -41.245 -43.767  42.322  1.00  0.00    -0.550 OA
ENDBRANCH  13  14
ENDBRANCH  12  13
ENDBRANCH  11  12
ENDBRANCH  10  11
ENDBRANCH   9  10
ENDBRANCH   8   9
ENDBRANCH   7   8
ENDBRANCH   6   7
ENDBRANCH   5   6
ENDBRANCH   4   5
ENDBRANCH   3   4
ENDBRANCH   2   3
ENDBRANCH   1   2
BRANCH   1  17
ATOM     17  C   UNL     1     -47.099 -51.737  41.935  1.00  0.00     0.000 C 
BRANCH  17  18
ATOM     18  C   UNL     1     -48.625 -51.630  41.775  1.00  0.00     0.000 C 
BRANCH  18  19
ATOM     19  C   UNL     1     -49.255 -52.920  41.222  1.00  0.00     0.000 C 
BRANCH  19  20
ATOM     20  C   UNL     1     -48.288 -54.117  41.119  1.00  0.00     0.000 C 
BRANCH  20  21
ATOM     21  C   UNL     1     -47.993 -54.598  39.683  1.00  0.00     0.000 C 
BRANCH  21  22
ATOM     22  C   UNL     1     -46.600 -55.218  39.475  1.00  0.00    -0.000 C 
BRANCH  22  23
ATOM     23  C   UNL     1     -46.632 -56.480  38.603  1.00  0.00    -0.000 C 
BRANCH  23  24
ATOM     24  C   UNL     1     -48.065 -57.008  38.450  1.00  0.00    -0.000 C 
BRANCH  24  25
ATOM     25  C   UNL     1     -48.124 -58.525  38.196  1.00  0.00    -0.000 C 
BRANCH  25  26
ATOM     26  C   UNL     1     -46.755 -59.224  38.097  1.00  0.00    -0.000 C 
BRANCH  26  27
ATOM     27  C   UNL     1     -46.483 -60.178  39.274  1.00  0.00    -0.000 C 
BRANCH  27  28
ATOM     28  C   UNL     1     -47.621 -60.180  40.308  1.00  0.00    -0.000 C 
BRANCH  28  29
ATOM     29  C   UNL     1     -47.250 -59.425  41.593  1.00  0.00    -0.003 C 
ATOM     30  C   UNL     1     -45.888 -58.751  41.460  1.00  0.00     0.004 C 
ENDBRANCH  28  29
ENDBRANCH  27  28
ENDBRANCH  26  27
ENDBRANCH  25  26
ENDBRANCH  24  25
ENDBRANCH  23  24
ENDBRANCH  22  23
ENDBRANCH  21  22
ENDBRANCH  20  21
ENDBRANCH  19  20
ENDBRANCH  18  19
ENDBRANCH  17  18
ENDBRANCH   1  17
TORSDOF 26
ENDMDL
MODEL 2
REMARK VINA RESULT:    -4.566      4.020     10.338
REMARK INTER + INTRA:         -15.075
REMARK INTER:                 -11.023
REMARK INTRA:                  -4.052
REMARK UNBOUND:                -3.570
REMARK SMILES CCCCCCCCCCCCCCCCCCCCCCCCCCCC(=O)[O-]
REMARK SMILES IDX 15 1 16 2 17 3 18 4 19 5 20 6 21 7 22 8 23 9 24 10 25 11
REMARK SMILES IDX 26 12 27 13 28 14 29 15 30 16 14 17 13 18 12 19 11 20 10 21
REMARK SMILES IDX 9 22 8 23 7 24 6 25 5 26 4 27 3 28 2 29 1 30
REMARK H PARENT
REMARK Flexibility Score: inf
ROOT
ATOM      1  C   UNL     1     -45.506 -51.422  36.940  1.00  0.00     0.000 C 
ENDROOT
BRANCH   1   2
ATOM      2  C   UNL     1     -46.175 -50.171  37.535  1.00  0.00     0.000 C 
BRANCH   2   3
ATOM      3  C   UNL     1     -46.597 -50.365  39.000  1.00  0.00     0.000 C 
BRANCH   3   4
ATOM      4  C   UNL     1     -45.464 -50.920  39.877  1.00  0.00     0.000 C 
BRANCH   4   5
ATOM      5  C   UNL     1     -46.000 -51.410  41.227  1.00  0.00     0.000 C 
BRANCH   5   6
ATOM      6  C   UNL     1     -47.483 -51.046  41.391  1.00  0.00     0.000 C 
BRANCH   6   7
ATOM      7  C   UNL     1     -48.286 -52.146  42.104  1.00  0.00     0.000 C 
BRANCH   7   8
ATOM      8  C   UNL     1     -48.250 -53.489  41.353  1.00  0.00     0.000 C 
BRANCH   8   9
ATOM      9  C   UNL     1     -48.813 -53.387  39.923  1.00  0.00     0.000 C 
BRANCH   9  10
ATOM     10  C   UNL     1     -47.807 -53.731  38.810  1.00  0.00     0.000 C 
BRANCH  10  11
ATOM     11  C   UNL     1     -46.835 -54.852  39.214  1.00  0.00     0.000 C 
BRANCH  11  12
ATOM     12  C   UNL     1     -47.020 -56.119  38.364  1.00  0.00     0.006 C 
BRANCH  12  13
ATOM     13  C   UNL     1     -48.182 -56.990  38.862  1.00  0.00     0.053 C 
BRANCH  13  14
ATOM     14  C   UNL     1     -47.666 -58.237  39.509  1.00  0.00     0.041 C 
ATOM     15  O   UNL     1     -46.991 -58.170  40.570  1.00  0.00    -0.550 OA
ATOM     16  O   UNL     1     -47.924 -59.478  38.935  1.00  0.00    -0.550 OA
ENDBRANCH  13  14
ENDBRANCH  12  13
ENDBRANCH  11  12
ENDBRANCH  10  11
ENDBRANCH   9  10
ENDBRANCH   8   9
ENDBRANCH   7   8
ENDBRANCH   6   7
ENDBRANCH   5   6
ENDBRANCH   4   5
ENDBRANCH   3   4
ENDBRANCH   2   3
ENDBRANCH   1   2
BRANCH   1  17
ATOM     17  C   UNL     1     -44.244 -51.088  36.128  1.00  0.00     0.000 C 
BRANCH  17  18
ATOM     18  C   UNL     1     -44.251 -49.648  35.586  1.00  0.00     0.000 C 
BRANCH  18  19
ATOM     19  C   UNL     1     -43.250 -49.443  34.435  1.00  0.00     0.000 C 
BRANCH  19  20
ATOM     20  C   UNL     1     -42.217 -48.324  34.671  1.00  0.00     0.000 C 
BRANCH  20  21
ATOM     21  C   UNL     1     -40.980 -48.738  35.493  1.00  0.00     0.000 C 
BRANCH  21  22
ATOM     22  C   UNL     1     -41.043 -48.385  36.990  1.00  0.00    -0.000 C 
BRANCH  22  23
ATOM     23  C   UNL     1     -41.324 -49.603  37.880  1.00  0.00    -0.000 C 
BRANCH  23  24
ATOM     24  C   UNL     1     -42.259 -49.234  39.040  1.00  0.00    -0.000 C 
BRANCH  24  25
ATOM     25  C   UNL     1     -43.233 -48.094  38.689  1.00  0.00    -0.000 C 
BRANCH  25  26
ATOM     26  C   UNL     1     -44.066 -47.561  39.870  1.00  0.00    -0.000 C 
BRANCH  26  27
ATOM     27  C   UNL     1     -43.885 -46.049  40.096  1.00  0.00    -0.000 C 
BRANCH  27  28
ATOM     28  C   UNL     1     -43.040 -45.736  41.341  1.00  0.00    -0.000 C 
BRANCH  28  29
ATOM     29  C   UNL     1     -41.894 -44.757  41.045  1.00  0.00    -0.003 C 
ATOM     30  C   UNL     1     -40.995 -44.580  42.264  1.00  0.00     0.004 C 
ENDBRANCH  28  29
ENDBRANCH  27  28
ENDBRANCH  26  27
ENDBRANCH  25  26
ENDBRANCH  24  25
ENDBRANCH  23  24
ENDBRANCH  22  23
ENDBRANCH  21  22
ENDBRANCH  20  21
ENDBRANCH  19  20
ENDBRANCH  18  19
ENDBRANCH  17  18
ENDBRANCH   1  17
TORSDOF 26
ENDMDL
MODEL 3
REMARK VINA RESULT:    -4.496      2.902      4.617
REMARK INTER + INTRA:         -14.900
REMARK INTER:                  -9.519
REMARK INTRA:                  -5.381
REMARK UNBOUND:                -3.570
REMARK SMILES CCCCCCCCCCCCCCCCCCCCCCCCCCCC(=O)[O-]
REMARK SMILES IDX 15 1 16 2 17 3 18 4 19 5 20 6 21 7 22 8 23 9 24 10 25 11
REMARK SMILES IDX 26 12 27 13 28 14 29 15 30 16 14 17 13 18 12 19 11 20 10 21
REMARK SMILES IDX 9 22 8 23 7 24 6 25 5 26 4 27 3 28 2 29 1 30
REMARK H PARENT
REMARK Flexibility Score: inf
ROOT
ATOM      1  C   UNL     1     -45.847 -54.167  42.278  1.00  0.00     0.000 C 
ENDROOT
BRANCH   1   2
ATOM      2  C   UNL     1     -45.007 -53.000  42.828  1.00  0.00     0.000 C 
BRANCH   2   3
ATOM      3  C   UNL     1     -43.971 -52.487  41.816  1.00  0.00     0.000 C 
BRANCH   3   4
ATOM      4  C   UNL     1     -43.968 -50.956  41.690  1.00  0.00     0.000 C 
BRANCH   4   5
ATOM      5  C   UNL     1     -43.719 -50.521  40.241  1.00  0.00     0.000 C 
BRANCH   5   6
ATOM      6  C   UNL     1     -42.900 -49.224  40.193  1.00  0.00     0.000 C 
BRANCH   6   7
ATOM      7  C   UNL     1     -43.623 -48.097  39.439  1.00  0.00     0.000 C 
BRANCH   7   8
ATOM      8  C   UNL     1     -45.102 -48.422  39.161  1.00  0.00     0.000 C 
BRANCH   8   9
ATOM      9  C   UNL     1     -45.467 -48.305  37.669  1.00  0.00     0.000 C 
BRANCH   9  10
ATOM     10  C   UNL     1     -45.683 -49.650  36.953  1.00  0.00     0.000 C 
BRANCH  10  11
ATOM     11  C   UNL     1     -44.461 -50.084  36.126  1.00  0.00     0.000 C 
BRANCH  11  12
ATOM     12  C   UNL     1     -43.536 -48.905  35.789  1.00  0.00     0.006 C 
BRANCH  12  13
ATOM     13  C   UNL     1     -42.094 -49.144  36.258  1.00  0.00     0.053 C 
BRANCH  13  14
ATOM     14  C   UNL     1     -41.173 -49.276  35.085  1.00  0.00     0.041 C 
ATOM     15  O   UNL     1     -40.609 -48.258  34.602  1.00  0.00    -0.550 OA
ATOM     16  O   UNL     1     -40.941 -50.524  34.517  1.00  0.00    -0.550 OA
ENDBRANCH  13  14
ENDBRANCH  12  13
ENDBRANCH  11  12
ENDBRANCH  10  11
ENDBRANCH   9  10
ENDBRANCH   8   9
ENDBRANCH   7   8
ENDBRANCH   6   7
ENDBRANCH   5   6
ENDBRANCH   4   5
ENDBRANCH   3   4
ENDBRANCH   2   3
ENDBRANCH   1   2
BRANCH   1  17
ATOM     17  C   UNL     1     -47.283 -54.171  42.826  1.00  0.00     0.000 C 
BRANCH  17  18
ATOM     18  C   UNL     1     -47.807 -52.757  43.129  1.00  0.00     0.000 C 
BRANCH  18  19
ATOM     19  C   UNL     1     -48.539 -52.126  41.931  1.00  0.00     0.000 C 
BRANCH  19  20
ATOM     20  C   UNL     1     -47.727 -51.062  41.167  1.00  0.00     0.000 C 
BRANCH  20  21
ATOM     21  C   UNL     1     -47.188 -51.513  39.793  1.00  0.00     0.000 C 
BRANCH  21  22
ATOM     22  C   UNL     1     -47.704 -52.879  39.307  1.00  0.00    -0.000 C 
BRANCH  22  23
ATOM     23  C   UNL     1     -47.122 -53.286  37.946  1.00  0.00    -0.000 C 
BRANCH  23  24
ATOM     24  C   UNL     1     -45.590 -53.193  37.952  1.00  0.00    -0.000 C 
BRANCH  24  25
ATOM     25  C   UNL     1     -44.921 -54.332  38.743  1.00  0.00    -0.000 C 
BRANCH  25  26
ATOM     26  C   UNL     1     -45.269 -55.754  38.261  1.00  0.00    -0.000 C 
BRANCH  26  27
ATOM     27  C   UNL     1     -45.668 -56.695  39.413  1.00  0.00    -0.000 C 
BRANCH  27  28
ATOM     28  C   UNL     1     -47.153 -56.571  39.790  1.00  0.00    -0.000 C 
BRANCH  28  29
ATOM     29  C   UNL     1     -48.088 -56.884  38.611  1.00  0.00    -0.003 C 
ATOM     30  C   UNL     1     -48.035 -58.365  38.249  1.00  0.00     0.004 C 
ENDBRANCH  28  29
ENDBRANCH  27  28
ENDBRANCH  26  27
ENDBRANCH  25  26
ENDBRANCH  24  25
ENDBRANCH  23  24
ENDBRANCH  22  23
ENDBRANCH  21  22
ENDBRANCH  20  21
ENDBRANCH  19  20
ENDBRANCH  18  19
ENDBRANCH  17  18
ENDBRANCH   1  17
TORSDOF 26
ENDMDL
MODEL 4
REMARK VINA RESULT:    -4.491      3.481      9.045
REMARK INTER + INTRA:         -14.886
REMARK INTER:                  -9.922
REMARK INTRA:                  -4.964
REMARK UNBOUND:                -3.570
REMARK SMILES CCCCCCCCCCCCCCCCCCCCCCCCCCCC(=O)[O-]
REMARK SMILES IDX 15 1 16 2 17 3 18 4 19 5 20 6 21 7 22 8 23 9 24 10 25 11
REMARK SMILES IDX 26 12 27 13 28 14 29 15 30 16 14 17 13 18 12 19 11 20 10 21
REMARK SMILES IDX 9 22 8 23 7 24 6 25 5 26 4 27 3 28 2 29 1 30
REMARK H PARENT
REMARK Flexibility Score: inf
ROOT
ATOM      1  C   UNL     1     -42.963 -47.685  39.642  1.00  0.00     0.000 C 
ENDROOT
BRANCH   1   2
ATOM      2  C   UNL     1     -44.488 -47.639  39.440  1.00  0.00     0.000 C 
BRANCH   2   3
ATOM      3  C   UNL     1     -45.006 -48.800  38.575  1.00  0.00     0.000 C 
BRANCH   3   4
ATOM      4  C   UNL     1     -45.301 -50.066  39.394  1.00  0.00     0.000 C 
BRANCH   4   5
ATOM      5  C   UNL     1     -46.707 -50.600  39.097  1.00  0.00     0.000 C 
BRANCH   5   6
ATOM      6  C   UNL     1     -46.883 -50.871  37.596  1.00  0.00     0.000 C 
BRANCH   6   7
ATOM      7  C   UNL     1     -47.109 -52.359  37.287  1.00  0.00     0.000 C 
BRANCH   7   8
ATOM      8  C   UNL     1     -45.821 -53.193  37.410  1.00  0.00     0.000 C 
BRANCH   8   9
ATOM      9  C   UNL     1     -45.894 -54.239  38.538  1.00  0.00     0.000 C 
BRANCH   9  10
ATOM     10  C   UNL     1     -47.139 -55.142  38.499  1.00  0.00     0.000 C 
BRANCH  10  11
ATOM     11  C   UNL     1     -47.722 -55.411  39.896  1.00  0.00     0.000 C 
BRANCH  11  12
ATOM     12  C   UNL     1     -47.536 -54.216  40.845  1.00  0.00     0.006 C 
BRANCH  12  13
ATOM     13  C   UNL     1     -48.746 -53.271  40.835  1.00  0.00     0.053 C 
BRANCH  13  14
ATOM     14  C   UNL     1     -48.600 -52.216  41.887  1.00  0.00     0.041 C 
ATOM     15  O   UNL     1     -47.974 -52.463  42.952  1.00  0.00    -0.550 OA
ATOM     16  O   UNL     1     -49.162 -50.959  41.695  1.00  0.00    -0.550 OA
ENDBRANCH  13  14
ENDBRANCH  12  13
ENDBRANCH  11  12
ENDBRANCH  10  11
ENDBRANCH   9  10
ENDBRANCH   8   9
ENDBRANCH   7   8
ENDBRANCH   6   7
ENDBRANCH   5   6
ENDBRANCH   4   5
ENDBRANCH   3   4
ENDBRANCH   2   3
ENDBRANCH   1   2
BRANCH   1  17
ATOM     17  C   UNL     1     -42.234 -48.374  38.477  1.00  0.00     0.000 C 
BRANCH  17  18
ATOM     18  C   UNL     1     -41.404 -49.588  38.930  1.00  0.00     0.000 C 
BRANCH  18  19
ATOM     19  C   UNL     1     -41.204 -50.621  37.808  1.00  0.00     0.000 C 
BRANCH  19  20
ATOM     20  C   UNL     1     -42.480 -51.379  37.393  1.00  0.00     0.000 C 
BRANCH  20  21
ATOM     21  C   UNL     1     -42.431 -52.026  35.994  1.00  0.00     0.000 C 
BRANCH  21  22
ATOM     22  C   UNL     1     -43.172 -51.252  34.889  1.00  0.00    -0.000 C 
BRANCH  22  23
ATOM     23  C   UNL     1     -44.096 -50.158  35.444  1.00  0.00    -0.000 C 
BRANCH  23  24
ATOM     24  C   UNL     1     -43.514 -48.762  35.183  1.00  0.00    -0.000 C 
BRANCH  24  25
ATOM     25  C   UNL     1     -42.257 -48.790  34.294  1.00  0.00    -0.000 C 
BRANCH  25  26
ATOM     26  C   UNL     1     -40.993 -48.183  34.931  1.00  0.00    -0.000 C 
BRANCH  26  27
ATOM     27  C   UNL     1     -39.710 -48.949  34.563  1.00  0.00    -0.000 C 
BRANCH  27  28
ATOM     28  C   UNL     1     -38.492 -48.491  35.382  1.00  0.00    -0.000 C 
BRANCH  28  29
ATOM     29  C   UNL     1     -38.887 -47.908  36.748  1.00  0.00    -0.003 C 
ATOM     30  C   UNL     1     -37.712 -47.948  37.720  1.00  0.00     0.004 C 
ENDBRANCH  28  29
ENDBRANCH  27  28
ENDBRANCH  26  27
ENDBRANCH  25  26
ENDBRANCH  24  25
ENDBRANCH  23  24
ENDBRANCH  22  23
ENDBRANCH  21  22
ENDBRANCH  20  21
ENDBRANCH  19  20
ENDBRANCH  18  19
ENDBRANCH  17  18
ENDBRANCH   1  17
TORSDOF 26
ENDMDL
MODEL 5
REMARK VINA RESULT:    -4.477      3.422      8.429
REMARK INTER + INTRA:         -14.852
REMARK INTER:                 -10.229
REMARK INTRA:                  -4.623
REMARK UNBOUND:                -3.570
REMARK SMILES CCCCCCCCCCCCCCCCCCCCCCCCCCCC(=O)[O-]
REMARK SMILES IDX 15 1 16 2 17 3 18 4 19 5 20 6 21 7 22 8 23 9 24 10 25 11
REMARK SMILES IDX 26 12 27 13 28 14 29 15 30 16 14 17 13 18 12 19 11 20 10 21
REMARK SMILES IDX 9 22 8 23 7 24 6 25 5 26 4 27 3 28 2 29 1 30
REMARK H PARENT
REMARK Flexibility Score: inf
ROOT
ATOM      1  C   UNL     1     -45.064 -51.512  41.070  1.00  0.00     0.000 C 
ENDROOT
BRANCH   1   2
ATOM      2  C   UNL     1     -46.193 -52.039  41.973  1.00  0.00     0.000 C 
BRANCH   2   3
ATOM      3  C   UNL     1     -47.557 -51.413  41.642  1.00  0.00     0.000 C 
BRANCH   3   4
ATOM      4  C   UNL     1     -48.693 -52.447  41.599  1.00  0.00     0.000 C 
BRANCH   4   5
ATOM      5  C   UNL     1     -48.297 -53.667  40.760  1.00  0.00     0.000 C 
BRANCH   5   6
ATOM      6  C   UNL     1     -48.328 -53.333  39.262  1.00  0.00     0.000 C 
BRANCH   6   7
ATOM      7  C   UNL     1     -47.198 -54.021  38.480  1.00  0.00     0.000 C 
BRANCH   7   8
ATOM      8  C   UNL     1     -46.545 -53.092  37.440  1.00  0.00     0.000 C 
BRANCH   8   9
ATOM      9  C   UNL     1     -47.213 -51.706  37.376  1.00  0.00     0.000 C 
BRANCH   9  10
ATOM     10  C   UNL     1     -46.399 -50.570  38.020  1.00  0.00     0.000 C 
BRANCH  10  11
ATOM     11  C   UNL     1     -46.711 -49.194  37.406  1.00  0.00     0.000 C 
BRANCH  11  12
ATOM     12  C   UNL     1     -45.609 -48.163  37.695  1.00  0.00     0.006 C 
BRANCH  12  13
ATOM     13  C   UNL     1     -44.634 -48.643  38.780  1.00  0.00     0.053 C 
BRANCH  13  14
ATOM     14  C   UNL     1     -43.927 -47.481  39.405  1.00  0.00     0.041 C 
ATOM     15  O   UNL     1     -42.670 -47.410  39.373  1.00  0.00    -0.550 OA
ATOM     16  O   UNL     1     -44.656 -46.477  40.033  1.00  0.00    -0.550 OA
ENDBRANCH  13  14
ENDBRANCH  12  13
ENDBRANCH  11  12
ENDBRANCH  10  11
ENDBRANCH   9  10
ENDBRANCH   8   9
ENDBRANCH   7   8
ENDBRANCH   6   7
ENDBRANCH   5   6
ENDBRANCH   4   5
ENDBRANCH   3   4
ENDBRANCH   2   3
ENDBRANCH   1   2
BRANCH   1  17
ATOM     17  C   UNL     1     -44.282 -52.642  40.380  1.00  0.00     0.000 C 
BRANCH  17  18
ATOM     18  C   UNL     1     -43.335 -52.126  39.284  1.00  0.00     0.000 C 
BRANCH  18  19
ATOM     19  C   UNL     1     -42.977 -53.210  38.252  1.00  0.00     0.000 C 
BRANCH  19  20
ATOM     20  C   UNL     1     -42.935 -52.722  36.791  1.00  0.00     0.000 C 
BRANCH  20  21
ATOM     21  C   UNL     1     -43.094 -51.198  36.606  1.00  0.00     0.000 C 
BRANCH  21  22
ATOM     22  C   UNL     1     -43.747 -50.767  35.280  1.00  0.00    -0.000 C 
BRANCH  22  23
ATOM     23  C   UNL     1     -43.463 -49.301  34.924  1.00  0.00    -0.000 C 
BRANCH  23  24
ATOM     24  C   UNL     1     -42.312 -48.741  35.772  1.00  0.00    -0.000 C 
BRANCH  24  25
ATOM     25  C   UNL     1     -41.128 -48.242  34.924  1.00  0.00    -0.000 C 
BRANCH  25  26
ATOM     26  C   UNL     1     -39.886 -49.153  34.937  1.00  0.00    -0.000 C 
BRANCH  26  27
ATOM     27  C   UNL     1     -38.571 -48.370  35.105  1.00  0.00    -0.000 C 
BRANCH  27  28
ATOM     28  C   UNL     1     -37.736 -48.334  33.815  1.00  0.00    -0.000 C 
BRANCH  28  29
ATOM     29  C   UNL     1     -36.226 -48.398  34.089  1.00  0.00    -0.003 C 
ATOM     30  C   UNL     1     -35.626 -46.998  34.182  1.00  0.00     0.004 C 
ENDBRANCH  28  29
ENDBRANCH  27  28
ENDBRANCH  26  27
ENDBRANCH  25  26
ENDBRANCH  24  25
ENDBRANCH  23  24
ENDBRANCH  22  23
ENDBRANCH  21  22
ENDBRANCH  20  21
ENDBRANCH  19  20
ENDBRANCH  18  19
ENDBRANCH  17  18
ENDBRANCH   1  17
TORSDOF 26
ENDMDL
MODEL 6
REMARK VINA RESULT:    -4.463      2.631      5.482
REMARK INTER + INTRA:         -14.818
REMARK INTER:                 -10.402
REMARK INTRA:                  -4.415
REMARK UNBOUND:                -3.570
REMARK SMILES CCCCCCCCCCCCCCCCCCCCCCCCCCCC(=O)[O-]
REMARK SMILES IDX 15 1 16 2 17 3 18 4 19 5 20 6 21 7 22 8 23 9 24 10 25 11
REMARK SMILES IDX 26 12 27 13 28 14 29 15 30 16 14 17 13 18 12 19 11 20 10 21
REMARK SMILES IDX 9 22 8 23 7 24 6 25 5 26 4 27 3 28 2 29 1 30
REMARK H PARENT
REMARK Flexibility Score: inf
ROOT
ATOM      1  C   UNL     1     -45.046 -50.143  36.546  1.00  0.00     0.000 C 
ENDROOT
BRANCH   1   2
ATOM      2  C   UNL     1     -43.920 -50.900  35.820  1.00  0.00     0.000 C 
BRANCH   2   3
ATOM      3  C   UNL     1     -43.485 -50.208  34.519  1.00  0.00     0.000 C 
BRANCH   3   4
ATOM      4  C   UNL     1     -43.033 -48.756  34.738  1.00  0.00     0.000 C 
BRANCH   4   5
ATOM      5  C   UNL     1     -41.510 -48.628  34.619  1.00  0.00     0.000 C 
BRANCH   5   6
ATOM      6  C   UNL     1     -40.883 -48.280  35.976  1.00  0.00     0.000 C 
BRANCH   6   7
ATOM      7  C   UNL     1     -40.470 -49.527  36.774  1.00  0.00     0.000 C 
BRANCH   7   8
ATOM      8  C   UNL     1     -40.946 -49.480  38.237  1.00  0.00     0.000 C 
BRANCH   8   9
ATOM      9  C   UNL     1     -42.251 -48.682  38.414  1.00  0.00     0.000 C 
BRANCH   9  10
ATOM     10  C   UNL     1     -42.167 -47.529  39.430  1.00  0.00     0.000 C 
BRANCH  10  11
ATOM     11  C   UNL     1     -43.549 -46.967  39.805  1.00  0.00     0.000 C 
BRANCH  11  12
ATOM     12  C   UNL     1     -43.470 -45.940  40.946  1.00  0.00     0.006 C 
BRANCH  12  13
ATOM     13  C   UNL     1     -42.466 -44.817  40.649  1.00  0.00     0.053 C 
BRANCH  13  14
ATOM     14  C   UNL     1     -41.471 -44.691  41.759  1.00  0.00     0.041 C 
ATOM     15  O   UNL     1     -40.833 -43.618  41.922  1.00  0.00    -0.550 OA
ATOM     16  O   UNL     1     -41.240 -45.764  42.613  1.00  0.00    -0.550 OA
ENDBRANCH  13  14
ENDBRANCH  12  13
ENDBRANCH  11  12
ENDBRANCH  10  11
ENDBRANCH   9  10
ENDBRANCH   8   9
ENDBRANCH   7   8
ENDBRANCH   6   7
ENDBRANCH   5   6
ENDBRANCH   4   5
ENDBRANCH   3   4
ENDBRANCH   2   3
ENDBRANCH   1   2
BRANCH   1  17
ATOM     17  C   UNL     1     -46.088 -51.089  37.167  1.00  0.00     0.000 C 
BRANCH  17  18
ATOM     18  C   UNL     1     -45.676 -52.568  37.076  1.00  0.00     0.000 C 
BRANCH  18  19
ATOM     19  C   UNL     1     -45.362 -53.181  38.452  1.00  0.00     0.000 C 
BRANCH  19  20
ATOM     20  C   UNL     1     -46.125 -54.483  38.768  1.00  0.00     0.000 C 
BRANCH  20  21
ATOM     21  C   UNL     1     -47.653 -54.409  38.571  1.00  0.00     0.000 C 
BRANCH  21  22
ATOM     22  C   UNL     1     -48.354 -53.266  39.328  1.00  0.00    -0.000 C 
BRANCH  22  23
ATOM     23  C   UNL     1     -48.667 -53.620  40.788  1.00  0.00    -0.000 C 
BRANCH  23  24
ATOM     24  C   UNL     1     -48.404 -52.423  41.713  1.00  0.00    -0.000 C 
BRANCH  24  25
ATOM     25  C   UNL     1     -47.513 -51.347  41.067  1.00  0.00    -0.000 C 
BRANCH  25  26
ATOM     26  C   UNL     1     -46.047 -51.343  41.540  1.00  0.00    -0.000 C 
BRANCH  26  27
ATOM     27  C   UNL     1     -45.155 -50.393  40.719  1.00  0.00    -0.000 C 
BRANCH  27  28
ATOM     28  C   UNL     1     -43.658 -50.600  40.998  1.00  0.00    -0.000 C 
BRANCH  28  29
ATOM     29  C   UNL     1     -43.208 -49.943  42.312  1.00  0.00    -0.003 C 
ATOM     30  C   UNL     1     -41.705 -49.679  42.305  1.00  0.00     0.004 C 
ENDBRANCH  28  29
ENDBRANCH  27  28
ENDBRANCH  26  27
ENDBRANCH  25  26
ENDBRANCH  24  25
ENDBRANCH  23  24
ENDBRANCH  22  23
ENDBRANCH  21  22
ENDBRANCH  20  21
ENDBRANCH  19  20
ENDBRANCH  18  19
ENDBRANCH  17  18
ENDBRANCH   1  17
TORSDOF 26
ENDMDL
MODEL 7
REMARK VINA RESULT:    -4.450      3.834      6.326
REMARK INTER + INTRA:         -14.784
REMARK INTER:                  -9.687
REMARK INTRA:                  -5.097
REMARK UNBOUND:                -3.570
REMARK SMILES CCCCCCCCCCCCCCCCCCCCCCCCCCCC(=O)[O-]
REMARK SMILES IDX 15 1 16 2 17 3 18 4 19 5 20 6 21 7 22 8 23 9 24 10 25 11
REMARK SMILES IDX 26 12 27 13 28 14 29 15 30 16 14 17 13 18 12 19 11 20 10 21
REMARK SMILES IDX 9 22 8 23 7 24 6 25 5 26 4 27 3 28 2 29 1 30
REMARK H PARENT
REMARK Flexibility Score: inf
ROOT
ATOM      1  C   UNL     1     -46.024 -50.445  36.870  1.00  0.00     0.000 C 
ENDROOT
BRANCH   1   2
ATOM      2  C   UNL     1     -46.450 -49.085  37.451  1.00  0.00     0.000 C 
BRANCH   2   3
ATOM      3  C   UNL     1     -45.252 -48.218  37.869  1.00  0.00     0.000 C 
BRANCH   3   4
ATOM      4  C   UNL     1     -44.785 -48.499  39.305  1.00  0.00     0.000 C 
BRANCH   4   5
ATOM      5  C   UNL     1     -43.340 -48.032  39.517  1.00  0.00     0.000 C 
BRANCH   5   6
ATOM      6  C   UNL     1     -42.522 -48.181  38.227  1.00  0.00     0.000 C 
BRANCH   6   7
ATOM      7  C   UNL     1     -42.018 -49.617  38.010  1.00  0.00     0.000 C 
BRANCH   7   8
ATOM      8  C   UNL     1     -40.846 -49.691  37.013  1.00  0.00     0.000 C 
BRANCH   8   9
ATOM      9  C   UNL     1     -40.713 -48.419  36.156  1.00  0.00     0.000 C 
BRANCH   9  10
ATOM     10  C   UNL     1     -41.231 -48.559  34.713  1.00  0.00     0.000 C 
BRANCH  10  11
ATOM     11  C   UNL     1     -42.756 -48.382  34.611  1.00  0.00     0.000 C 
BRANCH  11  12
ATOM     12  C   UNL     1     -43.473 -49.696  34.265  1.00  0.00     0.006 C 
BRANCH  12  13
ATOM     13  C   UNL     1     -42.500 -50.777  33.772  1.00  0.00     0.053 C 
BRANCH  13  14
ATOM     14  C   UNL     1     -42.786 -52.087  34.437  1.00  0.00     0.041 C 
ATOM     15  O   UNL     1     -42.703 -53.162  33.785  1.00  0.00    -0.550 OA
ATOM     16  O   UNL     1     -43.153 -52.123  35.777  1.00  0.00    -0.550 OA
ENDBRANCH  13  14
ENDBRANCH  12  13
ENDBRANCH  11  12
ENDBRANCH  10  11
ENDBRANCH   9  10
ENDBRANCH   8   9
ENDBRANCH   7   8
ENDBRANCH   6   7
ENDBRANCH   5   6
ENDBRANCH   4   5
ENDBRANCH   3   4
ENDBRANCH   2   3
ENDBRANCH   1   2
BRANCH   1  17
ATOM     17  C   UNL     1     -46.100 -51.580  37.905  1.00  0.00     0.000 C 
BRANCH  17  18
ATOM     18  C   UNL     1     -46.754 -52.853  37.343  1.00  0.00     0.000 C 
BRANCH  18  19
ATOM     19  C   UNL     1     -48.023 -53.257  38.113  1.00  0.00     0.000 C 
BRANCH  19  20
ATOM     20  C   UNL     1     -47.765 -53.884  39.498  1.00  0.00     0.000 C 
BRANCH  20  21
ATOM     21  C   UNL     1     -48.827 -53.563  40.570  1.00  0.00     0.000 C 
BRANCH  21  22
ATOM     22  C   UNL     1     -48.302 -52.807  41.803  1.00  0.00    -0.000 C 
BRANCH  22  23
ATOM     23  C   UNL     1     -48.313 -51.283  41.619  1.00  0.00    -0.000 C 
BRANCH  23  24
ATOM     24  C   UNL     1     -46.909 -50.759  41.284  1.00  0.00    -0.000 C 
BRANCH  24  25
ATOM     25  C   UNL     1     -45.794 -51.762  41.631  1.00  0.00    -0.000 C 
BRANCH  25  26
ATOM     26  C   UNL     1     -44.361 -51.205  41.532  1.00  0.00    -0.000 C 
BRANCH  26  27
ATOM     27  C   UNL     1     -43.497 -51.954  40.500  1.00  0.00    -0.000 C 
BRANCH  27  28
ATOM     28  C   UNL     1     -43.839 -53.450  40.418  1.00  0.00    -0.000 C 
BRANCH  28  29
ATOM     29  C   UNL     1     -43.577 -54.038  39.023  1.00  0.00    -0.003 C 
ATOM     30  C   UNL     1     -44.389 -55.311  38.804  1.00  0.00     0.004 C 
ENDBRANCH  28  29
ENDBRANCH  27  28
ENDBRANCH  26  27
ENDBRANCH  25  26
ENDBRANCH  24  25
ENDBRANCH  23  24
ENDBRANCH  22  23
ENDBRANCH  21  22
ENDBRANCH  20  21
ENDBRANCH  19  20
ENDBRANCH  18  19
ENDBRANCH  17  18
ENDBRANCH   1  17
TORSDOF 26
ENDMDL
MODEL 8
REMARK VINA RESULT:    -4.439      2.005      4.907
REMARK INTER + INTRA:         -14.756
REMARK INTER:                  -9.545
REMARK INTRA:                  -5.211
REMARK UNBOUND:                -3.570
REMARK SMILES CCCCCCCCCCCCCCCCCCCCCCCCCCCC(=O)[O-]
REMARK SMILES IDX 15 1 16 2 17 3 18 4 19 5 20 6 21 7 22 8 23 9 24 10 25 11
REMARK SMILES IDX 26 12 27 13 28 14 29 15 30 16 14 17 13 18 12 19 11 20 10 21
REMARK SMILES IDX 9 22 8 23 7 24 6 25 5 26 4 27 3 28 2 29 1 30
REMARK H PARENT
REMARK Flexibility Score: inf
ROOT
ATOM      1  C   UNL     1     -42.958 -53.282  40.052  1.00  0.00     0.000 C 
ENDROOT
BRANCH   1   2
ATOM      2  C   UNL     1     -42.237 -53.178  38.696  1.00  0.00     0.000 C 
BRANCH   2   3
ATOM      3  C   UNL     1     -42.970 -52.263  37.704  1.00  0.00     0.000 C 
BRANCH   3   4
ATOM      4  C   UNL     1     -43.211 -52.933  36.342  1.00  0.00     0.000 C 
BRANCH   4   5
ATOM      5  C   UNL     1     -42.439 -52.214  35.229  1.00  0.00     0.000 C 
BRANCH   5   6
ATOM      6  C   UNL     1     -43.338 -51.201  34.507  1.00  0.00     0.000 C 
BRANCH   6   7
ATOM      7  C   UNL     1     -42.600 -49.897  34.162  1.00  0.00     0.000 C 
BRANCH   7   8
ATOM      8  C   UNL     1     -42.966 -48.739  35.108  1.00  0.00     0.000 C 
BRANCH   8   9
ATOM      9  C   UNL     1     -44.146 -49.080  36.037  1.00  0.00     0.000 C 
BRANCH   9  10
ATOM     10  C   UNL     1     -44.026 -48.512  37.462  1.00  0.00     0.000 C 
BRANCH  10  11
ATOM     11  C   UNL     1     -42.654 -48.791  38.099  1.00  0.00     0.000 C 
BRANCH  11  12
ATOM     12  C   UNL     1     -42.269 -47.729  39.141  1.00  0.00     0.006 C 
BRANCH  12  13
ATOM     13  C   UNL     1     -43.421 -47.415  40.105  1.00  0.00     0.053 C 
BRANCH  13  14
ATOM     14  C   UNL     1     -43.470 -45.951  40.411  1.00  0.00     0.041 C 
ATOM     15  O   UNL     1     -42.404 -45.298  40.563  1.00  0.00    -0.550 OA
ATOM     16  O   UNL     1     -44.695 -45.306  40.537  1.00  0.00    -0.550 OA
ENDBRANCH  13  14
ENDBRANCH  12  13
ENDBRANCH  11  12
ENDBRANCH  10  11
ENDBRANCH   9  10
ENDBRANCH   8   9
ENDBRANCH   7   8
ENDBRANCH   6   7
ENDBRANCH   5   6
ENDBRANCH   4   5
ENDBRANCH   3   4
ENDBRANCH   2   3
ENDBRANCH   1   2
BRANCH   1  17
ATOM     17  C   UNL     1     -44.187 -54.205  39.998  1.00  0.00     0.000 C 
BRANCH  17  18
ATOM     18  C   UNL     1     -43.888 -55.551  39.317  1.00  0.00     0.000 C 
BRANCH  18  19
ATOM     19  C   UNL     1     -44.962 -55.945  38.287  1.00  0.00     0.000 C 
BRANCH  19  20
ATOM     20  C   UNL     1     -46.245 -56.548  38.891  1.00  0.00     0.000 C 
BRANCH  20  21
ATOM     21  C   UNL     1     -47.542 -55.773  38.578  1.00  0.00     0.000 C 
BRANCH  21  22
ATOM     22  C   UNL     1     -47.736 -54.474  39.381  1.00  0.00    -0.000 C 
BRANCH  22  23
ATOM     23  C   UNL     1     -48.016 -53.256  38.489  1.00  0.00    -0.000 C 
BRANCH  23  24
ATOM     24  C   UNL     1     -46.807 -52.935  37.600  1.00  0.00    -0.000 C 
BRANCH  24  25
ATOM     25  C   UNL     1     -46.515 -51.427  37.503  1.00  0.00    -0.000 C 
BRANCH  25  26
ATOM     26  C   UNL     1     -46.775 -50.627  38.794  1.00  0.00    -0.000 C 
BRANCH  26  27
ATOM     27  C   UNL     1     -45.620 -50.732  39.806  1.00  0.00    -0.000 C 
BRANCH  27  28
ATOM     28  C   UNL     1     -46.097 -51.149  41.206  1.00  0.00    -0.000 C 
BRANCH  28  29
ATOM     29  C   UNL     1     -47.615 -50.992  41.382  1.00  0.00    -0.003 C 
ATOM     30  C   UNL     1     -48.176 -52.076  42.298  1.00  0.00     0.004 C 
ENDBRANCH  28  29
ENDBRANCH  27  28
ENDBRANCH  26  27
ENDBRANCH  25  26
ENDBRANCH  24  25
ENDBRANCH  23  24
ENDBRANCH  22  23
ENDBRANCH  21  22
ENDBRANCH  20  21
ENDBRANCH  19  20
ENDBRANCH  18  19
ENDBRANCH  17  18
ENDBRANCH   1  17
TORSDOF 26
ENDMDL
MODEL 9
REMARK VINA RESULT:    -4.371      3.027      7.133
REMARK INTER + INTRA:         -14.585
REMARK INTER:                  -8.859
REMARK INTRA:                  -5.726
REMARK UNBOUND:                -3.570
REMARK SMILES CCCCCCCCCCCCCCCCCCCCCCCCCCCC(=O)[O-]
REMARK SMILES IDX 15 1 16 2 17 3 18 4 19 5 20 6 21 7 22 8 23 9 24 10 25 11
REMARK SMILES IDX 26 12 27 13 28 14 29 15 30 16 14 17 13 18 12 19 11 20 10 21
REMARK SMILES IDX 9 22 8 23 7 24 6 25 5 26 4 27 3 28 2 29 1 30
REMARK H PARENT
REMARK Flexibility Score: inf
ROOT
ATOM      1  C   UNL     1     -47.161 -54.189  38.280  1.00  0.00     0.000 C 
ENDROOT
BRANCH   1   2
ATOM      2  C   UNL     1     -48.345 -53.631  39.090  1.00  0.00     0.000 C 
BRANCH   2   3
ATOM      3  C   UNL     1     -48.090 -53.658  40.605  1.00  0.00     0.000 C 
BRANCH   3   4
ATOM      4  C   UNL     1     -48.815 -52.528  41.351  1.00  0.00     0.000 C 
BRANCH   4   5
ATOM      5  C   UNL     1     -47.874 -51.346  41.612  1.00  0.00     0.000 C 
BRANCH   5   6
ATOM      6  C   UNL     1     -46.406 -51.788  41.531  1.00  0.00     0.000 C 
BRANCH   6   7
ATOM      7  C   UNL     1     -45.646 -51.107  40.382  1.00  0.00     0.000 C 
BRANCH   7   8
ATOM      8  C   UNL     1     -46.539 -50.161  39.558  1.00  0.00     0.000 C 
BRANCH   8   9
ATOM      9  C   UNL     1     -46.651 -50.585  38.081  1.00  0.00     0.000 C 
BRANCH   9  10
ATOM     10  C   UNL     1     -45.978 -49.625  37.084  1.00  0.00     0.000 C 
BRANCH  10  11
ATOM     11  C   UNL     1     -45.373 -48.387  37.768  1.00  0.00     0.000 C 
BRANCH  11  12
ATOM     12  C   UNL     1     -43.845 -48.482  37.897  1.00  0.00     0.006 C 
BRANCH  12  13
ATOM     13  C   UNL     1     -43.336 -47.896  39.222  1.00  0.00     0.053 C 
BRANCH  13  14
ATOM     14  C   UNL     1     -42.525 -48.909  39.969  1.00  0.00     0.041 C 
ATOM     15  O   UNL     1     -41.559 -49.490  39.407  1.00  0.00    -0.550 OA
ATOM     16  O   UNL     1     -42.841 -49.219  41.287  1.00  0.00    -0.550 OA
ENDBRANCH  13  14
ENDBRANCH  12  13
ENDBRANCH  11  12
ENDBRANCH  10  11
ENDBRANCH   9  10
ENDBRANCH   8   9
ENDBRANCH   7   8
ENDBRANCH   6   7
ENDBRANCH   5   6
ENDBRANCH   4   5
ENDBRANCH   3   4
ENDBRANCH   2   3
ENDBRANCH   1   2
BRANCH   1  17
ATOM     17  C   UNL     1     -45.977 -54.598  39.171  1.00  0.00     0.000 C 
BRANCH  17  18
ATOM     18  C   UNL     1     -44.617 -54.211  38.565  1.00  0.00     0.000 C 
BRANCH  18  19
ATOM     19  C   UNL     1     -44.662 -54.102  37.031  1.00  0.00     0.000 C 
BRANCH  19  20
ATOM     20  C   UNL     1     -44.162 -52.758  36.465  1.00  0.00     0.000 C 
BRANCH  20  21
ATOM     21  C   UNL     1     -43.143 -52.013  37.352  1.00  0.00     0.000 C 
BRANCH  21  22
ATOM     22  C   UNL     1     -41.667 -52.357  37.081  1.00  0.00    -0.000 C 
BRANCH  22  23
ATOM     23  C   UNL     1     -41.432 -52.901  35.665  1.00  0.00    -0.000 C 
BRANCH  23  24
ATOM     24  C   UNL     1     -40.492 -51.982  34.871  1.00  0.00    -0.000 C 
BRANCH  24  25
ATOM     25  C   UNL     1     -40.995 -51.697  33.444  1.00  0.00    -0.000 C 
BRANCH  25  26
ATOM     26  C   UNL     1     -42.519 -51.813  33.253  1.00  0.00    -0.000 C 
BRANCH  26  27
ATOM     27  C   UNL     1     -43.204 -50.448  33.059  1.00  0.00    -0.000 C 
BRANCH  27  28
ATOM     28  C   UNL     1     -43.392 -49.687  34.381  1.00  0.00    -0.000 C 
BRANCH  28  29
ATOM     29  C   UNL     1     -42.722 -48.304  34.365  1.00  0.00    -0.003 C 
ATOM     30  C   UNL     1     -41.344 -48.355  35.017  1.00  0.00     0.004 C 
ENDBRANCH  28  29
ENDBRANCH  27  28
ENDBRANCH  26  27
ENDBRANCH  25  26
ENDBRANCH  24  25
ENDBRANCH  23  24
ENDBRANCH  22  23
ENDBRANCH  21  22
ENDBRANCH  20  21
ENDBRANCH  19  20
ENDBRANCH  18  19
ENDBRANCH  17  18
ENDBRANCH   1  17
TORSDOF 26
ENDMDL
