MODEL 1
REMARK VINA RESULT:    -6.137      0.000      0.000
REMARK INTER + INTRA:          -7.708
REMARK INTER:                  -7.393
REMARK INTRA:                  -0.315
REMARK UNBOUND:                -0.315
REMARK SMILES Oc1cc(O)c2c(c1)O[C@@H](c1ccc(O)c(O)c1)[C@H](O)C2
REMARK SMILES IDX 21 1 19 2 10 3 9 4 7 5 8 6 2 7 3 8 4 9 6 10 20 11 11 13
REMARK SMILES IDX 18 14 12 15 16 16 13 17 14 18 17 19 15 21 5 23 1 25
REMARK H PARENT 20 12 17 20 15 22 5 24 1 26
REMARK Flexibility Score: inf
ROOT
ATOM      1  C   UNL     1     -31.402  20.514 -43.803  1.00  0.00     0.079 C 
ATOM      2  C   UNL     1     -31.908  19.192 -43.195  1.00  0.00     0.164 C 
ATOM      3  C   UNL     1     -31.073  18.017 -43.731  1.00  0.00     0.232 C 
ATOM      4  O   UNL     1     -29.691  18.236 -43.446  1.00  0.00    -0.482 OA
ATOM      5  C   UNL     1     -29.102  19.501 -43.535  1.00  0.00     0.131 A 
ATOM      6  C   UNL     1     -27.712  19.611 -43.429  1.00  0.00     0.093 A 
ATOM      7  C   UNL     1     -27.094  20.858 -43.530  1.00  0.00     0.122 A 
ATOM      8  C   UNL     1     -27.868  22.002 -43.750  1.00  0.00     0.092 A 
ATOM      9  C   UNL     1     -29.261  21.912 -43.860  1.00  0.00     0.126 A 
ATOM     10  C   UNL     1     -29.896  20.655 -43.714  1.00  0.00     0.039 A 
ENDROOT
BRANCH   2  11
ATOM     11  O   UNL     1     -33.260  19.004 -43.528  1.00  0.00    -0.389 OA
ATOM     12  H   UNL     1     -33.632  19.902 -43.728  1.00  0.00     0.211 HD
ENDBRANCH   2  11
BRANCH   3  13
ATOM     13  C   UNL     1     -31.516  16.709 -43.119  1.00  0.00    -0.001 A 
ATOM     14  C   UNL     1     -31.711  16.605 -41.732  1.00  0.00     0.057 A 
ATOM     15  C   UNL     1     -31.691  15.569 -43.922  1.00  0.00     0.012 A 
ATOM     16  C   UNL     1     -32.095  15.386 -41.155  1.00  0.00     0.157 A 
ATOM     17  C   UNL     1     -32.074  14.354 -43.349  1.00  0.00     0.050 A 
ATOM     18  C   UNL     1     -32.279  14.256 -41.969  1.00  0.00     0.157 A 
BRANCH  16  19
ATOM     19  O   UNL     1     -32.292  15.295 -39.778  1.00  0.00    -0.504 OA
ATOM     20  H   UNL     1     -31.715  14.697 -39.196  1.00  0.00     0.293 HD
ENDBRANCH  16  19
BRANCH  18  21
ATOM     21  O   UNL     1     -32.663  13.030 -41.426  1.00  0.00    -0.504 OA
ATOM     22  H   UNL     1     -33.433  12.949 -40.774  1.00  0.00     0.293 HD
ENDBRANCH  18  21
ENDBRANCH   3  13
BRANCH   9  23
ATOM     23  O   UNL     1     -29.977  23.081 -44.125  1.00  0.00    -0.507 OA
ATOM     24  H   UNL     1     -30.799  23.109 -44.714  1.00  0.00     0.293 HD
ENDBRANCH   9  23
BRANCH   7  25
ATOM     25  O   UNL     1     -25.708  20.949 -43.418  1.00  0.00    -0.508 OA
ATOM     26  H   UNL     1     -25.150  20.164 -43.101  1.00  0.00     0.293 HD
ENDBRANCH   7  25
TORSDOF 6
ENDMDL
MODEL 2
REMARK VINA RESULT:    -5.581      2.793      4.983
REMARK INTER + INTRA:          -7.038
REMARK INTER:                  -6.849
REMARK INTRA:                  -0.189
REMARK UNBOUND:                -0.315
REMARK SMILES Oc1cc(O)c2c(c1)O[C@@H](c1ccc(O)c(O)c1)[C@H](O)C2
REMARK SMILES IDX 21 1 19 2 10 3 9 4 7 5 8 6 2 7 3 8 4 9 6 10 20 11 11 13
REMARK SMILES IDX 18 14 12 15 16 16 13 17 14 18 17 19 15 21 5 23 1 25
REMARK H PARENT 20 12 17 20 15 22 5 24 1 26
REMARK Flexibility Score: inf
ROOT
ATOM      1  C   UNL     1     -25.742  18.076 -43.763  1.00  0.00     0.079 C 
ATOM      2  C   UNL     1     -27.276  18.213 -43.771  1.00  0.00     0.164 C 
ATOM      3  C   UNL     1     -27.769  18.642 -42.378  1.00  0.00     0.232 C 
ATOM      4  O   UNL     1     -27.129  19.859 -41.992  1.00  0.00    -0.482 OA
ATOM      5  C   UNL     1     -25.786  20.118 -42.275  1.00  0.00     0.131 A 
ATOM      6  C   UNL     1     -25.176  21.240 -41.706  1.00  0.00     0.093 A 
ATOM      7  C   UNL     1     -23.832  21.516 -41.957  1.00  0.00     0.122 A 
ATOM      8  C   UNL     1     -23.087  20.660 -42.776  1.00  0.00     0.092 A 
ATOM      9  C   UNL     1     -23.680  19.531 -43.354  1.00  0.00     0.126 A 
ATOM     10  C   UNL     1     -25.054  19.271 -43.138  1.00  0.00     0.039 A 
ENDROOT
BRANCH   2  11
ATOM     11  O   UNL     1     -27.861  16.986 -44.123  1.00  0.00    -0.389 OA
ATOM     12  H   UNL     1     -27.116  16.353 -44.295  1.00  0.00     0.211 HD
ENDBRANCH   2  11
BRANCH   3  13
ATOM     13  C   UNL     1     -29.268  18.829 -42.364  1.00  0.00    -0.001 A 
ATOM     14  C   UNL     1     -29.826  20.099 -42.590  1.00  0.00     0.057 A 
ATOM     15  C   UNL     1     -30.119  17.749 -42.076  1.00  0.00     0.012 A 
ATOM     16  C   UNL     1     -31.215  20.284 -42.550  1.00  0.00     0.157 A 
ATOM     17  C   UNL     1     -31.504  17.932 -42.036  1.00  0.00     0.050 A 
ATOM     18  C   UNL     1     -32.057  19.195 -42.273  1.00  0.00     0.157 A 
BRANCH  16  19
ATOM     19  O   UNL     1     -31.760  21.547 -42.782  1.00  0.00    -0.504 OA
ATOM     20  H   UNL     1     -31.181  22.334 -43.051  1.00  0.00     0.293 HD
ENDBRANCH  16  19
BRANCH  18  21
ATOM     21  O   UNL     1     -33.443  19.346 -42.228  1.00  0.00    -0.504 OA
ATOM     22  H   UNL     1     -34.058  18.589 -41.955  1.00  0.00     0.293 HD
ENDBRANCH  18  21
ENDBRANCH   3  13
BRANCH   9  23
ATOM     23  O   UNL     1     -22.875  18.689 -44.125  1.00  0.00    -0.507 OA
ATOM     24  H   UNL     1     -22.502  18.950 -45.028  1.00  0.00     0.293 HD
ENDBRANCH   9  23
BRANCH   7  25
ATOM     25  O   UNL     1     -23.242  22.640 -41.383  1.00  0.00    -0.508 OA
ATOM     26  H   UNL     1     -23.793  23.447 -41.111  1.00  0.00     0.293 HD
ENDBRANCH   7  25
TORSDOF 6
ENDMDL
MODEL 3
REMARK VINA RESULT:    -5.023      2.405      4.540
REMARK INTER + INTRA:          -6.365
REMARK INTER:                  -6.580
REMARK INTRA:                   0.214
REMARK UNBOUND:                -0.315
REMARK SMILES Oc1cc(O)c2c(c1)O[C@@H](c1ccc(O)c(O)c1)[C@H](O)C2
REMARK SMILES IDX 21 1 19 2 10 3 9 4 7 5 8 6 2 7 3 8 4 9 6 10 20 11 11 13
REMARK SMILES IDX 18 14 12 15 16 16 13 17 14 18 17 19 15 21 5 23 1 25
REMARK H PARENT 20 12 17 20 15 22 5 24 1 26
REMARK Flexibility Score: inf
ROOT
ATOM      1  C   UNL     1     -26.323  21.621 -43.820  1.00  0.00     0.079 C 
ATOM      2  C   UNL     1     -27.709  21.287 -43.236  1.00  0.00     0.164 C 
ATOM      3  C   UNL     1     -28.244  19.992 -43.868  1.00  0.00     0.232 C 
ATOM      4  O   UNL     1     -27.312  18.930 -43.660  1.00  0.00    -0.482 OA
ATOM      5  C   UNL     1     -25.930  19.126 -43.734  1.00  0.00     0.131 A 
ATOM      6  C   UNL     1     -25.085  18.013 -43.708  1.00  0.00     0.093 A 
ATOM      7  C   UNL     1     -23.702  18.175 -43.796  1.00  0.00     0.122 A 
ATOM      8  C   UNL     1     -23.159  19.458 -43.923  1.00  0.00     0.092 A 
ATOM      9  C   UNL     1     -23.989  20.585 -43.952  1.00  0.00     0.126 A 
ATOM     10  C   UNL     1     -25.389  20.428 -43.818  1.00  0.00     0.039 A 
ENDROOT
BRANCH   2  11
ATOM     11  O   UNL     1     -28.599  22.343 -43.494  1.00  0.00    -0.389 OA
ATOM     12  H   UNL     1     -28.088  23.032 -43.994  1.00  0.00     0.211 HD
ENDBRANCH   2  11
BRANCH   3  13
ATOM     13  C   UNL     1     -29.584  19.612 -43.284  1.00  0.00    -0.001 A 
ATOM     14  C   UNL     1     -29.773  18.345 -42.709  1.00  0.00     0.057 A 
ATOM     15  C   UNL     1     -30.670  20.502 -43.352  1.00  0.00     0.012 A 
ATOM     16  C   UNL     1     -31.024  17.976 -42.190  1.00  0.00     0.157 A 
ATOM     17  C   UNL     1     -31.916  20.137 -42.835  1.00  0.00     0.050 A 
ATOM     18  C   UNL     1     -32.098  18.879 -42.252  1.00  0.00     0.157 A 
BRANCH  16  19
ATOM     19  O   UNL     1     -31.200  16.718 -41.616  1.00  0.00    -0.504 OA
ATOM     20  H   UNL     1     -31.244  15.878 -42.180  1.00  0.00     0.293 HD
ENDBRANCH  16  19
BRANCH  18  21
ATOM     21  O   UNL     1     -33.353  18.543 -41.743  1.00  0.00    -0.504 OA
ATOM     22  H   UNL     1     -33.528  18.476 -40.748  1.00  0.00     0.293 HD
ENDBRANCH  18  21
ENDBRANCH   3  13
BRANCH   9  23
ATOM     23  O   UNL     1     -23.393  21.836 -44.125  1.00  0.00    -0.507 OA
ATOM     24  H   UNL     1     -23.736  22.530 -44.776  1.00  0.00     0.293 HD
ENDBRANCH   9  23
BRANCH   7  25
ATOM     25  O   UNL     1     -22.875  17.053 -43.766  1.00  0.00    -0.508 OA
ATOM     26  H   UNL     1     -22.924  16.339 -44.484  1.00  0.00     0.293 HD
ENDBRANCH   7  25
TORSDOF 6
ENDMDL
MODEL 4
REMARK VINA RESULT:    -4.738      1.373      2.854
REMARK INTER + INTRA:          -6.022
REMARK INTER:                  -5.698
REMARK INTRA:                  -0.324
REMARK UNBOUND:                -0.315
REMARK SMILES Oc1cc(O)c2c(c1)O[C@@H](c1ccc(O)c(O)c1)[C@H](O)C2
REMARK SMILES IDX 21 1 19 2 10 3 9 4 7 5 8 6 2 7 3 8 4 9 6 10 20 11 11 13
REMARK SMILES IDX 18 14 12 15 16 16 13 17 14 18 17 19 15 21 5 23 1 25
REMARK H PARENT 20 12 17 20 15 22 5 24 1 26
REMARK Flexibility Score: inf
ROOT
ATOM      1  C   UNL     1     -28.330  19.883 -43.437  1.00  0.00     0.079 C 
ATOM      2  C   UNL     1     -29.066  18.531 -43.498  1.00  0.00     0.164 C 
ATOM      3  C   UNL     1     -30.296  18.565 -42.575  1.00  0.00     0.232 C 
ATOM      4  O   UNL     1     -31.148  19.650 -42.943  1.00  0.00    -0.482 OA
ATOM      5  C   UNL     1     -30.645  20.891 -43.343  1.00  0.00     0.131 A 
ATOM      6  C   UNL     1     -31.530  21.961 -43.506  1.00  0.00     0.093 A 
ATOM      7  C   UNL     1     -31.056  23.216 -43.889  1.00  0.00     0.122 A 
ATOM      8  C   UNL     1     -29.686  23.407 -44.101  1.00  0.00     0.092 A 
ATOM      9  C   UNL     1     -28.785  22.348 -43.942  1.00  0.00     0.126 A 
ATOM     10  C   UNL     1     -29.266  21.062 -43.596  1.00  0.00     0.039 A 
ENDROOT
BRANCH   2  11
ATOM     11  O   UNL     1     -28.200  17.501 -43.096  1.00  0.00    -0.389 OA
ATOM     12  H   UNL     1     -27.643  17.866 -42.361  1.00  0.00     0.211 HD
ENDBRANCH   2  11
BRANCH   3  13
ATOM     13  C   UNL     1     -31.066  17.267 -42.645  1.00  0.00    -0.001 A 
ATOM     14  C   UNL     1     -31.417  16.586 -41.467  1.00  0.00     0.057 A 
ATOM     15  C   UNL     1     -31.399  16.701 -43.887  1.00  0.00     0.012 A 
ATOM     16  C   UNL     1     -32.108  15.367 -41.527  1.00  0.00     0.157 A 
ATOM     17  C   UNL     1     -32.088  15.487 -43.949  1.00  0.00     0.050 A 
ATOM     18  C   UNL     1     -32.446  14.817 -42.775  1.00  0.00     0.157 A 
BRANCH  16  19
ATOM     19  O   UNL     1     -32.456  14.702 -40.353  1.00  0.00    -0.504 OA
ATOM     20  H   UNL     1     -32.944  15.173 -39.599  1.00  0.00     0.293 HD
ENDBRANCH  16  19
BRANCH  18  21
ATOM     21  O   UNL     1     -33.134  13.608 -42.868  1.00  0.00    -0.504 OA
ATOM     22  H   UNL     1     -33.725  13.267 -42.119  1.00  0.00     0.293 HD
ENDBRANCH  18  21
ENDBRANCH   3  13
BRANCH   9  23
ATOM     23  O   UNL     1     -27.425  22.610 -44.123  1.00  0.00    -0.507 OA
ATOM     24  H   UNL     1     -26.991  23.491 -43.880  1.00  0.00     0.293 HD
ENDBRANCH   9  23
BRANCH   7  25
ATOM     25  O   UNL     1     -31.953  24.270 -44.049  1.00  0.00    -0.508 OA
ATOM     26  H   UNL     1     -32.186  24.633 -44.966  1.00  0.00     0.293 HD
ENDBRANCH   7  25
TORSDOF 6
ENDMDL
MODEL 5
REMARK VINA RESULT:    -4.463      3.206      6.045
REMARK INTER + INTRA:          -5.691
REMARK INTER:                  -5.672
REMARK INTRA:                  -0.019
REMARK UNBOUND:                -0.315
REMARK SMILES Oc1cc(O)c2c(c1)O[C@@H](c1ccc(O)c(O)c1)[C@H](O)C2
REMARK SMILES IDX 21 1 19 2 10 3 9 4 7 5 8 6 2 7 3 8 4 9 6 10 20 11 11 13
REMARK SMILES IDX 18 14 12 15 16 16 13 17 14 18 17 19 15 21 5 23 1 25
REMARK H PARENT 20 12 17 20 15 22 5 24 1 26
REMARK Flexibility Score: inf
ROOT
ATOM      1  C   UNL     1     -30.404  19.339 -41.939  1.00  0.00     0.079 C 
ATOM      2  C   UNL     1     -28.919  18.947 -42.055  1.00  0.00     0.164 C 
ATOM      3  C   UNL     1     -28.418  19.217 -43.484  1.00  0.00     0.232 C 
ATOM      4  O   UNL     1     -28.632  20.588 -43.821  1.00  0.00    -0.482 OA
ATOM      5  C   UNL     1     -29.781  21.281 -43.432  1.00  0.00     0.131 A 
ATOM      6  C   UNL     1     -30.013  22.557 -43.953  1.00  0.00     0.093 A 
ATOM      7  C   UNL     1     -31.159  23.268 -43.596  1.00  0.00     0.122 A 
ATOM      8  C   UNL     1     -32.087  22.696 -42.718  1.00  0.00     0.092 A 
ATOM      9  C   UNL     1     -31.872  21.419 -42.185  1.00  0.00     0.126 A 
ATOM     10  C   UNL     1     -30.689  20.713 -42.511  1.00  0.00     0.039 A 
ENDROOT
BRANCH   2  11
ATOM     11  O   UNL     1     -28.763  17.585 -41.747  1.00  0.00    -0.389 OA
ATOM     12  H   UNL     1     -28.302  17.543 -40.869  1.00  0.00     0.211 HD
ENDBRANCH   2  11
BRANCH   3  13
ATOM     13  C   UNL     1     -26.951  18.884 -43.620  1.00  0.00    -0.001 A 
ATOM     14  C   UNL     1     -25.997  19.910 -43.723  1.00  0.00     0.057 A 
ATOM     15  C   UNL     1     -26.526  17.546 -43.693  1.00  0.00     0.012 A 
ATOM     16  C   UNL     1     -24.637  19.607 -43.877  1.00  0.00     0.157 A 
ATOM     17  C   UNL     1     -25.171  17.242 -43.846  1.00  0.00     0.050 A 
ATOM     18  C   UNL     1     -24.223  18.266 -43.937  1.00  0.00     0.157 A 
BRANCH  16  19
ATOM     19  O   UNL     1     -23.698  20.633 -43.973  1.00  0.00    -0.504 OA
ATOM     20  H   UNL     1     -23.674  21.396 -43.306  1.00  0.00     0.293 HD
ENDBRANCH  16  19
BRANCH  18  21
ATOM     21  O   UNL     1     -22.877  17.932 -44.088  1.00  0.00    -0.504 OA
ATOM     22  H   UNL     1     -22.143  18.628 -44.047  1.00  0.00     0.293 HD
ENDBRANCH  18  21
ENDBRANCH   3  13
BRANCH   9  23
ATOM     23  O   UNL     1     -32.854  20.882 -41.350  1.00  0.00    -0.507 OA
ATOM     24  H   UNL     1     -32.671  20.147 -40.679  1.00  0.00     0.293 HD
ENDBRANCH   9  23
BRANCH   7  25
ATOM     25  O   UNL     1     -31.372  24.539 -44.124  1.00  0.00    -0.508 OA
ATOM     26  H   UNL     1     -31.020  24.799 -45.038  1.00  0.00     0.293 HD
ENDBRANCH   7  25
TORSDOF 6
ENDMDL
MODEL 6
REMARK VINA RESULT:    -3.631      2.021      6.605
REMARK INTER + INTRA:          -4.688
REMARK INTER:                  -4.612
REMARK INTRA:                  -0.076
REMARK UNBOUND:                -0.315
REMARK SMILES Oc1cc(O)c2c(c1)O[C@@H](c1ccc(O)c(O)c1)[C@H](O)C2
REMARK SMILES IDX 21 1 19 2 10 3 9 4 7 5 8 6 2 7 3 8 4 9 6 10 20 11 11 13
REMARK SMILES IDX 18 14 12 15 16 16 13 17 14 18 17 19 15 21 5 23 1 25
REMARK H PARENT 20 12 17 20 15 22 5 24 1 26
REMARK Flexibility Score: inf
ROOT
ATOM      1  C   UNL     1     -30.480  20.315 -42.716  1.00  0.00     0.079 C 
ATOM      2  C   UNL     1     -29.033  20.161 -43.220  1.00  0.00     0.164 C 
ATOM      3  C   UNL     1     -28.203  19.370 -42.195  1.00  0.00     0.232 C 
ATOM      4  O   UNL     1     -28.817  18.105 -41.949  1.00  0.00    -0.482 OA
ATOM      5  C   UNL     1     -30.204  17.950 -41.868  1.00  0.00     0.131 A 
ATOM      6  C   UNL     1     -30.727  16.727 -41.439  1.00  0.00     0.093 A 
ATOM      7  C   UNL     1     -32.107  16.549 -41.333  1.00  0.00     0.122 A 
ATOM      8  C   UNL     1     -32.971  17.603 -41.648  1.00  0.00     0.092 A 
ATOM      9  C   UNL     1     -32.466  18.836 -42.079  1.00  0.00     0.126 A 
ATOM     10  C   UNL     1     -31.069  19.007 -42.230  1.00  0.00     0.039 A 
ENDROOT
BRANCH   2  11
ATOM     11  O   UNL     1     -28.461  21.429 -43.416  1.00  0.00    -0.389 OA
ATOM     12  H   UNL     1     -28.495  21.610 -44.392  1.00  0.00     0.211 HD
ENDBRANCH   2  11
BRANCH   3  13
ATOM     13  C   UNL     1     -26.788  19.163 -42.681  1.00  0.00    -0.001 A 
ATOM     14  C   UNL     1     -25.836  20.187 -42.549  1.00  0.00     0.057 A 
ATOM     15  C   UNL     1     -26.420  17.963 -43.314  1.00  0.00     0.012 A 
ATOM     16  C   UNL     1     -24.528  20.010 -43.024  1.00  0.00     0.157 A 
ATOM     17  C   UNL     1     -25.117  17.785 -43.787  1.00  0.00     0.050 A 
ATOM     18  C   UNL     1     -24.168  18.803 -43.644  1.00  0.00     0.157 A 
BRANCH  16  19
ATOM     19  O   UNL     1     -23.589  21.031 -42.883  1.00  0.00    -0.504 OA
ATOM     20  H   UNL     1     -23.531  21.588 -42.038  1.00  0.00     0.293 HD
ENDBRANCH  16  19
BRANCH  18  21
ATOM     21  O   UNL     1     -22.875  18.595 -44.125  1.00  0.00    -0.504 OA
ATOM     22  H   UNL     1     -22.700  18.216 -45.047  1.00  0.00     0.293 HD
ENDBRANCH  18  21
ENDBRANCH   3  13
BRANCH   9  23
ATOM     23  O   UNL     1     -33.374  19.865 -42.335  1.00  0.00    -0.507 OA
ATOM     24  H   UNL     1     -34.021  19.854 -43.113  1.00  0.00     0.293 HD
ENDBRANCH   9  23
BRANCH   7  25
ATOM     25  O   UNL     1     -32.610  15.321 -40.907  1.00  0.00    -0.508 OA
ATOM     26  H   UNL     1     -32.493  14.480 -41.459  1.00  0.00     0.293 HD
ENDBRANCH   7  25
TORSDOF 6
ENDMDL
MODEL 7
REMARK VINA RESULT:    -3.540      1.941      6.635
REMARK INTER + INTRA:          -4.579
REMARK INTER:                  -4.906
REMARK INTRA:                   0.327
REMARK UNBOUND:                -0.315
REMARK SMILES Oc1cc(O)c2c(c1)O[C@@H](c1ccc(O)c(O)c1)[C@H](O)C2
REMARK SMILES IDX 21 1 19 2 10 3 9 4 7 5 8 6 2 7 3 8 4 9 6 10 20 11 11 13
REMARK SMILES IDX 18 14 12 15 16 16 13 17 14 18 17 19 15 21 5 23 1 25
REMARK H PARENT 20 12 17 20 15 22 5 24 1 26
REMARK Flexibility Score: inf
ROOT
ATOM      1  C   UNL     1     -30.825  20.327 -43.653  1.00  0.00     0.079 C 
ATOM      2  C   UNL     1     -29.313  20.545 -43.848  1.00  0.00     0.164 C 
ATOM      3  C   UNL     1     -28.525  19.543 -42.987  1.00  0.00     0.232 C 
ATOM      4  O   UNL     1     -28.916  18.210 -43.318  1.00  0.00    -0.482 OA
ATOM      5  C   UNL     1     -30.242  17.869 -43.601  1.00  0.00     0.131 A 
ATOM      6  C   UNL     1     -30.583  16.519 -43.729  1.00  0.00     0.093 A 
ATOM      7  C   UNL     1     -31.901  16.147 -43.996  1.00  0.00     0.122 A 
ATOM      8  C   UNL     1     -32.888  17.130 -44.125  1.00  0.00     0.092 A 
ATOM      9  C   UNL     1     -32.566  18.486 -43.999  1.00  0.00     0.126 A 
ATOM     10  C   UNL     1     -31.223  18.870 -43.772  1.00  0.00     0.039 A 
ENDROOT
BRANCH   2  11
ATOM     11  O   UNL     1     -28.971  21.857 -43.480  1.00  0.00    -0.389 OA
ATOM     12  H   UNL     1     -27.983  21.924 -43.548  1.00  0.00     0.211 HD
ENDBRANCH   2  11
BRANCH   3  13
ATOM     13  C   UNL     1     -27.037  19.701 -43.190  1.00  0.00    -0.001 A 
ATOM     14  C   UNL     1     -26.222  18.570 -43.369  1.00  0.00     0.057 A 
ATOM     15  C   UNL     1     -26.443  20.974 -43.153  1.00  0.00     0.012 A 
ATOM     16  C   UNL     1     -24.835  18.709 -43.530  1.00  0.00     0.157 A 
ATOM     17  C   UNL     1     -25.062  21.114 -43.313  1.00  0.00     0.050 A 
ATOM     18  C   UNL     1     -24.254  19.987 -43.504  1.00  0.00     0.157 A 
BRANCH  16  19
ATOM     19  O   UNL     1     -24.036  17.582 -43.713  1.00  0.00    -0.504 OA
ATOM     20  H   UNL     1     -24.406  16.727 -44.114  1.00  0.00     0.293 HD
ENDBRANCH  16  19
BRANCH  18  21
ATOM     21  O   UNL     1     -22.879  20.159 -43.662  1.00  0.00    -0.504 OA
ATOM     22  H   UNL     1     -22.217  19.429 -43.428  1.00  0.00     0.293 HD
ENDBRANCH  18  21
ENDBRANCH   3  13
BRANCH   9  23
ATOM     23  O   UNL     1     -33.601  19.419 -44.092  1.00  0.00    -0.507 OA
ATOM     24  H   UNL     1     -33.450  20.401 -44.283  1.00  0.00     0.293 HD
ENDBRANCH   9  23
BRANCH   7  25
ATOM     25  O   UNL     1     -32.221  14.797 -44.123  1.00  0.00    -0.508 OA
ATOM     26  H   UNL     1     -32.884  14.473 -44.819  1.00  0.00     0.293 HD
ENDBRANCH   7  25
TORSDOF 6
ENDMDL
MODEL 8
REMARK VINA RESULT:    -3.460      2.374      7.154
REMARK INTER + INTRA:          -4.483
REMARK INTER:                  -4.266
REMARK INTRA:                  -0.216
REMARK UNBOUND:                -0.315
REMARK SMILES Oc1cc(O)c2c(c1)O[C@@H](c1ccc(O)c(O)c1)[C@H](O)C2
REMARK SMILES IDX 21 1 19 2 10 3 9 4 7 5 8 6 2 7 3 8 4 9 6 10 20 11 11 13
REMARK SMILES IDX 18 14 12 15 16 16 13 17 14 18 17 19 15 21 5 23 1 25
REMARK H PARENT 20 12 17 20 15 22 5 24 1 26
REMARK Flexibility Score: inf
ROOT
ATOM      1  C   UNL     1     -29.246  17.555 -41.507  1.00  0.00     0.079 C 
ATOM      2  C   UNL     1     -27.923  18.328 -41.668  1.00  0.00     0.164 C 
ATOM      3  C   UNL     1     -27.723  18.719 -43.142  1.00  0.00     0.232 C 
ATOM      4  O   UNL     1     -28.841  19.482 -43.597  1.00  0.00    -0.482 OA
ATOM      5  C   UNL     1     -30.152  19.187 -43.211  1.00  0.00     0.131 A 
ATOM      6  C   UNL     1     -31.210  19.851 -43.839  1.00  0.00     0.093 A 
ATOM      7  C   UNL     1     -32.530  19.566 -43.487  1.00  0.00     0.122 A 
ATOM      8  C   UNL     1     -32.796  18.604 -42.508  1.00  0.00     0.092 A 
ATOM      9  C   UNL     1     -31.750  17.927 -41.868  1.00  0.00     0.126 A 
ATOM     10  C   UNL     1     -30.409  18.244 -42.191  1.00  0.00     0.039 A 
ENDROOT
BRANCH   2  11
ATOM     11  O   UNL     1     -26.851  17.527 -41.240  1.00  0.00    -0.389 OA
ATOM     12  H   UNL     1     -26.232  17.443 -42.012  1.00  0.00     0.211 HD
ENDBRANCH   2  11
BRANCH   3  13
ATOM     13  C   UNL     1     -26.454  19.517 -43.328  1.00  0.00    -0.001 A 
ATOM     14  C   UNL     1     -25.250  18.870 -43.652  1.00  0.00     0.057 A 
ATOM     15  C   UNL     1     -26.452  20.909 -43.130  1.00  0.00     0.012 A 
ATOM     16  C   UNL     1     -24.064  19.604 -43.797  1.00  0.00     0.157 A 
ATOM     17  C   UNL     1     -25.271  21.641 -43.276  1.00  0.00     0.050 A 
ATOM     18  C   UNL     1     -24.076  20.996 -43.610  1.00  0.00     0.157 A 
BRANCH  16  19
ATOM     19  O   UNL     1     -22.875  18.953 -44.125  1.00  0.00    -0.504 OA
ATOM     20  H   UNL     1     -22.263  18.572 -43.412  1.00  0.00     0.293 HD
ENDBRANCH  16  19
BRANCH  18  21
ATOM     21  O   UNL     1     -22.913  21.753 -43.750  1.00  0.00    -0.504 OA
ATOM     22  H   UNL     1     -22.938  22.759 -43.860  1.00  0.00     0.293 HD
ENDBRANCH  18  21
ENDBRANCH   3  13
BRANCH   9  23
ATOM     23  O   UNL     1     -32.079  16.945 -40.932  1.00  0.00    -0.507 OA
ATOM     24  H   UNL     1     -31.786  15.980 -41.012  1.00  0.00     0.293 HD
ENDBRANCH   9  23
BRANCH   7  25
ATOM     25  O   UNL     1     -33.571  20.241 -44.122  1.00  0.00    -0.508 OA
ATOM     26  H   UNL     1     -34.398  20.535 -43.616  1.00  0.00     0.293 HD
ENDBRANCH   7  25
TORSDOF 6
ENDMDL
