MODEL 1
REMARK VINA RESULT:    -4.873      0.000      0.000
REMARK INTER + INTRA:          -5.317
REMARK INTER:                  -5.157
REMARK INTRA:                  -0.159
REMARK UNBOUND:                -0.159
REMARK SMILES CC1=CCC(C(C)C)=CC1
REMARK SMILES IDX 1 1 2 2 3 3 4 4 5 5 9 6 10 7 6 8 7 9 8 10
REMARK H PARENT
REMARK Flexibility Score: inf
ROOT
ATOM      1  C   UNL     1      -1.792  -0.767  14.110  1.00  0.00     0.039 C 
ATOM      2  C   UNL     1      -1.321   0.381  13.262  1.00  0.00    -0.073 C 
ATOM      3  C   UNL     1      -1.016   1.560  13.837  1.00  0.00    -0.023 C 
ATOM      4  C   UNL     1      -0.495   2.711  13.014  1.00  0.00     0.058 C 
ATOM      5  C   UNL     1      -1.057   2.690  11.605  1.00  0.00    -0.068 C 
ATOM      6  C   UNL     1      -1.360   1.504  11.033  1.00  0.00    -0.023 C 
ATOM      7  C   UNL     1      -1.144   0.205  11.769  1.00  0.00     0.057 C 
ENDROOT
BRANCH   5   8
ATOM      8  C   UNL     1      -1.228   3.998  10.851  1.00  0.00     0.009 C 
ATOM      9  C   UNL     1      -2.709   4.315  10.607  1.00  0.00     0.012 C 
ATOM     10  C   UNL     1      -0.528   5.153  11.577  1.00  0.00     0.012 C 
ENDBRANCH   5   8
TORSDOF 1
ENDMDL
MODEL 2
REMARK VINA RESULT:    -4.743      0.922      1.906
REMARK INTER + INTRA:          -5.180
REMARK INTER:                  -5.044
REMARK INTRA:                  -0.136
REMARK UNBOUND:                -0.159
REMARK SMILES CC1=CCC(C(C)C)=CC1
REMARK SMILES IDX 1 1 2 2 3 3 4 4 5 5 9 6 10 7 6 8 7 9 8 10
REMARK H PARENT
REMARK Flexibility Score: inf
ROOT
ATOM      1  C   UNL     1      -1.542  -1.553  14.004  1.00  0.00     0.039 C 
ATOM      2  C   UNL     1      -1.493  -0.180  13.395  1.00  0.00    -0.073 C 
ATOM      3  C   UNL     1      -1.228  -0.037  12.082  1.00  0.00    -0.023 C 
ATOM      4  C   UNL     1      -1.222   1.326  11.438  1.00  0.00     0.058 C 
ATOM      5  C   UNL     1      -0.780   2.402  12.410  1.00  0.00    -0.068 C 
ATOM      6  C   UNL     1      -1.049   2.254  13.726  1.00  0.00    -0.023 C 
ATOM      7  C   UNL     1      -1.785   1.042  14.240  1.00  0.00     0.057 C 
ENDROOT
BRANCH   5   8
ATOM      8  C   UNL     1      -0.081   3.644  11.882  1.00  0.00     0.009 C 
ATOM      9  C   UNL     1      -0.880   4.298  10.748  1.00  0.00     0.012 C 
ATOM     10  C   UNL     1       0.201   4.645  13.009  1.00  0.00     0.012 C 
ENDBRANCH   5   8
TORSDOF 1
ENDMDL
MODEL 3
REMARK VINA RESULT:    -4.649      1.949      4.451
REMARK INTER + INTRA:          -5.080
REMARK INTER:                  -4.937
REMARK INTRA:                  -0.143
REMARK UNBOUND:                -0.159
REMARK SMILES CC1=CCC(C(C)C)=CC1
REMARK SMILES IDX 1 1 2 2 3 3 4 4 5 5 9 6 10 7 6 8 7 9 8 10
REMARK H PARENT
REMARK Flexibility Score: inf
ROOT
ATOM      1  C   UNL     1      -0.746   5.533  15.010  1.00  0.00     0.039 C 
ATOM      2  C   UNL     1      -0.747   4.064  14.696  1.00  0.00    -0.073 C 
ATOM      3  C   UNL     1      -0.202   3.622  13.547  1.00  0.00    -0.023 C 
ATOM      4  C   UNL     1      -0.147   2.149  13.232  1.00  0.00     0.058 C 
ATOM      5  C   UNL     1      -1.324   1.404  13.835  1.00  0.00    -0.068 C 
ATOM      6  C   UNL     1      -1.867   1.851  14.988  1.00  0.00    -0.023 C 
ATOM      7  C   UNL     1      -1.320   3.072  15.686  1.00  0.00     0.057 C 
ENDROOT
BRANCH   5   8
ATOM      8  C   UNL     1      -1.841   0.148  13.152  1.00  0.00     0.009 C 
ATOM      9  C   UNL     1      -1.240  -0.016  11.751  1.00  0.00     0.012 C 
ATOM     10  C   UNL     1      -1.586  -1.095  14.013  1.00  0.00     0.012 C 
ENDBRANCH   5   8
TORSDOF 1
ENDMDL
MODEL 4
REMARK VINA RESULT:    -4.598      0.842      1.379
REMARK INTER + INTRA:          -5.026
REMARK INTER:                  -4.890
REMARK INTRA:                  -0.136
REMARK UNBOUND:                -0.159
REMARK SMILES CC1=CCC(C(C)C)=CC1
REMARK SMILES IDX 1 1 2 2 3 3 4 4 5 5 9 6 10 7 6 8 7 9 8 10
REMARK H PARENT
REMARK Flexibility Score: inf
ROOT
ATOM      1  C   UNL     1      -1.372  -0.610  13.240  1.00  0.00     0.039 C 
ATOM      2  C   UNL     1      -1.152   0.761  12.665  1.00  0.00    -0.073 C 
ATOM      3  C   UNL     1      -0.997   1.816  13.486  1.00  0.00    -0.023 C 
ATOM      4  C   UNL     1      -0.726   3.193  12.935  1.00  0.00     0.058 C 
ATOM      5  C   UNL     1      -1.377   3.391  11.579  1.00  0.00    -0.068 C 
ATOM      6  C   UNL     1      -1.529   2.328  10.758  1.00  0.00    -0.023 C 
ATOM      7  C   UNL     1      -1.057   0.954  11.166  1.00  0.00     0.057 C 
ENDROOT
BRANCH   5   8
ATOM      8  C   UNL     1      -1.807   4.785  11.154  1.00  0.00     0.009 C 
ATOM      9  C   UNL     1      -0.743   5.458  10.279  1.00  0.00     0.012 C 
ATOM     10  C   UNL     1      -3.168   4.755  10.447  1.00  0.00     0.012 C 
ENDBRANCH   5   8
TORSDOF 1
ENDMDL
MODEL 5
REMARK VINA RESULT:    -4.591      1.688      2.668
REMARK INTER + INTRA:          -5.018
REMARK INTER:                  -4.849
REMARK INTRA:                  -0.169
REMARK UNBOUND:                -0.159
REMARK SMILES CC1=CCC(C(C)C)=CC1
REMARK SMILES IDX 1 1 2 2 3 3 4 4 5 5 9 6 10 7 6 8 7 9 8 10
REMARK H PARENT
REMARK Flexibility Score: inf
ROOT
ATOM      1  C   UNL     1      -1.430  -1.485  13.798  1.00  0.00     0.039 C 
ATOM      2  C   UNL     1      -1.577  -0.000  13.620  1.00  0.00    -0.073 C 
ATOM      3  C   UNL     1      -0.945   0.619  12.606  1.00  0.00    -0.023 C 
ATOM      4  C   UNL     1      -1.115   2.100  12.377  1.00  0.00     0.058 C 
ATOM      5  C   UNL     1      -1.347   2.844  13.678  1.00  0.00    -0.068 C 
ATOM      6  C   UNL     1      -1.982   2.217  14.693  1.00  0.00    -0.023 C 
ATOM      7  C   UNL     1      -2.468   0.796  14.549  1.00  0.00     0.057 C 
ENDROOT
BRANCH   5   8
ATOM      8  C   UNL     1      -0.897   4.291  13.801  1.00  0.00     0.009 C 
ATOM      9  C   UNL     1      -0.881   4.750  15.264  1.00  0.00     0.012 C 
ATOM     10  C   UNL     1       0.469   4.506  13.138  1.00  0.00     0.012 C 
ENDBRANCH   5   8
TORSDOF 1
ENDMDL
MODEL 6
REMARK VINA RESULT:    -4.546      1.729      4.286
REMARK INTER + INTRA:          -4.971
REMARK INTER:                  -4.831
REMARK INTRA:                  -0.139
REMARK UNBOUND:                -0.159
REMARK SMILES CC1=CCC(C(C)C)=CC1
REMARK SMILES IDX 1 1 2 2 3 3 4 4 5 5 9 6 10 7 6 8 7 9 8 10
REMARK H PARENT
REMARK Flexibility Score: inf
ROOT
ATOM      1  C   UNL     1      -0.604   5.570  15.218  1.00  0.00     0.039 C 
ATOM      2  C   UNL     1      -1.053   4.226  14.717  1.00  0.00    -0.073 C 
ATOM      3  C   UNL     1      -1.136   3.186  15.568  1.00  0.00    -0.023 C 
ATOM      4  C   UNL     1      -1.630   1.840  15.100  1.00  0.00     0.058 C 
ATOM      5  C   UNL     1      -1.276   1.590  13.647  1.00  0.00    -0.068 C 
ATOM      6  C   UNL     1      -1.195   2.637  12.796  1.00  0.00    -0.023 C 
ATOM      7  C   UNL     1      -1.455   4.046  13.269  1.00  0.00     0.057 C 
ENDROOT
BRANCH   5   8
ATOM      8  C   UNL     1      -1.061   0.164  13.166  1.00  0.00     0.009 C 
ATOM      9  C   UNL     1      -1.940  -0.827  13.939  1.00  0.00     0.012 C 
ATOM     10  C   UNL     1      -1.294   0.047  11.655  1.00  0.00     0.012 C 
ENDBRANCH   5   8
TORSDOF 1
ENDMDL
MODEL 7
REMARK VINA RESULT:    -4.514      1.100      4.430
REMARK INTER + INTRA:          -4.937
REMARK INTER:                  -4.779
REMARK INTRA:                  -0.158
REMARK UNBOUND:                -0.159
REMARK SMILES CC1=CCC(C(C)C)=CC1
REMARK SMILES IDX 1 1 2 2 3 3 4 4 5 5 9 6 10 7 6 8 7 9 8 10
REMARK H PARENT
REMARK Flexibility Score: inf
ROOT
ATOM      1  C   UNL     1      -0.767   5.171  10.400  1.00  0.00     0.039 C 
ATOM      2  C   UNL     1      -0.658   3.962  11.285  1.00  0.00    -0.073 C 
ATOM      3  C   UNL     1      -1.155   2.780  10.871  1.00  0.00    -0.023 C 
ATOM      4  C   UNL     1      -1.015   1.542  11.719  1.00  0.00     0.058 C 
ATOM      5  C   UNL     1      -1.015   1.875  13.199  1.00  0.00    -0.068 C 
ATOM      6  C   UNL     1      -0.515   3.062  13.609  1.00  0.00    -0.023 C 
ATOM      7  C   UNL     1       0.047   4.054  12.621  1.00  0.00     0.057 C 
ENDROOT
BRANCH   5   8
ATOM      8  C   UNL     1      -1.539   0.852  14.194  1.00  0.00     0.009 C 
ATOM      9  C   UNL     1      -2.882   1.289  14.792  1.00  0.00     0.012 C 
ATOM     10  C   UNL     1      -1.644  -0.539  13.556  1.00  0.00     0.012 C 
ENDBRANCH   5   8
TORSDOF 1
ENDMDL
MODEL 8
REMARK VINA RESULT:    -4.351      1.036      1.623
REMARK INTER + INTRA:          -4.765
REMARK INTER:                  -4.623
REMARK INTRA:                  -0.142
REMARK UNBOUND:                -0.159
REMARK SMILES CC1=CCC(C(C)C)=CC1
REMARK SMILES IDX 1 1 2 2 3 3 4 4 5 5 9 6 10 7 6 8 7 9 8 10
REMARK H PARENT
REMARK Flexibility Score: inf
ROOT
ATOM      1  C   UNL     1      -1.414  -0.453  12.963  1.00  0.00     0.039 C 
ATOM      2  C   UNL     1      -0.992   0.913  12.499  1.00  0.00    -0.073 C 
ATOM      3  C   UNL     1      -0.439   1.777  13.372  1.00  0.00    -0.023 C 
ATOM      4  C   UNL     1       0.037   3.134  12.920  1.00  0.00     0.058 C 
ATOM      5  C   UNL     1      -0.798   3.666  11.770  1.00  0.00    -0.068 C 
ATOM      6  C   UNL     1      -1.350   2.794  10.897  1.00  0.00    -0.023 C 
ATOM      7  C   UNL     1      -1.144   1.307  11.045  1.00  0.00     0.057 C 
ENDROOT
BRANCH   5   8
ATOM      8  C   UNL     1      -0.962   5.167  11.599  1.00  0.00     0.009 C 
ATOM      9  C   UNL     1       0.148   5.938  12.323  1.00  0.00     0.012 C 
ATOM     10  C   UNL     1      -1.027   5.552  10.116  1.00  0.00     0.012 C 
ENDBRANCH   5   8
TORSDOF 1
ENDMDL
MODEL 9
REMARK VINA RESULT:    -4.267      8.953      9.728
REMARK INTER + INTRA:          -4.676
REMARK INTER:                  -4.508
REMARK INTRA:                  -0.169
REMARK UNBOUND:                -0.159
REMARK SMILES CC1=CCC(C(C)C)=CC1
REMARK SMILES IDX 1 1 2 2 3 3 4 4 5 5 9 6 10 7 6 8 7 9 8 10
REMARK H PARENT
REMARK Flexibility Score: inf
ROOT
ATOM      1  C   UNL     1      -9.274  -0.962  10.244  1.00  0.00     0.039 C 
ATOM      2  C   UNL     1     -10.003   0.305   9.895  1.00  0.00    -0.073 C 
ATOM      3  C   UNL     1     -10.149   0.661   8.605  1.00  0.00    -0.023 C 
ATOM      4  C   UNL     1     -10.919   1.901   8.227  1.00  0.00     0.058 C 
ATOM      5  C   UNL     1     -10.803   2.977   9.290  1.00  0.00    -0.068 C 
ATOM      6  C   UNL     1     -10.657   2.614  10.584  1.00  0.00    -0.023 C 
ATOM      7  C   UNL     1     -10.613   1.160  10.985  1.00  0.00     0.057 C 
ENDROOT
BRANCH   5   8
ATOM      8  C   UNL     1     -10.896   4.439   8.886  1.00  0.00     0.009 C 
ATOM      9  C   UNL     1     -10.676   5.367  10.087  1.00  0.00     0.012 C 
ATOM     10  C   UNL     1      -9.918   4.764   7.750  1.00  0.00     0.012 C 
ENDBRANCH   5   8
TORSDOF 1
ENDMDL
