MODEL 1
REMARK VINA RESULT:    -5.091      0.000      0.000
REMARK INTER + INTRA:          -6.270
REMARK INTER:                  -5.984
REMARK INTRA:                  -0.286
REMARK UNBOUND:                -0.286
REMARK SMILES COc1cc2ccc(=O)oc2c(OC)c1OC
REMARK SMILES IDX 3 1 15 2 12 3 11 4 5 5 4 6 6 7 7 8 8 9 9 10 10 11 2 12 1 13
REMARK SMILES IDX 16 14 17 15 13 16 14 17
REMARK H PARENT
REMARK Flexibility Score: inf
ROOT
ATOM      1  C   UNL     1      26.745  11.504 -32.210  1.00  0.00     0.165 A 
ATOM      2  C   UNL     1      26.498  10.122 -32.200  1.00  0.00     0.207 A 
ATOM      3  C   UNL     1      27.419   9.226 -32.811  1.00  0.00     0.208 A 
ATOM      4  C   UNL     1      28.584   9.751 -33.426  1.00  0.00     0.184 A 
ATOM      5  C   UNL     1      28.815  11.145 -33.426  1.00  0.00     0.025 A 
ATOM      6  C   UNL     1      27.902  12.009 -32.823  1.00  0.00     0.062 A 
ATOM      7  C   UNL     1      29.971  11.640 -34.040  1.00  0.00     0.020 A 
ATOM      8  C   UNL     1      30.865  10.754 -34.634  1.00  0.00     0.094 A 
ATOM      9  C   UNL     1      30.581   9.389 -34.600  1.00  0.00     0.336 A 
ATOM     10  O   UNL     1      31.373   8.567 -35.130  1.00  0.00    -0.246 OA
ATOM     11  O   UNL     1      29.474   8.948 -34.010  1.00  0.00    -0.419 OA
ENDROOT
BRANCH   1  12
ATOM     12  O   UNL     1      25.806  12.349 -31.594  1.00  0.00    -0.493 OA
ATOM     13  C   UNL     1      24.816  13.101 -32.287  1.00  0.00     0.278 C 
ENDBRANCH   1  12
BRANCH   2  14
ATOM     14  O   UNL     1      25.311   9.708 -31.561  1.00  0.00    -0.490 OA
ATOM     15  C   UNL     1      24.102   9.290 -32.184  1.00  0.00     0.278 C 
ENDBRANCH   2  14
BRANCH   3  16
ATOM     16  O   UNL     1      27.139   7.846 -32.781  1.00  0.00    -0.490 OA
ATOM     17  C   UNL     1      27.449   6.929 -31.736  1.00  0.00     0.278 C 
ENDBRANCH   3  16
TORSDOF 3
ENDMDL
MODEL 2
REMARK VINA RESULT:    -4.581      1.490      5.361
REMARK INTER + INTRA:          -5.670
REMARK INTER:                  -5.387
REMARK INTRA:                  -0.283
REMARK UNBOUND:                -0.286
REMARK SMILES COc1cc2ccc(=O)oc2c(OC)c1OC
REMARK SMILES IDX 3 1 15 2 12 3 11 4 5 5 4 6 6 7 7 8 8 9 9 10 10 11 2 12 1 13
REMARK SMILES IDX 16 14 17 15 13 16 14 17
REMARK H PARENT
REMARK Flexibility Score: inf
ROOT
ATOM      1  C   UNL     1      29.260   9.662 -33.737  1.00  0.00     0.165 A 
ATOM      2  C   UNL     1      28.444  10.802 -33.678  1.00  0.00     0.207 A 
ATOM      3  C   UNL     1      27.173  10.740 -33.043  1.00  0.00     0.208 A 
ATOM      4  C   UNL     1      26.749   9.513 -32.472  1.00  0.00     0.184 A 
ATOM      5  C   UNL     1      27.586   8.376 -32.542  1.00  0.00     0.025 A 
ATOM      6  C   UNL     1      28.828   8.454 -33.169  1.00  0.00     0.062 A 
ATOM      7  C   UNL     1      27.145   7.176 -31.972  1.00  0.00     0.020 A 
ATOM      8  C   UNL     1      25.900   7.127 -31.352  1.00  0.00     0.094 A 
ATOM      9  C   UNL     1      25.122   8.284 -31.316  1.00  0.00     0.336 A 
ATOM     10  O   UNL     1      23.992   8.265 -30.761  1.00  0.00    -0.246 OA
ATOM     11  O   UNL     1      25.566   9.410 -31.866  1.00  0.00    -0.419 OA
ENDROOT
BRANCH   1  12
ATOM     12  O   UNL     1      30.508   9.773 -34.376  1.00  0.00    -0.493 OA
ATOM     13  C   UNL     1      30.913   9.001 -35.502  1.00  0.00     0.278 C 
ENDBRANCH   1  12
BRANCH   2  14
ATOM     14  O   UNL     1      28.963  11.969 -34.276  1.00  0.00    -0.490 OA
ATOM     15  C   UNL     1      28.646  12.488 -35.563  1.00  0.00     0.278 C 
ENDBRANCH   2  14
BRANCH   3  16
ATOM     16  O   UNL     1      26.381  11.904 -33.002  1.00  0.00    -0.490 OA
ATOM     17  C   UNL     1      26.446  12.954 -32.042  1.00  0.00     0.278 C 
ENDBRANCH   3  16
TORSDOF 3
ENDMDL
MODEL 3
REMARK VINA RESULT:    -4.457     11.957     13.326
REMARK INTER + INTRA:          -5.525
REMARK INTER:                  -5.223
REMARK INTRA:                  -0.301
REMARK UNBOUND:                -0.286
REMARK SMILES COc1cc2ccc(=O)oc2c(OC)c1OC
REMARK SMILES IDX 3 1 15 2 12 3 11 4 5 5 4 6 6 7 7 8 8 9 9 10 10 11 2 12 1 13
REMARK SMILES IDX 16 14 17 15 13 16 14 17
REMARK H PARENT
REMARK Flexibility Score: inf
ROOT
ATOM      1  C   UNL     1      24.285  -1.497 -33.018  1.00  0.00     0.165 A 
ATOM      2  C   UNL     1      24.553  -2.733 -32.408  1.00  0.00     0.207 A 
ATOM      3  C   UNL     1      25.447  -3.654 -33.022  1.00  0.00     0.208 A 
ATOM      4  C   UNL     1      26.059  -3.302 -34.252  1.00  0.00     0.184 A 
ATOM      5  C   UNL     1      25.776  -2.053 -34.850  1.00  0.00     0.025 A 
ATOM      6  C   UNL     1      24.897  -1.163 -34.235  1.00  0.00     0.062 A 
ATOM      7  C   UNL     1      26.391  -1.729 -36.064  1.00  0.00     0.020 A 
ATOM      8  C   UNL     1      27.264  -2.638 -36.655  1.00  0.00     0.094 A 
ATOM      9  C   UNL     1      27.502  -3.854 -36.015  1.00  0.00     0.336 A 
ATOM     10  O   UNL     1      28.288  -4.693 -36.529  1.00  0.00    -0.246 OA
ATOM     11  O   UNL     1      26.903  -4.135 -34.862  1.00  0.00    -0.419 OA
ENDROOT
BRANCH   1  12
ATOM     12  O   UNL     1      23.394  -0.621 -32.373  1.00  0.00    -0.493 OA
ATOM     13  C   UNL     1      22.054  -0.377 -32.787  1.00  0.00     0.278 C 
ENDBRANCH   1  12
BRANCH   2  14
ATOM     14  O   UNL     1      23.893  -2.980 -31.187  1.00  0.00    -0.490 OA
ATOM     15  C   UNL     1      22.724  -3.767 -30.988  1.00  0.00     0.278 C 
ENDBRANCH   2  14
BRANCH   3  16
ATOM     16  O   UNL     1      25.693  -4.884 -32.382  1.00  0.00    -0.490 OA
ATOM     17  C   UNL     1      26.705  -5.164 -31.420  1.00  0.00     0.278 C 
ENDBRANCH   3  16
TORSDOF 3
ENDMDL
MODEL 4
REMARK VINA RESULT:    -4.456     10.234     13.040
REMARK INTER + INTRA:          -5.524
REMARK INTER:                  -5.273
REMARK INTRA:                  -0.251
REMARK UNBOUND:                -0.286
REMARK SMILES COc1cc2ccc(=O)oc2c(OC)c1OC
REMARK SMILES IDX 3 1 15 2 12 3 11 4 5 5 4 6 6 7 7 8 8 9 9 10 10 11 2 12 1 13
REMARK SMILES IDX 16 14 17 15 13 16 14 17
REMARK H PARENT
REMARK Flexibility Score: inf
ROOT
ATOM      1  C   UNL     1      26.730  -3.047 -35.343  1.00  0.00     0.165 A 
ATOM      2  C   UNL     1      25.907  -3.107 -34.207  1.00  0.00     0.207 A 
ATOM      3  C   UNL     1      25.000  -2.048 -33.924  1.00  0.00     0.208 A 
ATOM      4  C   UNL     1      24.941  -0.939 -34.806  1.00  0.00     0.184 A 
ATOM      5  C   UNL     1      25.777  -0.897 -35.944  1.00  0.00     0.025 A 
ATOM      6  C   UNL     1      26.661  -1.943 -36.207  1.00  0.00     0.062 A 
ATOM      7  C   UNL     1      25.701   0.208 -36.799  1.00  0.00     0.020 A 
ATOM      8  C   UNL     1      24.810   1.238 -36.512  1.00  0.00     0.094 A 
ATOM      9  C   UNL     1      24.012   1.137 -35.373  1.00  0.00     0.336 A 
ATOM     10  O   UNL     1      23.197   2.055 -35.092  1.00  0.00    -0.246 OA
ATOM     11  O   UNL     1      24.106   0.075 -34.579  1.00  0.00    -0.419 OA
ENDROOT
BRANCH   1  12
ATOM     12  O   UNL     1      27.610  -4.116 -35.581  1.00  0.00    -0.493 OA
ATOM     13  C   UNL     1      28.316  -4.331 -36.798  1.00  0.00     0.278 C 
ENDBRANCH   1  12
BRANCH   2  14
ATOM     14  O   UNL     1      26.047  -4.254 -33.400  1.00  0.00    -0.490 OA
ATOM     15  C   UNL     1      26.743  -4.354 -32.163  1.00  0.00     0.278 C 
ENDBRANCH   2  14
BRANCH   3  16
ATOM     16  O   UNL     1      24.191  -2.143 -32.775  1.00  0.00    -0.490 OA
ATOM     17  C   UNL     1      22.887  -2.709 -32.687  1.00  0.00     0.278 C 
ENDBRANCH   3  16
TORSDOF 3
ENDMDL
MODEL 5
REMARK VINA RESULT:    -4.448      1.463      4.186
REMARK INTER + INTRA:          -5.514
REMARK INTER:                  -5.338
REMARK INTRA:                  -0.176
REMARK UNBOUND:                -0.286
REMARK SMILES COc1cc2ccc(=O)oc2c(OC)c1OC
REMARK SMILES IDX 3 1 15 2 12 3 11 4 5 5 4 6 6 7 7 8 8 9 9 10 10 11 2 12 1 13
REMARK SMILES IDX 16 14 17 15 13 16 14 17
REMARK H PARENT
REMARK Flexibility Score: inf
ROOT
ATOM      1  C   UNL     1      26.524  11.262 -32.597  1.00  0.00     0.165 A 
ATOM      2  C   UNL     1      27.800  10.915 -33.069  1.00  0.00     0.207 A 
ATOM      3  C   UNL     1      28.277   9.583 -32.927  1.00  0.00     0.208 A 
ATOM      4  C   UNL     1      27.445   8.617 -32.305  1.00  0.00     0.184 A 
ATOM      5  C   UNL     1      26.164   8.986 -31.836  1.00  0.00     0.025 A 
ATOM      6  C   UNL     1      25.712  10.297 -31.983  1.00  0.00     0.062 A 
ATOM      7  C   UNL     1      25.362   8.016 -31.225  1.00  0.00     0.020 A 
ATOM      8  C   UNL     1      25.839   6.715 -31.092  1.00  0.00     0.094 A 
ATOM      9  C   UNL     1      27.112   6.414 -31.576  1.00  0.00     0.336 A 
ATOM     10  O   UNL     1      27.566   5.245 -31.468  1.00  0.00    -0.246 OA
ATOM     11  O   UNL     1      27.852   7.357 -32.152  1.00  0.00    -0.419 OA
ENDROOT
BRANCH   1  12
ATOM     12  O   UNL     1      26.097  12.592 -32.759  1.00  0.00    -0.493 OA
ATOM     13  C   UNL     1      24.887  13.125 -32.232  1.00  0.00     0.278 C 
ENDBRANCH   1  12
BRANCH   2  14
ATOM     14  O   UNL     1      28.542  11.952 -33.672  1.00  0.00    -0.490 OA
ATOM     15  C   UNL     1      29.689  12.606 -33.141  1.00  0.00     0.278 C 
ENDBRANCH   2  14
BRANCH   3  16
ATOM     16  O   UNL     1      29.561   9.271 -33.413  1.00  0.00    -0.490 OA
ATOM     17  C   UNL     1      29.951   9.117 -34.774  1.00  0.00     0.278 C 
ENDBRANCH   3  16
TORSDOF 3
ENDMDL
MODEL 6
REMARK VINA RESULT:    -4.393     13.412     15.118
REMARK INTER + INTRA:          -5.449
REMARK INTER:                  -5.140
REMARK INTRA:                  -0.309
REMARK UNBOUND:                -0.286
REMARK SMILES COc1cc2ccc(=O)oc2c(OC)c1OC
REMARK SMILES IDX 3 1 15 2 12 3 11 4 5 5 4 6 6 7 7 8 8 9 9 10 10 11 2 12 1 13
REMARK SMILES IDX 16 14 17 15 13 16 14 17
REMARK H PARENT
REMARK Flexibility Score: inf
ROOT
ATOM      1  C   UNL     1      24.904  -4.556 -29.999  1.00  0.00     0.165 A 
ATOM      2  C   UNL     1      24.786  -4.118 -31.327  1.00  0.00     0.207 A 
ATOM      3  C   UNL     1      25.859  -4.307 -32.241  1.00  0.00     0.208 A 
ATOM      4  C   UNL     1      27.042  -4.946 -31.789  1.00  0.00     0.184 A 
ATOM      5  C   UNL     1      27.142  -5.380 -30.448  1.00  0.00     0.025 A 
ATOM      6  C   UNL     1      26.080  -5.186 -29.565  1.00  0.00     0.062 A 
ATOM      7  C   UNL     1      28.319  -6.006 -30.025  1.00  0.00     0.020 A 
ATOM      8  C   UNL     1      29.363  -6.187 -30.929  1.00  0.00     0.094 A 
ATOM      9  C   UNL     1      29.203  -5.736 -32.238  1.00  0.00     0.336 A 
ATOM     10  O   UNL     1      30.132  -5.888 -33.074  1.00  0.00    -0.246 OA
ATOM     11  O   UNL     1      28.073  -5.144 -32.612  1.00  0.00    -0.419 OA
ENDROOT
BRANCH   1  12
ATOM     12  O   UNL     1      23.816  -4.346 -29.133  1.00  0.00    -0.493 OA
ATOM     13  C   UNL     1      23.786  -3.378 -28.089  1.00  0.00     0.278 C 
ENDBRANCH   1  12
BRANCH   2  14
ATOM     14  O   UNL     1      23.567  -3.497 -31.670  1.00  0.00    -0.490 OA
ATOM     15  C   UNL     1      23.282  -2.103 -31.665  1.00  0.00     0.278 C 
ENDBRANCH   2  14
BRANCH   3  16
ATOM     16  O   UNL     1      25.705  -3.854 -33.566  1.00  0.00    -0.490 OA
ATOM     17  C   UNL     1      26.058  -2.575 -34.082  1.00  0.00     0.278 C 
ENDBRANCH   3  16
TORSDOF 3
ENDMDL
MODEL 7
REMARK VINA RESULT:    -4.296     11.141     14.065
REMARK INTER + INTRA:          -5.336
REMARK INTER:                  -5.091
REMARK INTRA:                  -0.245
REMARK UNBOUND:                -0.286
REMARK SMILES COc1cc2ccc(=O)oc2c(OC)c1OC
REMARK SMILES IDX 3 1 15 2 12 3 11 4 5 5 4 6 6 7 7 8 8 9 9 10 10 11 2 12 1 13
REMARK SMILES IDX 16 14 17 15 13 16 14 17
REMARK H PARENT
REMARK Flexibility Score: inf
ROOT
ATOM      1  C   UNL     1      26.607  -2.825 -35.294  1.00  0.00     0.165 A 
ATOM      2  C   UNL     1      25.582  -1.866 -35.267  1.00  0.00     0.207 A 
ATOM      3  C   UNL     1      24.662  -1.833 -34.183  1.00  0.00     0.208 A 
ATOM      4  C   UNL     1      24.799  -2.780 -33.136  1.00  0.00     0.184 A 
ATOM      5  C   UNL     1      25.836  -3.737 -33.181  1.00  0.00     0.025 A 
ATOM      6  C   UNL     1      26.730  -3.756 -34.251  1.00  0.00     0.062 A 
ATOM      7  C   UNL     1      25.950  -4.662 -32.137  1.00  0.00     0.020 A 
ATOM      8  C   UNL     1      25.044  -4.619 -31.081  1.00  0.00     0.094 A 
ATOM      9  C   UNL     1      24.042  -3.650 -31.095  1.00  0.00     0.336 A 
ATOM     10  O   UNL     1      23.211  -3.591 -30.151  1.00  0.00    -0.246 OA
ATOM     11  O   UNL     1      23.958  -2.784 -32.100  1.00  0.00    -0.419 OA
ENDROOT
BRANCH   1  12
ATOM     12  O   UNL     1      27.491  -2.818 -36.386  1.00  0.00    -0.493 OA
ATOM     13  C   UNL     1      28.127  -3.974 -36.922  1.00  0.00     0.278 C 
ENDBRANCH   1  12
BRANCH   2  14
ATOM     14  O   UNL     1      25.539  -0.972 -36.357  1.00  0.00    -0.490 OA
ATOM     15  C   UNL     1      25.933   0.395 -36.362  1.00  0.00     0.278 C 
ENDBRANCH   2  14
BRANCH   3  16
ATOM     16  O   UNL     1      23.647  -0.856 -34.189  1.00  0.00    -0.490 OA
ATOM     17  C   UNL     1      22.372  -0.946 -34.817  1.00  0.00     0.278 C 
ENDBRANCH   3  16
TORSDOF 3
ENDMDL
MODEL 8
REMARK VINA RESULT:    -4.293     12.718     14.400
REMARK INTER + INTRA:          -5.332
REMARK INTER:                  -5.048
REMARK INTRA:                  -0.284
REMARK UNBOUND:                -0.286
REMARK SMILES COc1cc2ccc(=O)oc2c(OC)c1OC
REMARK SMILES IDX 3 1 15 2 12 3 11 4 5 5 4 6 6 7 7 8 8 9 9 10 10 11 2 12 1 13
REMARK SMILES IDX 16 14 17 15 13 16 14 17
REMARK H PARENT
REMARK Flexibility Score: inf
ROOT
ATOM      1  C   UNL     1      35.518   6.574 -21.385  1.00  0.00     0.165 A 
ATOM      2  C   UNL     1      35.033   5.257 -21.396  1.00  0.00     0.207 A 
ATOM      3  C   UNL     1      33.632   5.011 -21.388  1.00  0.00     0.208 A 
ATOM      4  C   UNL     1      32.740   6.114 -21.371  1.00  0.00     0.184 A 
ATOM      5  C   UNL     1      33.249   7.433 -21.360  1.00  0.00     0.025 A 
ATOM      6  C   UNL     1      34.625   7.656 -21.368  1.00  0.00     0.062 A 
ATOM      7  C   UNL     1      32.349   8.504 -21.343  1.00  0.00     0.020 A 
ATOM      8  C   UNL     1      30.980   8.252 -21.336  1.00  0.00     0.094 A 
ATOM      9  C   UNL     1      30.542   6.928 -21.347  1.00  0.00     0.336 A 
ATOM     10  O   UNL     1      29.309   6.673 -21.341  1.00  0.00    -0.246 OA
ATOM     11  O   UNL     1      31.420   5.930 -21.363  1.00  0.00    -0.419 OA
ENDROOT
BRANCH   1  12
ATOM     12  O   UNL     1      36.911   6.767 -21.393  1.00  0.00    -0.493 OA
ATOM     13  C   UNL     1      37.680   7.171 -20.265  1.00  0.00     0.278 C 
ENDBRANCH   1  12
BRANCH   2  14
ATOM     14  O   UNL     1      36.006   4.237 -21.414  1.00  0.00    -0.490 OA
ATOM     15  C   UNL     1      36.515   3.557 -22.556  1.00  0.00     0.278 C 
ENDBRANCH   2  14
BRANCH   3  16
ATOM     16  O   UNL     1      33.181   3.677 -21.400  1.00  0.00    -0.490 OA
ATOM     17  C   UNL     1      32.839   2.896 -22.540  1.00  0.00     0.278 C 
ENDBRANCH   3  16
TORSDOF 3
ENDMDL
MODEL 9
REMARK VINA RESULT:    -4.198     10.662     13.339
REMARK INTER + INTRA:          -5.220
REMARK INTER:                  -4.949
REMARK INTRA:                  -0.271
REMARK UNBOUND:                -0.286
REMARK SMILES COc1cc2ccc(=O)oc2c(OC)c1OC
REMARK SMILES IDX 3 1 15 2 12 3 11 4 5 5 4 6 6 7 7 8 8 9 9 10 10 11 2 12 1 13
REMARK SMILES IDX 16 14 17 15 13 16 14 17
REMARK H PARENT
REMARK Flexibility Score: inf
ROOT
ATOM      1  C   UNL     1      26.020  -4.165 -32.226  1.00  0.00     0.165 A 
ATOM      2  C   UNL     1      25.539  -2.990 -31.627  1.00  0.00     0.207 A 
ATOM      3  C   UNL     1      25.449  -1.788 -32.381  1.00  0.00     0.208 A 
ATOM      4  C   UNL     1      25.849  -1.798 -33.741  1.00  0.00     0.184 A 
ATOM      5  C   UNL     1      26.331  -2.990 -34.326  1.00  0.00     0.025 A 
ATOM      6  C   UNL     1      26.414  -4.160 -33.573  1.00  0.00     0.062 A 
ATOM      7  C   UNL     1      26.721  -2.975 -35.670  1.00  0.00     0.020 A 
ATOM      8  C   UNL     1      26.628  -1.792 -36.398  1.00  0.00     0.094 A 
ATOM      9  C   UNL     1      26.145  -0.649 -35.763  1.00  0.00     0.336 A 
ATOM     10  O   UNL     1      26.051   0.433 -36.400  1.00  0.00    -0.246 OA
ATOM     11  O   UNL     1      25.781  -0.693 -34.485  1.00  0.00    -0.419 OA
ENDROOT
BRANCH   1  12
ATOM     12  O   UNL     1      26.091  -5.328 -31.440  1.00  0.00    -0.493 OA
ATOM     13  C   UNL     1      27.300  -5.980 -31.064  1.00  0.00     0.278 C 
ENDBRANCH   1  12
BRANCH   2  14
ATOM     14  O   UNL     1      25.167  -3.093 -30.270  1.00  0.00    -0.490 OA
ATOM     15  C   UNL     1      23.853  -3.271 -29.752  1.00  0.00     0.278 C 
ENDBRANCH   2  14
BRANCH   3  16
ATOM     16  O   UNL     1      24.961  -0.629 -31.747  1.00  0.00    -0.490 OA
ATOM     17  C   UNL     1      25.719   0.343 -31.032  1.00  0.00     0.278 C 
ENDBRANCH   3  16
TORSDOF 3
ENDMDL
