MODEL 1
REMARK VINA RESULT:    -4.788      0.000      0.000
REMARK INTER + INTRA:          -5.791
REMARK INTER:                  -5.488
REMARK INTRA:                  -0.303
REMARK UNBOUND:                -0.303
REMARK SMILES COc1ccc(C(C)=O)c(O)c1
REMARK SMILES IDX 6 1 10 2 12 3 3 4 4 5 5 6 7 7 8 8 9 9 11 10 2 12 1 13
REMARK H PARENT 11 11
REMARK Flexibility Score: inf
ROOT
ATOM      1  C   UNL     1      31.286  -4.435  33.955  1.00  0.00     0.059 A 
ATOM      2  C   UNL     1      30.040  -4.707  33.342  1.00  0.00     0.130 A 
ATOM      3  C   UNL     1      28.854  -4.251  33.936  1.00  0.00     0.093 A 
ATOM      4  C   UNL     1      28.878  -3.543  35.140  1.00  0.00     0.122 A 
ATOM      5  C   UNL     1      30.112  -3.288  35.760  1.00  0.00     0.047 A 
ATOM      6  C   UNL     1      31.300  -3.733  35.174  1.00  0.00     0.019 A 
ENDROOT
BRANCH   1   7
ATOM      7  C   UNL     1      32.580  -4.874  33.367  1.00  0.00     0.163 C 
ATOM      8  C   UNL     1      33.805  -5.103  34.199  1.00  0.00     0.093 C 
ATOM      9  O   UNL     1      32.660  -5.064  32.122  1.00  0.00    -0.294 OA
ENDBRANCH   1   7
BRANCH   2  10
ATOM     10  O   UNL     1      29.970  -5.445  32.161  1.00  0.00    -0.507 OA
ATOM     11  H   UNL     1      30.321  -6.394  32.103  1.00  0.00     0.293 HD
ENDBRANCH   2  10
BRANCH   4  12
ATOM     12  O   UNL     1      27.659  -3.114  35.687  1.00  0.00    -0.497 OA
ATOM     13  C   UNL     1      27.452  -1.843  36.292  1.00  0.00     0.278 C 
ENDBRANCH   4  12
TORSDOF 3
ENDMDL
MODEL 2
REMARK VINA RESULT:    -4.563      1.289      4.593
REMARK INTER + INTRA:          -5.533
REMARK INTER:                  -5.251
REMARK INTRA:                  -0.281
REMARK UNBOUND:                -0.303
REMARK SMILES COc1ccc(C(C)=O)c(O)c1
REMARK SMILES IDX 6 1 10 2 12 3 3 4 4 5 5 6 7 7 8 8 9 9 11 10 2 12 1 13
REMARK H PARENT 11 11
REMARK Flexibility Score: inf
ROOT
ATOM      1  C   UNL     1      30.322  -4.102  34.500  1.00  0.00     0.059 A 
ATOM      2  C   UNL     1      30.618  -4.770  33.290  1.00  0.00     0.130 A 
ATOM      3  C   UNL     1      31.952  -5.046  32.952  1.00  0.00     0.093 A 
ATOM      4  C   UNL     1      33.001  -4.657  33.788  1.00  0.00     0.122 A 
ATOM      5  C   UNL     1      32.710  -3.977  34.981  1.00  0.00     0.047 A 
ATOM      6  C   UNL     1      31.385  -3.701  35.330  1.00  0.00     0.019 A 
ENDROOT
BRANCH   1   7
ATOM      7  C   UNL     1      28.929  -3.795  34.925  1.00  0.00     0.163 C 
ATOM      8  C   UNL     1      28.609  -2.721  35.919  1.00  0.00     0.093 C 
ATOM      9  O   UNL     1      27.974  -4.458  34.435  1.00  0.00    -0.294 OA
ENDBRANCH   1   7
BRANCH   2  10
ATOM     10  O   UNL     1      29.603  -5.141  32.410  1.00  0.00    -0.507 OA
ATOM     11  H   UNL     1      29.160  -6.051  32.458  1.00  0.00     0.293 HD
ENDBRANCH   2  10
BRANCH   4  12
ATOM     12  O   UNL     1      34.314  -4.960  33.396  1.00  0.00    -0.497 OA
ATOM     13  C   UNL     1      34.994  -4.335  32.313  1.00  0.00     0.278 C 
ENDBRANCH   4  12
TORSDOF 3
ENDMDL
MODEL 3
REMARK VINA RESULT:    -4.535      4.868      8.471
REMARK INTER + INTRA:          -5.501
REMARK INTER:                  -5.177
REMARK INTRA:                  -0.324
REMARK UNBOUND:                -0.303
REMARK SMILES COc1ccc(C(C)=O)c(O)c1
REMARK SMILES IDX 6 1 10 2 12 3 3 4 4 5 5 6 7 7 8 8 9 9 11 10 2 12 1 13
REMARK H PARENT 11 11
REMARK Flexibility Score: inf
ROOT
ATOM      1  C   UNL     1      23.307  -0.259  34.283  1.00  0.00     0.059 A 
ATOM      2  C   UNL     1      23.102  -1.645  34.468  1.00  0.00     0.130 A 
ATOM      3  C   UNL     1      24.139  -2.549  34.194  1.00  0.00     0.093 A 
ATOM      4  C   UNL     1      25.376  -2.102  33.722  1.00  0.00     0.122 A 
ATOM      5  C   UNL     1      25.576  -0.727  33.519  1.00  0.00     0.047 A 
ATOM      6  C   UNL     1      24.551   0.182  33.795  1.00  0.00     0.019 A 
ENDROOT
BRANCH   1   7
ATOM      7  C   UNL     1      22.254   0.752  34.573  1.00  0.00     0.163 C 
ATOM      8  C   UNL     1      22.447   1.852  35.572  1.00  0.00     0.093 C 
ATOM      9  O   UNL     1      21.153   0.691  33.959  1.00  0.00    -0.294 OA
ENDBRANCH   1   7
BRANCH   2  10
ATOM     10  O   UNL     1      21.870  -2.135  34.900  1.00  0.00    -0.507 OA
ATOM     11  H   UNL     1      21.564  -2.038  35.861  1.00  0.00     0.293 HD
ENDBRANCH   2  10
BRANCH   4  12
ATOM     12  O   UNL     1      26.375  -3.054  33.464  1.00  0.00    -0.497 OA
ATOM     13  C   UNL     1      27.362  -3.458  34.407  1.00  0.00     0.278 C 
ENDBRANCH   4  12
TORSDOF 3
ENDMDL
MODEL 4
REMARK VINA RESULT:    -4.515      1.582      4.921
REMARK INTER + INTRA:          -5.478
REMARK INTER:                  -5.150
REMARK INTRA:                  -0.328
REMARK UNBOUND:                -0.303
REMARK SMILES COc1ccc(C(C)=O)c(O)c1
REMARK SMILES IDX 6 1 10 2 12 3 3 4 4 5 5 6 7 7 8 8 9 9 11 10 2 12 1 13
REMARK H PARENT 11 11
REMARK Flexibility Score: inf
ROOT
ATOM      1  C   UNL     1      28.028  -2.796  35.388  1.00  0.00     0.059 A 
ATOM      2  C   UNL     1      27.830  -3.609  34.248  1.00  0.00     0.130 A 
ATOM      3  C   UNL     1      28.802  -4.553  33.886  1.00  0.00     0.093 A 
ATOM      4  C   UNL     1      29.979  -4.695  34.626  1.00  0.00     0.122 A 
ATOM      5  C   UNL     1      30.185  -3.875  35.747  1.00  0.00     0.047 A 
ATOM      6  C   UNL     1      29.221  -2.936  36.120  1.00  0.00     0.019 A 
ENDROOT
BRANCH   1   7
ATOM      7  C   UNL     1      27.028  -1.789  35.836  1.00  0.00     0.163 C 
ATOM      8  C   UNL     1      26.687  -1.582  37.280  1.00  0.00     0.093 C 
ATOM      9  O   UNL     1      26.439  -1.078  34.976  1.00  0.00    -0.294 OA
ENDBRANCH   1   7
BRANCH   2  10
ATOM     10  O   UNL     1      26.688  -3.472  33.460  1.00  0.00    -0.507 OA
ATOM     11  H   UNL     1      25.765  -3.389  33.869  1.00  0.00     0.293 HD
ENDBRANCH   2  10
BRANCH   4  12
ATOM     12  O   UNL     1      30.915  -5.656  34.213  1.00  0.00    -0.497 OA
ATOM     13  C   UNL     1      32.109  -5.359  33.498  1.00  0.00     0.278 C 
ENDBRANCH   4  12
TORSDOF 3
ENDMDL
MODEL 5
REMARK VINA RESULT:    -4.509      1.527      2.273
REMARK INTER + INTRA:          -5.471
REMARK INTER:                  -5.164
REMARK INTRA:                  -0.308
REMARK UNBOUND:                -0.303
REMARK SMILES COc1ccc(C(C)=O)c(O)c1
REMARK SMILES IDX 6 1 10 2 12 3 3 4 4 5 5 6 7 7 8 8 9 9 11 10 2 12 1 13
REMARK H PARENT 11 11
REMARK Flexibility Score: inf
ROOT
ATOM      1  C   UNL     1      31.802  -4.580  33.933  1.00  0.00     0.059 A 
ATOM      2  C   UNL     1      31.659  -3.840  35.130  1.00  0.00     0.130 A 
ATOM      3  C   UNL     1      30.380  -3.480  35.580  1.00  0.00     0.093 A 
ATOM      4  C   UNL     1      29.237  -3.826  34.854  1.00  0.00     0.122 A 
ATOM      5  C   UNL     1      29.379  -4.544  33.656  1.00  0.00     0.047 A 
ATOM      6  C   UNL     1      30.648  -4.913  33.201  1.00  0.00     0.019 A 
ENDROOT
BRANCH   1   7
ATOM      7  C   UNL     1      33.128  -5.008  33.411  1.00  0.00     0.163 C 
ATOM      8  C   UNL     1      33.683  -4.505  32.114  1.00  0.00     0.093 C 
ATOM      9  O   UNL     1      33.820  -5.826  34.079  1.00  0.00    -0.294 OA
ENDBRANCH   1   7
BRANCH   2  10
ATOM     10  O   UNL     1      32.776  -3.441  35.863  1.00  0.00    -0.507 OA
ATOM     11  H   UNL     1      32.916  -2.476  36.139  1.00  0.00     0.293 HD
ENDBRANCH   2  10
BRANCH   4  12
ATOM     12  O   UNL     1      27.985  -3.436  35.354  1.00  0.00    -0.497 OA
ATOM     13  C   UNL     1      27.752  -2.241  36.092  1.00  0.00     0.278 C 
ENDBRANCH   4  12
TORSDOF 3
ENDMDL
MODEL 6
REMARK VINA RESULT:    -4.435      1.921      5.076
REMARK INTER + INTRA:          -5.387
REMARK INTER:                  -5.052
REMARK INTRA:                  -0.335
REMARK UNBOUND:                -0.303
REMARK SMILES COc1ccc(C(C)=O)c(O)c1
REMARK SMILES IDX 6 1 10 2 12 3 3 4 4 5 5 6 7 7 8 8 9 9 11 10 2 12 1 13
REMARK H PARENT 11 11
REMARK Flexibility Score: inf
ROOT
ATOM      1  C   UNL     1      30.600  -3.874  34.389  1.00  0.00     0.059 A 
ATOM      2  C   UNL     1      31.479  -2.774  34.256  1.00  0.00     0.130 A 
ATOM      3  C   UNL     1      32.753  -2.960  33.700  1.00  0.00     0.093 A 
ATOM      4  C   UNL     1      33.180  -4.224  33.285  1.00  0.00     0.122 A 
ATOM      5  C   UNL     1      32.315  -5.321  33.433  1.00  0.00     0.047 A 
ATOM      6  C   UNL     1      31.042  -5.146  33.981  1.00  0.00     0.019 A 
ENDROOT
BRANCH   1   7
ATOM      7  C   UNL     1      29.230  -3.740  34.953  1.00  0.00     0.163 C 
ATOM      8  C   UNL     1      28.013  -4.247  34.241  1.00  0.00     0.093 C 
ATOM      9  O   UNL     1      29.076  -3.180  36.074  1.00  0.00    -0.294 OA
ENDBRANCH   1   7
BRANCH   2  10
ATOM     10  O   UNL     1      31.107  -1.503  34.694  1.00  0.00    -0.507 OA
ATOM     11  H   UNL     1      30.291  -1.030  34.324  1.00  0.00     0.293 HD
ENDBRANCH   2  10
BRANCH   4  12
ATOM     12  O   UNL     1      34.466  -4.348  32.737  1.00  0.00    -0.497 OA
ATOM     13  C   UNL     1      34.777  -4.142  31.364  1.00  0.00     0.278 C 
ENDBRANCH   4  12
TORSDOF 3
ENDMDL
MODEL 7
REMARK VINA RESULT:    -4.379      4.626      6.180
REMARK INTER + INTRA:          -5.322
REMARK INTER:                  -4.983
REMARK INTRA:                  -0.338
REMARK UNBOUND:                -0.303
REMARK SMILES COc1ccc(C(C)=O)c(O)c1
REMARK SMILES IDX 6 1 10 2 12 3 3 4 4 5 5 6 7 7 8 8 9 9 11 10 2 12 1 13
REMARK H PARENT 11 11
REMARK Flexibility Score: inf
ROOT
ATOM      1  C   UNL     1      26.189  -1.543  35.774  1.00  0.00     0.059 A 
ATOM      2  C   UNL     1      25.755  -1.958  34.493  1.00  0.00     0.130 A 
ATOM      3  C   UNL     1      24.491  -1.572  34.024  1.00  0.00     0.093 A 
ATOM      4  C   UNL     1      23.638  -0.793  34.811  1.00  0.00     0.122 A 
ATOM      5  C   UNL     1      24.059  -0.396  36.090  1.00  0.00     0.047 A 
ATOM      6  C   UNL     1      25.319  -0.771  36.565  1.00  0.00     0.019 A 
ENDROOT
BRANCH   1   7
ATOM      7  C   UNL     1      27.524  -1.903  36.322  1.00  0.00     0.163 C 
ATOM      8  C   UNL     1      27.711  -2.404  37.722  1.00  0.00     0.093 C 
ATOM      9  O   UNL     1      28.545  -1.786  35.590  1.00  0.00    -0.294 OA
ENDBRANCH   1   7
BRANCH   2  10
ATOM     10  O   UNL     1      26.560  -2.768  33.693  1.00  0.00    -0.507 OA
ATOM     11  H   UNL     1      26.247  -3.674  33.367  1.00  0.00     0.293 HD
ENDBRANCH   2  10
BRANCH   4  12
ATOM     12  O   UNL     1      22.385  -0.440  34.287  1.00  0.00    -0.497 OA
ATOM     13  C   UNL     1      21.836   0.873  34.331  1.00  0.00     0.278 C 
ENDBRANCH   4  12
TORSDOF 3
ENDMDL
MODEL 8
REMARK VINA RESULT:    -4.348      1.751      2.558
REMARK INTER + INTRA:          -5.286
REMARK INTER:                  -4.959
REMARK INTRA:                  -0.327
REMARK UNBOUND:                -0.303
REMARK SMILES COc1ccc(C(C)=O)c(O)c1
REMARK SMILES IDX 6 1 10 2 12 3 3 4 4 5 5 6 7 7 8 8 9 9 11 10 2 12 1 13
REMARK H PARENT 11 11
REMARK Flexibility Score: inf
ROOT
ATOM      1  C   UNL     1      33.495  -4.276  33.760  1.00  0.00     0.059 A 
ATOM      2  C   UNL     1      32.597  -4.509  32.693  1.00  0.00     0.130 A 
ATOM      3  C   UNL     1      31.229  -4.245  32.859  1.00  0.00     0.093 A 
ATOM      4  C   UNL     1      30.731  -3.768  34.074  1.00  0.00     0.122 A 
ATOM      5  C   UNL     1      31.618  -3.554  35.141  1.00  0.00     0.047 A 
ATOM      6  C   UNL     1      32.983  -3.808  34.984  1.00  0.00     0.019 A 
ENDROOT
BRANCH   1   7
ATOM      7  C   UNL     1      34.958  -4.517  33.642  1.00  0.00     0.163 C 
ATOM      8  C   UNL     1      35.976  -3.603  34.252  1.00  0.00     0.093 C 
ATOM      9  O   UNL     1      35.368  -5.528  33.008  1.00  0.00    -0.294 OA
ENDBRANCH   1   7
BRANCH   2  10
ATOM     10  O   UNL     1      33.048  -5.022  31.477  1.00  0.00    -0.507 OA
ATOM     11  H   UNL     1      32.646  -4.732  30.593  1.00  0.00     0.293 HD
ENDBRANCH   2  10
BRANCH   4  12
ATOM     12  O   UNL     1      29.353  -3.525  34.180  1.00  0.00    -0.497 OA
ATOM     13  C   UNL     1      28.348  -4.527  34.065  1.00  0.00     0.278 C 
ENDBRANCH   4  12
TORSDOF 3
ENDMDL
MODEL 9
REMARK VINA RESULT:    -4.289      3.943      8.143
REMARK INTER + INTRA:          -5.219
REMARK INTER:                  -4.889
REMARK INTRA:                  -0.331
REMARK UNBOUND:                -0.303
REMARK SMILES COc1ccc(C(C)=O)c(O)c1
REMARK SMILES IDX 6 1 10 2 12 3 3 4 4 5 5 6 7 7 8 8 9 9 11 10 2 12 1 13
REMARK H PARENT 11 11
REMARK Flexibility Score: inf
ROOT
ATOM      1  C   UNL     1      23.882  -0.760  35.669  1.00  0.00     0.059 A 
ATOM      2  C   UNL     1      25.218  -0.835  36.126  1.00  0.00     0.130 A 
ATOM      3  C   UNL     1      26.148  -1.629  35.439  1.00  0.00     0.093 A 
ATOM      4  C   UNL     1      25.773  -2.367  34.313  1.00  0.00     0.122 A 
ATOM      5  C   UNL     1      24.442  -2.308  33.869  1.00  0.00     0.047 A 
ATOM      6  C   UNL     1      23.509  -1.516  34.543  1.00  0.00     0.019 A 
ENDROOT
BRANCH   1   7
ATOM      7  C   UNL     1      22.852   0.077  36.341  1.00  0.00     0.163 C 
ATOM      8  C   UNL     1      22.111   1.167  35.628  1.00  0.00     0.093 C 
ATOM      9  O   UNL     1      22.584  -0.130  37.556  1.00  0.00    -0.294 OA
ENDBRANCH   1   7
BRANCH   2  10
ATOM     10  O   UNL     1      25.623  -0.146  37.268  1.00  0.00    -0.507 OA
ATOM     11  H   UNL     1      25.514  -0.539  38.195  1.00  0.00     0.293 HD
ENDBRANCH   2  10
BRANCH   4  12
ATOM     12  O   UNL     1      26.748  -3.144  33.669  1.00  0.00    -0.497 OA
ATOM     13  C   UNL     1      27.736  -3.915  34.344  1.00  0.00     0.278 C 
ENDBRANCH   4  12
TORSDOF 3
ENDMDL
