MODEL 1
REMARK VINA RESULT:    22.955      0.000      0.000
REMARK INTER + INTRA:          28.836
REMARK INTER:                  28.323
REMARK INTRA:                   0.513
REMARK UNBOUND:                 0.513
REMARK SMILES C=C1[C@@H]2CC[C@H]3[C@H]2C(C)(C)CCC[C@@]13C
REMARK SMILES IDX 14 1 6 2 7 3 3 4 2 5 1 6 4 7 5 8 15 9 8 10 9 11 10 12 11 13
REMARK SMILES IDX 13 15 12 16
REMARK H PARENT
REMARK Flexibility Score: 80.00
ROOT
ATOM      1  C   UNL     1     144.759 145.955 159.299  1.00  0.00    -0.008 C 
ATOM      2  C   UNL     1     144.365 145.065 160.469  1.00  0.00     0.003 C 
ATOM      3  C   UNL     1     145.668 145.152 161.285  1.00  0.00     0.006 C 
ATOM      4  C   UNL     1     146.506 144.447 160.234  1.00  0.00     0.019 C 
ATOM      5  C   UNL     1     146.167 145.387 159.055  1.00  0.00    -0.068 C 
ATOM      6  C   UNL     1     146.989 145.702 158.049  1.00  0.00     0.009 C 
ATOM      7  C   UNL     1     145.760 143.139 160.005  1.00  0.00     0.008 C 
ATOM      8  C   UNL     1     144.293 143.554 160.141  1.00  0.00     0.005 C 
ATOM      9  C   UNL     1     143.863 145.760 158.057  1.00  0.00     0.016 C 
ENDROOT
BRANCH   3  10
ATOM     10  C   UNL     1     145.375 145.643 162.721  1.00  0.00    -0.032 C 
ATOM     11  C   UNL     1     146.681 145.824 163.544  1.00  0.00     0.011 C 
ATOM     12  C   UNL     1     144.488 144.634 163.484  1.00  0.00     0.011 C 
BRANCH  10  13
ATOM     13  C   UNL     1     144.623 147.043 162.551  1.00  0.00     0.007 CG0
ATOM     14  G   UNL     1     145.023 147.922 161.288  1.00  0.00     0.000 G0
ENDBRANCH  10  13
ENDBRANCH   3  10
BRANCH   1  15
ATOM     15  C   UNL     1     144.649 147.465 159.808  1.00  0.00     0.011 C 
BRANCH  15  16
ATOM     16  C   UNL     1     145.019 147.924 161.293  1.00  0.00     0.001 CG0
ATOM     17  G   UNL     1     144.619 147.036 162.550  1.00  0.00     0.000 G0
ENDBRANCH  15  16
ENDBRANCH   1  15
TORSDOF 0
ENDMDL
MODEL 2
REMARK VINA RESULT:    22.965      1.699      3.345
REMARK INTER + INTRA:          28.848
REMARK INTER:                  28.327
REMARK INTRA:                   0.521
REMARK UNBOUND:                 0.513
REMARK SMILES C=C1[C@@H]2CC[C@H]3[C@H]2C(C)(C)CCC[C@@]13C
REMARK SMILES IDX 14 1 6 2 7 3 3 4 2 5 1 6 4 7 5 8 15 9 8 10 9 11 10 12 11 13
REMARK SMILES IDX 13 15 12 16
REMARK H PARENT
REMARK Flexibility Score: 80.00
ROOT
ATOM      1  C   UNL     1     145.984 144.825 159.267  1.00  0.00    -0.008 C 
ATOM      2  C   UNL     1     146.384 145.707 160.440  1.00  0.00     0.003 C 
ATOM      3  C   UNL     1     145.084 145.620 161.260  1.00  0.00     0.006 C 
ATOM      4  C   UNL     1     144.244 146.334 160.216  1.00  0.00     0.019 C 
ATOM      5  C   UNL     1     144.577 145.398 159.030  1.00  0.00    -0.068 C 
ATOM      6  C   UNL     1     143.751 145.091 158.025  1.00  0.00     0.009 C 
ATOM      7  C   UNL     1     144.994 147.640 159.991  1.00  0.00     0.008 C 
ATOM      8  C   UNL     1     146.459 147.220 160.120  1.00  0.00     0.005 C 
ATOM      9  C   UNL     1     146.877 145.023 158.023  1.00  0.00     0.016 C 
ENDROOT
BRANCH   3  10
ATOM     10  C   UNL     1     145.380 145.121 162.692  1.00  0.00    -0.032 C 
ATOM     11  C   UNL     1     144.074 144.927 163.514  1.00  0.00     0.011 C 
ATOM     12  C   UNL     1     146.260 146.130 163.463  1.00  0.00     0.011 C 
BRANCH  10  13
ATOM     13  C   UNL     1     146.139 143.726 162.513  1.00  0.00     0.007 CG0
ATOM     14  G   UNL     1     145.728 142.843 161.256  1.00  0.00     0.000 G0
ENDBRANCH  10  13
ENDBRANCH   3  10
BRANCH   1  15
ATOM     15  C   UNL     1     146.092 143.312 159.768  1.00  0.00     0.011 C 
BRANCH  15  16
ATOM     16  C   UNL     1     145.732 142.848 161.254  1.00  0.00     0.001 CG0
ATOM     17  G   UNL     1     146.149 143.727 162.512  1.00  0.00     0.000 G0
ENDBRANCH  15  16
ENDBRANCH   1  15
TORSDOF 0
ENDMDL
MODEL 3
REMARK VINA RESULT:    23.132      1.326      3.640
REMARK INTER + INTRA:          29.054
REMARK INTER:                  28.555
REMARK INTRA:                   0.499
REMARK UNBOUND:                 0.513
REMARK SMILES C=C1[C@@H]2CC[C@H]3[C@H]2C(C)(C)CCC[C@@]13C
REMARK SMILES IDX 14 1 6 2 7 3 3 4 2 5 1 6 4 7 5 8 15 9 8 10 9 11 10 12 11 13
REMARK SMILES IDX 13 15 12 16
REMARK H PARENT
REMARK Flexibility Score: 80.00
ROOT
ATOM      1  C   UNL     1     145.292 145.736 161.876  1.00  0.00    -0.008 C 
ATOM      2  C   UNL     1     146.104 146.351 160.745  1.00  0.00     0.003 C 
ATOM      3  C   UNL     1     144.968 147.077 160.001  1.00  0.00     0.006 C 
ATOM      4  C   UNL     1     144.250 145.797 159.614  1.00  0.00     0.019 C 
ATOM      5  C   UNL     1     144.111 145.216 161.041  1.00  0.00    -0.068 C 
ATOM      6  C   UNL     1     143.098 144.460 161.478  1.00  0.00     0.009 C 
ATOM      7  C   UNL     1     145.325 144.991 158.897  1.00  0.00     0.008 C 
ATOM      8  C   UNL     1     146.594 145.345 159.675  1.00  0.00     0.005 C 
ATOM      9  C   UNL     1     146.020 144.574 162.586  1.00  0.00     0.016 C 
ENDROOT
BRANCH   3  10
ATOM     10  C   UNL     1     145.293 148.580 159.852  1.00  0.00    -0.032 C 
ATOM     11  C   UNL     1     144.152 149.345 159.123  1.00  0.00     0.011 C 
ATOM     12  C   UNL     1     146.584 148.791 159.030  1.00  0.00     0.011 C 
BRANCH  10  13
ATOM     13  C   UNL     1     145.472 149.132 161.341  1.00  0.00     0.007 CG0
ATOM     14  G   UNL     1     144.640 148.400 162.481  1.00  0.00     0.000 G0
ENDBRANCH  10  13
ENDBRANCH   3  10
BRANCH   1  15
ATOM     15  C   UNL     1     144.999 146.905 162.924  1.00  0.00     0.011 C 
BRANCH  15  16
ATOM     16  C   UNL     1     144.658 148.406 162.497  1.00  0.00     0.001 CG0
ATOM     17  G   UNL     1     145.471 149.136 161.341  1.00  0.00     0.000 G0
ENDBRANCH  15  16
ENDBRANCH   1  15
TORSDOF 0
ENDMDL
MODEL 4
REMARK VINA RESULT:    23.514      2.285      4.209
REMARK INTER + INTRA:          29.525
REMARK INTER:                  29.027
REMARK INTRA:                   0.499
REMARK UNBOUND:                 0.513
REMARK SMILES C=C1[C@@H]2CC[C@H]3[C@H]2C(C)(C)CCC[C@@]13C
REMARK SMILES IDX 14 1 6 2 7 3 3 4 2 5 1 6 4 7 5 8 15 9 8 10 9 11 10 12 11 13
REMARK SMILES IDX 13 15 12 16
REMARK H PARENT
REMARK Flexibility Score: 80.00
ROOT
ATOM      1  C   UNL     1     145.475 145.036 161.871  1.00  0.00    -0.008 C 
ATOM      2  C   UNL     1     144.673 144.407 160.742  1.00  0.00     0.003 C 
ATOM      3  C   UNL     1     145.811 143.654 160.028  1.00  0.00     0.006 C 
ATOM      4  C   UNL     1     146.548 144.919 159.626  1.00  0.00     0.019 C 
ATOM      5  C   UNL     1     146.674 145.526 161.043  1.00  0.00    -0.068 C 
ATOM      6  C   UNL     1     147.688 146.280 161.479  1.00  0.00     0.009 C 
ATOM      7  C   UNL     1     145.492 145.721 158.878  1.00  0.00     0.008 C 
ATOM      8  C   UNL     1     144.209 145.396 159.645  1.00  0.00     0.005 C 
ATOM      9  C   UNL     1     144.751 146.219 162.548  1.00  0.00     0.016 C 
ENDROOT
BRANCH   3  10
ATOM     10  C   UNL     1     145.471 142.152 159.904  1.00  0.00    -0.032 C 
ATOM     11  C   UNL     1     146.612 141.361 159.204  1.00  0.00     0.011 C 
ATOM     12  C   UNL     1     144.188 141.939 159.071  1.00  0.00     0.011 C 
BRANCH  10  13
ATOM     13  C   UNL     1     145.268 141.631 161.401  1.00  0.00     0.007 CG0
ATOM     14  G   UNL     1     146.088 142.382 162.538  1.00  0.00     0.000 G0
ENDBRANCH  10  13
ENDBRANCH   3  10
BRANCH   1  15
ATOM     15  C   UNL     1     145.741 143.885 162.946  1.00  0.00     0.011 C 
BRANCH  15  16
ATOM     16  C   UNL     1     146.078 142.373 162.554  1.00  0.00     0.001 CG0
ATOM     17  G   UNL     1     145.269 141.622 161.409  1.00  0.00     0.000 G0
ENDBRANCH  15  16
ENDBRANCH   1  15
TORSDOF 0
ENDMDL
MODEL 5
REMARK VINA RESULT:    23.706      1.830      3.935
REMARK INTER + INTRA:          29.763
REMARK INTER:                  29.268
REMARK INTRA:                   0.494
REMARK UNBOUND:                 0.513
REMARK SMILES C=C1[C@@H]2CC[C@H]3[C@H]2C(C)(C)CCC[C@@]13C
REMARK SMILES IDX 14 1 6 2 7 3 3 4 2 5 1 6 4 7 5 8 15 9 8 10 9 11 10 12 11 13
REMARK SMILES IDX 13 15 12 16
REMARK H PARENT
REMARK Flexibility Score: 80.00
ROOT
ATOM      1  C   UNL     1     144.205 144.752 161.480  1.00  0.00    -0.008 C 
ATOM      2  C   UNL     1     144.647 146.201 161.333  1.00  0.00     0.003 C 
ATOM      3  C   UNL     1     146.035 145.966 160.708  1.00  0.00     0.006 C 
ATOM      4  C   UNL     1     146.597 145.275 161.937  1.00  0.00     0.019 C 
ATOM      5  C   UNL     1     145.511 144.180 162.055  1.00  0.00    -0.068 C 
ATOM      6  C   UNL     1     145.705 142.938 162.509  1.00  0.00     0.009 C 
ATOM      7  C   UNL     1     146.353 146.283 163.052  1.00  0.00     0.008 C 
ATOM      8  C   UNL     1     145.011 146.906 162.662  1.00  0.00     0.005 C 
ATOM      9  C   UNL     1     143.038 144.569 162.473  1.00  0.00     0.016 C 
ENDROOT
BRANCH   3  10
ATOM     10  C   UNL     1     146.161 146.730 159.370  1.00  0.00    -0.032 C 
ATOM     11  C   UNL     1     147.553 146.509 158.713  1.00  0.00     0.011 C 
ATOM     12  C   UNL     1     145.989 148.251 159.579  1.00  0.00     0.011 C 
BRANCH  10  13
ATOM     13  C   UNL     1     145.003 146.151 158.434  1.00  0.00     0.007 CG0
ATOM     14  G   UNL     1     144.549 144.651 158.699  1.00  0.00     0.000 G0
ENDBRANCH  10  13
ENDBRANCH   3  10
BRANCH   1  15
ATOM     15  C   UNL     1     143.758 144.256 160.029  1.00  0.00     0.011 C 
BRANCH  15  16
ATOM     16  C   UNL     1     144.528 144.651 158.686  1.00  0.00     0.001 CG0
ATOM     17  G   UNL     1     145.002 146.146 158.420  1.00  0.00     0.000 G0
ENDBRANCH  15  16
ENDBRANCH   1  15
TORSDOF 0
ENDMDL
MODEL 6
REMARK VINA RESULT:    23.808      1.782      3.988
REMARK INTER + INTRA:          29.888
REMARK INTER:                  29.360
REMARK INTRA:                   0.529
REMARK UNBOUND:                 0.513
REMARK SMILES C=C1[C@@H]2CC[C@H]3[C@H]2C(C)(C)CCC[C@@]13C
REMARK SMILES IDX 14 1 6 2 7 3 3 4 2 5 1 6 4 7 5 8 15 9 8 10 9 11 10 12 11 13
REMARK SMILES IDX 13 15 12 16
REMARK H PARENT
REMARK Flexibility Score: 80.00
ROOT
ATOM      1  C   UNL     1     146.669 146.032 161.659  1.00  0.00    -0.008 C 
ATOM      2  C   UNL     1     146.164 144.610 161.460  1.00  0.00     0.003 C 
ATOM      3  C   UNL     1     144.808 144.927 160.802  1.00  0.00     0.006 C 
ATOM      4  C   UNL     1     144.243 145.612 162.033  1.00  0.00     0.019 C 
ATOM      5  C   UNL     1     145.375 146.650 162.213  1.00  0.00    -0.068 C 
ATOM      6  C   UNL     1     145.226 147.888 162.695  1.00  0.00     0.009 C 
ATOM      7  C   UNL     1     144.406 144.564 163.127  1.00  0.00     0.008 C 
ATOM      8  C   UNL     1     145.728 143.888 162.758  1.00  0.00     0.005 C 
ATOM      9  C   UNL     1     147.814 146.134 162.690  1.00  0.00     0.016 C 
ENDROOT
BRANCH   3  10
ATOM     10  C   UNL     1     144.686 144.205 159.441  1.00  0.00    -0.032 C 
ATOM     11  C   UNL     1     143.383 144.605 158.694  1.00  0.00     0.011 C 
ATOM     12  C   UNL     1     144.658 142.672 159.625  1.00  0.00     0.011 C 
BRANCH  10  13
ATOM     13  C   UNL     1     145.970 144.652 158.601  1.00  0.00     0.007 CG0
ATOM     14  G   UNL     1     146.516 146.124 158.855  1.00  0.00     0.000 G0
ENDBRANCH  10  13
ENDBRANCH   3  10
BRANCH   1  15
ATOM     15  C   UNL     1     147.183 146.544 160.236  1.00  0.00     0.011 C 
BRANCH  15  16
ATOM     16  C   UNL     1     146.504 146.125 158.851  1.00  0.00     0.001 CG0
ATOM     17  G   UNL     1     145.979 144.644 158.609  1.00  0.00     0.000 G0
ENDBRANCH  15  16
ENDBRANCH   1  15
TORSDOF 0
ENDMDL
MODEL 7
REMARK VINA RESULT:    24.612      1.763      3.560
REMARK INTER + INTRA:          30.880
REMARK INTER:                  30.391
REMARK INTRA:                   0.489
REMARK UNBOUND:                 0.513
REMARK SMILES C=C1[C@@H]2CC[C@H]3[C@H]2C(C)(C)CCC[C@@]13C
REMARK SMILES IDX 14 1 6 2 7 3 3 4 2 5 1 6 4 7 5 8 15 9 8 10 9 11 10 12 11 13
REMARK SMILES IDX 13 15 12 16
REMARK H PARENT
REMARK Flexibility Score: 80.00
ROOT
ATOM      1  C   UNL     1     146.143 144.975 159.924  1.00  0.00    -0.008 C 
ATOM      2  C   UNL     1     144.957 145.795 159.436  1.00  0.00     0.003 C 
ATOM      3  C   UNL     1     145.004 146.928 160.478  1.00  0.00     0.006 C 
ATOM      4  C   UNL     1     144.680 146.018 161.649  1.00  0.00     0.019 C 
ATOM      5  C   UNL     1     145.828 145.005 161.428  1.00  0.00    -0.068 C 
ATOM      6  C   UNL     1     146.472 144.338 162.390  1.00  0.00     0.009 C 
ATOM      7  C   UNL     1     143.384 145.341 161.223  1.00  0.00     0.008 C 
ATOM      8  C   UNL     1     143.572 145.163 159.715  1.00  0.00     0.005 C 
ATOM      9  C   UNL     1     146.143 143.527 159.389  1.00  0.00     0.016 C 
ENDROOT
BRANCH   3  10
ATOM     10  C   UNL     1     145.097 148.303 159.778  1.00  0.00    -0.032 C 
ATOM     11  C   UNL     1     145.146 149.468 160.805  1.00  0.00     0.011 C 
ATOM     12  C   UNL     1     143.874 148.546 158.866  1.00  0.00     0.011 C 
BRANCH  10  13
ATOM     13  C   UNL     1     146.444 148.258 158.919  1.00  0.00     0.007 CG0
ATOM     14  G   UNL     1     147.604 147.311 159.455  1.00  0.00     0.000 G0
ENDBRANCH  10  13
ENDBRANCH   3  10
BRANCH   1  15
ATOM     15  C   UNL     1     147.461 145.730 159.430  1.00  0.00     0.011 C 
BRANCH  15  16
ATOM     16  C   UNL     1     147.621 147.319 159.433  1.00  0.00     0.001 CG0
ATOM     17  G   UNL     1     146.452 148.263 158.913  1.00  0.00     0.000 G0
ENDBRANCH  15  16
ENDBRANCH   1  15
TORSDOF 0
ENDMDL
MODEL 8
REMARK VINA RESULT:    24.875      2.179      4.054
REMARK INTER + INTRA:          31.204
REMARK INTER:                  30.695
REMARK INTRA:                   0.510
REMARK UNBOUND:                 0.513
REMARK SMILES C=C1[C@@H]2CC[C@H]3[C@H]2C(C)(C)CCC[C@@]13C
REMARK SMILES IDX 14 1 6 2 7 3 3 4 2 5 1 6 4 7 5 8 15 9 8 10 9 11 10 12 11 13
REMARK SMILES IDX 13 15 12 16
REMARK H PARENT
REMARK Flexibility Score: 80.00
ROOT
ATOM      1  C   UNL     1     144.633 145.824 160.084  1.00  0.00    -0.008 C 
ATOM      2  C   UNL     1     145.838 145.033 159.595  1.00  0.00     0.003 C 
ATOM      3  C   UNL     1     145.770 143.854 160.584  1.00  0.00     0.006 C 
ATOM      4  C   UNL     1     146.054 144.714 161.803  1.00  0.00     0.019 C 
ATOM      5  C   UNL     1     144.906 145.729 161.594  1.00  0.00    -0.068 C 
ATOM      6  C   UNL     1     144.229 146.349 162.566  1.00  0.00     0.009 C 
ATOM      7  C   UNL     1     147.356 145.417 161.445  1.00  0.00     0.008 C 
ATOM      8  C   UNL     1     147.211 145.660 159.941  1.00  0.00     0.005 C 
ATOM      9  C   UNL     1     144.638 147.294 159.614  1.00  0.00     0.016 C 
ENDROOT
BRANCH   3  10
ATOM     10  C   UNL     1     145.707 142.512 159.822  1.00  0.00    -0.032 C 
ATOM     11  C   UNL     1     145.557 141.307 160.793  1.00  0.00     0.011 C 
ATOM     12  C   UNL     1     146.992 142.279 158.998  1.00  0.00     0.011 C 
BRANCH  10  13
ATOM     13  C   UNL     1     144.431 142.620 158.865  1.00  0.00     0.007 CG0
ATOM     14  G   UNL     1     143.222 143.514 159.381  1.00  0.00     0.000 G0
ENDBRANCH  10  13
ENDBRANCH   3  10
BRANCH   1  15
ATOM     15  C   UNL     1     143.335 145.084 159.519  1.00  0.00     0.011 C 
BRANCH  15  16
ATOM     16  C   UNL     1     143.218 143.497 159.372  1.00  0.00     0.001 CG0
ATOM     17  G   UNL     1     144.444 142.629 158.849  1.00  0.00     0.000 G0
ENDBRANCH  15  16
ENDBRANCH   1  15
TORSDOF 0
ENDMDL
