MODEL 1
REMARK VINA RESULT:    -5.350      0.000      0.000
REMARK INTER + INTRA:          -8.087
REMARK INTER:                  -6.601
REMARK INTRA:                  -1.486
REMARK UNBOUND:                -1.486
REMARK SMILES CC(C)=CCC[C@@H](C)c1ccc(C)cc1
REMARK SMILES IDX 6 1 7 2 8 3 9 4 13 5 12 6 11 7 14 8 10 9 15 10 5 11 4 12
REMARK SMILES IDX 2 13 1 14 3 15
REMARK H PARENT
REMARK Flexibility Score: inf
ROOT
ATOM      1  C   UNL     1      21.206  44.594  -4.579  1.00  0.00     0.012 C 
ENDROOT
BRANCH   1   2
ATOM      2  C   UNL     1      21.558  44.181  -6.029  1.00  0.00     0.016 C 
ATOM      3  C   UNL     1      20.375  43.541  -6.771  1.00  0.00     0.013 C 
BRANCH   2   4
ATOM      4  C   UNL     1      22.080  45.379  -6.804  1.00  0.00    -0.045 A 
ATOM      5  C   UNL     1      23.562  48.816  -8.959  1.00  0.00     0.044 C 
ATOM      6  C   UNL     1      23.063  47.604  -8.229  1.00  0.00    -0.051 A 
ATOM      7  C   UNL     1      23.752  47.121  -7.107  1.00  0.00     0.004 A 
ATOM      8  C   UNL     1      21.865  46.988  -8.620  1.00  0.00     0.004 A 
ATOM      9  C   UNL     1      23.268  46.015  -6.405  1.00  0.00     0.004 A 
ATOM     10  C   UNL     1      21.380  45.882  -7.917  1.00  0.00     0.004 A 
ENDBRANCH   2   4
ENDBRANCH   1   2
BRANCH   1  11
ATOM     11  C   UNL     1      20.272  45.818  -4.491  1.00  0.00     0.028 C 
BRANCH  11  12
ATOM     12  C   UNL     1      20.856  46.936  -3.660  1.00  0.00    -0.028 C 
ATOM     13  C   UNL     1      20.993  48.199  -4.115  1.00  0.00    -0.080 C 
ATOM     14  C   UNL     1      20.569  48.587  -5.511  1.00  0.00     0.039 C 
ATOM     15  C   UNL     1      21.586  49.238  -3.198  1.00  0.00     0.039 C 
ENDBRANCH  11  12
ENDBRANCH   1  11
TORSDOF 4
ENDMDL
MODEL 2
REMARK VINA RESULT:    -5.216      1.703      3.985
REMARK INTER + INTRA:          -7.922
REMARK INTER:                  -6.942
REMARK INTRA:                  -0.980
REMARK UNBOUND:                -1.486
REMARK SMILES CC(C)=CCC[C@@H](C)c1ccc(C)cc1
REMARK SMILES IDX 6 1 7 2 8 3 9 4 13 5 12 6 11 7 14 8 10 9 15 10 5 11 4 12
REMARK SMILES IDX 2 13 1 14 3 15
REMARK H PARENT
REMARK Flexibility Score: inf
ROOT
ATOM      1  C   UNL     1      20.369  49.133  -5.033  1.00  0.00     0.012 C 
ENDROOT
BRANCH   1   2
ATOM      2  C   UNL     1      21.439  48.517  -5.968  1.00  0.00     0.016 C 
ATOM      3  C   UNL     1      22.863  48.633  -5.404  1.00  0.00     0.013 C 
BRANCH   2   4
ATOM      4  C   UNL     1      21.106  47.064  -6.262  1.00  0.00    -0.045 A 
ATOM      5  C   UNL     1      20.192  42.917  -7.052  1.00  0.00     0.044 C 
ATOM      6  C   UNL     1      20.482  44.365  -6.788  1.00  0.00    -0.051 A 
ATOM      7  C   UNL     1      20.210  44.922  -5.530  1.00  0.00     0.004 A 
ATOM      8  C   UNL     1      21.093  45.155  -7.773  1.00  0.00     0.004 A 
ATOM      9  C   UNL     1      20.513  46.261  -5.272  1.00  0.00     0.004 A 
ATOM     10  C   UNL     1      21.398  46.493  -7.515  1.00  0.00     0.004 A 
ENDBRANCH   2   4
ENDBRANCH   1   2
BRANCH   1  11
ATOM     11  C   UNL     1      20.920  49.563  -3.658  1.00  0.00     0.028 C 
BRANCH  11  12
ATOM     12  C   UNL     1      20.440  48.674  -2.536  1.00  0.00    -0.028 C 
ATOM     13  C   UNL     1      21.276  48.083  -1.655  1.00  0.00    -0.080 C 
ATOM     14  C   UNL     1      22.772  48.271  -1.736  1.00  0.00     0.039 C 
ATOM     15  C   UNL     1      20.689  47.216  -0.571  1.00  0.00     0.039 C 
ENDBRANCH  11  12
ENDBRANCH   1  11
TORSDOF 4
ENDMDL
MODEL 3
REMARK VINA RESULT:    -5.104      1.155      3.504
REMARK INTER + INTRA:          -7.784
REMARK INTER:                  -6.352
REMARK INTRA:                  -1.431
REMARK UNBOUND:                -1.486
REMARK SMILES CC(C)=CCC[C@@H](C)c1ccc(C)cc1
REMARK SMILES IDX 6 1 7 2 8 3 9 4 13 5 12 6 11 7 14 8 10 9 15 10 5 11 4 12
REMARK SMILES IDX 2 13 1 14 3 15
REMARK H PARENT
REMARK Flexibility Score: inf
ROOT
ATOM      1  C   UNL     1      20.132  47.743  -4.926  1.00  0.00     0.012 C 
ENDROOT
BRANCH   1   2
ATOM      2  C   UNL     1      21.367  48.660  -5.105  1.00  0.00     0.016 C 
ATOM      3  C   UNL     1      22.357  48.564  -3.935  1.00  0.00     0.013 C 
BRANCH   2   4
ATOM      4  C   UNL     1      22.068  48.346  -6.416  1.00  0.00    -0.045 A 
ATOM      5  C   UNL     1      24.094  47.502 -10.136  1.00  0.00     0.044 C 
ATOM      6  C   UNL     1      23.388  47.765  -8.839  1.00  0.00    -0.051 A 
ATOM      7  C   UNL     1      24.125  47.980  -7.665  1.00  0.00     0.004 A 
ATOM      8  C   UNL     1      21.990  47.869  -8.803  1.00  0.00     0.004 A 
ATOM      9  C   UNL     1      23.470  48.262  -6.463  1.00  0.00     0.004 A 
ATOM     10  C   UNL     1      21.335  48.151  -7.602  1.00  0.00     0.004 A 
ENDBRANCH   2   4
ENDBRANCH   1   2
BRANCH   1  11
ATOM     11  C   UNL     1      20.467  46.360  -4.332  1.00  0.00     0.028 C 
BRANCH  11  12
ATOM     12  C   UNL     1      20.047  45.223  -5.233  1.00  0.00    -0.028 C 
ATOM     13  C   UNL     1      20.915  44.535  -6.005  1.00  0.00    -0.080 C 
ATOM     14  C   UNL     1      22.388  44.863  -6.023  1.00  0.00     0.039 C 
ATOM     15  C   UNL     1      20.387  43.416  -6.866  1.00  0.00     0.039 C 
ENDBRANCH  11  12
ENDBRANCH   1  11
TORSDOF 4
ENDMDL
MODEL 4
REMARK VINA RESULT:    -4.925      2.337      6.319
REMARK INTER + INTRA:          -7.562
REMARK INTER:                  -6.741
REMARK INTRA:                  -0.821
REMARK UNBOUND:                -1.486
REMARK SMILES CC(C)=CCC[C@@H](C)c1ccc(C)cc1
REMARK SMILES IDX 6 1 7 2 8 3 9 4 13 5 12 6 11 7 14 8 10 9 15 10 5 11 4 12
REMARK SMILES IDX 2 13 1 14 3 15
REMARK H PARENT
REMARK Flexibility Score: inf
ROOT
ATOM      1  C   UNL     1      20.339  47.576  -4.897  1.00  0.00     0.012 C 
ENDROOT
BRANCH   1   2
ATOM      2  C   UNL     1      21.119  48.019  -3.634  1.00  0.00     0.016 C 
ATOM      3  C   UNL     1      20.799  49.460  -3.211  1.00  0.00     0.013 C 
BRANCH   2   4
ATOM      4  C   UNL     1      20.847  47.060  -2.487  1.00  0.00    -0.045 A 
ATOM      5  C   UNL     1      20.024  44.322   0.750  1.00  0.00     0.044 C 
ATOM      6  C   UNL     1      20.339  45.267  -0.372  1.00  0.00    -0.051 A 
ATOM      7  C   UNL     1      20.315  44.819  -1.700  1.00  0.00     0.004 A 
ATOM      8  C   UNL     1      20.591  46.621  -0.106  1.00  0.00     0.004 A 
ATOM      9  C   UNL     1      20.572  45.707  -2.748  1.00  0.00     0.004 A 
ATOM     10  C   UNL     1      20.848  47.509  -1.153  1.00  0.00     0.004 A 
ENDBRANCH   2   4
ENDBRANCH   1   2
BRANCH   1  11
ATOM     11  C   UNL     1      21.234  46.975  -6.000  1.00  0.00     0.028 C 
BRANCH  11  12
ATOM     12  C   UNL     1      20.638  45.734  -6.620  1.00  0.00    -0.028 C 
ATOM     13  C   UNL     1      21.071  44.486  -6.337  1.00  0.00    -0.080 C 
ATOM     14  C   UNL     1      22.202  44.244  -5.367  1.00  0.00     0.039 C 
ATOM     15  C   UNL     1      20.401  43.318  -7.012  1.00  0.00     0.039 C 
ENDBRANCH  11  12
ENDBRANCH   1  11
TORSDOF 4
ENDMDL
MODEL 5
REMARK VINA RESULT:    -4.909      1.289      4.121
REMARK INTER + INTRA:          -7.542
REMARK INTER:                  -6.208
REMARK INTRA:                  -1.334
REMARK UNBOUND:                -1.486
REMARK SMILES CC(C)=CCC[C@@H](C)c1ccc(C)cc1
REMARK SMILES IDX 6 1 7 2 8 3 9 4 13 5 12 6 11 7 14 8 10 9 15 10 5 11 4 12
REMARK SMILES IDX 2 13 1 14 3 15
REMARK H PARENT
REMARK Flexibility Score: inf
ROOT
ATOM      1  C   UNL     1      21.131  46.243  -8.381  1.00  0.00     0.012 C 
ENDROOT
BRANCH   1   2
ATOM      2  C   UNL     1      22.284  47.181  -7.948  1.00  0.00     0.016 C 
ATOM      3  C   UNL     1      22.640  48.223  -9.018  1.00  0.00     0.013 C 
BRANCH   2   4
ATOM      4  C   UNL     1      21.938  47.868  -6.638  1.00  0.00    -0.045 A 
ATOM      5  C   UNL     1      20.963  49.772  -2.885  1.00  0.00     0.044 C 
ATOM      6  C   UNL     1      21.312  49.137  -4.199  1.00  0.00    -0.051 A 
ATOM      7  C   UNL     1      22.555  48.512  -4.373  1.00  0.00     0.004 A 
ATOM      8  C   UNL     1      20.372  49.101  -5.239  1.00  0.00     0.004 A 
ATOM      9  C   UNL     1      22.867  47.889  -5.584  1.00  0.00     0.004 A 
ATOM     10  C   UNL     1      20.682  48.477  -6.449  1.00  0.00     0.004 A 
ENDBRANCH   2   4
ENDBRANCH   1   2
BRANCH   1  11
ATOM     11  C   UNL     1      21.086  44.913  -7.603  1.00  0.00     0.028 C 
BRANCH  11  12
ATOM     12  C   UNL     1      20.311  45.022  -6.311  1.00  0.00    -0.028 C 
ATOM     13  C   UNL     1      20.862  44.795  -5.099  1.00  0.00    -0.080 C 
ATOM     14  C   UNL     1      22.314  44.409  -4.951  1.00  0.00     0.039 C 
ATOM     15  C   UNL     1      19.996  44.935  -3.874  1.00  0.00     0.039 C 
ENDBRANCH  11  12
ENDBRANCH   1  11
TORSDOF 4
ENDMDL
MODEL 6
REMARK VINA RESULT:    -4.831      1.688      2.413
REMARK INTER + INTRA:          -7.446
REMARK INTER:                  -6.863
REMARK INTRA:                  -0.584
REMARK UNBOUND:                -1.486
REMARK SMILES CC(C)=CCC[C@@H](C)c1ccc(C)cc1
REMARK SMILES IDX 6 1 7 2 8 3 9 4 13 5 12 6 11 7 14 8 10 9 15 10 5 11 4 12
REMARK SMILES IDX 2 13 1 14 3 15
REMARK H PARENT
REMARK Flexibility Score: inf
ROOT
ATOM      1  C   UNL     1      19.971  45.040  -5.114  1.00  0.00     0.012 C 
ENDROOT
BRANCH   1   2
ATOM      2  C   UNL     1      21.018  44.395  -6.055  1.00  0.00     0.016 C 
ATOM      3  C   UNL     1      20.404  43.369  -7.018  1.00  0.00     0.013 C 
BRANCH   2   4
ATOM      4  C   UNL     1      21.756  45.471  -6.834  1.00  0.00    -0.045 A 
ATOM      5  C   UNL     1      23.870  48.554  -8.998  1.00  0.00     0.044 C 
ATOM      6  C   UNL     1      23.142  47.464  -8.268  1.00  0.00    -0.051 A 
ATOM      7  C   UNL     1      23.808  46.693  -7.305  1.00  0.00     0.004 A 
ATOM      8  C   UNL     1      21.774  47.254  -8.493  1.00  0.00     0.004 A 
ATOM      9  C   UNL     1      23.122  45.701  -6.598  1.00  0.00     0.004 A 
ATOM     10  C   UNL     1      21.088  46.263  -7.787  1.00  0.00     0.004 A 
ENDBRANCH   2   4
ENDBRANCH   1   2
BRANCH   1  11
ATOM     11  C   UNL     1      20.579  45.646  -3.833  1.00  0.00     0.028 C 
BRANCH  11  12
ATOM     12  C   UNL     1      20.346  44.782  -2.615  1.00  0.00    -0.028 C 
ATOM     13  C   UNL     1      20.761  45.127  -1.377  1.00  0.00    -0.080 C 
ATOM     14  C   UNL     1      21.500  46.418  -1.122  1.00  0.00     0.039 C 
ATOM     15  C   UNL     1      20.473  44.190  -0.232  1.00  0.00     0.039 C 
ENDBRANCH  11  12
ENDBRANCH   1  11
TORSDOF 4
ENDMDL
MODEL 7
REMARK VINA RESULT:    -4.767      2.100      3.280
REMARK INTER + INTRA:          -7.368
REMARK INTER:                  -6.645
REMARK INTRA:                  -0.723
REMARK UNBOUND:                -1.486
REMARK SMILES CC(C)=CCC[C@@H](C)c1ccc(C)cc1
REMARK SMILES IDX 6 1 7 2 8 3 9 4 13 5 12 6 11 7 14 8 10 9 15 10 5 11 4 12
REMARK SMILES IDX 2 13 1 14 3 15
REMARK H PARENT
REMARK Flexibility Score: inf
ROOT
ATOM      1  C   UNL     1      20.106  45.390  -4.480  1.00  0.00     0.012 C 
ENDROOT
BRANCH   1   2
ATOM      2  C   UNL     1      20.282  46.860  -4.936  1.00  0.00     0.016 C 
ATOM      3  C   UNL     1      21.022  47.721  -3.902  1.00  0.00     0.013 C 
BRANCH   2   4
ATOM      4  C   UNL     1      20.999  46.912  -6.274  1.00  0.00    -0.045 A 
ATOM      5  C   UNL     1      23.000  47.102 -10.097  1.00  0.00     0.044 C 
ATOM      6  C   UNL     1      22.331  47.030  -8.756  1.00  0.00    -0.051 A 
ATOM      7  C   UNL     1      22.176  48.188  -7.981  1.00  0.00     0.004 A 
ATOM      8  C   UNL     1      21.794  45.817  -8.299  1.00  0.00     0.004 A 
ATOM      9  C   UNL     1      21.521  48.128  -6.748  1.00  0.00     0.004 A 
ATOM     10  C   UNL     1      21.138  45.757  -7.067  1.00  0.00     0.004 A 
ENDBRANCH   2   4
ENDBRANCH   1   2
BRANCH   1  11
ATOM     11  C   UNL     1      21.118  44.949  -3.404  1.00  0.00     0.028 C 
BRANCH  11  12
ATOM     12  C   UNL     1      20.450  44.522  -2.119  1.00  0.00    -0.028 C 
ATOM     13  C   UNL     1      20.806  45.002  -0.908  1.00  0.00    -0.080 C 
ATOM     14  C   UNL     1      21.916  46.013  -0.754  1.00  0.00     0.039 C 
ATOM     15  C   UNL     1      20.069  44.508   0.311  1.00  0.00     0.039 C 
ENDBRANCH  11  12
ENDBRANCH   1  11
TORSDOF 4
ENDMDL
MODEL 8
REMARK VINA RESULT:    -4.645      2.564      4.689
REMARK INTER + INTRA:          -7.217
REMARK INTER:                  -6.270
REMARK INTRA:                  -0.947
REMARK UNBOUND:                -1.486
REMARK SMILES CC(C)=CCC[C@@H](C)c1ccc(C)cc1
REMARK SMILES IDX 6 1 7 2 8 3 9 4 13 5 12 6 11 7 14 8 10 9 15 10 5 11 4 12
REMARK SMILES IDX 2 13 1 14 3 15
REMARK H PARENT
REMARK Flexibility Score: inf
ROOT
ATOM      1  C   UNL     1      22.321  47.925  -2.212  1.00  0.00     0.012 C 
ENDROOT
BRANCH   1   2
ATOM      2  C   UNL     1      20.889  47.898  -2.799  1.00  0.00     0.016 C 
ATOM      3  C   UNL     1      20.342  49.300  -3.104  1.00  0.00     0.013 C 
BRANCH   2   4
ATOM      4  C   UNL     1      20.849  47.034  -4.048  1.00  0.00    -0.045 A 
ATOM      5  C   UNL     1      20.775  44.541  -7.574  1.00  0.00     0.044 C 
ATOM      6  C   UNL     1      20.772  45.414  -6.354  1.00  0.00    -0.051 A 
ATOM      7  C   UNL     1      20.470  44.871  -5.097  1.00  0.00     0.004 A 
ATOM      8  C   UNL     1      21.139  46.764  -6.451  1.00  0.00     0.004 A 
ATOM      9  C   UNL     1      20.503  45.675  -3.955  1.00  0.00     0.004 A 
ATOM     10  C   UNL     1      21.173  47.569  -5.309  1.00  0.00     0.004 A 
ENDBRANCH   2   4
ENDBRANCH   1   2
BRANCH   1  11
ATOM     11  C   UNL     1      22.400  47.454  -0.746  1.00  0.00     0.028 C 
BRANCH  11  12
ATOM     12  C   UNL     1      21.724  46.122  -0.526  1.00  0.00    -0.028 C 
ATOM     13  C   UNL     1      20.641  45.966   0.265  1.00  0.00    -0.080 C 
ATOM     14  C   UNL     1      20.024  47.133   0.999  1.00  0.00     0.039 C 
ATOM     15  C   UNL     1      20.043  44.590   0.412  1.00  0.00     0.039 C 
ENDBRANCH  11  12
ENDBRANCH   1  11
TORSDOF 4
ENDMDL
MODEL 9
REMARK VINA RESULT:    -4.342      2.012      5.745
REMARK INTER + INTRA:          -6.843
REMARK INTER:                  -6.015
REMARK INTRA:                  -0.828
REMARK UNBOUND:                -1.486
REMARK SMILES CC(C)=CCC[C@@H](C)c1ccc(C)cc1
REMARK SMILES IDX 6 1 7 2 8 3 9 4 13 5 12 6 11 7 14 8 10 9 15 10 5 11 4 12
REMARK SMILES IDX 2 13 1 14 3 15
REMARK H PARENT
REMARK Flexibility Score: inf
ROOT
ATOM      1  C   UNL     1      22.112  47.766  -5.632  1.00  0.00     0.012 C 
ENDROOT
BRANCH   1   2
ATOM      2  C   UNL     1      21.535  48.814  -4.650  1.00  0.00     0.016 C 
ATOM      3  C   UNL     1      20.078  49.185  -4.960  1.00  0.00     0.013 C 
BRANCH   2   4
ATOM      4  C   UNL     1      21.659  48.317  -3.219  1.00  0.00    -0.045 A 
ATOM      5  C   UNL     1      22.062  46.880   0.834  1.00  0.00     0.044 C 
ATOM      6  C   UNL     1      21.906  47.403  -0.564  1.00  0.00    -0.051 A 
ATOM      7  C   UNL     1      22.885  48.240  -1.118  1.00  0.00     0.004 A 
ATOM      8  C   UNL     1      20.817  47.002  -1.350  1.00  0.00     0.004 A 
ATOM      9  C   UNL     1      22.759  48.697  -2.432  1.00  0.00     0.004 A 
ATOM     10  C   UNL     1      20.691  47.458  -2.665  1.00  0.00     0.004 A 
ENDBRANCH   2   4
ENDBRANCH   1   2
BRANCH   1  11
ATOM     11  C   UNL     1      21.120  47.332  -6.730  1.00  0.00     0.028 C 
BRANCH  11  12
ATOM     12  C   UNL     1      21.211  45.858  -7.045  1.00  0.00    -0.028 C 
ATOM     13  C   UNL     1      20.562  44.910  -6.335  1.00  0.00    -0.080 C 
ATOM     14  C   UNL     1      19.689  45.266  -5.156  1.00  0.00     0.039 C 
ATOM     15  C   UNL     1      20.721  43.467  -6.739  1.00  0.00     0.039 C 
ENDBRANCH  11  12
ENDBRANCH   1  11
TORSDOF 4
ENDMDL
