MODEL 1
REMARK VINA RESULT:    -5.870      0.000      0.000
REMARK INTER + INTRA:          -9.056
REMARK INTER:                  -7.929
REMARK INTRA:                  -1.127
REMARK UNBOUND:                -1.127
REMARK SMILES CC[C@H](CC[C@H](C)[C@@H]1CC[C@@H]2[C@@H]3CC(=O)C4=CC(=O)CC[C@@]4(C)[C@@H]3CC[C@@]21C)C(C)C
REMARK SMILES IDX 4 1 3 2 2 3 1 4 29 5 30 6 31 7 5 8 6 9 7 10 8 11 9 12 27 13
REMARK SMILES IDX 10 14 11 15 26 16 28 17 12 18 25 19 24 20 13 21 22 22 14 23
REMARK SMILES IDX 16 24 21 25 23 26 15 27 17 28 20 29 18 30 19 31
REMARK H PARENT
REMARK Flexibility Score: inf
ROOT
ATOM      1  C   UNL     1      -6.970  -8.156 -43.942  1.00  0.00     0.004 C 
ENDROOT
BRANCH   1   2
ATOM      2  C   UNL     1      -6.815  -8.501 -45.450  1.00  0.00    -0.009 C 
BRANCH   2   3
ATOM      3  C   UNL     1      -5.320  -8.674 -45.860  1.00  0.00     0.000 C 
ATOM      4  C   UNL     1      -4.341  -7.645 -45.276  1.00  0.00     0.004 C 
ENDBRANCH   2   3
BRANCH   2   5
ATOM      5  C   UNL     1      -7.758  -9.660 -45.925  1.00  0.00    -0.014 C 
ATOM      6  C   UNL     1      -9.044  -9.126 -46.577  1.00  0.00     0.007 C 
ATOM      7  C   UNL     1      -7.084 -10.683 -46.850  1.00  0.00     0.007 C 
ENDBRANCH   2   5
ENDBRANCH   1   2
BRANCH   1   8
ATOM      8  C   UNL     1      -7.528  -9.322 -43.093  1.00  0.00     0.004 C 
BRANCH   8   9
ATOM      9  C   UNL     1      -7.041  -9.298 -41.612  1.00  0.00    -0.011 C 
ATOM     10  C   UNL     1      -6.226  -8.014 -41.361  1.00  0.00     0.008 C 
BRANCH   9  11
ATOM     11  C   UNL     1      -6.210 -10.593 -41.281  1.00  0.00    -0.002 C 
ATOM     12  C   UNL     1      -5.829 -10.671 -39.790  1.00  0.00     0.005 C 
ATOM     13  C   UNL     1      -4.863 -10.837 -42.043  1.00  0.00    -0.026 C 
ATOM     14  C   UNL     1      -4.481 -11.374 -39.699  1.00  0.00     0.005 C 
ATOM     15  C   UNL     1      -4.136 -11.833 -41.120  1.00  0.00    -0.001 C 
ATOM     16  C   UNL     1      -4.020  -9.541 -42.132  1.00  0.00     0.007 C 
ATOM     17  C   UNL     1      -5.091 -11.485 -43.436  1.00  0.00     0.012 C 
ATOM     18  C   UNL     1      -2.614 -12.081 -41.432  1.00  0.00     0.004 C 
ATOM     19  C   UNL     1      -2.640  -9.771 -42.735  1.00  0.00     0.005 C 
ATOM     20  C   UNL     1      -1.782 -10.871 -42.042  1.00  0.00     0.003 C 
ATOM     21  C   UNL     1      -1.924 -12.883 -40.277  1.00  0.00     0.085 C 
ATOM     22  C   UNL     1      -0.566 -10.388 -41.159  1.00  0.00    -0.000 C 
ATOM     23  C   UNL     1      -0.427 -12.799 -40.263  1.00  0.00     0.159 C 
ATOM     24  C   UNL     1       0.261 -11.654 -40.885  1.00  0.00     0.005 C 
ATOM     25  C   UNL     1       0.346  -9.298 -41.834  1.00  0.00     0.020 C 
ATOM     26  C   UNL     1      -1.047  -9.765 -39.826  1.00  0.00     0.017 C 
ATOM     27  O   UNL     1       0.233 -13.710 -39.694  1.00  0.00    -0.295 OA
ATOM     28  C   UNL     1       1.452 -11.885 -41.476  1.00  0.00     0.055 C 
ATOM     29  C   UNL     1       1.180  -9.836 -42.992  1.00  0.00     0.081 C 
ATOM     30  C   UNL     1       1.999 -10.982 -42.498  1.00  0.00     0.156 C 
ATOM     31  O   UNL     1       3.125 -11.221 -43.009  1.00  0.00    -0.295 OA
ENDBRANCH   9  11
ENDBRANCH   8   9
ENDBRANCH   1   8
TORSDOF 6
ENDMDL
MODEL 2
REMARK VINA RESULT:    -5.855     11.883     14.354
REMARK INTER + INTRA:          -9.036
REMARK INTER:                  -7.220
REMARK INTRA:                  -1.816
REMARK UNBOUND:                -1.127
REMARK SMILES CC[C@H](CC[C@H](C)[C@@H]1CC[C@@H]2[C@@H]3CC(=O)C4=CC(=O)CC[C@@]4(C)[C@@H]3CC[C@@]21C)C(C)C
REMARK SMILES IDX 4 1 3 2 2 3 1 4 29 5 30 6 31 7 5 8 6 9 7 10 8 11 9 12 27 13
REMARK SMILES IDX 10 14 11 15 26 16 28 17 12 18 25 19 24 20 13 21 22 22 14 23
REMARK SMILES IDX 16 24 21 25 23 26 15 27 17 28 20 29 18 30 19 31
REMARK H PARENT
REMARK Flexibility Score: inf
ROOT
ATOM      1  C   UNL     1      -3.478 -26.034 -45.808  1.00  0.00     0.004 C 
ENDROOT
BRANCH   1   2
ATOM      2  C   UNL     1      -4.520 -26.529 -44.767  1.00  0.00    -0.009 C 
BRANCH   2   3
ATOM      3  C   UNL     1      -4.122 -26.142 -43.309  1.00  0.00     0.000 C 
ATOM      4  C   UNL     1      -3.628 -24.702 -43.110  1.00  0.00     0.004 C 
ENDBRANCH   2   3
BRANCH   2   5
ATOM      5  C   UNL     1      -6.000 -26.180 -45.151  1.00  0.00    -0.014 C 
ATOM      6  C   UNL     1      -6.416 -26.821 -46.485  1.00  0.00     0.007 C 
ATOM      7  C   UNL     1      -7.030 -26.513 -44.063  1.00  0.00     0.007 C 
ENDBRANCH   2   5
ENDBRANCH   1   2
BRANCH   1   8
ATOM      8  C   UNL     1      -2.221 -26.930 -45.903  1.00  0.00     0.004 C 
BRANCH   8   9
ATOM      9  C   UNL     1      -0.968 -26.185 -46.452  1.00  0.00    -0.011 C 
ATOM     10  C   UNL     1      -0.367 -26.987 -47.624  1.00  0.00     0.008 C 
BRANCH   9  11
ATOM     11  C   UNL     1       0.083 -25.949 -45.304  1.00  0.00    -0.002 C 
ATOM     12  C   UNL     1      -0.434 -26.436 -43.937  1.00  0.00     0.005 C 
ATOM     13  C   UNL     1       0.588 -24.490 -45.035  1.00  0.00    -0.026 C 
ATOM     14  C   UNL     1       0.159 -25.522 -42.873  1.00  0.00     0.005 C 
ATOM     15  C   UNL     1       1.133 -24.589 -43.598  1.00  0.00    -0.001 C 
ATOM     16  C   UNL     1      -0.581 -23.474 -45.052  1.00  0.00     0.007 C 
ATOM     17  C   UNL     1       1.732 -24.083 -46.003  1.00  0.00     0.012 C 
ATOM     18  C   UNL     1       1.464 -23.224 -42.889  1.00  0.00     0.004 C 
ATOM     19  C   UNL     1      -0.151 -22.070 -44.649  1.00  0.00     0.005 C 
ATOM     20  C   UNL     1       0.578 -21.960 -43.276  1.00  0.00     0.003 C 
ATOM     21  C   UNL     1       1.740 -23.432 -41.362  1.00  0.00     0.085 C 
ATOM     22  C   UNL     1      -0.228 -21.321 -42.080  1.00  0.00    -0.000 C 
ATOM     23  C   UNL     1       1.638 -22.189 -40.530  1.00  0.00     0.159 C 
ATOM     24  C   UNL     1       0.819 -21.052 -40.987  1.00  0.00     0.005 C 
ATOM     25  C   UNL     1      -0.979 -19.984 -42.432  1.00  0.00     0.020 C 
ATOM     26  C   UNL     1      -1.316 -22.286 -41.552  1.00  0.00     0.017 C 
ATOM     27  O   UNL     1       2.244 -22.138 -39.426  1.00  0.00    -0.295 OA
ATOM     28  C   UNL     1       1.247 -19.809 -40.682  1.00  0.00     0.055 C 
ATOM     29  C   UNL     1      -0.041 -18.802 -42.656  1.00  0.00     0.081 C 
ATOM     30  C   UNL     1       0.809 -18.630 -41.440  1.00  0.00     0.156 C 
ATOM     31  O   UNL     1       1.214 -17.484 -41.110  1.00  0.00    -0.295 OA
ENDBRANCH   9  11
ENDBRANCH   8   9
ENDBRANCH   1   8
TORSDOF 6
ENDMDL
MODEL 3
REMARK VINA RESULT:    -5.759     10.824     13.757
REMARK INTER + INTRA:          -8.906
REMARK INTER:                  -6.520
REMARK INTRA:                  -2.387
REMARK UNBOUND:                -1.127
REMARK SMILES CC[C@H](CC[C@H](C)[C@@H]1CC[C@@H]2[C@@H]3CC(=O)C4=CC(=O)CC[C@@]4(C)[C@@H]3CC[C@@]21C)C(C)C
REMARK SMILES IDX 4 1 3 2 2 3 1 4 29 5 30 6 31 7 5 8 6 9 7 10 8 11 9 12 27 13
REMARK SMILES IDX 10 14 11 15 26 16 28 17 12 18 25 19 24 20 13 21 22 22 14 23
REMARK SMILES IDX 16 24 21 25 23 26 15 27 17 28 20 29 18 30 19 31
REMARK H PARENT
REMARK Flexibility Score: inf
ROOT
ATOM      1  C   UNL     1      -1.578 -19.186 -39.091  1.00  0.00     0.004 C 
ENDROOT
BRANCH   1   2
ATOM      2  C   UNL     1      -1.971 -19.550 -40.550  1.00  0.00    -0.009 C 
BRANCH   2   3
ATOM      3  C   UNL     1      -3.518 -19.621 -40.739  1.00  0.00     0.000 C 
ATOM      4  C   UNL     1      -4.102 -21.024 -40.962  1.00  0.00     0.004 C 
ENDBRANCH   2   3
BRANCH   2   5
ATOM      5  C   UNL     1      -1.224 -18.694 -41.630  1.00  0.00    -0.014 C 
ATOM      6  C   UNL     1      -0.507 -19.574 -42.668  1.00  0.00     0.007 C 
ATOM      7  C   UNL     1      -2.108 -17.658 -42.338  1.00  0.00     0.007 C 
ENDBRANCH   2   5
ENDBRANCH   1   2
BRANCH   1   8
ATOM      8  C   UNL     1      -0.628 -20.211 -38.430  1.00  0.00     0.004 C 
BRANCH   8   9
ATOM      9  C   UNL     1      -0.982 -21.691 -38.766  1.00  0.00    -0.011 C 
ATOM     10  C   UNL     1      -1.448 -22.410 -37.484  1.00  0.00     0.008 C 
BRANCH   9  11
ATOM     11  C   UNL     1       0.246 -22.418 -39.431  1.00  0.00    -0.002 C 
ATOM     12  C   UNL     1       1.201 -21.426 -40.121  1.00  0.00     0.005 C 
ATOM     13  C   UNL     1      -0.027 -23.517 -40.514  1.00  0.00    -0.026 C 
ATOM     14  C   UNL     1       1.807 -22.136 -41.323  1.00  0.00     0.005 C 
ATOM     15  C   UNL     1       1.318 -23.587 -41.260  1.00  0.00    -0.001 C 
ATOM     16  C   UNL     1      -1.123 -23.068 -41.513  1.00  0.00     0.007 C 
ATOM     17  C   UNL     1      -0.345 -24.896 -39.876  1.00  0.00     0.012 C 
ATOM     18  C   UNL     1       1.318 -24.392 -42.612  1.00  0.00     0.004 C 
ATOM     19  C   UNL     1      -1.311 -24.045 -42.665  1.00  0.00     0.005 C 
ATOM     20  C   UNL     1      -0.022 -24.389 -43.470  1.00  0.00     0.003 C 
ATOM     21  C   UNL     1       2.647 -24.162 -43.407  1.00  0.00     0.085 C 
ATOM     22  C   UNL     1       0.114 -23.769 -44.915  1.00  0.00    -0.000 C 
ATOM     23  C   UNL     1       2.578 -24.517 -44.862  1.00  0.00     0.159 C 
ATOM     24  C   UNL     1       1.284 -24.522 -45.567  1.00  0.00     0.005 C 
ATOM     25  C   UNL     1      -1.170 -23.908 -45.813  1.00  0.00     0.020 C 
ATOM     26  C   UNL     1       0.420 -22.254 -44.853  1.00  0.00     0.017 C 
ATOM     27  O   UNL     1       3.643 -24.792 -45.478  1.00  0.00    -0.295 OA
ATOM     28  C   UNL     1       1.104 -25.439 -46.541  1.00  0.00     0.055 C 
ATOM     29  C   UNL     1      -1.442 -25.338 -46.267  1.00  0.00     0.081 C 
ATOM     30  C   UNL     1      -0.235 -25.850 -46.981  1.00  0.00     0.156 C 
ATOM     31  O   UNL     1      -0.360 -26.693 -47.910  1.00  0.00    -0.295 OA
ENDBRANCH   9  11
ENDBRANCH   8   9
ENDBRANCH   1   8
TORSDOF 6
ENDMDL
MODEL 4
REMARK VINA RESULT:    -5.670      9.576     12.862
REMARK INTER + INTRA:          -8.786
REMARK INTER:                  -6.484
REMARK INTRA:                  -2.302
REMARK UNBOUND:                -1.127
REMARK SMILES CC[C@H](CC[C@H](C)[C@@H]1CC[C@@H]2[C@@H]3CC(=O)C4=CC(=O)CC[C@@]4(C)[C@@H]3CC[C@@]21C)C(C)C
REMARK SMILES IDX 4 1 3 2 2 3 1 4 29 5 30 6 31 7 5 8 6 9 7 10 8 11 9 12 27 13
REMARK SMILES IDX 10 14 11 15 26 16 28 17 12 18 25 19 24 20 13 21 22 22 14 23
REMARK SMILES IDX 16 24 21 25 23 26 15 27 17 28 20 29 18 30 19 31
REMARK H PARENT
REMARK Flexibility Score: inf
ROOT
ATOM      1  C   UNL     1       0.070 -25.791 -44.306  1.00  0.00     0.004 C 
ENDROOT
BRANCH   1   2
ATOM      2  C   UNL     1       0.409 -24.587 -45.229  1.00  0.00    -0.009 C 
BRANCH   2   3
ATOM      3  C   UNL     1      -0.635 -23.435 -45.095  1.00  0.00     0.000 C 
ATOM      4  C   UNL     1      -0.068 -22.056 -44.731  1.00  0.00     0.004 C 
ENDBRANCH   2   3
BRANCH   2   5
ATOM      5  C   UNL     1       1.903 -24.125 -45.128  1.00  0.00    -0.014 C 
ATOM      6  C   UNL     1       2.680 -24.915 -44.062  1.00  0.00     0.007 C 
ATOM      7  C   UNL     1       2.663 -24.151 -46.461  1.00  0.00     0.007 C 
ENDBRANCH   2   5
ENDBRANCH   1   2
BRANCH   1   8
ATOM      8  C   UNL     1      -0.916 -25.442 -43.167  1.00  0.00     0.004 C 
BRANCH   8   9
ATOM      9  C   UNL     1      -0.229 -25.291 -41.777  1.00  0.00    -0.011 C 
ATOM     10  C   UNL     1      -0.298 -26.634 -41.022  1.00  0.00     0.008 C 
BRANCH   9  11
ATOM     11  C   UNL     1      -0.893 -24.123 -40.955  1.00  0.00    -0.002 C 
ATOM     12  C   UNL     1      -2.022 -23.431 -41.743  1.00  0.00     0.005 C 
ATOM     13  C   UNL     1       0.013 -22.947 -40.454  1.00  0.00    -0.026 C 
ATOM     14  C   UNL     1      -2.036 -21.966 -41.328  1.00  0.00     0.005 C 
ATOM     15  C   UNL     1      -1.011 -21.827 -40.197  1.00  0.00    -0.001 C 
ATOM     16  C   UNL     1       0.994 -22.477 -41.557  1.00  0.00     0.007 C 
ATOM     17  C   UNL     1       0.746 -23.301 -39.131  1.00  0.00     0.012 C 
ATOM     18  C   UNL     1      -0.418 -20.390 -39.954  1.00  0.00     0.004 C 
ATOM     19  C   UNL     1       1.787 -21.241 -41.157  1.00  0.00     0.005 C 
ATOM     20  C   UNL     1       0.937 -20.018 -40.699  1.00  0.00     0.003 C 
ATOM     21  C   UNL     1      -1.543 -19.302 -39.983  1.00  0.00     0.085 C 
ATOM     22  C   UNL     1       0.837 -18.796 -41.693  1.00  0.00    -0.000 C 
ATOM     23  C   UNL     1      -1.055 -17.899 -40.193  1.00  0.00     0.159 C 
ATOM     24  C   UNL     1       0.233 -17.652 -40.864  1.00  0.00     0.005 C 
ATOM     25  C   UNL     1       2.209 -18.335 -42.310  1.00  0.00     0.020 C 
ATOM     26  C   UNL     1      -0.076 -19.122 -42.899  1.00  0.00     0.017 C 
ATOM     27  O   UNL     1      -1.772 -16.936 -39.806  1.00  0.00    -0.295 OA
ATOM     28  C   UNL     1       0.959 -16.592 -40.453  1.00  0.00     0.055 C 
ATOM     29  C   UNL     1       3.130 -17.658 -41.301  1.00  0.00     0.081 C 
ATOM     30  C   UNL     1       2.406 -16.503 -40.692  1.00  0.00     0.156 C 
ATOM     31  O   UNL     1       3.044 -15.485 -40.312  1.00  0.00    -0.295 OA
ENDBRANCH   9  11
ENDBRANCH   8   9
ENDBRANCH   1   8
TORSDOF 6
ENDMDL
MODEL 5
REMARK VINA RESULT:    -5.605     10.139     13.684
REMARK INTER + INTRA:          -8.698
REMARK INTER:                  -6.756
REMARK INTRA:                  -1.942
REMARK UNBOUND:                -1.127
REMARK SMILES CC[C@H](CC[C@H](C)[C@@H]1CC[C@@H]2[C@@H]3CC(=O)C4=CC(=O)CC[C@@]4(C)[C@@H]3CC[C@@]21C)C(C)C
REMARK SMILES IDX 4 1 3 2 2 3 1 4 29 5 30 6 31 7 5 8 6 9 7 10 8 11 9 12 27 13
REMARK SMILES IDX 10 14 11 15 26 16 28 17 12 18 25 19 24 20 13 21 22 22 14 23
REMARK SMILES IDX 16 24 21 25 23 26 15 27 17 28 20 29 18 30 19 31
REMARK H PARENT
REMARK Flexibility Score: inf
ROOT
ATOM      1  C   UNL     1       2.439 -24.427 -45.587  1.00  0.00     0.004 C 
ENDROOT
BRANCH   1   2
ATOM      2  C   UNL     1       2.380 -25.687 -44.679  1.00  0.00    -0.009 C 
BRANCH   2   3
ATOM      3  C   UNL     1       2.241 -27.001 -45.509  1.00  0.00     0.000 C 
ATOM      4  C   UNL     1       1.666 -26.842 -46.923  1.00  0.00     0.004 C 
ENDBRANCH   2   3
BRANCH   2   5
ATOM      5  C   UNL     1       3.504 -25.724 -43.587  1.00  0.00    -0.014 C 
ATOM      6  C   UNL     1       4.413 -24.485 -43.653  1.00  0.00     0.007 C 
ATOM      7  C   UNL     1       2.986 -25.921 -42.155  1.00  0.00     0.007 C 
ENDBRANCH   2   5
ENDBRANCH   1   2
BRANCH   1   8
ATOM      8  C   UNL     1       1.154 -23.568 -45.542  1.00  0.00     0.004 C 
BRANCH   8   9
ATOM      9  C   UNL     1       0.194 -23.950 -44.376  1.00  0.00    -0.011 C 
ATOM     10  C   UNL     1      -0.928 -24.861 -44.914  1.00  0.00     0.008 C 
BRANCH   9  11
ATOM     11  C   UNL     1      -0.383 -22.657 -43.687  1.00  0.00    -0.002 C 
ATOM     12  C   UNL     1      -0.167 -21.398 -44.547  1.00  0.00     0.005 C 
ATOM     13  C   UNL     1       0.153 -22.259 -42.269  1.00  0.00    -0.026 C 
ATOM     14  C   UNL     1       0.028 -20.223 -43.598  1.00  0.00     0.005 C 
ATOM     15  C   UNL     1      -0.212 -20.765 -42.185  1.00  0.00    -0.001 C 
ATOM     16  C   UNL     1       1.693 -22.397 -42.185  1.00  0.00     0.007 C 
ATOM     17  C   UNL     1      -0.567 -23.039 -41.136  1.00  0.00     0.012 C 
ATOM     18  C   UNL     1       0.438 -19.960 -41.000  1.00  0.00     0.004 C 
ATOM     19  C   UNL     1       2.265 -21.879 -40.872  1.00  0.00     0.005 C 
ATOM     20  C   UNL     1       1.880 -20.414 -40.506  1.00  0.00     0.003 C 
ATOM     21  C   UNL     1       0.221 -18.420 -41.178  1.00  0.00     0.085 C 
ATOM     22  C   UNL     1       3.006 -19.317 -40.641  1.00  0.00    -0.000 C 
ATOM     23  C   UNL     1       1.143 -17.559 -40.367  1.00  0.00     0.159 C 
ATOM     24  C   UNL     1       2.449 -18.078 -39.922  1.00  0.00     0.005 C 
ATOM     25  C   UNL     1       4.391 -19.714 -40.011  1.00  0.00     0.020 C 
ATOM     26  C   UNL     1       3.299 -18.987 -42.124  1.00  0.00     0.017 C 
ATOM     27  O   UNL     1       0.795 -16.379 -40.088  1.00  0.00    -0.295 OA
ATOM     28  C   UNL     1       2.913 -17.664 -38.725  1.00  0.00     0.055 C 
ATOM     29  C   UNL     1       4.376 -19.754 -38.487  1.00  0.00     0.081 C 
ATOM     30  C   UNL     1       3.922 -18.426 -37.978  1.00  0.00     0.156 C 
ATOM     31  O   UNL     1       4.347 -17.994 -36.874  1.00  0.00    -0.295 OA
ENDBRANCH   9  11
ENDBRANCH   8   9
ENDBRANCH   1   8
TORSDOF 6
ENDMDL
MODEL 6
REMARK VINA RESULT:    -5.582      9.487     12.620
REMARK INTER + INTRA:          -8.666
REMARK INTER:                  -7.214
REMARK INTRA:                  -1.452
REMARK UNBOUND:                -1.127
REMARK SMILES CC[C@H](CC[C@H](C)[C@@H]1CC[C@@H]2[C@@H]3CC(=O)C4=CC(=O)CC[C@@]4(C)[C@@H]3CC[C@@]21C)C(C)C
REMARK SMILES IDX 4 1 3 2 2 3 1 4 29 5 30 6 31 7 5 8 6 9 7 10 8 11 9 12 27 13
REMARK SMILES IDX 10 14 11 15 26 16 28 17 12 18 25 19 24 20 13 21 22 22 14 23
REMARK SMILES IDX 16 24 21 25 23 26 15 27 17 28 20 29 18 30 19 31
REMARK H PARENT
REMARK Flexibility Score: inf
ROOT
ATOM      1  C   UNL     1       0.256 -25.262 -45.248  1.00  0.00     0.004 C 
ENDROOT
BRANCH   1   2
ATOM      2  C   UNL     1      -1.061 -24.783 -45.920  1.00  0.00    -0.009 C 
BRANCH   2   3
ATOM      3  C   UNL     1      -1.269 -25.424 -47.326  1.00  0.00     0.000 C 
ATOM      4  C   UNL     1      -0.425 -26.672 -47.625  1.00  0.00     0.004 C 
ENDBRANCH   2   3
BRANCH   2   5
ATOM      5  C   UNL     1      -2.309 -24.868 -44.975  1.00  0.00    -0.014 C 
ATOM      6  C   UNL     1      -3.477 -25.624 -45.630  1.00  0.00     0.007 C 
ATOM      7  C   UNL     1      -2.013 -25.456 -43.589  1.00  0.00     0.007 C 
ENDBRANCH   2   5
ENDBRANCH   1   2
BRANCH   1   8
ATOM      8  C   UNL     1       1.309 -24.142 -45.076  1.00  0.00     0.004 C 
BRANCH   8   9
ATOM      9  C   UNL     1       1.470 -23.664 -43.602  1.00  0.00    -0.011 C 
ATOM     10  C   UNL     1       1.533 -24.891 -42.669  1.00  0.00     0.008 C 
BRANCH   9  11
ATOM     11  C   UNL     1       0.302 -22.687 -43.205  1.00  0.00    -0.002 C 
ATOM     12  C   UNL     1       0.096 -21.576 -44.252  1.00  0.00     0.005 C 
ATOM     13  C   UNL     1       0.390 -21.925 -41.839  1.00  0.00    -0.026 C 
ATOM     14  C   UNL     1      -0.375 -20.332 -43.512  1.00  0.00     0.005 C 
ATOM     15  C   UNL     1      -0.581 -20.749 -42.052  1.00  0.00    -0.001 C 
ATOM     16  C   UNL     1       1.810 -21.356 -41.597  1.00  0.00     0.007 C 
ATOM     17  C   UNL     1      -0.100 -22.800 -40.653  1.00  0.00     0.012 C 
ATOM     18  C   UNL     1      -0.526 -19.603 -40.975  1.00  0.00     0.004 C 
ATOM     19  C   UNL     1       1.896 -20.485 -40.351  1.00  0.00     0.005 C 
ATOM     20  C   UNL     1       0.876 -19.310 -40.284  1.00  0.00     0.003 C 
ATOM     21  C   UNL     1      -1.343 -18.351 -41.441  1.00  0.00     0.085 C 
ATOM     22  C   UNL     1       1.438 -17.853 -40.512  1.00  0.00    -0.000 C 
ATOM     23  C   UNL     1      -1.011 -17.081 -40.717  1.00  0.00     0.159 C 
ATOM     24  C   UNL     1       0.305 -16.911 -40.075  1.00  0.00     0.005 C 
ATOM     25  C   UNL     1       2.744 -17.517 -39.702  1.00  0.00     0.020 C 
ATOM     26  C   UNL     1       1.792 -17.609 -41.998  1.00  0.00     0.017 C 
ATOM     27  O   UNL     1      -1.864 -16.153 -40.683  1.00  0.00    -0.295 OA
ATOM     28  C   UNL     1       0.356 -16.194 -38.933  1.00  0.00     0.055 C 
ATOM     29  C   UNL     1       2.510 -17.376 -38.202  1.00  0.00     0.081 C 
ATOM     30  C   UNL     1       1.463 -16.334 -37.978  1.00  0.00     0.156 C 
ATOM     31  O   UNL     1       1.487 -15.630 -36.935  1.00  0.00    -0.295 OA
ENDBRANCH   9  11
ENDBRANCH   8   9
ENDBRANCH   1   8
TORSDOF 6
ENDMDL
MODEL 7
REMARK VINA RESULT:    -5.573      2.278      4.529
REMARK INTER + INTRA:          -8.655
REMARK INTER:                  -6.718
REMARK INTRA:                  -1.937
REMARK UNBOUND:                -1.127
REMARK SMILES CC[C@H](CC[C@H](C)[C@@H]1CC[C@@H]2[C@@H]3CC(=O)C4=CC(=O)CC[C@@]4(C)[C@@H]3CC[C@@]21C)C(C)C
REMARK SMILES IDX 4 1 3 2 2 3 1 4 29 5 30 6 31 7 5 8 6 9 7 10 8 11 9 12 27 13
REMARK SMILES IDX 10 14 11 15 26 16 28 17 12 18 25 19 24 20 13 21 22 22 14 23
REMARK SMILES IDX 16 24 21 25 23 26 15 27 17 28 20 29 18 30 19 31
REMARK H PARENT
REMARK Flexibility Score: inf
ROOT
ATOM      1  C   UNL     1      -6.977 -10.558 -46.096  1.00  0.00     0.004 C 
ENDROOT
BRANCH   1   2
ATOM      2  C   UNL     1      -8.358 -10.153 -45.511  1.00  0.00    -0.009 C 
BRANCH   2   3
ATOM      3  C   UNL     1      -9.486 -10.194 -46.589  1.00  0.00     0.000 C 
ATOM      4  C   UNL     1      -9.932  -8.834 -47.145  1.00  0.00     0.004 C 
ENDBRANCH   2   3
BRANCH   2   5
ATOM      5  C   UNL     1      -8.710 -10.890 -44.174  1.00  0.00    -0.014 C 
ATOM      6  C   UNL     1      -9.250  -9.923 -43.107  1.00  0.00     0.007 C 
ATOM      7  C   UNL     1      -9.669 -12.078 -44.341  1.00  0.00     0.007 C 
ENDBRANCH   2   5
ENDBRANCH   1   2
BRANCH   1   8
ATOM      8  C   UNL     1      -5.934  -9.416 -46.074  1.00  0.00     0.004 C 
BRANCH   8   9
ATOM      9  C   UNL     1      -6.393  -8.173 -45.254  1.00  0.00    -0.011 C 
ATOM     10  C   UNL     1      -6.779  -7.035 -46.220  1.00  0.00     0.008 C 
BRANCH   9  11
ATOM     11  C   UNL     1      -5.268  -7.729 -44.246  1.00  0.00    -0.002 C 
ATOM     12  C   UNL     1      -3.860  -8.096 -44.752  1.00  0.00     0.005 C 
ATOM     13  C   UNL     1      -5.312  -8.279 -42.779  1.00  0.00    -0.026 C 
ATOM     14  C   UNL     1      -3.001  -8.400 -43.532  1.00  0.00     0.005 C 
ATOM     15  C   UNL     1      -3.861  -8.077 -42.306  1.00  0.00    -0.001 C 
ATOM     16  C   UNL     1      -5.635  -9.794 -42.751  1.00  0.00     0.007 C 
ATOM     17  C   UNL     1      -6.276  -7.458 -41.880  1.00  0.00     0.012 C 
ATOM     18  C   UNL     1      -3.467  -8.789 -40.960  1.00  0.00     0.004 C 
ATOM     19  C   UNL     1      -5.541 -10.394 -41.355  1.00  0.00     0.005 C 
ATOM     20  C   UNL     1      -4.189 -10.164 -40.616  1.00  0.00     0.003 C 
ATOM     21  C   UNL     1      -1.919  -8.745 -40.729  1.00  0.00     0.085 C 
ATOM     22  C   UNL     1      -3.224 -11.405 -40.474  1.00  0.00    -0.000 C 
ATOM     23  C   UNL     1      -1.405  -9.740 -39.732  1.00  0.00     0.159 C 
ATOM     24  C   UNL     1      -2.161 -10.974 -39.452  1.00  0.00     0.005 C 
ATOM     25  C   UNL     1      -3.921 -12.728 -39.985  1.00  0.00     0.020 C 
ATOM     26  C   UNL     1      -2.556 -11.759 -41.824  1.00  0.00     0.017 C 
ATOM     27  O   UNL     1      -0.307  -9.517 -39.153  1.00  0.00    -0.295 OA
ATOM     28  C   UNL     1      -2.126 -11.458 -38.193  1.00  0.00     0.055 C 
ATOM     29  C   UNL     1      -4.354 -12.681 -38.523  1.00  0.00     0.081 C 
ATOM     30  C   UNL     1      -3.161 -12.366 -37.682  1.00  0.00     0.156 C 
ATOM     31  O   UNL     1      -3.079 -12.814 -36.508  1.00  0.00    -0.295 OA
ENDBRANCH   9  11
ENDBRANCH   8   9
ENDBRANCH   1   8
TORSDOF 6
ENDMDL
MODEL 8
REMARK VINA RESULT:    -5.565      2.684      5.076
REMARK INTER + INTRA:          -8.644
REMARK INTER:                  -6.202
REMARK INTRA:                  -2.442
REMARK UNBOUND:                -1.127
REMARK SMILES CC[C@H](CC[C@H](C)[C@@H]1CC[C@@H]2[C@@H]3CC(=O)C4=CC(=O)CC[C@@]4(C)[C@@H]3CC[C@@]21C)C(C)C
REMARK SMILES IDX 4 1 3 2 2 3 1 4 29 5 30 6 31 7 5 8 6 9 7 10 8 11 9 12 27 13
REMARK SMILES IDX 10 14 11 15 26 16 28 17 12 18 25 19 24 20 13 21 22 22 14 23
REMARK SMILES IDX 16 24 21 25 23 26 15 27 17 28 20 29 18 30 19 31
REMARK H PARENT
REMARK Flexibility Score: inf
ROOT
ATOM      1  C   UNL     1      -6.286  -9.936 -42.869  1.00  0.00     0.004 C 
ENDROOT
BRANCH   1   2
ATOM      2  C   UNL     1      -6.195  -9.850 -41.320  1.00  0.00    -0.009 C 
BRANCH   2   3
ATOM      3  C   UNL     1      -6.689  -8.472 -40.780  1.00  0.00     0.000 C 
ATOM      4  C   UNL     1      -5.614  -7.386 -40.631  1.00  0.00     0.004 C 
ENDBRANCH   2   3
BRANCH   2   5
ATOM      5  C   UNL     1      -6.808 -11.093 -40.588  1.00  0.00    -0.014 C 
ATOM      6  C   UNL     1      -7.000 -12.285 -41.540  1.00  0.00     0.007 C 
ATOM      7  C   UNL     1      -6.034 -11.535 -39.338  1.00  0.00     0.007 C 
ENDBRANCH   2   5
ENDBRANCH   1   2
BRANCH   1   8
ATOM      8  C   UNL     1      -4.918 -10.135 -43.561  1.00  0.00     0.004 C 
BRANCH   8   9
ATOM      9  C   UNL     1      -3.712  -9.645 -42.705  1.00  0.00    -0.011 C 
ATOM     10  C   UNL     1      -3.014  -8.473 -43.425  1.00  0.00     0.008 C 
BRANCH   9  11
ATOM     11  C   UNL     1      -2.718 -10.830 -42.417  1.00  0.00    -0.002 C 
ATOM     12  C   UNL     1      -3.433 -12.195 -42.404  1.00  0.00     0.005 C 
ATOM     13  C   UNL     1      -1.888 -10.810 -41.087  1.00  0.00    -0.026 C 
ATOM     14  C   UNL     1      -2.708 -13.081 -41.400  1.00  0.00     0.005 C 
ATOM     15  C   UNL     1      -1.486 -12.288 -40.926  1.00  0.00    -0.001 C 
ATOM     16  C   UNL     1      -2.766 -10.403 -39.878  1.00  0.00     0.007 C 
ATOM     17  C   UNL     1      -0.615  -9.930 -41.210  1.00  0.00     0.012 C 
ATOM     18  C   UNL     1      -0.879 -12.691 -39.532  1.00  0.00     0.004 C 
ATOM     19  C   UNL     1      -2.032 -10.515 -38.548  1.00  0.00     0.005 C 
ATOM     20  C   UNL     1      -1.396 -11.905 -38.250  1.00  0.00     0.003 C 
ATOM     21  C   UNL     1      -0.770 -14.247 -39.392  1.00  0.00     0.085 C 
ATOM     22  C   UNL     1      -2.101 -12.802 -37.159  1.00  0.00    -0.000 C 
ATOM     23  C   UNL     1      -0.619 -14.741 -37.984  1.00  0.00     0.159 C 
ATOM     24  C   UNL     1      -1.099 -13.926 -36.854  1.00  0.00     0.005 C 
ATOM     25  C   UNL     1      -2.472 -12.050 -35.828  1.00  0.00     0.020 C 
ATOM     26  C   UNL     1      -3.427 -13.398 -37.687  1.00  0.00     0.017 C 
ATOM     27  O   UNL     1      -0.097 -15.871 -37.783  1.00  0.00    -0.295 OA
ATOM     28  C   UNL     1      -0.399 -13.982 -35.701  1.00  0.00     0.055 C 
ATOM     29  C   UNL     1      -1.259 -11.677 -34.982  1.00  0.00     0.081 C 
ATOM     30  C   UNL     1      -0.479 -12.917 -34.693  1.00  0.00     0.156 C 
ATOM     31  O   UNL     1       0.172 -13.017 -33.619  1.00  0.00    -0.295 OA
ENDBRANCH   9  11
ENDBRANCH   8   9
ENDBRANCH   1   8
TORSDOF 6
ENDMDL
MODEL 9
REMARK VINA RESULT:    -5.503      2.640      4.570
REMARK INTER + INTRA:          -8.561
REMARK INTER:                  -7.111
REMARK INTRA:                  -1.450
REMARK UNBOUND:                -1.127
REMARK SMILES CC[C@H](CC[C@H](C)[C@@H]1CC[C@@H]2[C@@H]3CC(=O)C4=CC(=O)CC[C@@]4(C)[C@@H]3CC[C@@]21C)C(C)C
REMARK SMILES IDX 4 1 3 2 2 3 1 4 29 5 30 6 31 7 5 8 6 9 7 10 8 11 9 12 27 13
REMARK SMILES IDX 10 14 11 15 26 16 28 17 12 18 25 19 24 20 13 21 22 22 14 23
REMARK SMILES IDX 16 24 21 25 23 26 15 27 17 28 20 29 18 30 19 31
REMARK H PARENT
REMARK Flexibility Score: inf
ROOT
ATOM      1  C   UNL     1      -5.868  -8.996 -43.555  1.00  0.00     0.004 C 
ENDROOT
BRANCH   1   2
ATOM      2  C   UNL     1      -6.443 -10.224 -44.315  1.00  0.00    -0.009 C 
BRANCH   2   3
ATOM      3  C   UNL     1      -7.549 -10.955 -43.493  1.00  0.00     0.000 C 
ATOM      4  C   UNL     1      -7.141 -12.297 -42.868  1.00  0.00     0.004 C 
ENDBRANCH   2   3
BRANCH   2   5
ATOM      5  C   UNL     1      -6.836  -9.910 -45.800  1.00  0.00    -0.014 C 
ATOM      6  C   UNL     1      -5.627  -9.455 -46.633  1.00  0.00     0.007 C 
ATOM      7  C   UNL     1      -7.567 -11.056 -46.514  1.00  0.00     0.007 C 
ENDBRANCH   2   5
ENDBRANCH   1   2
BRANCH   1   8
ATOM      8  C   UNL     1      -5.009  -9.373 -42.326  1.00  0.00     0.004 C 
BRANCH   8   9
ATOM      9  C   UNL     1      -3.495  -9.049 -42.504  1.00  0.00    -0.011 C 
ATOM     10  C   UNL     1      -3.273  -8.375 -43.873  1.00  0.00     0.008 C 
BRANCH   9  11
ATOM     11  C   UNL     1      -2.627 -10.352 -42.345  1.00  0.00    -0.002 C 
ATOM     12  C   UNL     1      -3.487 -11.629 -42.390  1.00  0.00     0.005 C 
ATOM     13  C   UNL     1      -1.747 -10.517 -41.059  1.00  0.00    -0.026 C 
ATOM     14  C   UNL     1      -2.824 -12.658 -41.484  1.00  0.00     0.005 C 
ATOM     15  C   UNL     1      -1.504 -12.037 -41.018  1.00  0.00    -0.001 C 
ATOM     16  C   UNL     1      -2.525 -10.107 -39.784  1.00  0.00     0.007 C 
ATOM     17  C   UNL     1      -0.390  -9.772 -41.182  1.00  0.00     0.012 C 
ATOM     18  C   UNL     1      -0.889 -12.603 -39.684  1.00  0.00     0.004 C 
ATOM     19  C   UNL     1      -1.756 -10.393 -38.502  1.00  0.00     0.005 C 
ATOM     20  C   UNL     1      -1.265 -11.862 -38.328  1.00  0.00     0.003 C 
ATOM     21  C   UNL     1      -0.947 -14.168 -39.655  1.00  0.00     0.085 C 
ATOM     22  C   UNL     1      -2.019 -12.755 -37.268  1.00  0.00    -0.000 C 
ATOM     23  C   UNL     1      -0.795 -14.776 -38.293  1.00  0.00     0.159 C 
ATOM     24  C   UNL     1      -1.136 -13.999 -37.088  1.00  0.00     0.005 C 
ATOM     25  C   UNL     1      -2.251 -12.066 -35.873  1.00  0.00     0.020 C 
ATOM     26  C   UNL     1      -3.424 -13.165 -37.772  1.00  0.00     0.017 C 
ATOM     27  O   UNL     1      -0.393 -15.967 -38.195  1.00  0.00    -0.295 OA
ATOM     28  C   UNL     1      -0.401 -14.213 -35.977  1.00  0.00     0.055 C 
ATOM     29  C   UNL     1      -0.971 -11.887 -35.064  1.00  0.00     0.081 C 
ATOM     30  C   UNL     1      -0.322 -13.221 -34.896  1.00  0.00     0.156 C 
ATOM     31  O   UNL     1       0.357 -13.468 -33.865  1.00  0.00    -0.295 OA
ENDBRANCH   9  11
ENDBRANCH   8   9
ENDBRANCH   1   8
TORSDOF 6
ENDMDL
