MODEL 1
REMARK VINA RESULT:    -4.486      0.000      0.000
REMARK INTER + INTRA:          -6.881
REMARK INTER:                  -6.190
REMARK INTRA:                  -0.691
REMARK UNBOUND:                -0.691
REMARK SMILES OC[C@@H](O)[C@@H](O)[C@@H](O)CO
REMARK SMILES IDX 5 1 3 2 2 3 1 4 4 6 7 8 9 9 10 10 8 12 6 14
REMARK H PARENT 1 5 4 7 10 11 8 13 6 15
REMARK Flexibility Score: inf
ROOT
ATOM      1  C   UNL     1       9.017 -24.532  54.653  1.00  0.00     0.176 C 
ENDROOT
BRANCH   1   2
ATOM      2  C   UNL     1       7.955 -23.857  55.563  1.00  0.00     0.171 C 
BRANCH   2   3
ATOM      3  C   UNL     1       8.434 -22.528  56.187  1.00  0.00     0.190 C 
BRANCH   3   4
ATOM      4  O   UNL     1       9.791 -22.611  56.533  1.00  0.00    -0.394 OA
ATOM      5  H   UNL     1      10.114 -23.491  56.207  1.00  0.00     0.210 HD
ENDBRANCH   3   4
ENDBRANCH   2   3
BRANCH   2   6
ATOM      6  O   UNL     1       6.758 -23.663  54.848  1.00  0.00    -0.388 OA
ATOM      7  H   UNL     1       6.874 -24.064  53.947  1.00  0.00     0.211 HD
ENDBRANCH   2   6
ENDBRANCH   1   2
BRANCH   1   8
ATOM      8  C   UNL     1       8.391 -25.455  53.574  1.00  0.00     0.171 C 
BRANCH   8   9
ATOM      9  C   UNL     1       9.394 -26.494  53.042  1.00  0.00     0.190 C 
BRANCH   9  10
ATOM     10  O   UNL     1       9.292 -27.694  53.758  1.00  0.00    -0.394 OA
ATOM     11  H   UNL     1      10.185 -27.850  54.162  1.00  0.00     0.210 HD
ENDBRANCH   9  10
ENDBRANCH   8   9
BRANCH   8  12
ATOM     12  O   UNL     1       7.851 -24.712  52.509  1.00  0.00    -0.388 OA
ATOM     13  H   UNL     1       7.168 -25.276  52.061  1.00  0.00     0.211 HD
ENDBRANCH   8  12
ENDBRANCH   1   8
BRANCH   1  14
ATOM     14  O   UNL     1       9.919 -25.279  55.433  1.00  0.00    -0.388 OA
ATOM     15  H   UNL     1      10.492 -24.631  55.924  1.00  0.00     0.211 HD
ENDBRANCH   1  14
TORSDOF 9
ENDMDL
MODEL 2
REMARK VINA RESULT:    -4.439      1.139      2.755
REMARK INTER + INTRA:          -6.817
REMARK INTER:                  -6.128
REMARK INTRA:                  -0.690
REMARK UNBOUND:                -0.691
REMARK SMILES OC[C@@H](O)[C@@H](O)[C@@H](O)CO
REMARK SMILES IDX 5 1 3 2 2 3 1 4 4 6 7 8 9 9 10 10 8 12 6 14
REMARK H PARENT 1 5 4 7 10 11 8 13 6 15
REMARK Flexibility Score: inf
ROOT
ATOM      1  C   UNL     1       8.103 -23.669  55.437  1.00  0.00     0.176 C 
ENDROOT
BRANCH   1   2
ATOM      2  C   UNL     1       8.753 -22.315  55.834  1.00  0.00     0.171 C 
BRANCH   2   3
ATOM      3  C   UNL     1       7.767 -21.334  56.505  1.00  0.00     0.190 C 
BRANCH   3   4
ATOM      4  O   UNL     1       7.142 -20.530  55.540  1.00  0.00    -0.394 OA
ATOM      5  H   UNL     1       7.147 -21.048  54.693  1.00  0.00     0.210 HD
ENDBRANCH   3   4
ENDBRANCH   2   3
BRANCH   2   6
ATOM      6  O   UNL     1       9.868 -22.538  56.663  1.00  0.00    -0.388 OA
ATOM      7  H   UNL     1      10.643 -22.750  56.079  1.00  0.00     0.211 HD
ENDBRANCH   2   6
ENDBRANCH   1   2
BRANCH   1   8
ATOM      8  C   UNL     1       9.051 -24.573  54.604  1.00  0.00     0.171 C 
BRANCH   8   9
ATOM      9  C   UNL     1       8.280 -25.536  53.684  1.00  0.00     0.190 C 
BRANCH   9  10
ATOM     10  O   UNL     1       7.964 -24.914  52.468  1.00  0.00    -0.394 OA
ATOM     11  H   UNL     1       8.755 -25.039  51.881  1.00  0.00     0.210 HD
ENDBRANCH   9  10
ENDBRANCH   8   9
BRANCH   8  12
ATOM     12  O   UNL     1       9.934 -25.293  55.429  1.00  0.00    -0.388 OA
ATOM     13  H   UNL     1      10.334 -26.019  54.883  1.00  0.00     0.211 HD
ENDBRANCH   8  12
ENDBRANCH   1   8
BRANCH   1  14
ATOM     14  O   UNL     1       6.921 -23.444  54.708  1.00  0.00    -0.388 OA
ATOM     15  H   UNL     1       6.158 -23.618  55.322  1.00  0.00     0.211 HD
ENDBRANCH   1  14
TORSDOF 9
ENDMDL
MODEL 3
REMARK VINA RESULT:    -4.395      1.639      2.787
REMARK INTER + INTRA:          -6.756
REMARK INTER:                  -6.080
REMARK INTRA:                  -0.676
REMARK UNBOUND:                -0.691
REMARK SMILES OC[C@@H](O)[C@@H](O)[C@@H](O)CO
REMARK SMILES IDX 5 1 3 2 2 3 1 4 4 6 7 8 9 9 10 10 8 12 6 14
REMARK H PARENT 1 5 4 7 10 11 8 13 6 15
REMARK Flexibility Score: inf
ROOT
ATOM      1  C   UNL     1       8.821 -22.321  55.715  1.00  0.00     0.176 C 
ENDROOT
BRANCH   1   2
ATOM      2  C   UNL     1       7.909 -21.187  56.258  1.00  0.00     0.171 C 
BRANCH   2   3
ATOM      3  C   UNL     1       8.687 -20.063  56.977  1.00  0.00     0.190 C 
BRANCH   3   4
ATOM      4  O   UNL     1       9.059 -20.473  58.265  1.00  0.00    -0.394 OA
ATOM      5  H   UNL     1       8.941 -19.686  58.859  1.00  0.00     0.210 HD
ENDBRANCH   3   4
ENDBRANCH   2   3
BRANCH   2   6
ATOM      6  O   UNL     1       7.126 -20.655  55.216  1.00  0.00    -0.388 OA
ATOM      7  H   UNL     1       6.897 -21.399  54.598  1.00  0.00     0.211 HD
ENDBRANCH   2   6
ENDBRANCH   1   2
BRANCH   1   8
ATOM      8  C   UNL     1       8.056 -23.650  55.474  1.00  0.00     0.171 C 
BRANCH   8   9
ATOM      9  C   UNL     1       8.896 -24.673  54.689  1.00  0.00     0.190 C 
BRANCH   9  10
ATOM     10  O   UNL     1       9.930 -25.182  55.486  1.00  0.00    -0.394 OA
ATOM     11  H   UNL     1      10.752 -25.138  54.932  1.00  0.00     0.210 HD
ENDBRANCH   9  10
ENDBRANCH   8   9
BRANCH   8  12
ATOM     12  O   UNL     1       6.829 -23.428  54.823  1.00  0.00    -0.388 OA
ATOM     13  H   UNL     1       6.137 -23.288  55.521  1.00  0.00     0.211 HD
ENDBRANCH   8  12
ENDBRANCH   1   8
BRANCH   1  14
ATOM     14  O   UNL     1       9.885 -22.555  56.604  1.00  0.00    -0.388 OA
ATOM     15  H   UNL     1      10.456 -21.742  56.604  1.00  0.00     0.211 HD
ENDBRANCH   1  14
TORSDOF 9
ENDMDL
MODEL 4
REMARK VINA RESULT:    -4.272      1.106      4.327
REMARK INTER + INTRA:          -6.587
REMARK INTER:                  -6.067
REMARK INTRA:                  -0.521
REMARK UNBOUND:                -0.691
REMARK SMILES OC[C@@H](O)[C@@H](O)[C@@H](O)CO
REMARK SMILES IDX 5 1 3 2 2 3 1 4 4 6 7 8 9 9 10 10 8 12 6 14
REMARK H PARENT 1 5 4 7 10 11 8 13 6 15
REMARK Flexibility Score: inf
ROOT
ATOM      1  C   UNL     1       8.873 -24.397  54.001  1.00  0.00     0.176 C 
ENDROOT
BRANCH   1   2
ATOM      2  C   UNL     1       9.272 -25.840  54.413  1.00  0.00     0.171 C 
BRANCH   2   3
ATOM      3  C   UNL     1       9.491 -26.784  53.211  1.00  0.00     0.190 C 
BRANCH   3   4
ATOM      4  O   UNL     1       8.279 -27.377  52.827  1.00  0.00    -0.394 OA
ATOM      5  H   UNL     1       8.194 -27.241  51.847  1.00  0.00     0.210 HD
ENDBRANCH   3   4
ENDBRANCH   2   3
BRANCH   2   6
ATOM      6  O   UNL     1      10.416 -25.811  55.232  1.00  0.00    -0.388 OA
ATOM      7  H   UNL     1      10.195 -25.282  56.043  1.00  0.00     0.211 HD
ENDBRANCH   2   6
ENDBRANCH   1   2
BRANCH   1   8
ATOM      8  C   UNL     1       8.462 -23.514  55.210  1.00  0.00     0.171 C 
BRANCH   8   9
ATOM      9  C   UNL     1       9.408 -22.315  55.406  1.00  0.00     0.190 C 
BRANCH   9  10
ATOM     10  O   UNL     1       9.835 -22.232  56.738  1.00  0.00    -0.394 OA
ATOM     11  H   UNL     1      10.260 -21.340  56.836  1.00  0.00     0.210 HD
ENDBRANCH   9  10
ENDBRANCH   8   9
BRANCH   8  12
ATOM     12  O   UNL     1       8.382 -24.267  56.396  1.00  0.00    -0.388 OA
ATOM     13  H   UNL     1       7.810 -25.057  56.214  1.00  0.00     0.211 HD
ENDBRANCH   8  12
ENDBRANCH   1   8
BRANCH   1  14
ATOM     14  O   UNL     1       7.815 -24.431  53.074  1.00  0.00    -0.388 OA
ATOM     15  H   UNL     1       7.233 -25.199  53.319  1.00  0.00     0.211 HD
ENDBRANCH   1  14
TORSDOF 9
ENDMDL
MODEL 5
REMARK VINA RESULT:    -4.261      0.619      3.901
REMARK INTER + INTRA:          -6.572
REMARK INTER:                  -5.877
REMARK INTRA:                  -0.695
REMARK UNBOUND:                -0.691
REMARK SMILES OC[C@@H](O)[C@@H](O)[C@@H](O)CO
REMARK SMILES IDX 5 1 3 2 2 3 1 4 4 6 7 8 9 9 10 10 8 12 6 14
REMARK H PARENT 1 5 4 7 10 11 8 13 6 15
REMARK Flexibility Score: inf
ROOT
ATOM      1  C   UNL     1       8.763 -24.986  54.539  1.00  0.00     0.176 C 
ENDROOT
BRANCH   1   2
ATOM      2  C   UNL     1       9.049 -25.382  53.064  1.00  0.00     0.171 C 
BRANCH   2   3
ATOM      3  C   UNL     1       9.886 -26.672  52.925  1.00  0.00     0.190 C 
BRANCH   3   4
ATOM      4  O   UNL     1       9.333 -27.701  53.702  1.00  0.00    -0.394 OA
ATOM      5  H   UNL     1       9.579 -28.555  53.260  1.00  0.00     0.210 HD
ENDBRANCH   3   4
ENDBRANCH   2   3
BRANCH   2   6
ATOM      6  O   UNL     1       7.841 -25.499  52.351  1.00  0.00    -0.388 OA
ATOM      7  H   UNL     1       7.096 -25.352  52.991  1.00  0.00     0.211 HD
ENDBRANCH   2   6
ENDBRANCH   1   2
BRANCH   1   8
ATOM      8  C   UNL     1       8.305 -23.510  54.691  1.00  0.00     0.171 C 
BRANCH   8   9
ATOM      9  C   UNL     1       8.396 -23.019  56.146  1.00  0.00     0.190 C 
BRANCH   9  10
ATOM     10  O   UNL     1       9.675 -22.514  56.420  1.00  0.00    -0.394 OA
ATOM     11  H   UNL     1       9.544 -21.571  56.702  1.00  0.00     0.210 HD
ENDBRANCH   9  10
ENDBRANCH   8   9
BRANCH   8  12
ATOM     12  O   UNL     1       7.003 -23.320  54.194  1.00  0.00    -0.388 OA
ATOM     13  H   UNL     1       6.434 -23.011  54.947  1.00  0.00     0.211 HD
ENDBRANCH   8  12
ENDBRANCH   1   8
BRANCH   1  14
ATOM     14  O   UNL     1       9.907 -25.199  55.329  1.00  0.00    -0.388 OA
ATOM     15  H   UNL     1      10.546 -25.733  54.786  1.00  0.00     0.211 HD
ENDBRANCH   1  14
TORSDOF 9
ENDMDL
MODEL 6
REMARK VINA RESULT:    -4.217      1.100      2.754
REMARK INTER + INTRA:          -6.511
REMARK INTER:                  -5.820
REMARK INTRA:                  -0.691
REMARK UNBOUND:                -0.691
REMARK SMILES OC[C@@H](O)[C@@H](O)[C@@H](O)CO
REMARK SMILES IDX 5 1 3 2 2 3 1 4 4 6 7 8 9 9 10 10 8 12 6 14
REMARK H PARENT 1 5 4 7 10 11 8 13 6 15
REMARK Flexibility Score: inf
ROOT
ATOM      1  C   UNL     1       8.406 -25.661  53.473  1.00  0.00     0.176 C 
ENDROOT
BRANCH   1   2
ATOM      2  C   UNL     1       8.972 -24.643  54.500  1.00  0.00     0.171 C 
BRANCH   2   3
ATOM      3  C   UNL     1       7.878 -23.893  55.290  1.00  0.00     0.190 C 
BRANCH   3   4
ATOM      4  O   UNL     1       6.868 -23.447  54.425  1.00  0.00    -0.394 OA
ATOM      5  H   UNL     1       7.144 -22.550  54.103  1.00  0.00     0.210 HD
ENDBRANCH   3   4
ENDBRANCH   2   3
BRANCH   2   6
ATOM      6  O   UNL     1       9.862 -25.286  55.380  1.00  0.00    -0.388 OA
ATOM      7  H   UNL     1      10.729 -24.802  55.344  1.00  0.00     0.211 HD
ENDBRANCH   2   6
ENDBRANCH   1   2
BRANCH   1   8
ATOM      8  C   UNL     1       9.453 -26.717  53.028  1.00  0.00     0.171 C 
BRANCH   8   9
ATOM      9  C   UNL     1       9.261 -27.148  51.563  1.00  0.00     0.190 C 
BRANCH   9  10
ATOM     10  O   UNL     1       8.005 -27.741  51.381  1.00  0.00    -0.394 OA
ATOM     11  H   UNL     1       7.958 -28.492  52.028  1.00  0.00     0.210 HD
ENDBRANCH   9  10
ENDBRANCH   8   9
BRANCH   8  12
ATOM     12  O   UNL     1       9.442 -27.844  53.871  1.00  0.00    -0.388 OA
ATOM     13  H   UNL     1       9.323 -27.524  54.803  1.00  0.00     0.211 HD
ENDBRANCH   8  12
ENDBRANCH   1   8
BRANCH   1  14
ATOM     14  O   UNL     1       7.919 -24.987  52.339  1.00  0.00    -0.388 OA
ATOM     15  H   UNL     1       8.488 -25.255  51.569  1.00  0.00     0.211 HD
ENDBRANCH   1  14
TORSDOF 9
ENDMDL
MODEL 7
REMARK VINA RESULT:    -4.131      2.167      4.215
REMARK INTER + INTRA:          -6.392
REMARK INTER:                  -5.588
REMARK INTRA:                  -0.804
REMARK UNBOUND:                -0.691
REMARK SMILES OC[C@@H](O)[C@@H](O)[C@@H](O)CO
REMARK SMILES IDX 5 1 3 2 2 3 1 4 4 6 7 8 9 9 10 10 8 12 6 14
REMARK H PARENT 1 5 4 7 10 11 8 13 6 15
REMARK Flexibility Score: inf
ROOT
ATOM      1  C   UNL     1       7.944 -22.610  53.559  1.00  0.00     0.176 C 
ENDROOT
BRANCH   1   2
ATOM      2  C   UNL     1       9.205 -23.349  54.086  1.00  0.00     0.171 C 
BRANCH   2   3
ATOM      3  C   UNL     1       8.877 -24.609  54.915  1.00  0.00     0.190 C 
BRANCH   3   4
ATOM      4  O   UNL     1       8.569 -24.259  56.238  1.00  0.00    -0.394 OA
ATOM      5  H   UNL     1       9.198 -23.535  56.494  1.00  0.00     0.210 HD
ENDBRANCH   3   4
ENDBRANCH   2   3
BRANCH   2   6
ATOM      6  O   UNL     1      10.059 -23.672  53.015  1.00  0.00    -0.388 OA
ATOM      7  H   UNL     1       9.863 -24.606  52.741  1.00  0.00     0.211 HD
ENDBRANCH   2   6
ENDBRANCH   1   2
BRANCH   1   8
ATOM      8  C   UNL     1       7.913 -21.109  53.955  1.00  0.00     0.171 C 
BRANCH   8   9
ATOM      9  C   UNL     1       8.274 -20.889  55.435  1.00  0.00     0.190 C 
BRANCH   9  10
ATOM     10  O   UNL     1       7.308 -21.466  56.272  1.00  0.00    -0.394 OA
ATOM     11  H   UNL     1       7.766 -22.206  56.750  1.00  0.00     0.210 HD
ENDBRANCH   9  10
ENDBRANCH   8   9
BRANCH   8  12
ATOM     12  O   UNL     1       6.668 -20.524  53.666  1.00  0.00    -0.388 OA
ATOM     13  H   UNL     1       6.140 -21.180  53.140  1.00  0.00     0.211 HD
ENDBRANCH   8  12
ENDBRANCH   1   8
BRANCH   1  14
ATOM     14  O   UNL     1       6.779 -23.238  54.036  1.00  0.00    -0.388 OA
ATOM     15  H   UNL     1       6.005 -22.796  53.596  1.00  0.00     0.211 HD
ENDBRANCH   1  14
TORSDOF 9
ENDMDL
MODEL 8
REMARK VINA RESULT:    -4.125      1.622      3.640
REMARK INTER + INTRA:          -6.383
REMARK INTER:                  -5.774
REMARK INTRA:                  -0.610
REMARK UNBOUND:                -0.691
REMARK SMILES OC[C@@H](O)[C@@H](O)[C@@H](O)CO
REMARK SMILES IDX 5 1 3 2 2 3 1 4 4 6 7 8 9 9 10 10 8 12 6 14
REMARK H PARENT 1 5 4 7 10 11 8 13 6 15
REMARK Flexibility Score: inf
ROOT
ATOM      1  C   UNL     1       8.920 -24.962  54.631  1.00  0.00     0.176 C 
ENDROOT
BRANCH   1   2
ATOM      2  C   UNL     1       8.855 -25.832  53.346  1.00  0.00     0.171 C 
BRANCH   2   3
ATOM      3  C   UNL     1      10.030 -26.825  53.216  1.00  0.00     0.190 C 
BRANCH   3   4
ATOM      4  O   UNL     1      11.230 -26.136  52.985  1.00  0.00    -0.394 OA
ATOM      5  H   UNL     1      11.544 -25.808  53.868  1.00  0.00     0.210 HD
ENDBRANCH   3   4
ENDBRANCH   2   3
BRANCH   2   6
ATOM      6  O   UNL     1       7.625 -26.512  53.284  1.00  0.00    -0.388 OA
ATOM      7  H   UNL     1       7.406 -26.829  54.200  1.00  0.00     0.211 HD
ENDBRANCH   2   6
ENDBRANCH   1   2
BRANCH   1   8
ATOM      8  C   UNL     1       9.074 -23.447  54.329  1.00  0.00     0.171 C 
BRANCH   8   9
ATOM      9  C   UNL     1       7.756 -22.810  53.854  1.00  0.00     0.190 C 
BRANCH   9  10
ATOM     10  O   UNL     1       6.656 -23.555  54.301  1.00  0.00    -0.394 OA
ATOM     11  H   UNL     1       6.914 -23.925  55.185  1.00  0.00     0.210 HD
ENDBRANCH   9  10
ENDBRANCH   8   9
BRANCH   8  12
ATOM     12  O   UNL     1      10.094 -23.208  53.390  1.00  0.00    -0.388 OA
ATOM     13  H   UNL     1      10.847 -22.771  53.866  1.00  0.00     0.211 HD
ENDBRANCH   8  12
ENDBRANCH   1   8
BRANCH   1  14
ATOM     14  O   UNL     1       9.986 -25.381  55.447  1.00  0.00    -0.388 OA
ATOM     15  H   UNL     1      10.522 -24.574  55.670  1.00  0.00     0.211 HD
ENDBRANCH   1  14
TORSDOF 9
ENDMDL
MODEL 9
REMARK VINA RESULT:    -4.039      1.371      2.654
REMARK INTER + INTRA:          -6.265
REMARK INTER:                  -5.547
REMARK INTRA:                  -0.719
REMARK UNBOUND:                -0.691
REMARK SMILES OC[C@@H](O)[C@@H](O)[C@@H](O)CO
REMARK SMILES IDX 5 1 3 2 2 3 1 4 4 6 7 8 9 9 10 10 8 12 6 14
REMARK H PARENT 1 5 4 7 10 11 8 13 6 15
REMARK Flexibility Score: inf
ROOT
ATOM      1  C   UNL     1       8.637 -25.727  53.649  1.00  0.00     0.176 C 
ENDROOT
BRANCH   1   2
ATOM      2  C   UNL     1       9.089 -24.381  54.278  1.00  0.00     0.171 C 
BRANCH   2   3
ATOM      3  C   UNL     1       7.970 -23.318  54.328  1.00  0.00     0.190 C 
BRANCH   3   4
ATOM      4  O   UNL     1       6.750 -23.909  54.690  1.00  0.00    -0.394 OA
ATOM      5  H   UNL     1       6.731 -24.806  54.264  1.00  0.00     0.210 HD
ENDBRANCH   3   4
ENDBRANCH   2   3
BRANCH   2   6
ATOM      6  O   UNL     1       9.618 -24.601  55.564  1.00  0.00    -0.388 OA
ATOM      7  H   UNL     1       8.962 -25.146  56.073  1.00  0.00     0.211 HD
ENDBRANCH   2   6
ENDBRANCH   1   2
BRANCH   1   8
ATOM      8  C   UNL     1       9.829 -26.628  53.227  1.00  0.00     0.171 C 
BRANCH   8   9
ATOM      9  C   UNL     1      10.078 -27.771  54.227  1.00  0.00     0.190 C 
BRANCH   9  10
ATOM     10  O   UNL     1      10.807 -27.313  55.333  1.00  0.00    -0.394 OA
ATOM     11  H   UNL     1      10.154 -26.849  55.920  1.00  0.00     0.210 HD
ENDBRANCH   9  10
ENDBRANCH   8   9
BRANCH   8  12
ATOM     12  O   UNL     1      11.004 -25.878  53.044  1.00  0.00    -0.388 OA
ATOM     13  H   UNL     1      11.628 -26.108  53.781  1.00  0.00     0.211 HD
ENDBRANCH   8  12
ENDBRANCH   1   8
BRANCH   1  14
ATOM     14  O   UNL     1       7.819 -25.489  52.530  1.00  0.00    -0.388 OA
ATOM     15  H   UNL     1       7.268 -26.304  52.388  1.00  0.00     0.211 HD
ENDBRANCH   1  14
TORSDOF 9
ENDMDL
