MODEL 1
REMARK VINA RESULT:    -3.254      0.000      0.000
REMARK INTER + INTRA:          -8.283
REMARK INTER:                  -6.108
REMARK INTRA:                  -2.175
REMARK UNBOUND:                -2.175
REMARK SMILES O=C([O-])CCCCCCCCCCCCCCC(=O)[O-]
REMARK SMILES IDX 10 1 9 2 8 3 7 4 6 5 5 6 4 7 2 8 1 9 3 10 11 11 12 12 13 13
REMARK SMILES IDX 14 14 15 15 16 16 17 17 18 18 19 19 20 20
REMARK H PARENT
REMARK Flexibility Score: inf
ROOT
ATOM      1  C   UNL     1      16.027   0.375 203.817  1.00  0.00     0.000 C 
ENDROOT
BRANCH   1   2
ATOM      2  C   UNL     1      15.984   1.697 203.032  1.00  0.00     0.000 C 
BRANCH   2   3
ATOM      3  C   UNL     1      14.640   2.434 203.176  1.00  0.00     0.000 C 
BRANCH   3   4
ATOM      4  C   UNL     1      13.851   2.619 201.865  1.00  0.00     0.000 C 
BRANCH   4   5
ATOM      5  C   UNL     1      13.002   1.407 201.434  1.00  0.00     0.000 C 
BRANCH   5   6
ATOM      6  C   UNL     1      11.506   1.706 201.208  1.00  0.00     0.006 C 
BRANCH   6   7
ATOM      7  C   UNL     1      10.714   1.987 202.495  1.00  0.00     0.053 C 
BRANCH   7   8
ATOM      8  C   UNL     1       9.251   1.720 202.320  1.00  0.00     0.041 C 
ATOM      9  O   UNL     1       8.399   2.523 202.784  1.00  0.00    -0.550 OA
ATOM     10  O   UNL     1       8.827   0.569 201.667  1.00  0.00    -0.550 OA
ENDBRANCH   7   8
ENDBRANCH   6   7
ENDBRANCH   5   6
ENDBRANCH   4   5
ENDBRANCH   3   4
ENDBRANCH   2   3
ENDBRANCH   1   2
BRANCH   1  11
ATOM     11  C   UNL     1      16.076  -0.856 202.897  1.00  0.00     0.000 C 
BRANCH  11  12
ATOM     12  C   UNL     1      14.823  -1.742 203.023  1.00  0.00     0.000 C 
BRANCH  12  13
ATOM     13  C   UNL     1      13.818  -1.201 204.053  1.00  0.00     0.000 C 
BRANCH  13  14
ATOM     14  C   UNL     1      12.535  -2.047 204.123  1.00  0.00     0.000 C 
BRANCH  14  15
ATOM     15  C   UNL     1      11.365  -1.430 203.335  1.00  0.00     0.000 C 
BRANCH  15  16
ATOM     16  C   UNL     1      10.949  -2.202 202.069  1.00  0.00     0.006 C 
BRANCH  16  17
ATOM     17  C   UNL     1      11.890  -1.955 200.882  1.00  0.00     0.053 C 
BRANCH  17  18
ATOM     18  C   UNL     1      11.166  -2.167 199.591  1.00  0.00     0.041 C 
ATOM     19  O   UNL     1       9.995  -1.727 199.440  1.00  0.00    -0.550 OA
ATOM     20  O   UNL     1      11.764  -2.897 198.571  1.00  0.00    -0.550 OA
ENDBRANCH  17  18
ENDBRANCH  16  17
ENDBRANCH  15  16
ENDBRANCH  14  15
ENDBRANCH  13  14
ENDBRANCH  12  13
ENDBRANCH  11  12
ENDBRANCH   1  11
TORSDOF 15
ENDMDL
MODEL 2
REMARK VINA RESULT:    -3.237      2.785      5.406
REMARK INTER + INTRA:          -8.251
REMARK INTER:                  -5.952
REMARK INTRA:                  -2.299
REMARK UNBOUND:                -2.175
REMARK SMILES O=C([O-])CCCCCCCCCCCCCCC(=O)[O-]
REMARK SMILES IDX 10 1 9 2 8 3 7 4 6 5 5 6 4 7 2 8 1 9 3 10 11 11 12 12 13 13
REMARK SMILES IDX 14 14 15 15 16 16 17 17 18 18 19 19 20 20
REMARK H PARENT
REMARK Flexibility Score: inf
ROOT
ATOM      1  C   UNL     1      14.922  -1.530 201.115  1.00  0.00     0.000 C 
ENDROOT
BRANCH   1   2
ATOM      2  C   UNL     1      14.990   0.007 201.131  1.00  0.00     0.000 C 
BRANCH   2   3
ATOM      3  C   UNL     1      14.588   0.609 202.489  1.00  0.00     0.000 C 
BRANCH   3   4
ATOM      4  C   UNL     1      15.694   1.413 203.203  1.00  0.00     0.000 C 
BRANCH   4   5
ATOM      5  C   UNL     1      16.840   0.569 203.794  1.00  0.00     0.000 C 
BRANCH   5   6
ATOM      6  C   UNL     1      18.219   0.793 203.141  1.00  0.00     0.006 C 
BRANCH   6   7
ATOM      7  C   UNL     1      18.998  -0.497 202.845  1.00  0.00     0.053 C 
BRANCH   7   8
ATOM      8  C   UNL     1      18.653  -1.063 201.502  1.00  0.00     0.041 C 
ATOM      9  O   UNL     1      18.520  -0.302 200.507  1.00  0.00    -0.550 OA
ATOM     10  O   UNL     1      18.449  -2.430 201.353  1.00  0.00    -0.550 OA
ENDBRANCH   7   8
ENDBRANCH   6   7
ENDBRANCH   5   6
ENDBRANCH   4   5
ENDBRANCH   3   4
ENDBRANCH   2   3
ENDBRANCH   1   2
BRANCH   1  11
ATOM     11  C   UNL     1      15.100  -2.142 202.514  1.00  0.00     0.000 C 
BRANCH  11  12
ATOM     12  C   UNL     1      13.871  -2.950 202.969  1.00  0.00     0.000 C 
BRANCH  12  13
ATOM     13  C   UNL     1      13.112  -2.274 204.122  1.00  0.00     0.000 C 
BRANCH  13  14
ATOM     14  C   UNL     1      11.676  -1.882 203.732  1.00  0.00     0.000 C 
BRANCH  14  15
ATOM     15  C   UNL     1      11.386  -2.081 202.233  1.00  0.00     0.000 C 
BRANCH  15  16
ATOM     16  C   UNL     1      11.247  -0.783 201.416  1.00  0.00     0.006 C 
BRANCH  16  17
ATOM     17  C   UNL     1      10.853   0.425 202.275  1.00  0.00     0.053 C 
BRANCH  17  18
ATOM     18  C   UNL     1       9.424   0.792 202.033  1.00  0.00     0.041 C 
ATOM     19  O   UNL     1       8.764   0.215 201.129  1.00  0.00    -0.550 OA
ATOM     20  O   UNL     1       8.833   1.811 202.772  1.00  0.00    -0.550 OA
ENDBRANCH  17  18
ENDBRANCH  16  17
ENDBRANCH  15  16
ENDBRANCH  14  15
ENDBRANCH  13  14
ENDBRANCH  12  13
ENDBRANCH  11  12
ENDBRANCH   1  11
TORSDOF 15
ENDMDL
MODEL 3
REMARK VINA RESULT:    -3.181      3.278      5.268
REMARK INTER + INTRA:          -8.146
REMARK INTER:                  -5.488
REMARK INTRA:                  -2.658
REMARK UNBOUND:                -2.175
REMARK SMILES O=C([O-])CCCCCCCCCCCCCCC(=O)[O-]
REMARK SMILES IDX 10 1 9 2 8 3 7 4 6 5 5 6 4 7 2 8 1 9 3 10 11 11 12 12 13 13
REMARK SMILES IDX 14 14 15 15 16 16 17 17 18 18 19 19 20 20
REMARK H PARENT
REMARK Flexibility Score: inf
ROOT
ATOM      1  C   UNL     1      11.490  -0.536 200.586  1.00  0.00     0.000 C 
ENDROOT
BRANCH   1   2
ATOM      2  C   UNL     1      12.308   0.760 200.720  1.00  0.00     0.000 C 
BRANCH   2   3
ATOM      3  C   UNL     1      12.089   1.469 202.069  1.00  0.00     0.000 C 
BRANCH   3   4
ATOM      4  C   UNL     1      13.369   1.722 202.890  1.00  0.00     0.000 C 
BRANCH   4   5
ATOM      5  C   UNL     1      14.683   1.299 202.204  1.00  0.00     0.000 C 
BRANCH   5   6
ATOM      6  C   UNL     1      15.964   1.602 203.006  1.00  0.00     0.006 C 
BRANCH   6   7
ATOM      7  C   UNL     1      16.524   0.400 203.784  1.00  0.00     0.053 C 
BRANCH   7   8
ATOM      8  C   UNL     1      17.887   0.008 203.301  1.00  0.00     0.041 C 
ATOM      9  O   UNL     1      18.787  -0.304 204.125  1.00  0.00    -0.550 OA
ATOM     10  O   UNL     1      18.171   0.014 201.941  1.00  0.00    -0.550 OA
ENDBRANCH   7   8
ENDBRANCH   6   7
ENDBRANCH   5   6
ENDBRANCH   4   5
ENDBRANCH   3   4
ENDBRANCH   2   3
ENDBRANCH   1   2
BRANCH   1  11
ATOM     11  C   UNL     1      10.713  -0.877 201.868  1.00  0.00     0.000 C 
BRANCH  11  12
ATOM     12  C   UNL     1      11.262  -2.126 202.581  1.00  0.00     0.000 C 
BRANCH  12  13
ATOM     13  C   UNL     1      11.996  -1.787 203.889  1.00  0.00     0.000 C 
BRANCH  13  14
ATOM     14  C   UNL     1      13.517  -1.987 203.780  1.00  0.00     0.000 C 
BRANCH  14  15
ATOM     15  C   UNL     1      13.924  -2.844 202.567  1.00  0.00     0.000 C 
BRANCH  15  16
ATOM     16  C   UNL     1      15.067  -2.268 201.712  1.00  0.00     0.006 C 
BRANCH  16  17
ATOM     17  C   UNL     1      14.754  -2.277 200.210  1.00  0.00     0.053 C 
BRANCH  17  18
ATOM     18  C   UNL     1      14.761  -3.677 199.685  1.00  0.00     0.041 C 
ATOM     19  O   UNL     1      15.846  -4.303 199.560  1.00  0.00    -0.550 OA
ATOM     20  O   UNL     1      13.572  -4.274 199.283  1.00  0.00    -0.550 OA
ENDBRANCH  17  18
ENDBRANCH  16  17
ENDBRANCH  15  16
ENDBRANCH  14  15
ENDBRANCH  13  14
ENDBRANCH  12  13
ENDBRANCH  11  12
ENDBRANCH   1  11
TORSDOF 15
ENDMDL
MODEL 4
REMARK VINA RESULT:    -3.170      3.044      5.561
REMARK INTER + INTRA:          -8.124
REMARK INTER:                  -6.132
REMARK INTRA:                  -1.993
REMARK UNBOUND:                -2.175
REMARK SMILES O=C([O-])CCCCCCCCCCCCCCC(=O)[O-]
REMARK SMILES IDX 10 1 9 2 8 3 7 4 6 5 5 6 4 7 2 8 1 9 3 10 11 11 12 12 13 13
REMARK SMILES IDX 14 14 15 15 16 16 17 17 18 18 19 19 20 20
REMARK H PARENT
REMARK Flexibility Score: inf
ROOT
ATOM      1  C   UNL     1      13.632  -2.800 203.317  1.00  0.00     0.000 C 
ENDROOT
BRANCH   1   2
ATOM      2  C   UNL     1      14.853  -2.342 202.501  1.00  0.00     0.000 C 
BRANCH   2   3
ATOM      3  C   UNL     1      14.469  -1.755 201.130  1.00  0.00     0.000 C 
BRANCH   3   4
ATOM      4  C   UNL     1      14.988  -0.327 200.862  1.00  0.00     0.000 C 
BRANCH   4   5
ATOM      5  C   UNL     1      14.443   0.758 201.812  1.00  0.00     0.000 C 
BRANCH   5   6
ATOM      6  C   UNL     1      15.516   1.516 202.618  1.00  0.00     0.006 C 
BRANCH   6   7
ATOM      7  C   UNL     1      16.177   0.687 203.731  1.00  0.00     0.053 C 
BRANCH   7   8
ATOM      8  C   UNL     1      17.578   0.294 203.378  1.00  0.00     0.041 C 
ATOM      9  O   UNL     1      17.894  -0.922 203.292  1.00  0.00    -0.550 OA
ATOM     10  O   UNL     1      18.543   1.272 203.169  1.00  0.00    -0.550 OA
ENDBRANCH   7   8
ENDBRANCH   6   7
ENDBRANCH   5   6
ENDBRANCH   4   5
ENDBRANCH   3   4
ENDBRANCH   2   3
ENDBRANCH   1   2
BRANCH   1  11
ATOM     11  C   UNL     1      12.961  -1.641 204.073  1.00  0.00     0.000 C 
BRANCH  11  12
ATOM     12  C   UNL     1      11.584  -1.272 203.493  1.00  0.00     0.000 C 
BRANCH  12  13
ATOM     13  C   UNL     1      11.144  -2.218 202.365  1.00  0.00     0.000 C 
BRANCH  13  14
ATOM     14  C   UNL     1      10.527  -1.467 201.173  1.00  0.00     0.000 C 
BRANCH  14  15
ATOM     15  C   UNL     1      10.523   0.061 201.364  1.00  0.00     0.000 C 
BRANCH  15  16
ATOM     16  C   UNL     1       9.130   0.717 201.371  1.00  0.00     0.006 C 
BRANCH  16  17
ATOM     17  C   UNL     1       8.888   1.593 202.606  1.00  0.00     0.053 C 
BRANCH  17  18
ATOM     18  C   UNL     1       9.646   2.877 202.492  1.00  0.00     0.041 C 
ATOM     19  O   UNL     1      10.659   3.081 203.211  1.00  0.00    -0.550 OA
ATOM     20  O   UNL     1       9.204   3.870 201.627  1.00  0.00    -0.550 OA
ENDBRANCH  17  18
ENDBRANCH  16  17
ENDBRANCH  15  16
ENDBRANCH  14  15
ENDBRANCH  13  14
ENDBRANCH  12  13
ENDBRANCH  11  12
ENDBRANCH   1  11
TORSDOF 15
ENDMDL
MODEL 5
REMARK VINA RESULT:    -3.146     18.651     20.556
REMARK INTER + INTRA:          -8.080
REMARK INTER:                  -6.022
REMARK INTRA:                  -2.058
REMARK UNBOUND:                -2.175
REMARK SMILES O=C([O-])CCCCCCCCCCCCCCC(=O)[O-]
REMARK SMILES IDX 10 1 9 2 8 3 7 4 6 5 5 6 4 7 2 8 1 9 3 10 11 11 12 12 13 13
REMARK SMILES IDX 14 14 15 15 16 16 17 17 18 18 19 19 20 20
REMARK H PARENT
REMARK Flexibility Score: inf
ROOT
ATOM      1  C   UNL     1      14.805 -13.862 188.176  1.00  0.00     0.000 C 
ENDROOT
BRANCH   1   2
ATOM      2  C   UNL     1      14.887 -12.695 187.177  1.00  0.00     0.000 C 
BRANCH   2   3
ATOM      3  C   UNL     1      13.892 -12.834 186.011  1.00  0.00     0.000 C 
BRANCH   3   4
ATOM      4  C   UNL     1      14.516 -13.252 184.664  1.00  0.00     0.000 C 
BRANCH   4   5
ATOM      5  C   UNL     1      15.647 -12.337 184.154  1.00  0.00     0.000 C 
BRANCH   5   6
ATOM      6  C   UNL     1      15.381 -10.826 184.307  1.00  0.00     0.006 C 
BRANCH   6   7
ATOM      7  C   UNL     1      16.574 -10.024 184.851  1.00  0.00     0.053 C 
BRANCH   7   8
ATOM      8  C   UNL     1      16.138  -8.950 185.801  1.00  0.00     0.041 C 
ATOM      9  O   UNL     1      16.266  -9.113 187.044  1.00  0.00    -0.550 OA
ATOM     10  O   UNL     1      15.566  -7.781 185.315  1.00  0.00    -0.550 OA
ENDBRANCH   7   8
ENDBRANCH   6   7
ENDBRANCH   5   6
ENDBRANCH   4   5
ENDBRANCH   3   4
ENDBRANCH   2   3
ENDBRANCH   1   2
BRANCH   1  11
ATOM     11  C   UNL     1      15.151 -15.214 187.532  1.00  0.00     0.000 C 
BRANCH  11  12
ATOM     12  C   UNL     1      16.632 -15.594 187.709  1.00  0.00     0.000 C 
BRANCH  12  13
ATOM     13  C   UNL     1      17.498 -15.182 186.508  1.00  0.00     0.000 C 
BRANCH  13  14
ATOM     14  C   UNL     1      18.624 -14.209 186.900  1.00  0.00     0.000 C 
BRANCH  14  15
ATOM     15  C   UNL     1      18.293 -12.743 186.566  1.00  0.00     0.000 C 
BRANCH  15  16
ATOM     16  C   UNL     1      18.739 -11.715 187.622  1.00  0.00     0.006 C 
BRANCH  16  17
ATOM     17  C   UNL     1      19.785 -10.726 187.090  1.00  0.00     0.053 C 
BRANCH  17  18
ATOM     18  C   UNL     1      19.685  -9.422 187.814  1.00  0.00     0.041 C 
ATOM     19  O   UNL     1      19.641  -9.397 189.072  1.00  0.00    -0.550 OA
ATOM     20  O   UNL     1      19.587  -8.235 187.098  1.00  0.00    -0.550 OA
ENDBRANCH  17  18
ENDBRANCH  16  17
ENDBRANCH  15  16
ENDBRANCH  14  15
ENDBRANCH  13  14
ENDBRANCH  12  13
ENDBRANCH  11  12
ENDBRANCH   1  11
TORSDOF 15
ENDMDL
MODEL 6
REMARK VINA RESULT:    -3.144     17.140     19.753
REMARK INTER + INTRA:          -8.075
REMARK INTER:                  -5.905
REMARK INTRA:                  -2.170
REMARK UNBOUND:                -2.175
REMARK SMILES O=C([O-])CCCCCCCCCCCCCCC(=O)[O-]
REMARK SMILES IDX 10 1 9 2 8 3 7 4 6 5 5 6 4 7 2 8 1 9 3 10 11 11 12 12 13 13
REMARK SMILES IDX 14 14 15 15 16 16 17 17 18 18 19 19 20 20
REMARK H PARENT
REMARK Flexibility Score: inf
ROOT
ATOM      1  C   UNL     1      16.875  -6.986 187.479  1.00  0.00     0.000 C 
ENDROOT
BRANCH   1   2
ATOM      2  C   UNL     1      17.683  -7.026 186.170  1.00  0.00     0.000 C 
BRANCH   2   3
ATOM      3  C   UNL     1      16.882  -7.607 184.991  1.00  0.00     0.000 C 
BRANCH   3   4
ATOM      4  C   UNL     1      17.388  -8.964 184.461  1.00  0.00     0.000 C 
BRANCH   4   5
ATOM      5  C   UNL     1      16.391 -10.132 184.593  1.00  0.00     0.000 C 
BRANCH   5   6
ATOM      6  C   UNL     1      15.066  -9.782 185.301  1.00  0.00     0.006 C 
BRANCH   6   7
ATOM      7  C   UNL     1      14.894 -10.435 186.681  1.00  0.00     0.053 C 
BRANCH   7   8
ATOM      8  C   UNL     1      14.331 -11.819 186.578  1.00  0.00     0.041 C 
ATOM      9  O   UNL     1      14.394 -12.605 187.561  1.00  0.00    -0.550 OA
ATOM     10  O   UNL     1      13.760 -12.251 185.388  1.00  0.00    -0.550 OA
ENDBRANCH   7   8
ENDBRANCH   6   7
ENDBRANCH   5   6
ENDBRANCH   4   5
ENDBRANCH   3   4
ENDBRANCH   2   3
ENDBRANCH   1   2
BRANCH   1  11
ATOM     11  C   UNL     1      17.629  -7.629 188.655  1.00  0.00     0.000 C 
BRANCH  11  12
ATOM     12  C   UNL     1      17.846  -9.141 188.466  1.00  0.00     0.000 C 
BRANCH  12  13
ATOM     13  C   UNL     1      19.277  -9.582 188.815  1.00  0.00     0.000 C 
BRANCH  13  14
ATOM     14  C   UNL     1      19.989 -10.261 187.633  1.00  0.00     0.000 C 
BRANCH  14  15
ATOM     15  C   UNL     1      19.055 -11.172 186.814  1.00  0.00     0.000 C 
BRANCH  15  16
ATOM     16  C   UNL     1      19.064 -12.656 187.224  1.00  0.00     0.006 C 
BRANCH  16  17
ATOM     17  C   UNL     1      17.752 -13.377 186.889  1.00  0.00     0.053 C 
BRANCH  17  18
ATOM     18  C   UNL     1      17.994 -14.842 186.708  1.00  0.00     0.041 C 
ATOM     19  O   UNL     1      19.143 -15.323 186.895  1.00  0.00    -0.550 OA
ATOM     20  O   UNL     1      16.962 -15.669 186.281  1.00  0.00    -0.550 OA
ENDBRANCH  17  18
ENDBRANCH  16  17
ENDBRANCH  15  16
ENDBRANCH  14  15
ENDBRANCH  13  14
ENDBRANCH  12  13
ENDBRANCH  11  12
ENDBRANCH   1  11
TORSDOF 15
ENDMDL
MODEL 7
REMARK VINA RESULT:    -3.134     17.744     20.686
REMARK INTER + INTRA:          -8.057
REMARK INTER:                  -6.005
REMARK INTRA:                  -2.052
REMARK UNBOUND:                -2.175
REMARK SMILES O=C([O-])CCCCCCCCCCCCCCC(=O)[O-]
REMARK SMILES IDX 10 1 9 2 8 3 7 4 6 5 5 6 4 7 2 8 1 9 3 10 11 11 12 12 13 13
REMARK SMILES IDX 14 14 15 15 16 16 17 17 18 18 19 19 20 20
REMARK H PARENT
REMARK Flexibility Score: inf
ROOT
ATOM      1  C   UNL     1      16.070 -14.851 186.999  1.00  0.00     0.000 C 
ENDROOT
BRANCH   1   2
ATOM      2  C   UNL     1      17.468 -15.491 186.956  1.00  0.00     0.000 C 
BRANCH   2   3
ATOM      3  C   UNL     1      18.601 -14.466 187.139  1.00  0.00     0.000 C 
BRANCH   3   4
ATOM      4  C   UNL     1      18.253 -13.024 186.717  1.00  0.00     0.000 C 
BRANCH   4   5
ATOM      5  C   UNL     1      19.149 -11.928 187.327  1.00  0.00     0.000 C 
BRANCH   5   6
ATOM      6  C   UNL     1      19.186 -10.603 186.539  1.00  0.00     0.006 C 
BRANCH   6   7
ATOM      7  C   UNL     1      19.717  -9.403 187.339  1.00  0.00     0.053 C 
BRANCH   7   8
ATOM      8  C   UNL     1      18.935  -9.181 188.597  1.00  0.00     0.041 C 
ATOM      9  O   UNL     1      17.746  -8.768 188.541  1.00  0.00    -0.550 OA
ATOM     10  O   UNL     1      19.528  -9.404 189.834  1.00  0.00    -0.550 OA
ENDBRANCH   7   8
ENDBRANCH   6   7
ENDBRANCH   5   6
ENDBRANCH   4   5
ENDBRANCH   3   4
ENDBRANCH   2   3
ENDBRANCH   1   2
BRANCH   1  11
ATOM     11  C   UNL     1      15.107 -15.470 185.972  1.00  0.00     0.000 C 
BRANCH  11  12
ATOM     12  C   UNL     1      14.413 -14.411 185.096  1.00  0.00     0.000 C 
BRANCH  12  13
ATOM     13  C   UNL     1      15.353 -13.808 184.040  1.00  0.00     0.000 C 
BRANCH  13  14
ATOM     14  C   UNL     1      15.394 -12.271 184.095  1.00  0.00     0.000 C 
BRANCH  14  15
ATOM     15  C   UNL     1      14.755 -11.700 185.375  1.00  0.00     0.000 C 
BRANCH  15  16
ATOM     16  C   UNL     1      15.638 -10.717 186.164  1.00  0.00     0.006 C 
BRANCH  16  17
ATOM     17  C   UNL     1      15.330  -9.248 185.848  1.00  0.00     0.053 C 
BRANCH  17  18
ATOM     18  C   UNL     1      16.424  -8.653 185.020  1.00  0.00     0.041 C 
ATOM     19  O   UNL     1      16.732  -9.165 183.912  1.00  0.00    -0.550 OA
ATOM     20  O   UNL     1      17.140  -7.562 185.497  1.00  0.00    -0.550 OA
ENDBRANCH  17  18
ENDBRANCH  16  17
ENDBRANCH  15  16
ENDBRANCH  14  15
ENDBRANCH  13  14
ENDBRANCH  12  13
ENDBRANCH  11  12
ENDBRANCH   1  11
TORSDOF 15
ENDMDL
MODEL 8
REMARK VINA RESULT:    -3.130     17.439     20.089
REMARK INTER + INTRA:          -8.050
REMARK INTER:                  -5.934
REMARK INTRA:                  -2.116
REMARK UNBOUND:                -2.175
REMARK SMILES O=C([O-])CCCCCCCCCCCCCCC(=O)[O-]
REMARK SMILES IDX 10 1 9 2 8 3 7 4 6 5 5 6 4 7 2 8 1 9 3 10 11 11 12 12 13 13
REMARK SMILES IDX 14 14 15 15 16 16 17 17 18 18 19 19 20 20
REMARK H PARENT
REMARK Flexibility Score: inf
ROOT
ATOM      1  C   UNL     1      14.858 -14.011 186.431  1.00  0.00     0.000 C 
ENDROOT
BRANCH   1   2
ATOM      2  C   UNL     1      15.206 -14.315 184.963  1.00  0.00     0.000 C 
BRANCH   2   3
ATOM      3  C   UNL     1      14.903 -13.136 184.021  1.00  0.00     0.000 C 
BRANCH   3   4
ATOM      4  C   UNL     1      15.985 -12.038 183.976  1.00  0.00     0.000 C 
BRANCH   4   5
ATOM      5  C   UNL     1      15.452 -10.595 183.875  1.00  0.00     0.000 C 
BRANCH   5   6
ATOM      6  C   UNL     1      14.942  -9.994 185.200  1.00  0.00     0.006 C 
BRANCH   6   7
ATOM      7  C   UNL     1      15.820 -10.314 186.421  1.00  0.00     0.053 C 
BRANCH   7   8
ATOM      8  C   UNL     1      15.209  -9.815 187.694  1.00  0.00     0.041 C 
ATOM      9  O   UNL     1      14.850  -8.612 187.798  1.00  0.00    -0.550 OA
ATOM     10  O   UNL     1      15.059 -10.673 188.777  1.00  0.00    -0.550 OA
ENDBRANCH   7   8
ENDBRANCH   6   7
ENDBRANCH   5   6
ENDBRANCH   4   5
ENDBRANCH   3   4
ENDBRANCH   2   3
ENDBRANCH   1   2
BRANCH   1  11
ATOM     11  C   UNL     1      16.107 -13.876 187.316  1.00  0.00     0.000 C 
BRANCH  11  12
ATOM     12  C   UNL     1      17.293 -14.712 186.801  1.00  0.00     0.000 C 
BRANCH  12  13
ATOM     13  C   UNL     1      18.629 -13.957 186.883  1.00  0.00     0.000 C 
BRANCH  13  14
ATOM     14  C   UNL     1      18.446 -12.430 186.841  1.00  0.00     0.000 C 
BRANCH  14  15
ATOM     15  C   UNL     1      19.570 -11.671 187.571  1.00  0.00     0.000 C 
BRANCH  15  16
ATOM     16  C   UNL     1      19.114 -10.438 188.372  1.00  0.00     0.006 C 
BRANCH  16  17
ATOM     17  C   UNL     1      19.518  -9.113 187.712  1.00  0.00     0.053 C 
BRANCH  17  18
ATOM     18  C   UNL     1      18.471  -8.072 187.950  1.00  0.00     0.041 C 
ATOM     19  O   UNL     1      17.905  -7.987 189.071  1.00  0.00    -0.550 OA
ATOM     20  O   UNL     1      18.083  -7.229 186.916  1.00  0.00    -0.550 OA
ENDBRANCH  17  18
ENDBRANCH  16  17
ENDBRANCH  15  16
ENDBRANCH  14  15
ENDBRANCH  13  14
ENDBRANCH  12  13
ENDBRANCH  11  12
ENDBRANCH   1  11
TORSDOF 15
ENDMDL
MODEL 9
REMARK VINA RESULT:    -3.099     16.874     20.237
REMARK INTER + INTRA:          -7.992
REMARK INTER:                  -6.663
REMARK INTRA:                  -1.329
REMARK UNBOUND:                -2.175
REMARK SMILES O=C([O-])CCCCCCCCCCCCCCC(=O)[O-]
REMARK SMILES IDX 10 1 9 2 8 3 7 4 6 5 5 6 4 7 2 8 1 9 3 10 11 11 12 12 13 13
REMARK SMILES IDX 14 14 15 15 16 16 17 17 18 18 19 19 20 20
REMARK H PARENT
REMARK Flexibility Score: inf
ROOT
ATOM      1  C   UNL     1      18.398 -12.727 186.877  1.00  0.00     0.000 C 
ENDROOT
BRANCH   1   2
ATOM      2  C   UNL     1      18.585 -14.254 186.874  1.00  0.00     0.000 C 
BRANCH   2   3
ATOM      3  C   UNL     1      17.249 -15.020 186.846  1.00  0.00     0.000 C 
BRANCH   3   4
ATOM      4  C   UNL     1      16.002 -14.151 186.587  1.00  0.00     0.000 C 
BRANCH   4   5
ATOM      5  C   UNL     1      15.094 -14.633 185.439  1.00  0.00     0.000 C 
BRANCH   5   6
ATOM      6  C   UNL     1      14.480 -13.510 184.579  1.00  0.00     0.006 C 
BRANCH   6   7
ATOM      7  C   UNL     1      15.511 -12.612 183.877  1.00  0.00     0.053 C 
BRANCH   7   8
ATOM      8  C   UNL     1      15.397 -11.184 184.314  1.00  0.00     0.041 C 
ATOM      9  O   UNL     1      16.201 -10.319 183.875  1.00  0.00    -0.550 OA
ATOM     10  O   UNL     1      14.418 -10.811 185.227  1.00  0.00    -0.550 OA
ENDBRANCH   7   8
ENDBRANCH   6   7
ENDBRANCH   5   6
ENDBRANCH   4   5
ENDBRANCH   3   4
ENDBRANCH   2   3
ENDBRANCH   1   2
BRANCH   1  11
ATOM     11  C   UNL     1      19.526 -11.997 187.623  1.00  0.00     0.000 C 
BRANCH  11  12
ATOM     12  C   UNL     1      19.618 -10.507 187.248  1.00  0.00     0.000 C 
BRANCH  12  13
ATOM     13  C   UNL     1      18.505 -10.069 186.282  1.00  0.00     0.000 C 
BRANCH  13  14
ATOM     14  C   UNL     1      18.620  -8.588 185.883  1.00  0.00     0.000 C 
BRANCH  14  15
ATOM     15  C   UNL     1      19.546  -7.786 186.815  1.00  0.00     0.000 C 
BRANCH  15  16
ATOM     16  C   UNL     1      18.831  -6.807 187.764  1.00  0.00     0.006 C 
BRANCH  16  17
ATOM     17  C   UNL     1      18.133  -7.513 188.935  1.00  0.00     0.053 C 
BRANCH  17  18
ATOM     18  C   UNL     1      19.001  -7.486 190.152  1.00  0.00     0.041 C 
ATOM     19  O   UNL     1      19.044  -6.458 190.879  1.00  0.00    -0.550 OA
ATOM     20  O   UNL     1      19.805  -8.578 190.456  1.00  0.00    -0.550 OA
ENDBRANCH  17  18
ENDBRANCH  16  17
ENDBRANCH  15  16
ENDBRANCH  14  15
ENDBRANCH  13  14
ENDBRANCH  12  13
ENDBRANCH  11  12
ENDBRANCH   1  11
TORSDOF 15
ENDMDL
