MODEL 1
REMARK VINA RESULT:    -3.340      0.000      0.000
REMARK INTER + INTRA:          -4.026
REMARK INTER:                  -4.024
REMARK INTRA:                  -0.002
REMARK UNBOUND:                -0.002
REMARK SMILES OCC(O)CO
REMARK SMILES IDX 3 1 5 2 6 3 2 5 1 6 4 8
REMARK H PARENT 6 4 1 7 4 9
REMARK Flexibility Score: inf
ROOT
ATOM      1  C   UNL     1      17.562   4.064  19.675  1.00  0.00     0.165 C 
ENDROOT
BRANCH   1   2
ATOM      2  C   UNL     1      17.305   4.095  21.188  1.00  0.00     0.190 C 
BRANCH   2   3
ATOM      3  O   UNL     1      17.983   5.172  21.776  1.00  0.00    -0.394 OA
ATOM      4  H   UNL     1      17.290   5.849  21.993  1.00  0.00     0.210 HD
ENDBRANCH   2   3
ENDBRANCH   1   2
BRANCH   1   5
ATOM      5  C   UNL     1      17.851   2.637  19.190  1.00  0.00     0.190 C 
BRANCH   5   6
ATOM      6  O   UNL     1      16.654   1.967  18.897  1.00  0.00    -0.394 OA
ATOM      7  H   UNL     1      16.851   0.996  18.947  1.00  0.00     0.210 HD
ENDBRANCH   5   6
ENDBRANCH   1   5
BRANCH   1   8
ATOM      8  O   UNL     1      18.647   4.895  19.352  1.00  0.00    -0.388 OA
ATOM      9  H   UNL     1      18.426   5.332  18.488  1.00  0.00     0.211 HD
ENDBRANCH   1   8
TORSDOF 5
ENDMDL
MODEL 2
REMARK VINA RESULT:    -3.331     10.687     11.713
REMARK INTER + INTRA:          -4.015
REMARK INTER:                  -3.795
REMARK INTRA:                  -0.220
REMARK UNBOUND:                -0.002
REMARK SMILES OCC(O)CO
REMARK SMILES IDX 3 1 5 2 6 3 2 5 1 6 4 8
REMARK H PARENT 6 4 1 7 4 9
REMARK Flexibility Score: inf
ROOT
ATOM      1  C   UNL     1      17.096   3.099  31.586  1.00  0.00     0.165 C 
ENDROOT
BRANCH   1   2
ATOM      2  C   UNL     1      16.114   2.168  32.311  1.00  0.00     0.190 C 
BRANCH   2   3
ATOM      3  O   UNL     1      15.871   1.021  31.542  1.00  0.00    -0.394 OA
ATOM      4  H   UNL     1      16.147   1.246  30.616  1.00  0.00     0.210 HD
ENDBRANCH   2   3
ENDBRANCH   1   2
BRANCH   1   5
ATOM      5  C   UNL     1      17.574   2.483  30.264  1.00  0.00     0.190 C 
BRANCH   5   6
ATOM      6  O   UNL     1      18.630   1.588  30.494  1.00  0.00    -0.394 OA
ATOM      7  H   UNL     1      18.336   0.706  30.146  1.00  0.00     0.210 HD
ENDBRANCH   5   6
ENDBRANCH   1   5
BRANCH   1   8
ATOM      8  O   UNL     1      18.207   3.361  32.407  1.00  0.00    -0.388 OA
ATOM      9  H   UNL     1      18.958   3.605  31.803  1.00  0.00     0.211 HD
ENDBRANCH   1   8
TORSDOF 5
ENDMDL
MODEL 3
REMARK VINA RESULT:    -3.320      0.778      2.928
REMARK INTER + INTRA:          -4.002
REMARK INTER:                  -3.780
REMARK INTRA:                  -0.222
REMARK UNBOUND:                -0.002
REMARK SMILES OCC(O)CO
REMARK SMILES IDX 3 1 5 2 6 3 2 5 1 6 4 8
REMARK H PARENT 6 4 1 7 4 9
REMARK Flexibility Score: inf
ROOT
ATOM      1  C   UNL     1      16.923   3.758  19.454  1.00  0.00     0.165 C 
ENDROOT
BRANCH   1   2
ATOM      2  C   UNL     1      18.352   3.382  19.042  1.00  0.00     0.190 C 
BRANCH   2   3
ATOM      3  O   UNL     1      19.093   4.533  18.739  1.00  0.00    -0.394 OA
ATOM      4  H   UNL     1      18.495   5.112  18.199  1.00  0.00     0.210 HD
ENDBRANCH   2   3
ENDBRANCH   1   2
BRANCH   1   5
ATOM      5  C   UNL     1      16.841   4.067  20.955  1.00  0.00     0.190 C 
BRANCH   5   6
ATOM      6  O   UNL     1      17.929   4.858  21.352  1.00  0.00    -0.394 OA
ATOM      7  H   UNL     1      18.655   4.233  21.614  1.00  0.00     0.210 HD
ENDBRANCH   5   6
ENDBRANCH   1   5
BRANCH   1   8
ATOM      8  O   UNL     1      16.039   2.711  19.144  1.00  0.00    -0.388 OA
ATOM      9  H   UNL     1      16.062   2.080  19.912  1.00  0.00     0.211 HD
ENDBRANCH   1   8
TORSDOF 5
ENDMDL
MODEL 4
REMARK VINA RESULT:    -3.308      0.745      3.097
REMARK INTER + INTRA:          -3.987
REMARK INTER:                  -3.984
REMARK INTRA:                  -0.003
REMARK UNBOUND:                -0.002
REMARK SMILES OCC(O)CO
REMARK SMILES IDX 3 1 5 2 6 3 2 5 1 6 4 8
REMARK H PARENT 6 4 1 7 4 9
REMARK Flexibility Score: inf
ROOT
ATOM      1  C   UNL     1      17.605   3.840  20.198  1.00  0.00     0.165 C 
ENDROOT
BRANCH   1   2
ATOM      2  C   UNL     1      16.440   3.340  19.333  1.00  0.00     0.190 C 
BRANCH   2   3
ATOM      3  O   UNL     1      16.674   2.025  18.910  1.00  0.00    -0.394 OA
ATOM      4  H   UNL     1      15.938   1.801  18.284  1.00  0.00     0.210 HD
ENDBRANCH   2   3
ENDBRANCH   1   2
BRANCH   1   5
ATOM      5  C   UNL     1      17.099   4.471  21.503  1.00  0.00     0.190 C 
BRANCH   5   6
ATOM      6  O   UNL     1      18.024   5.408  21.984  1.00  0.00    -0.394 OA
ATOM      7  H   UNL     1      17.538   5.981  22.632  1.00  0.00     0.210 HD
ENDBRANCH   5   6
ENDBRANCH   1   5
BRANCH   1   8
ATOM      8  O   UNL     1      18.364   4.784  19.487  1.00  0.00    -0.388 OA
ATOM      9  H   UNL     1      18.532   4.398  18.587  1.00  0.00     0.211 HD
ENDBRANCH   1   8
TORSDOF 5
ENDMDL
MODEL 5
REMARK VINA RESULT:    -3.293      5.931      6.628
REMARK INTER + INTRA:          -3.969
REMARK INTER:                  -3.784
REMARK INTRA:                  -0.185
REMARK UNBOUND:                -0.002
REMARK SMILES OCC(O)CO
REMARK SMILES IDX 3 1 5 2 6 3 2 5 1 6 4 8
REMARK H PARENT 6 4 1 7 4 9
REMARK Flexibility Score: inf
ROOT
ATOM      1  C   UNL     1      12.622   3.566  22.747  1.00  0.00     0.165 C 
ENDROOT
BRANCH   1   2
ATOM      2  C   UNL     1      11.471   2.757  22.135  1.00  0.00     0.190 C 
BRANCH   2   3
ATOM      3  O   UNL     1      10.720   2.137  23.144  1.00  0.00    -0.394 OA
ATOM      4  H   UNL     1      10.534   1.217  22.823  1.00  0.00     0.210 HD
ENDBRANCH   2   3
ENDBRANCH   1   2
BRANCH   1   5
ATOM      5  C   UNL     1      13.781   2.653  23.168  1.00  0.00     0.190 C 
BRANCH   5   6
ATOM      6  O   UNL     1      13.292   1.415  23.611  1.00  0.00    -0.394 OA
ATOM      7  H   UNL     1      14.010   1.004  24.159  1.00  0.00     0.210 HD
ENDBRANCH   5   6
ENDBRANCH   1   5
BRANCH   1   8
ATOM      8  O   UNL     1      12.166   4.287  23.863  1.00  0.00    -0.388 OA
ATOM      9  H   UNL     1      11.584   3.672  24.383  1.00  0.00     0.211 HD
ENDBRANCH   1   8
TORSDOF 5
ENDMDL
MODEL 6
REMARK VINA RESULT:    -3.240      5.992      6.413
REMARK INTER + INTRA:          -3.905
REMARK INTER:                  -3.713
REMARK INTRA:                  -0.192
REMARK UNBOUND:                -0.002
REMARK SMILES OCC(O)CO
REMARK SMILES IDX 3 1 5 2 6 3 2 5 1 6 4 8
REMARK H PARENT 6 4 1 7 4 9
REMARK Flexibility Score: inf
ROOT
ATOM      1  C   UNL     1      13.157   2.606  22.843  1.00  0.00     0.165 C 
ENDROOT
BRANCH   1   2
ATOM      2  C   UNL     1      13.629   3.840  23.627  1.00  0.00     0.190 C 
BRANCH   2   3
ATOM      3  O   UNL     1      12.532   4.515  24.180  1.00  0.00    -0.394 OA
ATOM      4  H   UNL     1      11.757   3.903  24.089  1.00  0.00     0.210 HD
ENDBRANCH   2   3
ENDBRANCH   1   2
BRANCH   1   5
ATOM      5  C   UNL     1      11.705   2.767  22.375  1.00  0.00     0.190 C 
BRANCH   5   6
ATOM      6  O   UNL     1      10.837   2.064  23.224  1.00  0.00    -0.394 OA
ATOM      7  H   UNL     1      10.120   1.688  22.649  1.00  0.00     0.210 HD
ENDBRANCH   5   6
ENDBRANCH   1   5
BRANCH   1   8
ATOM      8  O   UNL     1      13.265   1.456  23.643  1.00  0.00    -0.388 OA
ATOM      9  H   UNL     1      14.218   1.385  23.917  1.00  0.00     0.211 HD
ENDBRANCH   1   8
TORSDOF 5
ENDMDL
MODEL 7
REMARK VINA RESULT:    -3.220      1.501      2.917
REMARK INTER + INTRA:          -3.881
REMARK INTER:                  -3.879
REMARK INTRA:                  -0.003
REMARK UNBOUND:                -0.002
REMARK SMILES OCC(O)CO
REMARK SMILES IDX 3 1 5 2 6 3 2 5 1 6 4 8
REMARK H PARENT 6 4 1 7 4 9
REMARK Flexibility Score: inf
ROOT
ATOM      1  C   UNL     1      17.589   2.616  19.808  1.00  0.00     0.165 C 
ENDROOT
BRANCH   1   2
ATOM      2  C   UNL     1      17.245   2.155  21.231  1.00  0.00     0.190 C 
BRANCH   2   3
ATOM      3  O   UNL     1      16.531   0.950  21.194  1.00  0.00    -0.394 OA
ATOM      4  H   UNL     1      16.262   0.817  20.248  1.00  0.00     0.210 HD
ENDBRANCH   2   3
ENDBRANCH   1   2
BRANCH   1   5
ATOM      5  C   UNL     1      17.870   4.125  19.765  1.00  0.00     0.190 C 
BRANCH   5   6
ATOM      6  O   UNL     1      18.907   4.404  18.863  1.00  0.00    -0.394 OA
ATOM      7  H   UNL     1      19.752   4.386  19.386  1.00  0.00     0.210 HD
ENDBRANCH   5   6
ENDBRANCH   1   5
BRANCH   1   8
ATOM      8  O   UNL     1      16.532   2.314  18.933  1.00  0.00    -0.388 OA
ATOM      9  H   UNL     1      16.168   1.434  19.217  1.00  0.00     0.211 HD
ENDBRANCH   1   8
TORSDOF 5
ENDMDL
MODEL 8
REMARK VINA RESULT:    -3.189     10.794     11.499
REMARK INTER + INTRA:          -3.844
REMARK INTER:                  -3.829
REMARK INTRA:                  -0.016
REMARK UNBOUND:                -0.002
REMARK SMILES OCC(O)CO
REMARK SMILES IDX 3 1 5 2 6 3 2 5 1 6 4 8
REMARK H PARENT 6 4 1 7 4 9
REMARK Flexibility Score: inf
ROOT
ATOM      1  C   UNL     1      17.491   2.238  30.602  1.00  0.00     0.165 C 
ENDROOT
BRANCH   1   2
ATOM      2  C   UNL     1      18.580   3.165  31.161  1.00  0.00     0.190 C 
BRANCH   2   3
ATOM      3  O   UNL     1      18.284   3.522  32.484  1.00  0.00    -0.394 OA
ATOM      4  H   UNL     1      19.140   3.825  32.885  1.00  0.00     0.210 HD
ENDBRANCH   2   3
ENDBRANCH   1   2
BRANCH   1   5
ATOM      5  C   UNL     1      16.380   1.999  31.634  1.00  0.00     0.190 C 
BRANCH   5   6
ATOM      6  O   UNL     1      15.814   0.728  31.458  1.00  0.00    -0.394 OA
ATOM      7  H   UNL     1      15.848   0.277  32.341  1.00  0.00     0.210 HD
ENDBRANCH   5   6
ENDBRANCH   1   5
BRANCH   1   8
ATOM      8  O   UNL     1      18.052   1.006  30.226  1.00  0.00    -0.388 OA
ATOM      9  H   UNL     1      17.945   0.394  31.002  1.00  0.00     0.211 HD
ENDBRANCH   1   8
TORSDOF 5
ENDMDL
MODEL 9
REMARK VINA RESULT:    -3.151      1.024      2.129
REMARK INTER + INTRA:          -3.798
REMARK INTER:                  -3.584
REMARK INTRA:                  -0.214
REMARK UNBOUND:                -0.002
REMARK SMILES OCC(O)CO
REMARK SMILES IDX 3 1 5 2 6 3 2 5 1 6 4 8
REMARK H PARENT 6 4 1 7 4 9
REMARK Flexibility Score: inf
ROOT
ATOM      1  C   UNL     1      17.544   2.781  20.493  1.00  0.00     0.165 C 
ENDROOT
BRANCH   1   2
ATOM      2  C   UNL     1      16.976   4.089  21.061  1.00  0.00     0.190 C 
BRANCH   2   3
ATOM      3  O   UNL     1      18.016   4.963  21.408  1.00  0.00    -0.394 OA
ATOM      4  H   UNL     1      18.071   4.947  22.398  1.00  0.00     0.210 HD
ENDBRANCH   2   3
ENDBRANCH   1   2
BRANCH   1   5
ATOM      5  C   UNL     1      17.923   2.936  19.014  1.00  0.00     0.190 C 
BRANCH   5   6
ATOM      6  O   UNL     1      18.737   4.064  18.833  1.00  0.00    -0.394 OA
ATOM      7  H   UNL     1      19.350   3.855  18.080  1.00  0.00     0.210 HD
ENDBRANCH   5   6
ENDBRANCH   1   5
BRANCH   1   8
ATOM      8  O   UNL     1      16.602   1.747  20.628  1.00  0.00    -0.388 OA
ATOM      9  H   UNL     1      15.861   1.951  19.998  1.00  0.00     0.211 HD
ENDBRANCH   1   8
TORSDOF 5
ENDMDL
