MODEL 1
REMARK VINA RESULT:    67.453      0.000      0.000
REMARK INTER + INTRA:          88.370
REMARK INTER:                  89.141
REMARK INTRA:                  -0.771
REMARK UNBOUND:                -0.771
REMARK SMILES CC[C@H](C=C[C@@H](C)[C@H]1CC[C@@H]2C3=CC[C@@H]4C[C@H](O)CC[C@@]4(C)[C@@H]3CC[C@]21C)C(C)C
REMARK SMILES IDX 6 1 7 2 5 3 4 4 3 5 2 6 1 7 28 8 29 9 30 10 8 11 9 12 26 13
REMARK SMILES IDX 10 14 11 15 25 16 27 17 12 18 24 19 23 20 13 21 21 22 14 23
REMARK SMILES IDX 15 24 20 25 22 26 16 27 19 28 17 29 18 30
REMARK H PARENT 18 31
REMARK Flexibility Score: inf
ROOT
ATOM      1  C   UNL     1     -10.591 -15.874  21.221  1.00  0.00     0.012 C 
ATOM      2  C   UNL     1     -10.118 -17.054  20.342  1.00  0.00     0.012 C 
ENDROOT
BRANCH   1   3
ATOM      3  C   UNL     1     -10.760 -16.282  22.671  1.00  0.00    -0.028 C 
ATOM      4  C   UNL     1     -10.254 -15.560  23.684  1.00  0.00    -0.027 C 
BRANCH   4   5
ATOM      5  C   UNL     1     -10.428 -15.999  25.125  1.00  0.00     0.014 C 
BRANCH   5   6
ATOM      6  C   UNL     1     -10.142 -14.782  26.046  1.00  0.00     0.004 C 
ATOM      7  C   UNL     1      -8.659 -14.444  26.192  1.00  0.00     0.004 C 
ENDBRANCH   5   6
BRANCH   5   8
ATOM      8  C   UNL     1     -11.822 -16.689  25.307  1.00  0.00    -0.011 C 
ATOM      9  C   UNL     1     -12.091 -17.124  26.756  1.00  0.00     0.008 C 
ATOM     10  C   UNL     1     -13.002 -15.872  24.754  1.00  0.00     0.008 C 
ENDBRANCH   5   8
ENDBRANCH   4   5
ENDBRANCH   1   3
BRANCH   1  11
ATOM     11  C   UNL     1     -11.839 -15.083  20.689  1.00  0.00     0.002 C 
ATOM     12  C   UNL     1     -13.157 -15.605  21.327  1.00  0.00     0.005 C 
ATOM     13  C   UNL     1     -11.928 -13.528  20.872  1.00  0.00    -0.023 C 
ATOM     14  C   UNL     1     -13.757 -14.457  22.156  1.00  0.00     0.009 C 
ATOM     15  C   UNL     1     -12.656 -13.399  22.210  1.00  0.00     0.021 C 
ATOM     16  C   UNL     1     -10.609 -12.708  20.945  1.00  0.00     0.008 C 
ATOM     17  C   UNL     1     -12.794 -12.969  19.693  1.00  0.00     0.012 C 
ATOM     18  C   UNL     1     -12.991 -11.956  22.532  1.00  0.00    -0.067 C 
ATOM     19  C   UNL     1     -10.877 -11.219  21.268  1.00  0.00     0.009 C 
ATOM     20  C   UNL     1     -11.794 -10.992  22.512  1.00  0.00     0.021 C 
ATOM     21  C   UNL     1     -14.158 -11.630  23.134  1.00  0.00    -0.027 C 
ATOM     22  C   UNL     1     -12.208  -9.487  22.725  1.00  0.00    -0.023 C 
ATOM     23  C   UNL     1     -14.468 -10.248  23.641  1.00  0.00     0.031 C 
ATOM     24  C   UNL     1     -13.190  -9.451  23.942  1.00  0.00     0.002 C 
ATOM     25  C   UNL     1     -10.947  -8.641  23.082  1.00  0.00     0.010 C 
ATOM     26  C   UNL     1     -12.870  -8.912  21.437  1.00  0.00     0.012 C 
ATOM     27  C   UNL     1     -13.530  -8.024  24.420  1.00  0.00     0.036 C 
ATOM     28  C   UNL     1     -11.293  -7.213  23.536  1.00  0.00     0.032 C 
ATOM     29  C   UNL     1     -12.252  -7.232  24.737  1.00  0.00     0.114 C 
BRANCH  29  30
ATOM     30  O   UNL     1     -12.567  -5.923  25.140  1.00  0.00    -0.393 OA
ATOM     31  H   UNL     1     -13.557  -5.863  25.221  1.00  0.00     0.210 HD
ENDBRANCH  29  30
ENDBRANCH   1  11
TORSDOF 6
ENDMDL
MODEL 2
REMARK VINA RESULT:    70.104     11.518     14.647
REMARK INTER + INTRA:          91.873
REMARK INTER:                  93.081
REMARK INTRA:                  -1.208
REMARK UNBOUND:                -0.771
REMARK SMILES CC[C@H](C=C[C@@H](C)[C@H]1CC[C@@H]2C3=CC[C@@H]4C[C@H](O)CC[C@@]4(C)[C@@H]3CC[C@]21C)C(C)C
REMARK SMILES IDX 6 1 7 2 5 3 4 4 3 5 2 6 1 7 28 8 29 9 30 10 8 11 9 12 26 13
REMARK SMILES IDX 10 14 11 15 25 16 27 17 12 18 24 19 23 20 13 21 21 22 14 23
REMARK SMILES IDX 15 24 20 25 22 26 16 27 19 28 17 29 18 30
REMARK H PARENT 18 31
REMARK Flexibility Score: inf
ROOT
ATOM      1  C   UNL     1     -13.799  -2.666  13.208  1.00  0.00     0.012 C 
ATOM      2  C   UNL     1     -14.586  -3.235  12.006  1.00  0.00     0.012 C 
ENDROOT
BRANCH   1   3
ATOM      3  C   UNL     1     -14.647  -2.606  14.462  1.00  0.00    -0.028 C 
ATOM      4  C   UNL     1     -15.749  -3.358  14.621  1.00  0.00    -0.027 C 
BRANCH   4   5
ATOM      5  C   UNL     1     -16.586  -3.269  15.882  1.00  0.00     0.014 C 
BRANCH   5   6
ATOM      6  C   UNL     1     -15.696  -2.705  17.022  1.00  0.00     0.004 C 
ATOM      7  C   UNL     1     -15.193  -3.764  18.003  1.00  0.00     0.004 C 
ENDBRANCH   5   6
BRANCH   5   8
ATOM      8  C   UNL     1     -17.909  -2.485  15.588  1.00  0.00    -0.011 C 
ATOM      9  C   UNL     1     -19.125  -3.062  16.331  1.00  0.00     0.008 C 
ATOM     10  C   UNL     1     -17.801  -0.968  15.813  1.00  0.00     0.008 C 
ENDBRANCH   5   8
ENDBRANCH   4   5
ENDBRANCH   1   3
BRANCH   1  11
ATOM     11  C   UNL     1     -13.043  -1.313  12.951  1.00  0.00     0.002 C 
ATOM     12  C   UNL     1     -13.826  -0.104  13.538  1.00  0.00     0.005 C 
ATOM     13  C   UNL     1     -11.584  -1.106  13.486  1.00  0.00    -0.023 C 
ATOM     14  C   UNL     1     -12.955   0.518  14.643  1.00  0.00     0.009 C 
ATOM     15  C   UNL     1     -11.826  -0.488  14.863  1.00  0.00     0.021 C 
ATOM     16  C   UNL     1     -10.668  -2.351  13.657  1.00  0.00     0.008 C 
ATOM     17  C   UNL     1     -10.873  -0.097  12.522  1.00  0.00     0.012 C 
ATOM     18  C   UNL     1     -10.531  -0.059  15.524  1.00  0.00    -0.067 C 
ATOM     19  C   UNL     1      -9.322  -1.984  14.325  1.00  0.00     0.009 C 
ATOM     20  C   UNL     1      -9.469  -1.162  15.645  1.00  0.00     0.021 C 
ATOM     21  C   UNL     1     -10.468   1.075  16.258  1.00  0.00    -0.027 C 
ATOM     22  C   UNL     1      -8.097  -0.640  16.219  1.00  0.00    -0.023 C 
ATOM     23  C   UNL     1      -9.270   1.459  17.084  1.00  0.00     0.031 C 
ATOM     24  C   UNL     1      -8.430   0.232  17.473  1.00  0.00     0.002 C 
ATOM     25  C   UNL     1      -7.224  -1.850  16.676  1.00  0.00     0.010 C 
ATOM     26  C   UNL     1      -7.326   0.178  15.140  1.00  0.00     0.012 C 
ATOM     27  C   UNL     1      -7.185   0.652  18.283  1.00  0.00     0.036 C 
ATOM     28  C   UNL     1      -5.974  -1.423  17.461  1.00  0.00     0.032 C 
ATOM     29  C   UNL     1      -6.354  -0.576  18.687  1.00  0.00     0.114 C 
BRANCH  29  30
ATOM     30  O   UNL     1      -5.204  -0.185  19.395  1.00  0.00    -0.393 OA
ATOM     31  H   UNL     1      -4.722  -1.012  19.666  1.00  0.00     0.210 HD
ENDBRANCH  29  30
ENDBRANCH   1  11
TORSDOF 6
ENDMDL
