MODEL 1
REMARK VINA RESULT:    -4.423      0.000      0.000
REMARK INTER + INTRA:          -5.003
REMARK INTER:                  -4.810
REMARK INTRA:                  -0.193
REMARK UNBOUND:                -0.193
REMARK SMILES C=C(C)[C@@H]1CC[C@@H](C)C[C@H]1O
REMARK SMILES IDX 8 1 7 2 6 3 5 4 4 5 10 6 9 7 11 8 2 10 1 11 3 12
REMARK H PARENT 11 9
REMARK Flexibility Score: inf
ROOT
ATOM      1  C   UNL     1      40.602  11.340   2.678  1.00  0.00     0.008 C 
ATOM      2  C   UNL     1      41.561  10.619   1.722  1.00  0.00    -0.012 C 
ATOM      3  C   UNL     1      41.623  11.331   0.346  1.00  0.00     0.004 C 
ATOM      4  C   UNL     1      40.627  10.745  -0.665  1.00  0.00     0.011 C 
ATOM      5  C   UNL     1      40.813   9.216  -0.886  1.00  0.00     0.043 C 
ATOM      6  C   UNL     1      41.603   8.525   0.258  1.00  0.00     0.121 C 
ATOM      7  C   UNL     1      41.190   9.118   1.611  1.00  0.00     0.035 C 
ENDROOT
BRANCH   6   8
ATOM      8  O   UNL     1      41.337   7.146   0.264  1.00  0.00    -0.392 OA
ATOM      9  H   UNL     1      42.169   6.691  -0.027  1.00  0.00     0.210 HD
ENDBRANCH   6   8
BRANCH   5  10
ATOM     10  C   UNL     1      41.424   8.907  -2.249  1.00  0.00    -0.075 C 
ATOM     11  C   UNL     1      42.746   8.717  -2.394  1.00  0.00     0.008 C 
ATOM     12  C   UNL     1      40.545   8.810  -3.470  1.00  0.00     0.039 C 
ENDBRANCH   5  10
TORSDOF 2
ENDMDL
MODEL 2
REMARK VINA RESULT:    -4.237      9.538     10.599
REMARK INTER + INTRA:          -4.801
REMARK INTER:                  -4.559
REMARK INTRA:                  -0.242
REMARK UNBOUND:                -0.193
REMARK SMILES C=C(C)[C@@H]1CC[C@@H](C)C[C@H]1O
REMARK SMILES IDX 8 1 7 2 6 3 5 4 4 5 10 6 9 7 11 8 2 10 1 11 3 12
REMARK H PARENT 11 9
REMARK Flexibility Score: inf
ROOT
ATOM      1  C   UNL     1      43.239   0.234  -5.188  1.00  0.00     0.008 C 
ATOM      2  C   UNL     1      43.724   1.472  -5.953  1.00  0.00    -0.012 C 
ATOM      3  C   UNL     1      42.755   2.667  -5.761  1.00  0.00     0.004 C 
ATOM      4  C   UNL     1      41.695   2.748  -6.868  1.00  0.00     0.011 C 
ATOM      5  C   UNL     1      42.310   2.830  -8.295  1.00  0.00     0.043 C 
ATOM      6  C   UNL     1      43.785   2.347  -8.353  1.00  0.00     0.121 C 
ATOM      7  C   UNL     1      43.971   1.126  -7.444  1.00  0.00     0.035 C 
ENDROOT
BRANCH   6   8
ATOM      8  O   UNL     1      44.125   1.993  -9.669  1.00  0.00    -0.392 OA
ATOM      9  H   UNL     1      45.053   2.308  -9.821  1.00  0.00     0.210 HD
ENDBRANCH   6   8
BRANCH   5  10
ATOM     10  C   UNL     1      42.156   4.220  -8.904  1.00  0.00    -0.075 C 
ATOM     11  C   UNL     1      42.991   5.220  -8.578  1.00  0.00     0.008 C 
ATOM     12  C   UNL     1      41.051   4.498  -9.891  1.00  0.00     0.039 C 
ENDBRANCH   5  10
TORSDOF 2
ENDMDL
MODEL 3
REMARK VINA RESULT:    -4.214      9.527     10.729
REMARK INTER + INTRA:          -4.776
REMARK INTER:                  -4.543
REMARK INTRA:                  -0.233
REMARK UNBOUND:                -0.193
REMARK SMILES C=C(C)[C@@H]1CC[C@@H](C)C[C@H]1O
REMARK SMILES IDX 8 1 7 2 6 3 5 4 4 5 10 6 9 7 11 8 2 10 1 11 3 12
REMARK H PARENT 11 9
REMARK Flexibility Score: inf
ROOT
ATOM      1  C   UNL     1      38.543   4.944 -10.113  1.00  0.00     0.008 C 
ATOM      2  C   UNL     1      38.808   4.174  -8.812  1.00  0.00    -0.012 C 
ATOM      3  C   UNL     1      39.999   4.786  -8.030  1.00  0.00     0.004 C 
ATOM      4  C   UNL     1      41.334   4.109  -8.369  1.00  0.00     0.011 C 
ATOM      5  C   UNL     1      41.316   2.572  -8.128  1.00  0.00     0.043 C 
ATOM      6  C   UNL     1      39.882   1.981  -8.060  1.00  0.00     0.121 C 
ATOM      7  C   UNL     1      38.986   2.662  -9.103  1.00  0.00     0.035 C 
ENDROOT
BRANCH   6   8
ATOM      8  O   UNL     1      39.916   0.600  -8.320  1.00  0.00    -0.392 OA
ATOM      9  H   UNL     1      39.001   0.255  -8.156  1.00  0.00     0.210 HD
ENDBRANCH   6   8
BRANCH   5  10
ATOM     10  C   UNL     1      42.138   2.176  -6.905  1.00  0.00    -0.075 C 
ATOM     11  C   UNL     1      43.455   1.932  -6.999  1.00  0.00     0.008 C 
ATOM     12  C   UNL     1      41.477   2.052  -5.555  1.00  0.00     0.039 C 
ENDBRANCH   5  10
TORSDOF 2
ENDMDL
MODEL 4
REMARK VINA RESULT:    -4.188      7.298      8.855
REMARK INTER + INTRA:          -4.748
REMARK INTER:                  -4.498
REMARK INTRA:                  -0.250
REMARK UNBOUND:                -0.193
REMARK SMILES C=C(C)[C@@H]1CC[C@@H](C)C[C@H]1O
REMARK SMILES IDX 8 1 7 2 6 3 5 4 4 5 10 6 9 7 11 8 2 10 1 11 3 12
REMARK H PARENT 11 9
REMARK Flexibility Score: inf
ROOT
ATOM      1  C   UNL     1      32.478  11.261   1.481  1.00  0.00     0.008 C 
ATOM      2  C   UNL     1      33.728  11.624   2.292  1.00  0.00    -0.012 C 
ATOM      3  C   UNL     1      34.801  10.508   2.201  1.00  0.00     0.004 C 
ATOM      4  C   UNL     1      34.696   9.496   3.351  1.00  0.00     0.011 C 
ATOM      5  C   UNL     1      34.785  10.160   4.756  1.00  0.00     0.043 C 
ATOM      6  C   UNL     1      34.487  11.683   4.732  1.00  0.00     0.121 C 
ATOM      7  C   UNL     1      33.344  11.978   3.752  1.00  0.00     0.035 C 
ENDROOT
BRANCH   6   8
ATOM      8  O   UNL     1      34.115  12.123   6.013  1.00  0.00    -0.392 OA
ATOM      9  H   UNL     1      34.826  12.740   6.323  1.00  0.00     0.210 HD
ENDBRANCH   6   8
BRANCH   5  10
ATOM     10  C   UNL     1      36.114   9.864   5.443  1.00  0.00    -0.075 C 
ATOM     11  C   UNL     1      36.230   8.868   6.337  1.00  0.00     0.008 C 
ATOM     12  C   UNL     1      37.332  10.694   5.127  1.00  0.00     0.039 C 
ENDBRANCH   5  10
TORSDOF 2
ENDMDL
MODEL 5
REMARK VINA RESULT:    -4.179      7.208      8.322
REMARK INTER + INTRA:          -4.738
REMARK INTER:                  -4.521
REMARK INTRA:                  -0.217
REMARK UNBOUND:                -0.193
REMARK SMILES C=C(C)[C@@H]1CC[C@@H](C)C[C@H]1O
REMARK SMILES IDX 8 1 7 2 6 3 5 4 4 5 10 6 9 7 11 8 2 10 1 11 3 12
REMARK H PARENT 11 9
REMARK Flexibility Score: inf
ROOT
ATOM      1  C   UNL     1      37.369   6.508   6.526  1.00  0.00     0.008 C 
ATOM      2  C   UNL     1      36.545   6.716   5.249  1.00  0.00    -0.012 C 
ATOM      3  C   UNL     1      37.086   7.908   4.418  1.00  0.00     0.004 C 
ATOM      4  C   UNL     1      36.375   9.227   4.752  1.00  0.00     0.011 C 
ATOM      5  C   UNL     1      34.831   9.151   4.568  1.00  0.00     0.043 C 
ATOM      6  C   UNL     1      34.289   7.696   4.554  1.00  0.00     0.121 C 
ATOM      7  C   UNL     1      35.039   6.849   5.591  1.00  0.00     0.035 C 
ENDROOT
BRANCH   6   8
ATOM      8  O   UNL     1      32.919   7.688   4.863  1.00  0.00    -0.392 OA
ATOM      9  H   UNL     1      32.675   6.748   5.066  1.00  0.00     0.210 HD
ENDBRANCH   6   8
BRANCH   5  10
ATOM     10  C   UNL     1      34.364   9.929   3.342  1.00  0.00    -0.075 C 
ATOM     11  C   UNL     1      34.261   9.340   2.139  1.00  0.00     0.008 C 
ATOM     12  C   UNL     1      34.007  11.389   3.461  1.00  0.00     0.039 C 
ENDBRANCH   5  10
TORSDOF 2
ENDMDL
MODEL 6
REMARK VINA RESULT:    -4.147      7.941      9.181
REMARK INTER + INTRA:          -4.704
REMARK INTER:                  -4.501
REMARK INTRA:                  -0.202
REMARK UNBOUND:                -0.193
REMARK SMILES C=C(C)[C@@H]1CC[C@@H](C)C[C@H]1O
REMARK SMILES IDX 8 1 7 2 6 3 5 4 4 5 10 6 9 7 11 8 2 10 1 11 3 12
REMARK H PARENT 11 9
REMARK Flexibility Score: inf
ROOT
ATOM      1  C   UNL     1      36.201   5.045   7.542  1.00  0.00     0.008 C 
ATOM      2  C   UNL     1      35.738   5.497   6.150  1.00  0.00    -0.012 C 
ATOM      3  C   UNL     1      36.674   6.589   5.573  1.00  0.00     0.004 C 
ATOM      4  C   UNL     1      36.184   8.009   5.886  1.00  0.00     0.011 C 
ATOM      5  C   UNL     1      34.736   8.278   5.383  1.00  0.00     0.043 C 
ATOM      6  C   UNL     1      33.932   6.977   5.112  1.00  0.00     0.121 C 
ATOM      7  C   UNL     1      34.250   5.932   6.189  1.00  0.00     0.035 C 
ENDROOT
BRANCH   6   8
ATOM      8  O   UNL     1      32.554   7.248   5.132  1.00  0.00    -0.392 OA
ATOM      9  H   UNL     1      32.089   6.373   5.172  1.00  0.00     0.210 HD
ENDBRANCH   6   8
BRANCH   5  10
ATOM     10  C   UNL     1      34.715   9.206   4.172  1.00  0.00    -0.075 C 
ATOM     11  C   UNL     1      34.701   8.719   2.920  1.00  0.00     0.008 C 
ATOM     12  C   UNL     1      34.712  10.701   4.363  1.00  0.00     0.039 C 
ENDBRANCH   5  10
TORSDOF 2
ENDMDL
MODEL 7
REMARK VINA RESULT:    -4.138      9.938     11.514
REMARK INTER + INTRA:          -4.693
REMARK INTER:                  -4.512
REMARK INTRA:                  -0.182
REMARK UNBOUND:                -0.193
REMARK SMILES C=C(C)[C@@H]1CC[C@@H](C)C[C@H]1O
REMARK SMILES IDX 8 1 7 2 6 3 5 4 4 5 10 6 9 7 11 8 2 10 1 11 3 12
REMARK H PARENT 11 9
REMARK Flexibility Score: inf
ROOT
ATOM      1  C   UNL     1      37.197   3.856 -10.968  1.00  0.00     0.008 C 
ATOM      2  C   UNL     1      37.746   3.449  -9.595  1.00  0.00    -0.012 C 
ATOM      3  C   UNL     1      38.845   4.431  -9.114  1.00  0.00     0.004 C 
ATOM      4  C   UNL     1      40.257   3.968  -9.499  1.00  0.00     0.011 C 
ATOM      5  C   UNL     1      40.596   2.544  -8.972  1.00  0.00     0.043 C 
ATOM      6  C   UNL     1      39.337   1.715  -8.597  1.00  0.00     0.121 C 
ATOM      7  C   UNL     1      38.219   1.973  -9.616  1.00  0.00     0.035 C 
ENDROOT
BRANCH   6   8
ATOM      8  O   UNL     1      39.645   0.345  -8.593  1.00  0.00    -0.392 OA
ATOM      9  H   UNL     1      40.291   0.193  -9.331  1.00  0.00     0.210 HD
ENDBRANCH   6   8
BRANCH   5  10
ATOM     10  C   UNL     1      41.597   2.585  -7.821  1.00  0.00    -0.075 C 
ATOM     11  C   UNL     1      42.908   2.770  -8.044  1.00  0.00     0.008 C 
ATOM     12  C   UNL     1      41.125   2.416  -6.399  1.00  0.00     0.039 C 
ENDBRANCH   5  10
TORSDOF 2
ENDMDL
MODEL 8
REMARK VINA RESULT:    -4.085      9.600     10.566
REMARK INTER + INTRA:          -4.636
REMARK INTER:                  -4.392
REMARK INTRA:                  -0.244
REMARK UNBOUND:                -0.193
REMARK SMILES C=C(C)[C@@H]1CC[C@@H](C)C[C@H]1O
REMARK SMILES IDX 8 1 7 2 6 3 5 4 4 5 10 6 9 7 11 8 2 10 1 11 3 12
REMARK H PARENT 11 9
REMARK Flexibility Score: inf
ROOT
ATOM      1  C   UNL     1      43.481   2.454  -5.722  1.00  0.00     0.008 C 
ATOM      2  C   UNL     1      42.808   2.092  -7.052  1.00  0.00    -0.012 C 
ATOM      3  C   UNL     1      43.115   3.150  -8.144  1.00  0.00     0.004 C 
ATOM      4  C   UNL     1      42.040   4.243  -8.223  1.00  0.00     0.011 C 
ATOM      5  C   UNL     1      40.612   3.676  -8.467  1.00  0.00     0.043 C 
ATOM      6  C   UNL     1      40.484   2.169  -8.114  1.00  0.00     0.121 C 
ATOM      7  C   UNL     1      41.289   1.859  -6.845  1.00  0.00     0.035 C 
ENDROOT
BRANCH   6   8
ATOM      8  O   UNL     1      39.138   1.837  -7.893  1.00  0.00    -0.392 OA
ATOM      9  H   UNL     1      38.698   1.811  -8.782  1.00  0.00     0.210 HD
ENDBRANCH   6   8
BRANCH   5  10
ATOM     10  C   UNL     1      40.120   3.959  -9.883  1.00  0.00    -0.075 C 
ATOM     11  C   UNL     1      40.564   3.246 -10.931  1.00  0.00     0.008 C 
ATOM     12  C   UNL     1      39.116   5.056 -10.132  1.00  0.00     0.039 C 
ENDBRANCH   5  10
TORSDOF 2
ENDMDL
MODEL 9
REMARK VINA RESULT:    -4.070      7.350      8.543
REMARK INTER + INTRA:          -4.620
REMARK INTER:                  -4.378
REMARK INTRA:                  -0.241
REMARK UNBOUND:                -0.193
REMARK SMILES C=C(C)[C@@H]1CC[C@@H](C)C[C@H]1O
REMARK SMILES IDX 8 1 7 2 6 3 5 4 4 5 10 6 9 7 11 8 2 10 1 11 3 12
REMARK H PARENT 11 9
REMARK Flexibility Score: inf
ROOT
ATOM      1  C   UNL     1      34.410  11.408   2.126  1.00  0.00     0.008 C 
ATOM      2  C   UNL     1      34.105  10.646   3.423  1.00  0.00    -0.012 C 
ATOM      3  C   UNL     1      35.130  10.993   4.533  1.00  0.00     0.004 C 
ATOM      4  C   UNL     1      36.311  10.013   4.569  1.00  0.00     0.011 C 
ATOM      5  C   UNL     1      35.869   8.532   4.745  1.00  0.00     0.043 C 
ATOM      6  C   UNL     1      34.379   8.292   4.379  1.00  0.00     0.121 C 
ATOM      7  C   UNL     1      34.003   9.124   3.146  1.00  0.00     0.035 C 
ENDROOT
BRANCH   6   8
ATOM      8  O   UNL     1      34.165   6.933   4.095  1.00  0.00    -0.392 OA
ATOM      9  H   UNL     1      33.294   6.872   3.623  1.00  0.00     0.210 HD
ENDBRANCH   6   8
BRANCH   5  10
ATOM     10  C   UNL     1      36.191   8.002   6.138  1.00  0.00    -0.075 C 
ATOM     11  C   UNL     1      35.505   8.414   7.217  1.00  0.00     0.008 C 
ATOM     12  C   UNL     1      37.297   6.996   6.330  1.00  0.00     0.039 C 
ENDBRANCH   5  10
TORSDOF 2
ENDMDL
