MODEL 1
REMARK VINA RESULT:    -6.973      0.000      0.000
REMARK INTER + INTRA:          -8.720
REMARK INTER:                  -8.400
REMARK INTRA:                  -0.320
REMARK UNBOUND:                -0.320
REMARK SMILES O=c1c(O)c(-c2ccc(O)c(O)c2)oc2cc(O)cc(O)c12
REMARK SMILES IDX 5 1 3 2 2 3 1 4 22 5 20 6 19 7 17 8 16 9 15 10 14 11 6 12
REMARK SMILES IDX 7 13 8 14 9 15 13 16 11 17 10 18 12 20 4 22 21 24 18 26
REMARK H PARENT 10 19 12 21 4 23 21 25 18 27
REMARK Flexibility Score: inf
ROOT
ATOM      1  C   UNL     1      28.175   5.362 -13.881  1.00  0.00     0.180 A 
ATOM      2  C   UNL     1      28.158   5.530 -12.485  1.00  0.00     0.208 A 
ATOM      3  C   UNL     1      29.038   6.454 -11.900  1.00  0.00     0.238 A 
ATOM      4  O   UNL     1      29.056   6.560 -10.646  1.00  0.00    -0.285 OA
ATOM      5  C   UNL     1      29.911   7.211 -12.717  1.00  0.00     0.111 A 
ATOM      6  C   UNL     1      30.815   8.205 -12.234  1.00  0.00     0.134 A 
ATOM      7  C   UNL     1      31.724   8.798 -13.118  1.00  0.00     0.093 A 
ATOM      8  C   UNL     1      31.718   8.485 -14.476  1.00  0.00     0.123 A 
ATOM      9  C   UNL     1      30.799   7.558 -14.969  1.00  0.00     0.094 A 
ATOM     10  C   UNL     1      29.903   6.922 -14.107  1.00  0.00     0.146 A 
ATOM     11  O   UNL     1      29.051   6.040 -14.614  1.00  0.00    -0.452 OA
ENDROOT
BRANCH   1  12
ATOM     12  C   UNL     1      27.261   4.426 -14.573  1.00  0.00     0.025 A 
ATOM     13  C   UNL     1      26.043   4.863 -15.124  1.00  0.00     0.016 A 
ATOM     14  C   UNL     1      25.208   3.965 -15.794  1.00  0.00     0.051 A 
ATOM     15  C   UNL     1      25.583   2.623 -15.935  1.00  0.00     0.157 A 
ATOM     16  C   UNL     1      27.641   3.083 -14.736  1.00  0.00     0.062 A 
ATOM     17  C   UNL     1      26.802   2.181 -15.407  1.00  0.00     0.158 A 
BRANCH  15  18
ATOM     18  O   UNL     1      24.751   1.725 -16.601  1.00  0.00    -0.504 OA
ATOM     19  H   UNL     1      24.500   1.855 -17.573  1.00  0.00     0.293 HD
ENDBRANCH  15  18
BRANCH  17  20
ATOM     20  O   UNL     1      27.175   0.847 -15.555  1.00  0.00    -0.504 OA
ATOM     21  H   UNL     1      27.769   0.383 -14.876  1.00  0.00     0.293 HD
ENDBRANCH  17  20
ENDBRANCH   1  12
BRANCH   2  22
ATOM     22  O   UNL     1      27.303   4.757 -11.696  1.00  0.00    -0.502 OA
ATOM     23  H   UNL     1      27.645   4.046 -11.059  1.00  0.00     0.293 HD
ENDBRANCH   2  22
BRANCH   6  24
ATOM     24  O   UNL     1      30.841   8.660 -10.912  1.00  0.00    -0.507 OA
ATOM     25  H   UNL     1      30.026   8.915 -10.376  1.00  0.00     0.293 HD
ENDBRANCH   6  24
BRANCH   8  26
ATOM     26  O   UNL     1      32.627   9.106 -15.330  1.00  0.00    -0.508 OA
ATOM     27  H   UNL     1      33.262   8.570 -15.910  1.00  0.00     0.293 HD
ENDBRANCH   8  26
TORSDOF 6
ENDMDL
MODEL 2
REMARK VINA RESULT:    -6.858      1.257      1.654
REMARK INTER + INTRA:          -8.582
REMARK INTER:                  -8.364
REMARK INTRA:                  -0.217
REMARK UNBOUND:                -0.320
REMARK SMILES O=c1c(O)c(-c2ccc(O)c(O)c2)oc2cc(O)cc(O)c12
REMARK SMILES IDX 5 1 3 2 2 3 1 4 22 5 20 6 19 7 17 8 16 9 15 10 14 11 6 12
REMARK SMILES IDX 7 13 8 14 9 15 13 16 11 17 10 18 12 20 4 22 21 24 18 26
REMARK H PARENT 10 19 12 21 4 23 21 25 18 27
REMARK Flexibility Score: inf
ROOT
ATOM      1  C   UNL     1      26.900   5.016 -14.686  1.00  0.00     0.180 A 
ATOM      2  C   UNL     1      26.820   5.038 -13.283  1.00  0.00     0.208 A 
ATOM      3  C   UNL     1      27.783   5.756 -12.557  1.00  0.00     0.238 A 
ATOM      4  O   UNL     1      27.738   5.727 -11.299  1.00  0.00    -0.285 OA
ATOM      5  C   UNL     1      28.804   6.457 -13.243  1.00  0.00     0.111 A 
ATOM      6  C   UNL     1      29.809   7.250 -12.610  1.00  0.00     0.134 A 
ATOM      7  C   UNL     1      30.846   7.791 -13.379  1.00  0.00     0.093 A 
ATOM      8  C   UNL     1      30.881   7.625 -14.763  1.00  0.00     0.123 A 
ATOM      9  C   UNL     1      29.871   6.901 -15.398  1.00  0.00     0.094 A 
ATOM     10  C   UNL     1      28.842   6.318 -14.655  1.00  0.00     0.146 A 
ATOM     11  O   UNL     1      27.907   5.629 -15.297  1.00  0.00    -0.452 OA
ENDROOT
BRANCH   1  12
ATOM     12  C   UNL     1      25.907   4.302 -15.521  1.00  0.00     0.025 A 
ATOM     13  C   UNL     1      24.991   5.000 -16.327  1.00  0.00     0.016 A 
ATOM     14  C   UNL     1      24.079   4.303 -17.125  1.00  0.00     0.051 A 
ATOM     15  C   UNL     1      24.078   2.903 -17.139  1.00  0.00     0.157 A 
ATOM     16  C   UNL     1      25.915   2.898 -15.555  1.00  0.00     0.062 A 
ATOM     17  C   UNL     1      24.999   2.198 -16.354  1.00  0.00     0.158 A 
BRANCH  15  18
ATOM     18  O   UNL     1      23.168   2.206 -17.931  1.00  0.00    -0.504 OA
ATOM     19  H   UNL     1      22.219   2.535 -18.064  1.00  0.00     0.293 HD
ENDBRANCH  15  18
BRANCH  17  20
ATOM     20  O   UNL     1      25.000   0.805 -16.375  1.00  0.00    -0.504 OA
ATOM     21  H   UNL     1      24.294   0.266 -15.886  1.00  0.00     0.293 HD
ENDBRANCH  17  20
ENDBRANCH   1  12
BRANCH   2  22
ATOM     22  O   UNL     1      25.816   4.322 -12.625  1.00  0.00    -0.502 OA
ATOM     23  H   UNL     1      25.278   4.715 -11.862  1.00  0.00     0.293 HD
ENDBRANCH   2  22
BRANCH   6  24
ATOM     24  O   UNL     1      29.816   7.556 -11.246  1.00  0.00    -0.507 OA
ATOM     25  H   UNL     1      30.227   6.978 -10.529  1.00  0.00     0.293 HD
ENDBRANCH   6  24
BRANCH   8  26
ATOM     26  O   UNL     1      31.920   8.191 -15.498  1.00  0.00    -0.508 OA
ATOM     27  H   UNL     1      32.079   7.944 -16.468  1.00  0.00     0.293 HD
ENDBRANCH   8  26
TORSDOF 6
ENDMDL
MODEL 3
REMARK VINA RESULT:    -6.851      1.887      3.660
REMARK INTER + INTRA:          -8.572
REMARK INTER:                  -8.503
REMARK INTRA:                  -0.070
REMARK UNBOUND:                -0.320
REMARK SMILES O=c1c(O)c(-c2ccc(O)c(O)c2)oc2cc(O)cc(O)c12
REMARK SMILES IDX 5 1 3 2 2 3 1 4 22 5 20 6 19 7 17 8 16 9 15 10 14 11 6 12
REMARK SMILES IDX 7 13 8 14 9 15 13 16 11 17 10 18 12 20 4 22 21 24 18 26
REMARK H PARENT 10 19 12 21 4 23 21 25 18 27
REMARK Flexibility Score: inf
ROOT
ATOM      1  C   UNL     1      27.287   4.302 -14.347  1.00  0.00     0.180 A 
ATOM      2  C   UNL     1      28.069   5.223 -15.066  1.00  0.00     0.208 A 
ATOM      3  C   UNL     1      28.799   6.193 -14.362  1.00  0.00     0.238 A 
ATOM      4  O   UNL     1      29.453   7.048 -15.014  1.00  0.00    -0.285 OA
ATOM      5  C   UNL     1      28.754   6.219 -12.947  1.00  0.00     0.111 A 
ATOM      6  C   UNL     1      29.486   7.133 -12.129  1.00  0.00     0.134 A 
ATOM      7  C   UNL     1      29.264   7.153 -10.748  1.00  0.00     0.093 A 
ATOM      8  C   UNL     1      28.387   6.251 -10.146  1.00  0.00     0.123 A 
ATOM      9  C   UNL     1      27.710   5.315 -10.928  1.00  0.00     0.094 A 
ATOM     10  C   UNL     1      27.884   5.294 -12.314  1.00  0.00     0.146 A 
ATOM     11  O   UNL     1      27.214   4.394 -13.024  1.00  0.00    -0.452 OA
ENDROOT
BRANCH   1  12
ATOM     12  C   UNL     1      26.510   3.236 -15.017  1.00  0.00     0.025 A 
ATOM     13  C   UNL     1      26.704   1.879 -14.702  1.00  0.00     0.016 A 
ATOM     14  C   UNL     1      25.940   0.892 -15.332  1.00  0.00     0.051 A 
ATOM     15  C   UNL     1      24.965   1.246 -16.272  1.00  0.00     0.157 A 
ATOM     16  C   UNL     1      25.516   3.585 -15.946  1.00  0.00     0.062 A 
ATOM     17  C   UNL     1      24.750   2.595 -16.579  1.00  0.00     0.158 A 
BRANCH  15  18
ATOM     18  O   UNL     1      24.204   0.263 -16.903  1.00  0.00    -0.504 OA
ATOM     19  H   UNL     1      23.702   0.451 -17.762  1.00  0.00     0.293 HD
ENDBRANCH  15  18
BRANCH  17  20
ATOM     20  O   UNL     1      23.775   2.944 -17.511  1.00  0.00    -0.504 OA
ATOM     21  H   UNL     1      23.685   2.455 -18.394  1.00  0.00     0.293 HD
ENDBRANCH  17  20
ENDBRANCH   1  12
BRANCH   2  22
ATOM     22  O   UNL     1      28.082   5.192 -16.463  1.00  0.00    -0.502 OA
ATOM     23  H   UNL     1      27.805   4.373 -16.992  1.00  0.00     0.293 HD
ENDBRANCH   2  22
BRANCH   6  24
ATOM     24  O   UNL     1      30.456   8.013 -12.620  1.00  0.00    -0.507 OA
ATOM     25  H   UNL     1      31.187   8.431 -12.065  1.00  0.00     0.293 HD
ENDBRANCH   6  24
BRANCH   8  26
ATOM     26  O   UNL     1      28.201   6.290  -8.765  1.00  0.00    -0.508 OA
ATOM     27  H   UNL     1      28.034   5.446  -8.229  1.00  0.00     0.293 HD
ENDBRANCH   8  26
TORSDOF 6
ENDMDL
MODEL 4
REMARK VINA RESULT:    -6.720      2.261      4.256
REMARK INTER + INTRA:          -8.415
REMARK INTER:                  -8.177
REMARK INTRA:                  -0.238
REMARK UNBOUND:                -0.320
REMARK SMILES O=c1c(O)c(-c2ccc(O)c(O)c2)oc2cc(O)cc(O)c12
REMARK SMILES IDX 5 1 3 2 2 3 1 4 22 5 20 6 19 7 17 8 16 9 15 10 14 11 6 12
REMARK SMILES IDX 7 13 8 14 9 15 13 16 11 17 10 18 12 20 4 22 21 24 18 26
REMARK H PARENT 10 19 12 21 4 23 21 25 18 27
REMARK Flexibility Score: inf
ROOT
ATOM      1  C   UNL     1      30.101   7.310 -13.555  1.00  0.00     0.180 A 
ATOM      2  C   UNL     1      30.820   7.450 -14.755  1.00  0.00     0.208 A 
ATOM      3  C   UNL     1      31.952   8.280 -14.778  1.00  0.00     0.238 A 
ATOM      4  O   UNL     1      32.559   8.445 -15.868  1.00  0.00    -0.285 OA
ATOM      5  C   UNL     1      32.362   8.946 -13.597  1.00  0.00     0.111 A 
ATOM      6  C   UNL     1      33.517   9.779 -13.495  1.00  0.00     0.134 A 
ATOM      7  C   UNL     1      33.753  10.490 -12.313  1.00  0.00     0.093 A 
ATOM      8  C   UNL     1      32.915  10.350 -11.208  1.00  0.00     0.123 A 
ATOM      9  C   UNL     1      31.816   9.492 -11.277  1.00  0.00     0.094 A 
ATOM     10  C   UNL     1      31.533   8.796 -12.454  1.00  0.00     0.146 A 
ATOM     11  O   UNL     1      30.473   7.998 -12.482  1.00  0.00    -0.452 OA
ENDROOT
BRANCH   1  12
ATOM     12  C   UNL     1      28.913   6.434 -13.446  1.00  0.00     0.025 A 
ATOM     13  C   UNL     1      28.957   5.225 -12.730  1.00  0.00     0.016 A 
ATOM     14  C   UNL     1      27.815   4.426 -12.621  1.00  0.00     0.051 A 
ATOM     15  C   UNL     1      26.612   4.830 -13.213  1.00  0.00     0.157 A 
ATOM     16  C   UNL     1      27.698   6.843 -14.020  1.00  0.00     0.062 A 
ATOM     17  C   UNL     1      26.552   6.042 -13.912  1.00  0.00     0.158 A 
BRANCH  15  18
ATOM     18  O   UNL     1      25.473   4.035 -13.108  1.00  0.00    -0.504 OA
ATOM     19  H   UNL     1      24.615   4.387 -12.700  1.00  0.00     0.293 HD
ENDBRANCH  15  18
BRANCH  17  20
ATOM     20  O   UNL     1      25.352   6.444 -14.495  1.00  0.00    -0.504 OA
ATOM     21  H   UNL     1      25.127   7.424 -14.623  1.00  0.00     0.293 HD
ENDBRANCH  17  20
ENDBRANCH   1  12
BRANCH   2  22
ATOM     22  O   UNL     1      30.385   6.802 -15.914  1.00  0.00    -0.502 OA
ATOM     23  H   UNL     1      30.104   5.828 -15.919  1.00  0.00     0.293 HD
ENDBRANCH   2  22
BRANCH   6  24
ATOM     24  O   UNL     1      34.470   9.918 -14.509  1.00  0.00    -0.507 OA
ATOM     25  H   UNL     1      34.342   9.619 -15.464  1.00  0.00     0.293 HD
ENDBRANCH   6  24
BRANCH   8  26
ATOM     26  O   UNL     1      33.188  11.062 -10.042  1.00  0.00    -0.508 OA
ATOM     27  H   UNL     1      34.053  11.578  -9.927  1.00  0.00     0.293 HD
ENDBRANCH   8  26
TORSDOF 6
ENDMDL
MODEL 5
REMARK VINA RESULT:    -6.705      4.266      6.601
REMARK INTER + INTRA:          -8.396
REMARK INTER:                  -8.152
REMARK INTRA:                  -0.244
REMARK UNBOUND:                -0.320
REMARK SMILES O=c1c(O)c(-c2ccc(O)c(O)c2)oc2cc(O)cc(O)c12
REMARK SMILES IDX 5 1 3 2 2 3 1 4 22 5 20 6 19 7 17 8 16 9 15 10 14 11 6 12
REMARK SMILES IDX 7 13 8 14 9 15 13 16 11 17 10 18 12 20 4 22 21 24 18 26
REMARK H PARENT 10 19 12 21 4 23 21 25 18 27
REMARK Flexibility Score: inf
ROOT
ATOM      1  C   UNL     1      30.664   7.307  -9.290  1.00  0.00     0.180 A 
ATOM      2  C   UNL     1      31.417   8.386  -9.785  1.00  0.00     0.208 A 
ATOM      3  C   UNL     1      32.495   8.869  -9.027  1.00  0.00     0.238 A 
ATOM      4  O   UNL     1      33.130   9.870  -9.449  1.00  0.00    -0.285 OA
ATOM      5  C   UNL     1      32.818   8.256  -7.792  1.00  0.00     0.111 A 
ATOM      6  C   UNL     1      33.914   8.638  -6.960  1.00  0.00     0.134 A 
ATOM      7  C   UNL     1      34.061   8.049  -5.699  1.00  0.00     0.093 A 
ATOM      8  C   UNL     1      33.193   7.048  -5.266  1.00  0.00     0.123 A 
ATOM      9  C   UNL     1      32.153   6.626  -6.095  1.00  0.00     0.094 A 
ATOM     10  C   UNL     1      31.959   7.219  -7.345  1.00  0.00     0.146 A 
ATOM     11  O   UNL     1      30.952   6.796  -8.099  1.00  0.00    -0.452 OA
ENDROOT
BRANCH   1  12
ATOM     12  C   UNL     1      29.530   6.727 -10.044  1.00  0.00     0.025 A 
ATOM     13  C   UNL     1      28.197   6.971  -9.665  1.00  0.00     0.016 A 
ATOM     14  C   UNL     1      27.142   6.432 -10.407  1.00  0.00     0.051 A 
ATOM     15  C   UNL     1      27.402   5.654 -11.543  1.00  0.00     0.157 A 
ATOM     16  C   UNL     1      29.783   5.964 -11.196  1.00  0.00     0.062 A 
ATOM     17  C   UNL     1      28.725   5.421 -11.940  1.00  0.00     0.158 A 
BRANCH  15  18
ATOM     18  O   UNL     1      26.352   5.114 -12.283  1.00  0.00    -0.504 OA
ATOM     19  H   UNL     1      26.021   4.170 -12.124  1.00  0.00     0.293 HD
ENDBRANCH  15  18
BRANCH  17  20
ATOM     20  O   UNL     1      28.980   4.654 -13.074  1.00  0.00    -0.504 OA
ATOM     21  H   UNL     1      29.067   5.075 -13.992  1.00  0.00     0.293 HD
ENDBRANCH  17  20
ENDBRANCH   1  12
BRANCH   2  22
ATOM     22  O   UNL     1      31.067   8.990 -10.996  1.00  0.00    -0.502 OA
ATOM     23  H   UNL     1      30.106   9.068 -11.307  1.00  0.00     0.293 HD
ENDBRANCH   2  22
BRANCH   6  24
ATOM     24  O   UNL     1      34.894   9.562  -7.337  1.00  0.00    -0.507 OA
ATOM     25  H   UNL     1      34.725  10.383  -7.897  1.00  0.00     0.293 HD
ENDBRANCH   6  24
BRANCH   8  26
ATOM     26  O   UNL     1      33.378   6.473  -4.011  1.00  0.00    -0.508 OA
ATOM     27  H   UNL     1      32.603   6.332  -3.372  1.00  0.00     0.293 HD
ENDBRANCH   8  26
TORSDOF 6
ENDMDL
MODEL 6
REMARK VINA RESULT:    -6.700      2.483      6.281
REMARK INTER + INTRA:          -8.391
REMARK INTER:                  -8.691
REMARK INTRA:                   0.300
REMARK UNBOUND:                -0.320
REMARK SMILES O=c1c(O)c(-c2ccc(O)c(O)c2)oc2cc(O)cc(O)c12
REMARK SMILES IDX 5 1 3 2 2 3 1 4 22 5 20 6 19 7 17 8 16 9 15 10 14 11 6 12
REMARK SMILES IDX 7 13 8 14 9 15 13 16 11 17 10 18 12 20 4 22 21 24 18 26
REMARK H PARENT 10 19 12 21 4 23 21 25 18 27
REMARK Flexibility Score: inf
ROOT
ATOM      1  C   UNL     1      29.634   6.739 -15.516  1.00  0.00     0.180 A 
ATOM      2  C   UNL     1      28.488   6.110 -16.033  1.00  0.00     0.208 A 
ATOM      3  C   UNL     1      27.564   5.540 -15.143  1.00  0.00     0.238 A 
ATOM      4  O   UNL     1      26.568   4.931 -15.614  1.00  0.00    -0.285 OA
ATOM      5  C   UNL     1      27.788   5.621 -13.748  1.00  0.00     0.111 A 
ATOM      6  C   UNL     1      26.898   5.114 -12.753  1.00  0.00     0.134 A 
ATOM      7  C   UNL     1      27.284   5.134 -11.408  1.00  0.00     0.093 A 
ATOM      8  C   UNL     1      28.495   5.699 -11.013  1.00  0.00     0.123 A 
ATOM      9  C   UNL     1      29.347   6.250 -11.971  1.00  0.00     0.094 A 
ATOM     10  C   UNL     1      29.006   6.215 -13.326  1.00  0.00     0.146 A 
ATOM     11  O   UNL     1      29.848   6.741 -14.206  1.00  0.00    -0.452 OA
ENDROOT
BRANCH   1  12
ATOM     12  C   UNL     1      30.640   7.384 -16.390  1.00  0.00     0.025 A 
ATOM     13  C   UNL     1      31.386   8.494 -15.954  1.00  0.00     0.016 A 
ATOM     14  C   UNL     1      32.347   9.070 -16.789  1.00  0.00     0.051 A 
ATOM     15  C   UNL     1      32.587   8.540 -18.063  1.00  0.00     0.157 A 
ATOM     16  C   UNL     1      30.900   6.844 -17.661  1.00  0.00     0.062 A 
ATOM     17  C   UNL     1      31.863   7.423 -18.499  1.00  0.00     0.158 A 
BRANCH  15  18
ATOM     18  O   UNL     1      33.543   9.114 -18.897  1.00  0.00    -0.504 OA
ATOM     19  H   UNL     1      33.833  10.079 -18.787  1.00  0.00     0.293 HD
ENDBRANCH  15  18
BRANCH  17  20
ATOM     20  O   UNL     1      32.109   6.894 -19.764  1.00  0.00    -0.504 OA
ATOM     21  H   UNL     1      31.380   6.429 -20.296  1.00  0.00     0.293 HD
ENDBRANCH  17  20
ENDBRANCH   1  12
BRANCH   2  22
ATOM     22  O   UNL     1      28.297   6.023 -17.415  1.00  0.00    -0.502 OA
ATOM     23  H   UNL     1      27.636   6.610 -17.911  1.00  0.00     0.293 HD
ENDBRANCH   2  22
BRANCH   6  24
ATOM     24  O   UNL     1      25.623   4.612 -13.031  1.00  0.00    -0.507 OA
ATOM     25  H   UNL     1      25.437   3.779 -13.568  1.00  0.00     0.293 HD
ENDBRANCH   6  24
BRANCH   8  26
ATOM     26  O   UNL     1      28.840   5.714  -9.663  1.00  0.00    -0.508 OA
ATOM     27  H   UNL     1      28.135   5.754  -8.936  1.00  0.00     0.293 HD
ENDBRANCH   8  26
TORSDOF 6
ENDMDL
MODEL 7
REMARK VINA RESULT:    -6.655      3.915      9.625
REMARK INTER + INTRA:          -8.337
REMARK INTER:                  -8.152
REMARK INTRA:                  -0.186
REMARK UNBOUND:                -0.320
REMARK SMILES O=c1c(O)c(-c2ccc(O)c(O)c2)oc2cc(O)cc(O)c12
REMARK SMILES IDX 5 1 3 2 2 3 1 4 22 5 20 6 19 7 17 8 16 9 15 10 14 11 6 12
REMARK SMILES IDX 7 13 8 14 9 15 13 16 11 17 10 18 12 20 4 22 21 24 18 26
REMARK H PARENT 10 19 12 21 4 23 21 25 18 27
REMARK Flexibility Score: inf
ROOT
ATOM      1  C   UNL     1      24.594   1.918 -16.523  1.00  0.00     0.180 A 
ATOM      2  C   UNL     1      23.951   2.762 -17.445  1.00  0.00     0.208 A 
ATOM      3  C   UNL     1      22.895   2.250 -18.215  1.00  0.00     0.238 A 
ATOM      4  O   UNL     1      22.360   2.994 -19.077  1.00  0.00    -0.285 OA
ATOM      5  C   UNL     1      22.482   0.907 -18.040  1.00  0.00     0.111 A 
ATOM      6  C   UNL     1      21.396   0.295 -18.737  1.00  0.00     0.134 A 
ATOM      7  C   UNL     1      21.161  -1.075 -18.580  1.00  0.00     0.093 A 
ATOM      8  C   UNL     1      21.927  -1.843 -17.705  1.00  0.00     0.123 A 
ATOM      9  C   UNL     1      22.953  -1.243 -16.974  1.00  0.00     0.094 A 
ATOM     10  C   UNL     1      23.236   0.115 -17.135  1.00  0.00     0.146 A 
ATOM     11  O   UNL     1      24.227   0.646 -16.429  1.00  0.00    -0.452 OA
ENDROOT
BRANCH   1  12
ATOM     12  C   UNL     1      25.699   2.392 -15.659  1.00  0.00     0.025 A 
ATOM     13  C   UNL     1      27.017   1.937 -15.840  1.00  0.00     0.016 A 
ATOM     14  C   UNL     1      28.048   2.418 -15.027  1.00  0.00     0.051 A 
ATOM     15  C   UNL     1      27.779   3.368 -14.033  1.00  0.00     0.157 A 
ATOM     16  C   UNL     1      25.440   3.360 -14.674  1.00  0.00     0.062 A 
ATOM     17  C   UNL     1      26.473   3.841 -13.857  1.00  0.00     0.158 A 
BRANCH  15  18
ATOM     18  O   UNL     1      28.804   3.847 -13.220  1.00  0.00    -0.504 OA
ATOM     19  H   UNL     1      29.776   3.791 -13.502  1.00  0.00     0.293 HD
ENDBRANCH  15  18
BRANCH  17  20
ATOM     20  O   UNL     1      26.210   4.791 -12.872  1.00  0.00    -0.504 OA
ATOM     21  H   UNL     1      26.947   5.160 -12.281  1.00  0.00     0.293 HD
ENDBRANCH  17  20
ENDBRANCH   1  12
BRANCH   2  22
ATOM     22  O   UNL     1      24.389   4.078 -17.617  1.00  0.00    -0.502 OA
ATOM     23  H   UNL     1      24.372   4.759 -16.867  1.00  0.00     0.293 HD
ENDBRANCH   2  22
BRANCH   6  24
ATOM     24  O   UNL     1      20.511   0.991 -19.565  1.00  0.00    -0.507 OA
ATOM     25  H   UNL     1      20.557   1.008 -20.573  1.00  0.00     0.293 HD
ENDBRANCH   6  24
BRANCH   8  26
ATOM     26  O   UNL     1      21.655  -3.202 -17.563  1.00  0.00    -0.508 OA
ATOM     27  H   UNL     1      20.852  -3.632 -18.009  1.00  0.00     0.293 HD
ENDBRANCH   8  26
TORSDOF 6
ENDMDL
MODEL 8
REMARK VINA RESULT:    -6.525      2.214      7.039
REMARK INTER + INTRA:          -8.180
REMARK INTER:                  -7.855
REMARK INTRA:                  -0.326
REMARK UNBOUND:                -0.320
REMARK SMILES O=c1c(O)c(-c2ccc(O)c(O)c2)oc2cc(O)cc(O)c12
REMARK SMILES IDX 5 1 3 2 2 3 1 4 22 5 20 6 19 7 17 8 16 9 15 10 14 11 6 12
REMARK SMILES IDX 7 13 8 14 9 15 13 16 11 17 10 18 12 20 4 22 21 24 18 26
REMARK H PARENT 10 19 12 21 4 23 21 25 18 27
REMARK Flexibility Score: inf
ROOT
ATOM      1  C   UNL     1      27.072   5.442 -13.670  1.00  0.00     0.180 A 
ATOM      2  C   UNL     1      27.304   4.166 -14.213  1.00  0.00     0.208 A 
ATOM      3  C   UNL     1      26.447   3.686 -15.216  1.00  0.00     0.238 A 
ATOM      4  O   UNL     1      26.627   2.521 -15.658  1.00  0.00    -0.285 OA
ATOM      5  C   UNL     1      25.379   4.493 -15.676  1.00  0.00     0.111 A 
ATOM      6  C   UNL     1      24.473   4.124 -16.716  1.00  0.00     0.134 A 
ATOM      7  C   UNL     1      23.376   4.946 -16.999  1.00  0.00     0.093 A 
ATOM      8  C   UNL     1      23.187   6.153 -16.328  1.00  0.00     0.123 A 
ATOM      9  C   UNL     1      24.099   6.552 -15.350  1.00  0.00     0.094 A 
ATOM     10  C   UNL     1      25.184   5.737 -15.020  1.00  0.00     0.146 A 
ATOM     11  O   UNL     1      26.024   6.148 -14.077  1.00  0.00    -0.452 OA
ENDROOT
BRANCH   1  12
ATOM     12  C   UNL     1      27.946   6.026 -12.628  1.00  0.00     0.025 A 
ATOM     13  C   UNL     1      29.138   6.693 -12.962  1.00  0.00     0.016 A 
ATOM     14  C   UNL     1      29.935   7.258 -11.962  1.00  0.00     0.051 A 
ATOM     15  C   UNL     1      29.547   7.175 -10.619  1.00  0.00     0.157 A 
ATOM     16  C   UNL     1      27.553   5.965 -11.282  1.00  0.00     0.062 A 
ATOM     17  C   UNL     1      28.353   6.529 -10.278  1.00  0.00     0.158 A 
BRANCH  15  18
ATOM     18  O   UNL     1      30.341   7.735  -9.620  1.00  0.00    -0.504 OA
ATOM     19  H   UNL     1      31.096   7.216  -9.188  1.00  0.00     0.293 HD
ENDBRANCH  15  18
BRANCH  17  20
ATOM     20  O   UNL     1      27.966   6.455  -8.941  1.00  0.00    -0.504 OA
ATOM     21  H   UNL     1      28.120   5.618  -8.390  1.00  0.00     0.293 HD
ENDBRANCH  17  20
ENDBRANCH   1  12
BRANCH   2  22
ATOM     22  O   UNL     1      28.351   3.377 -13.729  1.00  0.00    -0.502 OA
ATOM     23  H   UNL     1      28.271   2.372 -13.624  1.00  0.00     0.293 HD
ENDBRANCH   2  22
BRANCH   6  24
ATOM     24  O   UNL     1      24.623   2.984 -17.512  1.00  0.00    -0.507 OA
ATOM     25  H   UNL     1      25.235   2.211 -17.301  1.00  0.00     0.293 HD
ENDBRANCH   6  24
BRANCH   8  26
ATOM     26  O   UNL     1      22.092   6.953 -16.646  1.00  0.00    -0.508 OA
ATOM     27  H   UNL     1      21.463   7.300 -15.931  1.00  0.00     0.293 HD
ENDBRANCH   8  26
TORSDOF 6
ENDMDL
MODEL 9
REMARK VINA RESULT:    -6.474      3.584      7.878
REMARK INTER + INTRA:          -8.118
REMARK INTER:                  -7.835
REMARK INTRA:                  -0.283
REMARK UNBOUND:                -0.320
REMARK SMILES O=c1c(O)c(-c2ccc(O)c(O)c2)oc2cc(O)cc(O)c12
REMARK SMILES IDX 5 1 3 2 2 3 1 4 22 5 20 6 19 7 17 8 16 9 15 10 14 11 6 12
REMARK SMILES IDX 7 13 8 14 9 15 13 16 11 17 10 18 12 20 4 22 21 24 18 26
REMARK H PARENT 10 19 12 21 4 23 21 25 18 27
REMARK Flexibility Score: inf
ROOT
ATOM      1  C   UNL     1      24.776   5.452 -15.613  1.00  0.00     0.180 A 
ATOM      2  C   UNL     1      23.952   6.574 -15.420  1.00  0.00     0.208 A 
ATOM      3  C   UNL     1      22.792   6.710 -16.200  1.00  0.00     0.238 A 
ATOM      4  O   UNL     1      22.087   7.743 -16.061  1.00  0.00    -0.285 OA
ATOM      5  C   UNL     1      22.462   5.713 -17.150  1.00  0.00     0.111 A 
ATOM      6  C   UNL     1      21.290   5.727 -17.965  1.00  0.00     0.134 A 
ATOM      7  C   UNL     1      21.131   4.758 -18.963  1.00  0.00     0.093 A 
ATOM      8  C   UNL     1      22.067   3.738 -19.132  1.00  0.00     0.123 A 
ATOM      9  C   UNL     1      23.186   3.681 -18.301  1.00  0.00     0.094 A 
ATOM     10  C   UNL     1      23.391   4.654 -17.320  1.00  0.00     0.146 A 
ATOM     11  O   UNL     1      24.474   4.569 -16.557  1.00  0.00    -0.452 OA
ENDROOT
BRANCH   1  12
ATOM     12  C   UNL     1      26.001   5.228 -14.813  1.00  0.00     0.025 A 
ATOM     13  C   UNL     1      26.028   4.296 -13.760  1.00  0.00     0.016 A 
ATOM     14  C   UNL     1      27.204   4.084 -13.034  1.00  0.00     0.051 A 
ATOM     15  C   UNL     1      28.370   4.789 -13.358  1.00  0.00     0.157 A 
ATOM     16  C   UNL     1      27.180   5.917 -15.145  1.00  0.00     0.062 A 
ATOM     17  C   UNL     1      28.359   5.706 -14.416  1.00  0.00     0.158 A 
BRANCH  15  18
ATOM     18  O   UNL     1      29.543   4.581 -12.634  1.00  0.00    -0.504 OA
ATOM     19  H   UNL     1      29.556   4.009 -11.798  1.00  0.00     0.293 HD
ENDBRANCH  15  18
BRANCH  17  20
ATOM     20  O   UNL     1      29.523   6.401 -14.739  1.00  0.00    -0.504 OA
ATOM     21  H   UNL     1      29.539   7.413 -14.790  1.00  0.00     0.293 HD
ENDBRANCH  17  20
ENDBRANCH   1  12
BRANCH   2  22
ATOM     22  O   UNL     1      24.308   7.556 -14.492  1.00  0.00    -0.502 OA
ATOM     23  H   UNL     1      25.058   8.217 -14.660  1.00  0.00     0.293 HD
ENDBRANCH   2  22
BRANCH   6  24
ATOM     24  O   UNL     1      20.248   6.648 -17.817  1.00  0.00    -0.507 OA
ATOM     25  H   UNL     1      20.287   7.613 -18.109  1.00  0.00     0.293 HD
ENDBRANCH   6  24
BRANCH   8  26
ATOM     26  O   UNL     1      21.869   2.782 -20.125  1.00  0.00    -0.508 OA
ATOM     27  H   UNL     1      22.626   2.191 -20.450  1.00  0.00     0.293 HD
ENDBRANCH   8  26
TORSDOF 6
ENDMDL
