MODEL 1
REMARK VINA RESULT:   158.179      0.000      0.000
REMARK INTER + INTRA:         173.332
REMARK INTER:                 172.050
REMARK INTRA:                   1.282
REMARK UNBOUND:                 1.282
REMARK SMILES C[C@@H]1[C@H]2C3=CC[C@@H]4[C@@]5(C)CC[C@@H](O)C(C)(C)[C@@H]5CC[C@]4(C)[C@@]3(C)CC[C@@]2(C(=O)[O-])CC[C@@H]1C
REMARK SMILES IDX 26 1 30 2 25 3 3 4 31 5 24 6 4 7 2 8 32 9 22 10 5 11 1 12
REMARK SMILES IDX 33 13 23 14 20 15 6 16 7 17 19 18 21 19 8 20 18 21 17 22
REMARK SMILES IDX 10 23 9 24 14 25 11 26 12 27 15 28 16 29 27 30 28 31 29 32
REMARK SMILES IDX 13 33
REMARK H PARENT 13 34
REMARK Flexibility Score: inf
ROOT
ATOM      1  C   UNL     1     -19.383  -5.468   9.370  1.00  0.00     0.017 C 
ATOM      2  C   UNL     1     -19.003  -4.895   7.977  1.00  0.00     0.014 C 
ATOM      3  C   UNL     1     -19.545  -4.285  10.375  1.00  0.00     0.014 C 
ATOM      4  C   UNL     1     -18.281  -6.504   9.833  1.00  0.00     0.030 C 
ATOM      5  C   UNL     1     -18.852  -5.992   6.915  1.00  0.00     0.004 C 
ATOM      6  C   UNL     1     -18.236  -3.717  10.954  1.00  0.00     0.013 C 
ATOM      7  C   UNL     1     -17.043  -5.763  10.413  1.00  0.00    -0.063 C 
ATOM      8  C   UNL     1     -17.980  -7.596   8.730  1.00  0.00    -0.003 C 
ATOM      9  C   UNL     1     -17.746  -6.976   7.308  1.00  0.00    -0.011 C 
ATOM     10  C   UNL     1     -17.281  -4.794  11.575  1.00  0.00    -0.006 C 
ATOM     11  C   UNL     1     -15.855  -5.791   9.788  1.00  0.00    -0.027 C 
ATOM     12  C   UNL     1     -19.049  -8.714   8.712  1.00  0.00     0.008 C 
ATOM     13  C   UNL     1     -17.546  -8.039   6.217  1.00  0.00     0.008 C 
ATOM     14  C   UNL     1     -18.009  -5.580  12.725  1.00  0.00     0.017 C 
ATOM     15  C   UNL     1     -15.924  -4.125  12.179  1.00  0.00    -0.020 C 
ATOM     16  C   UNL     1     -14.699  -4.908  10.087  1.00  0.00     0.032 C 
ATOM     17  C   UNL     1     -14.941  -3.677  11.022  1.00  0.00     0.006 C 
ATOM     18  C   UNL     1     -15.126  -5.152  13.083  1.00  0.00     0.008 C 
ATOM     19  C   UNL     1     -16.382  -2.890  13.050  1.00  0.00     0.012 C 
ATOM     20  C   UNL     1     -13.533  -3.017  11.504  1.00  0.00    -0.025 C 
ATOM     21  C   UNL     1     -13.584  -4.925  13.228  1.00  0.00     0.005 C 
ATOM     22  C   UNL     1     -13.191  -3.457  12.973  1.00  0.00     0.003 C 
ATOM     23  C   UNL     1     -13.608  -1.460  11.527  1.00  0.00     0.010 C 
ATOM     24  C   UNL     1     -12.400  -3.384  10.485  1.00  0.00     0.012 C 
ATOM     25  C   UNL     1     -11.860  -2.891  13.606  1.00  0.00    -0.006 C 
ATOM     26  C   UNL     1     -12.334  -0.786  12.104  1.00  0.00     0.033 C 
ATOM     27  C   UNL     1     -11.910  -1.318  13.498  1.00  0.00     0.120 C 
ATOM     28  C   UNL     1     -11.791  -3.266  15.118  1.00  0.00     0.014 C 
ATOM     29  C   UNL     1     -10.563  -3.455  12.963  1.00  0.00     0.014 C 
ENDROOT
BRANCH   1  30
ATOM     30  C   UNL     1     -20.761  -6.117   9.306  1.00  0.00     0.048 C 
ATOM     31  O   UNL     1     -21.691  -5.716  10.057  1.00  0.00    -0.550 OA
ATOM     32  O   UNL     1     -21.060  -7.056   8.325  1.00  0.00    -0.550 OA
ENDBRANCH   1  30
BRANCH  27  33
ATOM     33  O   UNL     1     -12.800  -0.799  14.459  1.00  0.00    -0.393 OA
ATOM     34  H   UNL     1     -12.389  -0.944  15.351  1.00  0.00     0.210 HD
ENDBRANCH  27  33
TORSDOF 2
ENDMDL
