MODEL 1
REMARK VINA RESULT:    -5.828      0.000      0.000
REMARK INTER + INTRA:          -8.569
REMARK INTER:                  -8.213
REMARK INTRA:                  -0.356
REMARK UNBOUND:                -0.356
REMARK SMILES C[C@H](CO)CCC(=O)[C@H](C)[C@@H]1C(=O)C[C@H]2[C@H]3CC=C4C[C@@H](O)CC[C@@]4(C)[C@H]3CC[C@]21C
REMARK SMILES IDX 6 1 5 2 2 3 1 4 3 5 4 6 7 8 8 9 9 10 10 11 11 12 12 13 30 14
REMARK SMILES IDX 13 15 14 16 15 17 29 18 31 19 16 20 28 21 27 22 17 23 25 24
REMARK SMILES IDX 18 25 19 26 24 27 26 28 20 29 23 30 21 31 22 32
REMARK H PARENT 4 7 22 33
REMARK Flexibility Score: inf
ROOT
ATOM      1  C   UNL     1      -5.789  31.526  47.400  1.00  0.00     0.076 C 
ENDROOT
BRANCH   1   2
ATOM      2  C   UNL     1      -6.703  32.701  47.779  1.00  0.00     0.013 C 
BRANCH   2   3
ATOM      3  C   UNL     1      -5.957  33.864  48.471  1.00  0.00     0.012 C 
ATOM      4  C   UNL     1      -4.442  33.616  48.393  1.00  0.00     0.010 C 
BRANCH   3   5
ATOM      5  C   UNL     1      -6.411  34.048  49.937  1.00  0.00     0.159 C 
BRANCH   5   6
ATOM      6  O   UNL     1      -5.418  33.614  50.833  1.00  0.00    -0.396 OA
ATOM      7  H   UNL     1      -5.313  32.635  50.692  1.00  0.00     0.210 HD
ENDBRANCH   5   6
ENDBRANCH   3   5
ENDBRANCH   2   3
ENDBRANCH   1   2
BRANCH   1   8
ATOM      8  C   UNL     1      -6.624  30.294  47.131  1.00  0.00     0.136 C 
ATOM      9  O   UNL     1      -7.838  30.398  47.221  1.00  0.00    -0.299 OA
BRANCH   8  10
ATOM     10  C   UNL     1      -6.037  28.923  46.824  1.00  0.00     0.064 C 
ATOM     11  C   UNL     1      -4.500  28.886  46.657  1.00  0.00     0.017 C 
BRANCH  10  12
ATOM     12  C   UNL     1      -6.839  28.157  45.714  1.00  0.00     0.072 C 
ATOM     13  C   UNL     1      -6.425  26.727  45.696  1.00  0.00     0.137 C 
ATOM     14  C   UNL     1      -6.718  28.589  44.198  1.00  0.00    -0.019 C 
ATOM     15  O   UNL     1      -6.626  25.965  46.631  1.00  0.00    -0.299 OA
ATOM     16  C   UNL     1      -5.746  26.299  44.458  1.00  0.00     0.080 C 
ATOM     17  C   UNL     1      -5.721  27.556  43.565  1.00  0.00     0.007 C 
ATOM     18  C   UNL     1      -8.134  28.512  43.517  1.00  0.00     0.008 C 
ATOM     19  C   UNL     1      -6.199  30.032  43.979  1.00  0.00     0.012 C 
ATOM     20  C   UNL     1      -5.967  27.266  42.047  1.00  0.00     0.001 C 
ATOM     21  C   UNL     1      -8.426  27.164  42.852  1.00  0.00     0.005 C 
ATOM     22  C   UNL     1      -7.458  26.951  41.661  1.00  0.00     0.003 C 
ATOM     23  C   UNL     1      -4.950  26.255  41.495  1.00  0.00     0.031 C 
ATOM     24  C   UNL     1      -7.727  25.638  40.810  1.00  0.00    -0.008 C 
ATOM     25  C   UNL     1      -5.313  25.762  40.131  1.00  0.00    -0.027 C 
ATOM     26  C   UNL     1      -6.568  25.355  39.851  1.00  0.00    -0.065 C 
ATOM     27  C   UNL     1      -7.893  24.354  41.674  1.00  0.00     0.014 C 
ATOM     28  C   UNL     1      -9.032  25.879  39.988  1.00  0.00     0.016 C 
ATOM     29  C   UNL     1      -6.722  24.171  38.922  1.00  0.00     0.063 C 
ATOM     30  C   UNL     1      -8.033  23.064  40.825  1.00  0.00     0.033 C 
ATOM     31  C   UNL     1      -6.907  22.899  39.774  1.00  0.00     0.118 C 
BRANCH  31  32
ATOM     32  O   UNL     1      -5.694  22.592  40.417  1.00  0.00    -0.393 OA
ATOM     33  H   UNL     1      -5.644  21.605  40.492  1.00  0.00     0.210 HD
ENDBRANCH  31  32
ENDBRANCH  10  12
ENDBRANCH   8  10
ENDBRANCH   1   8
TORSDOF 8
ENDMDL
MODEL 2
REMARK VINA RESULT:    -5.791      2.160      2.738
REMARK INTER + INTRA:          -8.516
REMARK INTER:                  -7.742
REMARK INTRA:                  -0.774
REMARK UNBOUND:                -0.356
REMARK SMILES C[C@H](CO)CCC(=O)[C@H](C)[C@@H]1C(=O)C[C@H]2[C@H]3CC=C4C[C@@H](O)CC[C@@]4(C)[C@H]3CC[C@]21C
REMARK SMILES IDX 6 1 5 2 2 3 1 4 3 5 4 6 7 8 8 9 9 10 10 11 11 12 12 13 30 14
REMARK SMILES IDX 13 15 14 16 15 17 29 18 31 19 16 20 28 21 27 22 17 23 25 24
REMARK SMILES IDX 18 25 19 26 24 27 26 28 20 29 23 30 21 31 22 32
REMARK H PARENT 4 7 22 33
REMARK Flexibility Score: inf
ROOT
ATOM      1  C   UNL     1      -6.208  30.975  47.553  1.00  0.00     0.076 C 
ENDROOT
BRANCH   1   2
ATOM      2  C   UNL     1      -6.086  32.459  47.178  1.00  0.00     0.013 C 
BRANCH   2   3
ATOM      3  C   UNL     1      -6.493  33.419  48.318  1.00  0.00     0.012 C 
ATOM      4  C   UNL     1      -7.061  34.714  47.716  1.00  0.00     0.010 C 
BRANCH   3   5
ATOM      5  C   UNL     1      -5.311  33.722  49.266  1.00  0.00     0.159 C 
BRANCH   5   6
ATOM      6  O   UNL     1      -4.083  33.393  48.665  1.00  0.00    -0.396 OA
ATOM      7  H   UNL     1      -4.259  32.627  48.055  1.00  0.00     0.210 HD
ENDBRANCH   5   6
ENDBRANCH   3   5
ENDBRANCH   2   3
ENDBRANCH   1   2
BRANCH   1   8
ATOM      8  C   UNL     1      -5.072  30.194  46.931  1.00  0.00     0.136 C 
ATOM      9  O   UNL     1      -3.976  30.731  46.875  1.00  0.00    -0.299 OA
BRANCH   8  10
ATOM     10  C   UNL     1      -5.232  28.811  46.313  1.00  0.00     0.064 C 
ATOM     11  C   UNL     1      -4.069  28.358  45.401  1.00  0.00     0.017 C 
BRANCH  10  12
ATOM     12  C   UNL     1      -6.666  28.577  45.719  1.00  0.00     0.072 C 
ATOM     13  C   UNL     1      -6.875  27.123  45.479  1.00  0.00     0.137 C 
ATOM     14  C   UNL     1      -7.078  29.236  44.342  1.00  0.00    -0.019 C 
ATOM     15  O   UNL     1      -6.910  26.298  46.381  1.00  0.00    -0.299 OA
ATOM     16  C   UNL     1      -7.033  26.750  44.060  1.00  0.00     0.080 C 
ATOM     17  C   UNL     1      -6.936  28.081  43.288  1.00  0.00     0.007 C 
ATOM     18  C   UNL     1      -8.560  29.753  44.432  1.00  0.00     0.008 C 
ATOM     19  C   UNL     1      -6.210  30.448  43.922  1.00  0.00     0.012 C 
ATOM     20  C   UNL     1      -7.919  28.190  42.075  1.00  0.00     0.001 C 
ATOM     21  C   UNL     1      -9.600  28.728  43.969  1.00  0.00     0.005 C 
ATOM     22  C   UNL     1      -9.421  28.453  42.455  1.00  0.00     0.003 C 
ATOM     23  C   UNL     1      -7.717  27.034  41.082  1.00  0.00     0.031 C 
ATOM     24  C   UNL     1     -10.512  27.489  41.820  1.00  0.00    -0.008 C 
ATOM     25  C   UNL     1      -8.804  26.961  40.058  1.00  0.00    -0.027 C 
ATOM     26  C   UNL     1     -10.101  27.043  40.415  1.00  0.00    -0.065 C 
ATOM     27  C   UNL     1     -10.747  26.185  42.635  1.00  0.00     0.014 C 
ATOM     28  C   UNL     1     -11.848  28.293  41.738  1.00  0.00     0.016 C 
ATOM     29  C   UNL     1     -11.085  26.177  39.657  1.00  0.00     0.063 C 
ATOM     30  C   UNL     1     -11.722  25.201  41.939  1.00  0.00     0.033 C 
ATOM     31  C   UNL     1     -11.336  24.891  40.471  1.00  0.00     0.118 C 
BRANCH  31  32
ATOM     32  O   UNL     1     -10.179  24.091  40.441  1.00  0.00    -0.393 OA
ATOM     33  H   UNL     1     -10.016  23.777  41.367  1.00  0.00     0.210 HD
ENDBRANCH  31  32
ENDBRANCH  10  12
ENDBRANCH   8  10
ENDBRANCH   1   8
TORSDOF 8
ENDMDL
MODEL 3
REMARK VINA RESULT:    -5.752      2.811      4.808
REMARK INTER + INTRA:          -8.463
REMARK INTER:                  -7.051
REMARK INTRA:                  -1.411
REMARK UNBOUND:                -0.356
REMARK SMILES C[C@H](CO)CCC(=O)[C@H](C)[C@@H]1C(=O)C[C@H]2[C@H]3CC=C4C[C@@H](O)CC[C@@]4(C)[C@H]3CC[C@]21C
REMARK SMILES IDX 6 1 5 2 2 3 1 4 3 5 4 6 7 8 8 9 9 10 10 11 11 12 12 13 30 14
REMARK SMILES IDX 13 15 14 16 15 17 29 18 31 19 16 20 28 21 27 22 17 23 25 24
REMARK SMILES IDX 18 25 19 26 24 27 26 28 20 29 23 30 21 31 22 32
REMARK H PARENT 4 7 22 33
REMARK Flexibility Score: inf
ROOT
ATOM      1  C   UNL     1      -4.943  30.025  46.236  1.00  0.00     0.076 C 
ENDROOT
BRANCH   1   2
ATOM      2  C   UNL     1      -5.757  28.887  46.869  1.00  0.00     0.013 C 
BRANCH   2   3
ATOM      3  C   UNL     1      -5.307  27.481  46.416  1.00  0.00     0.012 C 
ATOM      4  C   UNL     1      -4.453  27.604  45.144  1.00  0.00     0.010 C 
BRANCH   3   5
ATOM      5  C   UNL     1      -6.509  26.537  46.184  1.00  0.00     0.159 C 
BRANCH   5   6
ATOM      6  O   UNL     1      -6.395  25.372  46.964  1.00  0.00    -0.396 OA
ATOM      7  H   UNL     1      -6.342  25.666  47.912  1.00  0.00     0.210 HD
ENDBRANCH   5   6
ENDBRANCH   3   5
ENDBRANCH   2   3
ENDBRANCH   1   2
BRANCH   1   8
ATOM      8  C   UNL     1      -5.752  31.303  46.250  1.00  0.00     0.136 C 
ATOM      9  O   UNL     1      -6.404  31.553  47.253  1.00  0.00    -0.299 OA
BRANCH   8  10
ATOM     10  C   UNL     1      -5.854  32.255  45.065  1.00  0.00     0.064 C 
ATOM     11  C   UNL     1      -5.928  33.755  45.431  1.00  0.00     0.017 C 
BRANCH  10  12
ATOM     12  C   UNL     1      -6.905  31.783  44.000  1.00  0.00     0.072 C 
ATOM     13  C   UNL     1      -8.094  31.214  44.691  1.00  0.00     0.137 C 
ATOM     14  C   UNL     1      -6.529  30.668  42.945  1.00  0.00    -0.019 C 
ATOM     15  O   UNL     1      -8.834  31.881  45.401  1.00  0.00    -0.299 OA
ATOM     16  C   UNL     1      -8.311  29.773  44.455  1.00  0.00     0.080 C 
ATOM     17  C   UNL     1      -7.170  29.351  43.509  1.00  0.00     0.007 C 
ATOM     18  C   UNL     1      -7.135  31.047  41.544  1.00  0.00     0.008 C 
ATOM     19  C   UNL     1      -5.008  30.470  42.731  1.00  0.00     0.012 C 
ATOM     20  C   UNL     1      -7.598  28.319  42.412  1.00  0.00     0.001 C 
ATOM     21  C   UNL     1      -8.529  30.462  41.295  1.00  0.00     0.005 C 
ATOM     22  C   UNL     1      -8.439  28.917  41.227  1.00  0.00     0.003 C 
ATOM     23  C   UNL     1      -8.207  27.054  43.037  1.00  0.00     0.031 C 
ATOM     24  C   UNL     1      -9.801  28.186  40.860  1.00  0.00    -0.008 C 
ATOM     25  C   UNL     1      -8.861  26.170  42.023  1.00  0.00    -0.027 C 
ATOM     26  C   UNL     1      -9.698  26.678  41.097  1.00  0.00    -0.065 C 
ATOM     27  C   UNL     1     -11.018  28.672  41.699  1.00  0.00     0.014 C 
ATOM     28  C   UNL     1     -10.077  28.455  39.347  1.00  0.00     0.016 C 
ATOM     29  C   UNL     1     -10.902  25.842  40.719  1.00  0.00     0.063 C 
ATOM     30  C   UNL     1     -12.312  27.865  41.416  1.00  0.00     0.033 C 
ATOM     31  C   UNL     1     -12.116  26.333  41.534  1.00  0.00     0.118 C 
BRANCH  31  32
ATOM     32  O   UNL     1     -11.942  25.977  42.884  1.00  0.00    -0.393 OA
ATOM     33  H   UNL     1     -12.843  25.955  43.299  1.00  0.00     0.210 HD
ENDBRANCH  31  32
ENDBRANCH  10  12
ENDBRANCH   8  10
ENDBRANCH   1   8
TORSDOF 8
ENDMDL
MODEL 4
REMARK VINA RESULT:    -5.697      2.795      4.117
REMARK INTER + INTRA:          -8.384
REMARK INTER:                  -7.095
REMARK INTRA:                  -1.289
REMARK UNBOUND:                -0.356
REMARK SMILES C[C@H](CO)CCC(=O)[C@H](C)[C@@H]1C(=O)C[C@H]2[C@H]3CC=C4C[C@@H](O)CC[C@@]4(C)[C@H]3CC[C@]21C
REMARK SMILES IDX 6 1 5 2 2 3 1 4 3 5 4 6 7 8 8 9 9 10 10 11 11 12 12 13 30 14
REMARK SMILES IDX 13 15 14 16 15 17 29 18 31 19 16 20 28 21 27 22 17 23 25 24
REMARK SMILES IDX 18 25 19 26 24 27 26 28 20 29 23 30 21 31 22 32
REMARK H PARENT 4 7 22 33
REMARK Flexibility Score: inf
ROOT
ATOM      1  C   UNL     1      -5.779  29.135  46.465  1.00  0.00     0.076 C 
ENDROOT
BRANCH   1   2
ATOM      2  C   UNL     1      -5.534  30.431  47.252  1.00  0.00     0.013 C 
BRANCH   2   3
ATOM      3  C   UNL     1      -6.755  31.377  47.277  1.00  0.00     0.012 C 
ATOM      4  C   UNL     1      -8.025  30.580  46.944  1.00  0.00     0.010 C 
BRANCH   3   5
ATOM      5  C   UNL     1      -6.580  32.568  46.308  1.00  0.00     0.159 C 
BRANCH   5   6
ATOM      6  O   UNL     1      -5.232  32.732  45.945  1.00  0.00    -0.396 OA
ATOM      7  H   UNL     1      -4.772  33.142  46.726  1.00  0.00     0.210 HD
ENDBRANCH   5   6
ENDBRANCH   3   5
ENDBRANCH   2   3
ENDBRANCH   1   2
BRANCH   1   8
ATOM      8  C   UNL     1      -5.067  29.202  45.133  1.00  0.00     0.136 C 
ATOM      9  O   UNL     1      -4.273  30.114  44.957  1.00  0.00    -0.299 OA
BRANCH   8  10
ATOM     10  C   UNL     1      -5.332  28.243  43.980  1.00  0.00     0.064 C 
ATOM     11  C   UNL     1      -4.794  28.700  42.605  1.00  0.00     0.017 C 
BRANCH  10  12
ATOM     12  C   UNL     1      -6.808  27.709  43.966  1.00  0.00     0.072 C 
ATOM     13  C   UNL     1      -6.880  26.461  43.157  1.00  0.00     0.137 C 
ATOM     14  C   UNL     1      -7.974  28.595  43.370  1.00  0.00    -0.019 C 
ATOM     15  O   UNL     1      -6.310  25.427  43.477  1.00  0.00    -0.299 OA
ATOM     16  C   UNL     1      -7.692  26.569  41.930  1.00  0.00     0.080 C 
ATOM     17  C   UNL     1      -8.221  28.017  41.932  1.00  0.00     0.007 C 
ATOM     18  C   UNL     1      -9.253  28.454  44.274  1.00  0.00     0.008 C 
ATOM     19  C   UNL     1      -7.654  30.109  43.287  1.00  0.00     0.012 C 
ATOM     20  C   UNL     1      -9.695  28.159  41.423  1.00  0.00     0.001 C 
ATOM     21  C   UNL     1     -10.206  27.342  43.826  1.00  0.00     0.005 C 
ATOM     22  C   UNL     1     -10.799  27.692  42.438  1.00  0.00     0.003 C 
ATOM     23  C   UNL     1      -9.859  27.582  40.009  1.00  0.00     0.031 C 
ATOM     24  C   UNL     1     -11.893  26.673  41.905  1.00  0.00    -0.008 C 
ATOM     25  C   UNL     1     -11.293  27.464  39.600  1.00  0.00    -0.027 C 
ATOM     26  C   UNL     1     -12.209  26.926  40.429  1.00  0.00    -0.065 C 
ATOM     27  C   UNL     1     -11.461  25.181  42.003  1.00  0.00     0.014 C 
ATOM     28  C   UNL     1     -13.185  26.893  42.755  1.00  0.00     0.016 C 
ATOM     29  C   UNL     1     -13.292  26.073  39.805  1.00  0.00     0.063 C 
ATOM     30  C   UNL     1     -12.487  24.208  41.368  1.00  0.00     0.033 C 
ATOM     31  C   UNL     1     -12.877  24.592  39.918  1.00  0.00     0.118 C 
BRANCH  31  32
ATOM     32  O   UNL     1     -11.796  24.346  39.052  1.00  0.00    -0.393 OA
ATOM     33  H   UNL     1     -11.739  23.364  38.926  1.00  0.00     0.210 HD
ENDBRANCH  31  32
ENDBRANCH  10  12
ENDBRANCH   8  10
ENDBRANCH   1   8
TORSDOF 8
ENDMDL
MODEL 5
REMARK VINA RESULT:    -5.657      2.404      3.883
REMARK INTER + INTRA:          -8.329
REMARK INTER:                  -7.719
REMARK INTRA:                  -0.609
REMARK UNBOUND:                -0.356
REMARK SMILES C[C@H](CO)CCC(=O)[C@H](C)[C@@H]1C(=O)C[C@H]2[C@H]3CC=C4C[C@@H](O)CC[C@@]4(C)[C@H]3CC[C@]21C
REMARK SMILES IDX 6 1 5 2 2 3 1 4 3 5 4 6 7 8 8 9 9 10 10 11 11 12 12 13 30 14
REMARK SMILES IDX 13 15 14 16 15 17 29 18 31 19 16 20 28 21 27 22 17 23 25 24
REMARK SMILES IDX 18 25 19 26 24 27 26 28 20 29 23 30 21 31 22 32
REMARK H PARENT 4 7 22 33
REMARK Flexibility Score: inf
ROOT
ATOM      1  C   UNL     1      -6.337  32.318  46.647  1.00  0.00     0.076 C 
ENDROOT
BRANCH   1   2
ATOM      2  C   UNL     1      -6.757  32.837  48.030  1.00  0.00     0.013 C 
BRANCH   2   3
ATOM      3  C   UNL     1      -5.852  33.969  48.565  1.00  0.00     0.012 C 
ATOM      4  C   UNL     1      -4.379  33.555  48.421  1.00  0.00     0.010 C 
BRANCH   3   5
ATOM      5  C   UNL     1      -6.183  34.328  50.032  1.00  0.00     0.159 C 
BRANCH   5   6
ATOM      6  O   UNL     1      -5.428  33.548  50.926  1.00  0.00    -0.396 OA
ATOM      7  H   UNL     1      -4.594  34.056  51.115  1.00  0.00     0.210 HD
ENDBRANCH   5   6
ENDBRANCH   3   5
ENDBRANCH   2   3
ENDBRANCH   1   2
BRANCH   1   8
ATOM      8  C   UNL     1      -6.360  30.806  46.638  1.00  0.00     0.136 C 
ATOM      9  O   UNL     1      -7.236  30.246  47.280  1.00  0.00    -0.299 OA
BRANCH   8  10
ATOM     10  C   UNL     1      -5.318  29.946  45.935  1.00  0.00     0.064 C 
ATOM     11  C   UNL     1      -3.929  30.603  45.762  1.00  0.00     0.017 C 
BRANCH  10  12
ATOM     12  C   UNL     1      -5.881  29.248  44.647  1.00  0.00     0.072 C 
ATOM     13  C   UNL     1      -6.823  30.168  43.952  1.00  0.00     0.137 C 
ATOM     14  C   UNL     1      -6.704  27.903  44.762  1.00  0.00    -0.019 C 
ATOM     15  O   UNL     1      -6.471  31.227  43.452  1.00  0.00    -0.299 OA
ATOM     16  C   UNL     1      -8.223  29.703  43.917  1.00  0.00     0.080 C 
ATOM     17  C   UNL     1      -8.207  28.343  44.641  1.00  0.00     0.007 C 
ATOM     18  C   UNL     1      -6.294  26.937  43.591  1.00  0.00     0.008 C 
ATOM     19  C   UNL     1      -6.483  27.122  46.081  1.00  0.00     0.012 C 
ATOM     20  C   UNL     1      -9.146  27.266  44.001  1.00  0.00     0.001 C 
ATOM     21  C   UNL     1      -7.168  27.074  42.341  1.00  0.00     0.005 C 
ATOM     22  C   UNL     1      -8.615  26.628  42.666  1.00  0.00     0.003 C 
ATOM     23  C   UNL     1     -10.598  27.761  43.925  1.00  0.00     0.031 C 
ATOM     24  C   UNL     1      -9.603  26.615  41.423  1.00  0.00    -0.008 C 
ATOM     25  C   UNL     1     -11.464  26.874  43.088  1.00  0.00    -0.027 C 
ATOM     26  C   UNL     1     -11.056  26.449  41.876  1.00  0.00    -0.065 C 
ATOM     27  C   UNL     1      -9.563  27.919  40.576  1.00  0.00     0.014 C 
ATOM     28  C   UNL     1      -9.200  25.403  40.524  1.00  0.00     0.016 C 
ATOM     29  C   UNL     1     -12.104  26.345  40.789  1.00  0.00     0.063 C 
ATOM     30  C   UNL     1     -10.619  27.940  39.441  1.00  0.00     0.033 C 
ATOM     31  C   UNL     1     -12.054  27.628  39.935  1.00  0.00     0.118 C 
BRANCH  31  32
ATOM     32  O   UNL     1     -12.544  28.708  40.691  1.00  0.00    -0.393 OA
ATOM     33  H   UNL     1     -12.805  28.348  41.578  1.00  0.00     0.210 HD
ENDBRANCH  31  32
ENDBRANCH  10  12
ENDBRANCH   8  10
ENDBRANCH   1   8
TORSDOF 8
ENDMDL
MODEL 6
REMARK VINA RESULT:    -5.642      3.339      4.874
REMARK INTER + INTRA:          -8.307
REMARK INTER:                  -7.626
REMARK INTRA:                  -0.681
REMARK UNBOUND:                -0.356
REMARK SMILES C[C@H](CO)CCC(=O)[C@H](C)[C@@H]1C(=O)C[C@H]2[C@H]3CC=C4C[C@@H](O)CC[C@@]4(C)[C@H]3CC[C@]21C
REMARK SMILES IDX 6 1 5 2 2 3 1 4 3 5 4 6 7 8 8 9 9 10 10 11 11 12 12 13 30 14
REMARK SMILES IDX 13 15 14 16 15 17 29 18 31 19 16 20 28 21 27 22 17 23 25 24
REMARK SMILES IDX 18 25 19 26 24 27 26 28 20 29 23 30 21 31 22 32
REMARK H PARENT 4 7 22 33
REMARK Flexibility Score: inf
ROOT
ATOM      1  C   UNL     1      -5.342  28.524  46.432  1.00  0.00     0.076 C 
ENDROOT
BRANCH   1   2
ATOM      2  C   UNL     1      -6.229  29.558  47.141  1.00  0.00     0.013 C 
BRANCH   2   3
ATOM      3  C   UNL     1      -6.032  30.999  46.620  1.00  0.00     0.012 C 
ATOM      4  C   UNL     1      -4.585  31.444  46.883  1.00  0.00     0.010 C 
BRANCH   3   5
ATOM      5  C   UNL     1      -7.037  31.985  47.259  1.00  0.00     0.159 C 
BRANCH   5   6
ATOM      6  O   UNL     1      -6.505  32.565  48.425  1.00  0.00    -0.396 OA
ATOM      7  H   UNL     1      -7.247  33.060  48.863  1.00  0.00     0.210 HD
ENDBRANCH   5   6
ENDBRANCH   3   5
ENDBRANCH   2   3
ENDBRANCH   1   2
BRANCH   1   8
ATOM      8  C   UNL     1      -6.207  27.544  45.670  1.00  0.00     0.136 C 
ATOM      9  O   UNL     1      -6.700  26.616  46.293  1.00  0.00    -0.299 OA
BRANCH   8  10
ATOM     10  C   UNL     1      -6.440  27.610  44.166  1.00  0.00     0.064 C 
ATOM     11  C   UNL     1      -5.923  28.893  43.475  1.00  0.00     0.017 C 
BRANCH  10  12
ATOM     12  C   UNL     1      -7.894  27.183  43.761  1.00  0.00     0.072 C 
ATOM     13  C   UNL     1      -7.876  26.580  42.400  1.00  0.00     0.137 C 
ATOM     14  C   UNL     1      -9.047  28.260  43.667  1.00  0.00    -0.019 C 
ATOM     15  O   UNL     1      -7.296  25.535  42.143  1.00  0.00    -0.299 OA
ATOM     16  C   UNL     1      -8.613  27.348  41.378  1.00  0.00     0.080 C 
ATOM     17  C   UNL     1      -9.186  28.563  42.133  1.00  0.00     0.007 C 
ATOM     18  C   UNL     1     -10.376  27.658  44.256  1.00  0.00     0.008 C 
ATOM     19  C   UNL     1      -8.770  29.571  44.445  1.00  0.00     0.012 C 
ATOM     20  C   UNL     1     -10.629  28.973  41.683  1.00  0.00     0.001 C 
ATOM     21  C   UNL     1     -11.263  26.980  43.209  1.00  0.00     0.005 C 
ATOM     22  C   UNL     1     -11.780  28.036  42.200  1.00  0.00     0.003 C 
ATOM     23  C   UNL     1     -10.687  29.264  40.175  1.00  0.00     0.031 C 
ATOM     24  C   UNL     1     -12.806  27.483  41.123  1.00  0.00    -0.008 C 
ATOM     25  C   UNL     1     -12.088  29.400  39.670  1.00  0.00    -0.027 C 
ATOM     26  C   UNL     1     -13.037  28.504  40.006  1.00  0.00    -0.065 C 
ATOM     27  C   UNL     1     -12.335  26.176  40.421  1.00  0.00     0.014 C 
ATOM     28  C   UNL     1     -14.154  27.213  41.863  1.00  0.00     0.016 C 
ATOM     29  C   UNL     1     -14.052  28.139  38.944  1.00  0.00     0.063 C 
ATOM     30  C   UNL     1     -13.289  25.717  39.288  1.00  0.00     0.033 C 
ATOM     31  C   UNL     1     -13.599  26.833  38.260  1.00  0.00     0.118 C 
BRANCH  31  32
ATOM     32  O   UNL     1     -12.459  27.092  37.477  1.00  0.00    -0.393 OA
ATOM     33  H   UNL     1     -11.820  26.351  37.637  1.00  0.00     0.210 HD
ENDBRANCH  31  32
ENDBRANCH  10  12
ENDBRANCH   8  10
ENDBRANCH   1   8
TORSDOF 8
ENDMDL
MODEL 7
REMARK VINA RESULT:    -5.558      3.082      4.884
REMARK INTER + INTRA:          -8.189
REMARK INTER:                  -7.515
REMARK INTRA:                  -0.674
REMARK UNBOUND:                -0.356
REMARK SMILES C[C@H](CO)CCC(=O)[C@H](C)[C@@H]1C(=O)C[C@H]2[C@H]3CC=C4C[C@@H](O)CC[C@@]4(C)[C@H]3CC[C@]21C
REMARK SMILES IDX 6 1 5 2 2 3 1 4 3 5 4 6 7 8 8 9 9 10 10 11 11 12 12 13 30 14
REMARK SMILES IDX 13 15 14 16 15 17 29 18 31 19 16 20 28 21 27 22 17 23 25 24
REMARK SMILES IDX 18 25 19 26 24 27 26 28 20 29 23 30 21 31 22 32
REMARK H PARENT 4 7 22 33
REMARK Flexibility Score: inf
ROOT
ATOM      1  C   UNL     1      -4.255  29.827  45.378  1.00  0.00     0.076 C 
ENDROOT
BRANCH   1   2
ATOM      2  C   UNL     1      -4.154  30.480  46.765  1.00  0.00     0.013 C 
BRANCH   2   3
ATOM      3  C   UNL     1      -4.855  31.853  46.852  1.00  0.00     0.012 C 
ATOM      4  C   UNL     1      -4.071  32.766  47.808  1.00  0.00     0.010 C 
BRANCH   3   5
ATOM      5  C   UNL     1      -6.329  31.720  47.300  1.00  0.00     0.159 C 
BRANCH   5   6
ATOM      6  O   UNL     1      -6.541  30.513  47.989  1.00  0.00    -0.396 OA
ATOM      7  H   UNL     1      -6.203  29.785  47.403  1.00  0.00     0.210 HD
ENDBRANCH   5   6
ENDBRANCH   3   5
ENDBRANCH   2   3
ENDBRANCH   1   2
BRANCH   1   8
ATOM      8  C   UNL     1      -4.825  28.433  45.508  1.00  0.00     0.136 C 
ATOM      9  O   UNL     1      -4.048  27.491  45.451  1.00  0.00    -0.299 OA
BRANCH   8  10
ATOM     10  C   UNL     1      -6.314  28.134  45.637  1.00  0.00     0.064 C 
ATOM     11  C   UNL     1      -6.662  26.687  46.053  1.00  0.00     0.017 C 
BRANCH  10  12
ATOM     12  C   UNL     1      -7.148  28.692  44.431  1.00  0.00     0.072 C 
ATOM     13  C   UNL     1      -8.521  29.039  44.892  1.00  0.00     0.137 C 
ATOM     14  C   UNL     1      -7.409  27.796  43.155  1.00  0.00    -0.019 C 
ATOM     15  O   UNL     1      -8.746  29.927  45.702  1.00  0.00    -0.299 OA
ATOM     16  C   UNL     1      -9.594  28.221  44.296  1.00  0.00     0.080 C 
ATOM     17  C   UNL     1      -8.870  27.253  43.340  1.00  0.00     0.007 C 
ATOM     18  C   UNL     1      -7.284  28.679  41.860  1.00  0.00     0.008 C 
ATOM     19  C   UNL     1      -6.421  26.615  42.985  1.00  0.00     0.012 C 
ATOM     20  C   UNL     1      -9.634  26.987  42.000  1.00  0.00     0.001 C 
ATOM     21  C   UNL     1      -8.611  29.287  41.397  1.00  0.00     0.005 C 
ATOM     22  C   UNL     1      -9.574  28.158  40.954  1.00  0.00     0.003 C 
ATOM     23  C   UNL     1     -11.051  26.449  42.258  1.00  0.00     0.031 C 
ATOM     24  C   UNL     1     -10.951  28.659  40.343  1.00  0.00    -0.008 C 
ATOM     25  C   UNL     1     -11.893  26.433  41.022  1.00  0.00    -0.027 C 
ATOM     26  C   UNL     1     -11.946  27.503  40.205  1.00  0.00    -0.065 C 
ATOM     27  C   UNL     1     -11.664  29.739  41.206  1.00  0.00     0.014 C 
ATOM     28  C   UNL     1     -10.643  29.248  38.929  1.00  0.00     0.016 C 
ATOM     29  C   UNL     1     -13.280  27.821  39.565  1.00  0.00     0.063 C 
ATOM     30  C   UNL     1     -13.062  30.128  40.660  1.00  0.00     0.033 C 
ATOM     31  C   UNL     1     -13.981  28.907  40.407  1.00  0.00     0.118 C 
BRANCH  31  32
ATOM     32  O   UNL     1     -14.387  28.351  41.634  1.00  0.00    -0.393 OA
ATOM     33  H   UNL     1     -13.588  27.926  42.040  1.00  0.00     0.210 HD
ENDBRANCH  31  32
ENDBRANCH  10  12
ENDBRANCH   8  10
ENDBRANCH   1   8
TORSDOF 8
ENDMDL
MODEL 8
REMARK VINA RESULT:    -5.488      3.363      5.760
REMARK INTER + INTRA:          -8.090
REMARK INTER:                  -7.273
REMARK INTRA:                  -0.817
REMARK UNBOUND:                -0.356
REMARK SMILES C[C@H](CO)CCC(=O)[C@H](C)[C@@H]1C(=O)C[C@H]2[C@H]3CC=C4C[C@@H](O)CC[C@@]4(C)[C@H]3CC[C@]21C
REMARK SMILES IDX 6 1 5 2 2 3 1 4 3 5 4 6 7 8 8 9 9 10 10 11 11 12 12 13 30 14
REMARK SMILES IDX 13 15 14 16 15 17 29 18 31 19 16 20 28 21 27 22 17 23 25 24
REMARK SMILES IDX 18 25 19 26 24 27 26 28 20 29 23 30 21 31 22 32
REMARK H PARENT 4 7 22 33
REMARK Flexibility Score: inf
ROOT
ATOM      1  C   UNL     1      -7.106  29.371  45.954  1.00  0.00     0.076 C 
ENDROOT
BRANCH   1   2
ATOM      2  C   UNL     1      -5.883  28.967  46.791  1.00  0.00     0.013 C 
BRANCH   2   3
ATOM      3  C   UNL     1      -5.367  27.544  46.481  1.00  0.00     0.012 C 
ATOM      4  C   UNL     1      -4.345  27.610  45.335  1.00  0.00     0.010 C 
BRANCH   3   5
ATOM      5  C   UNL     1      -6.520  26.574  46.138  1.00  0.00     0.159 C 
BRANCH   5   6
ATOM      6  O   UNL     1      -6.456  25.413  46.929  1.00  0.00    -0.396 OA
ATOM      7  H   UNL     1      -7.015  25.582  47.733  1.00  0.00     0.210 HD
ENDBRANCH   5   6
ENDBRANCH   3   5
ENDBRANCH   2   3
ENDBRANCH   1   2
BRANCH   1   8
ATOM      8  C   UNL     1      -6.818  30.658  45.214  1.00  0.00     0.136 C 
ATOM      9  O   UNL     1      -7.029  31.710  45.798  1.00  0.00    -0.299 OA
BRANCH   8  10
ATOM     10  C   UNL     1      -6.348  30.716  43.766  1.00  0.00     0.064 C 
ATOM     11  C   UNL     1      -5.518  31.966  43.393  1.00  0.00     0.017 C 
BRANCH  10  12
ATOM     12  C   UNL     1      -7.484  30.351  42.747  1.00  0.00     0.072 C 
ATOM     13  C   UNL     1      -8.802  30.774  43.297  1.00  0.00     0.137 C 
ATOM     14  C   UNL     1      -7.731  28.847  42.328  1.00  0.00    -0.019 C 
ATOM     15  O   UNL     1      -9.096  31.945  43.493  1.00  0.00    -0.299 OA
ATOM     16  C   UNL     1      -9.729  29.665  43.591  1.00  0.00     0.080 C 
ATOM     17  C   UNL     1      -8.964  28.391  43.186  1.00  0.00     0.007 C 
ATOM     18  C   UNL     1      -8.045  28.777  40.789  1.00  0.00     0.008 C 
ATOM     19  C   UNL     1      -6.529  27.904  42.580  1.00  0.00     0.012 C 
ATOM     20  C   UNL     1      -9.855  27.299  42.505  1.00  0.00     0.001 C 
ATOM     21  C   UNL     1      -9.538  28.853  40.459  1.00  0.00     0.005 C 
ATOM     22  C   UNL     1     -10.259  27.601  41.016  1.00  0.00     0.003 C 
ATOM     23  C   UNL     1     -11.034  26.895  43.404  1.00  0.00     0.031 C 
ATOM     24  C   UNL     1     -11.799  27.498  40.645  1.00  0.00    -0.008 C 
ATOM     25  C   UNL     1     -12.043  26.056  42.686  1.00  0.00    -0.027 C 
ATOM     26  C   UNL     1     -12.492  26.406  41.463  1.00  0.00    -0.065 C 
ATOM     27  C   UNL     1     -12.597  28.807  40.912  1.00  0.00     0.014 C 
ATOM     28  C   UNL     1     -11.887  27.141  39.127  1.00  0.00     0.016 C 
ATOM     29  C   UNL     1     -13.952  26.145  41.160  1.00  0.00     0.063 C 
ATOM     30  C   UNL     1     -14.119  28.653  40.661  1.00  0.00     0.033 C 
ATOM     31  C   UNL     1     -14.743  27.446  41.405  1.00  0.00     0.118 C 
BRANCH  31  32
ATOM     32  O   UNL     1     -14.788  27.708  42.787  1.00  0.00    -0.393 OA
ATOM     33  H   UNL     1     -14.210  28.496  42.953  1.00  0.00     0.210 HD
ENDBRANCH  31  32
ENDBRANCH  10  12
ENDBRANCH   8  10
ENDBRANCH   1   8
TORSDOF 8
ENDMDL
