MODEL 1
REMARK VINA RESULT:    -3.272      0.000      0.000
REMARK INTER + INTRA:          -3.641
REMARK INTER:                  -3.464
REMARK INTRA:                  -0.177
REMARK UNBOUND:                -0.177
REMARK SMILES CC(C)[C@@H]1CC[C@@H](C)CC1=O
REMARK SMILES IDX 8 1 7 2 6 3 5 4 4 5 10 6 11 7 9 8 2 9 1 10 3 11
REMARK H PARENT
REMARK Flexibility Score: inf
ROOT
ATOM      1  C   UNL     1     110.100 112.704 103.892  1.00  0.00     0.008 C 
ATOM      2  C   UNL     1     109.783 111.205 103.932  1.00  0.00    -0.007 C 
ATOM      3  C   UNL     1     108.274 110.976 104.149  1.00  0.00     0.004 C 
ATOM      4  C   UNL     1     107.943 109.477 104.144  1.00  0.00     0.012 C 
ATOM      5  C   UNL     1     108.716 108.724 105.254  1.00  0.00     0.058 C 
ATOM      6  C   UNL     1     110.195 109.068 105.171  1.00  0.00     0.136 C 
ATOM      7  O   UNL     1     111.054 108.213 105.328  1.00  0.00    -0.299 OA
ATOM      8  C   UNL     1     110.602 110.509 105.034  1.00  0.00     0.079 C 
ENDROOT
BRANCH   5   9
ATOM      9  C   UNL     1     108.442 107.185 105.263  1.00  0.00    -0.007 C 
ATOM     10  C   UNL     1     107.345 106.808 106.270  1.00  0.00     0.008 C 
ATOM     11  C   UNL     1     108.106 106.610 103.876  1.00  0.00     0.008 C 
ENDBRANCH   5   9
TORSDOF 1
ENDMDL
MODEL 2
REMARK VINA RESULT:    -3.233      2.206      3.642
REMARK INTER + INTRA:          -3.599
REMARK INTER:                  -3.422
REMARK INTRA:                  -0.177
REMARK UNBOUND:                -0.177
REMARK SMILES CC(C)[C@@H]1CC[C@@H](C)CC1=O
REMARK SMILES IDX 8 1 7 2 6 3 5 4 4 5 10 6 11 7 9 8 2 9 1 10 3 11
REMARK H PARENT
REMARK Flexibility Score: inf
ROOT
ATOM      1  C   UNL     1     107.393 109.905 103.875  1.00  0.00     0.008 C 
ATOM      2  C   UNL     1     108.895 109.603 103.903  1.00  0.00    -0.007 C 
ATOM      3  C   UNL     1     109.143 108.120 104.245  1.00  0.00     0.004 C 
ATOM      4  C   UNL     1     110.644 107.801 104.229  1.00  0.00     0.012 C 
ATOM      5  C   UNL     1     111.419 108.673 105.246  1.00  0.00     0.058 C 
ATOM      6  C   UNL     1     111.060 110.136 105.044  1.00  0.00     0.136 C 
ATOM      7  O   UNL     1     111.910 111.012 105.102  1.00  0.00    -0.299 OA
ATOM      8  C   UNL     1     109.612 110.521 104.910  1.00  0.00     0.079 C 
ENDROOT
BRANCH   5   9
ATOM      9  C   UNL     1     112.960 108.411 105.239  1.00  0.00    -0.007 C 
ATOM     10  C   UNL     1     113.375 107.420 106.336  1.00  0.00     0.008 C 
ATOM     11  C   UNL     1     113.500 107.946 103.876  1.00  0.00     0.008 C 
ENDBRANCH   5   9
TORSDOF 1
ENDMDL
MODEL 3
REMARK VINA RESULT:    -3.231      2.640      3.205
REMARK INTER + INTRA:          -3.597
REMARK INTER:                  -3.431
REMARK INTRA:                  -0.166
REMARK UNBOUND:                -0.177
REMARK SMILES CC(C)[C@@H]1CC[C@@H](C)CC1=O
REMARK SMILES IDX 8 1 7 2 6 3 5 4 4 5 10 6 11 7 9 8 2 9 1 10 3 11
REMARK H PARENT
REMARK Flexibility Score: inf
ROOT
ATOM      1  C   UNL     1     113.521 108.188 103.918  1.00  0.00     0.008 C 
ATOM      2  C   UNL     1     112.284 107.722 104.694  1.00  0.00    -0.007 C 
ATOM      3  C   UNL     1     110.996 108.207 104.000  1.00  0.00     0.004 C 
ATOM      4  C   UNL     1     109.752 107.705 104.747  1.00  0.00     0.012 C 
ATOM      5  C   UNL     1     109.734 108.202 106.213  1.00  0.00     0.058 C 
ATOM      6  C   UNL     1     111.066 107.889 106.876  1.00  0.00     0.136 C 
ATOM      7  O   UNL     1     111.122 107.481 108.026  1.00  0.00    -0.299 OA
ATOM      8  C   UNL     1     112.340 108.223 106.148  1.00  0.00     0.079 C 
ENDROOT
BRANCH   5   9
ATOM      9  C   UNL     1     108.506 107.683 107.027  1.00  0.00    -0.007 C 
ATOM     10  C   UNL     1     107.754 108.831 107.718  1.00  0.00     0.008 C 
ATOM     11  C   UNL     1     107.527 106.837 106.195  1.00  0.00     0.008 C 
ENDBRANCH   5   9
TORSDOF 1
ENDMDL
MODEL 4
REMARK VINA RESULT:    -3.216      3.579      3.941
REMARK INTER + INTRA:          -3.581
REMARK INTER:                  -3.417
REMARK INTRA:                  -0.164
REMARK UNBOUND:                -0.177
REMARK SMILES CC(C)[C@@H]1CC[C@@H](C)CC1=O
REMARK SMILES IDX 8 1 7 2 6 3 5 4 4 5 10 6 11 7 9 8 2 9 1 10 3 11
REMARK H PARENT
REMARK Flexibility Score: inf
ROOT
ATOM      1  C   UNL     1     111.880 113.601 104.106  1.00  0.00     0.008 C 
ATOM      2  C   UNL     1     112.375 112.352 104.843  1.00  0.00    -0.007 C 
ATOM      3  C   UNL     1     111.922 111.074 104.109  1.00  0.00     0.004 C 
ATOM      4  C   UNL     1     112.454 109.821 104.818  1.00  0.00     0.012 C 
ATOM      5  C   UNL     1     111.956 109.745 106.281  1.00  0.00     0.058 C 
ATOM      6  C   UNL     1     112.237 111.063 106.986  1.00  0.00     0.136 C 
ATOM      7  O   UNL     1     112.644 111.092 108.138  1.00  0.00    -0.299 OA
ATOM      8  C   UNL     1     111.873 112.350 106.298  1.00  0.00     0.079 C 
ENDROOT
BRANCH   5   9
ATOM      9  C   UNL     1     112.505 108.504 107.058  1.00  0.00    -0.007 C 
ATOM     10  C   UNL     1     111.379 107.728 107.759  1.00  0.00     0.008 C 
ATOM     11  C   UNL     1     113.339 107.550 106.186  1.00  0.00     0.008 C 
ENDBRANCH   5   9
TORSDOF 1
ENDMDL
MODEL 5
REMARK VINA RESULT:    -3.160      2.403      3.748
REMARK INTER + INTRA:          -3.522
REMARK INTER:                  -3.345
REMARK INTRA:                  -0.177
REMARK UNBOUND:                -0.177
REMARK SMILES CC(C)[C@@H]1CC[C@@H](C)CC1=O
REMARK SMILES IDX 8 1 7 2 6 3 5 4 4 5 10 6 11 7 9 8 2 9 1 10 3 11
REMARK H PARENT
REMARK Flexibility Score: inf
ROOT
ATOM      1  C   UNL     1     113.031 113.342 106.703  1.00  0.00     0.008 C 
ATOM      2  C   UNL     1     111.893 112.449 106.195  1.00  0.00    -0.007 C 
ATOM      3  C   UNL     1     111.419 112.914 104.804  1.00  0.00     0.004 C 
ATOM      4  C   UNL     1     110.311 111.996 104.270  1.00  0.00     0.012 C 
ATOM      5  C   UNL     1     109.090 111.972 105.220  1.00  0.00     0.058 C 
ATOM      6  C   UNL     1     109.551 111.683 106.639  1.00  0.00     0.136 C 
ATOM      7  O   UNL     1     108.921 110.933 107.370  1.00  0.00    -0.299 OA
ATOM      8  C   UNL     1     110.724 112.444 107.195  1.00  0.00     0.079 C 
ENDROOT
BRANCH   5   9
ATOM      9  C   UNL     1     107.950 111.018 104.738  1.00  0.00    -0.007 C 
ATOM     10  C   UNL     1     106.897 111.764 103.903  1.00  0.00     0.008 C 
ATOM     11  C   UNL     1     108.459 109.788 103.967  1.00  0.00     0.008 C 
ENDBRANCH   5   9
TORSDOF 1
ENDMDL
MODEL 6
REMARK VINA RESULT:    -3.134      2.742      3.484
REMARK INTER + INTRA:          -3.494
REMARK INTER:                  -3.324
REMARK INTRA:                  -0.169
REMARK UNBOUND:                -0.177
REMARK SMILES CC(C)[C@@H]1CC[C@@H](C)CC1=O
REMARK SMILES IDX 8 1 7 2 6 3 5 4 4 5 10 6 11 7 9 8 2 9 1 10 3 11
REMARK H PARENT
REMARK Flexibility Score: inf
ROOT
ATOM      1  C   UNL     1     106.624 113.762 107.259  1.00  0.00     0.008 C 
ATOM      2  C   UNL     1     106.776 112.302 106.820  1.00  0.00    -0.007 C 
ATOM      3  C   UNL     1     107.711 111.542 107.782  1.00  0.00     0.004 C 
ATOM      4  C   UNL     1     107.831 110.067 107.374  1.00  0.00     0.012 C 
ATOM      5  C   UNL     1     108.386 109.921 105.937  1.00  0.00     0.058 C 
ATOM      6  C   UNL     1     107.585 110.799 104.988  1.00  0.00     0.136 C 
ATOM      7  O   UNL     1     107.269 110.405 103.875  1.00  0.00    -0.299 OA
ATOM      8  C   UNL     1     107.302 112.224 105.376  1.00  0.00     0.079 C 
ENDROOT
BRANCH   5   9
ATOM      9  C   UNL     1     108.488 108.436 105.461  1.00  0.00    -0.007 C 
ATOM     10  C   UNL     1     109.925 108.062 105.067  1.00  0.00     0.008 C 
ATOM     11  C   UNL     1     107.941 107.422 106.481  1.00  0.00     0.008 C 
ENDBRANCH   5   9
TORSDOF 1
ENDMDL
MODEL 7
REMARK VINA RESULT:    -3.111      1.681      2.526
REMARK INTER + INTRA:          -3.469
REMARK INTER:                  -3.296
REMARK INTRA:                  -0.174
REMARK UNBOUND:                -0.177
REMARK SMILES CC(C)[C@@H]1CC[C@@H](C)CC1=O
REMARK SMILES IDX 8 1 7 2 6 3 5 4 4 5 10 6 11 7 9 8 2 9 1 10 3 11
REMARK H PARENT
REMARK Flexibility Score: inf
ROOT
ATOM      1  C   UNL     1     112.513 111.972 104.409  1.00  0.00     0.008 C 
ATOM      2  C   UNL     1     111.436 110.972 104.847  1.00  0.00    -0.007 C 
ATOM      3  C   UNL     1     111.827 109.540 104.432  1.00  0.00     0.004 C 
ATOM      4  C   UNL     1     110.774 108.529 104.908  1.00  0.00     0.012 C 
ATOM      5  C   UNL     1     109.379 108.845 104.319  1.00  0.00     0.058 C 
ATOM      6  C   UNL     1     109.039 110.306 104.564  1.00  0.00     0.136 C 
ATOM      7  O   UNL     1     107.914 110.648 104.898  1.00  0.00    -0.299 OA
ATOM      8  C   UNL     1     110.069 111.357 104.254  1.00  0.00     0.079 C 
ENDROOT
BRANCH   5   9
ATOM      9  C   UNL     1     108.264 107.864 104.808  1.00  0.00    -0.007 C 
ATOM     10  C   UNL     1     108.140 106.639 103.890  1.00  0.00     0.008 C 
ATOM     11  C   UNL     1     108.436 107.413 106.268  1.00  0.00     0.008 C 
ENDBRANCH   5   9
TORSDOF 1
ENDMDL
MODEL 8
REMARK VINA RESULT:    -3.107      3.305      5.406
REMARK INTER + INTRA:          -3.466
REMARK INTER:                  -3.293
REMARK INTRA:                  -0.173
REMARK UNBOUND:                -0.177
REMARK SMILES CC(C)[C@@H]1CC[C@@H](C)CC1=O
REMARK SMILES IDX 8 1 7 2 6 3 5 4 4 5 10 6 11 7 9 8 2 9 1 10 3 11
REMARK H PARENT
REMARK Flexibility Score: inf
ROOT
ATOM      1  C   UNL     1     113.524 106.256 107.342  1.00  0.00     0.008 C 
ATOM      2  C   UNL     1     113.348 107.705 106.876  1.00  0.00    -0.007 C 
ATOM      3  C   UNL     1     112.313 108.434 107.755  1.00  0.00     0.004 C 
ATOM      4  C   UNL     1     112.165 109.900 107.322  1.00  0.00     0.012 C 
ATOM      5  C   UNL     1     111.716 110.011 105.846  1.00  0.00     0.058 C 
ATOM      6  C   UNL     1     112.621 109.159 104.970  1.00  0.00     0.136 C 
ATOM      7  O   UNL     1     113.006 109.555 103.880  1.00  0.00    -0.299 OA
ATOM      8  C   UNL     1     112.931 107.749 105.395  1.00  0.00     0.079 C 
ENDROOT
BRANCH   5   9
ATOM      9  C   UNL     1     111.591 111.487 105.346  1.00  0.00    -0.007 C 
ATOM     10  C   UNL     1     110.132 111.868 105.055  1.00  0.00     0.008 C 
ATOM     11  C   UNL     1     112.225 112.516 106.297  1.00  0.00     0.008 C 
ENDBRANCH   5   9
TORSDOF 1
ENDMDL
MODEL 9
REMARK VINA RESULT:    -3.082      1.546      4.585
REMARK INTER + INTRA:          -3.439
REMARK INTER:                  -3.264
REMARK INTRA:                  -0.175
REMARK UNBOUND:                -0.177
REMARK SMILES CC(C)[C@@H]1CC[C@@H](C)CC1=O
REMARK SMILES IDX 8 1 7 2 6 3 5 4 4 5 10 6 11 7 9 8 2 9 1 10 3 11
REMARK H PARENT
REMARK Flexibility Score: inf
ROOT
ATOM      1  C   UNL     1     107.969 107.797 105.079  1.00  0.00     0.008 C 
ATOM      2  C   UNL     1     109.027 108.874 105.343  1.00  0.00    -0.007 C 
ATOM      3  C   UNL     1     108.468 110.273 105.019  1.00  0.00     0.004 C 
ATOM      4  C   UNL     1     109.508 111.360 105.324  1.00  0.00     0.012 C 
ATOM      5  C   UNL     1     110.803 111.150 104.504  1.00  0.00     0.058 C 
ATOM      6  C   UNL     1     111.287 109.718 104.669  1.00  0.00     0.136 C 
ATOM      7  O   UNL     1     112.474 109.461 104.805  1.00  0.00    -0.299 OA
ATOM      8  C   UNL     1     110.299 108.593 104.523  1.00  0.00     0.079 C 
ENDROOT
BRANCH   5   9
ATOM      9  C   UNL     1     111.909 112.211 104.811  1.00  0.00    -0.007 C 
ATOM     10  C   UNL     1     111.800 113.432 103.886  1.00  0.00     0.008 C 
ATOM     11  C   UNL     1     111.938 112.664 106.281  1.00  0.00     0.008 C 
ENDBRANCH   5   9
TORSDOF 1
ENDMDL
