MODEL 1
REMARK VINA RESULT:    -4.167      0.000      0.000
REMARK INTER + INTRA:          -6.799
REMARK INTER:                  -6.360
REMARK INTRA:                  -0.440
REMARK UNBOUND:                -0.440
REMARK SMILES O=C([O-])CCCCCCCCC(=O)[O-]
REMARK SMILES IDX 7 1 6 2 5 3 4 4 2 5 1 6 3 7 8 8 9 9 10 10 11 11 12 12 13 13
REMARK SMILES IDX 14 14
REMARK H PARENT
REMARK Flexibility Score: inf
ROOT
ATOM      1  C   UNL     1       3.818   8.970   9.509  1.00  0.00     0.000 C 
ENDROOT
BRANCH   1   2
ATOM      2  C   UNL     1       4.143   7.697   8.720  1.00  0.00     0.000 C 
BRANCH   2   3
ATOM      3  C   UNL     1       3.743   6.444   9.508  1.00  0.00     0.006 C 
BRANCH   3   4
ATOM      4  C   UNL     1       4.059   5.171   8.716  1.00  0.00     0.053 C 
BRANCH   4   5
ATOM      5  C   UNL     1       2.817   4.626   8.085  1.00  0.00     0.041 C 
ATOM      6  O   UNL     1       2.726   4.546   6.831  1.00  0.00    -0.550 OA
ATOM      7  O   UNL     1       1.779   4.160   8.882  1.00  0.00    -0.550 OA
ENDBRANCH   4   5
ENDBRANCH   3   4
ENDBRANCH   2   3
ENDBRANCH   1   2
BRANCH   1   8
ATOM      8  C   UNL     1       4.360  10.214   8.795  1.00  0.00     0.000 C 
BRANCH   8   9
ATOM      9  C   UNL     1       5.024   9.839   7.465  1.00  0.00     0.000 C 
BRANCH   9  10
ATOM     10  C   UNL     1       5.022  11.029   6.494  1.00  0.00     0.006 C 
BRANCH  10  11
ATOM     11  C   UNL     1       3.993  12.098   6.886  1.00  0.00     0.053 C 
BRANCH  11  12
ATOM     12  C   UNL     1       4.582  13.474   6.859  1.00  0.00     0.041 C 
ATOM     13  O   UNL     1       4.676  14.103   5.773  1.00  0.00    -0.550 OA
ATOM     14  O   UNL     1       5.060  14.050   8.031  1.00  0.00    -0.550 OA
ENDBRANCH  11  12
ENDBRANCH  10  11
ENDBRANCH   9  10
ENDBRANCH   8   9
ENDBRANCH   1   8
TORSDOF 9
ENDMDL
MODEL 2
REMARK VINA RESULT:    -3.888      0.813      7.435
REMARK INTER + INTRA:          -6.373
REMARK INTER:                  -6.011
REMARK INTRA:                  -0.362
REMARK UNBOUND:                -0.440
REMARK SMILES O=C([O-])CCCCCCCCC(=O)[O-]
REMARK SMILES IDX 7 1 6 2 5 3 4 4 2 5 1 6 3 7 8 8 9 9 10 10 11 11 12 12 13 13
REMARK SMILES IDX 14 14
REMARK H PARENT
REMARK Flexibility Score: inf
ROOT
ATOM      1  C   UNL     1       4.651   9.733   9.646  1.00  0.00     0.000 C 
ENDROOT
BRANCH   1   2
ATOM      2  C   UNL     1       4.932   9.884   8.146  1.00  0.00     0.000 C 
BRANCH   2   3
ATOM      3  C   UNL     1       4.097  11.019   7.541  1.00  0.00     0.006 C 
BRANCH   3   4
ATOM      4  C   UNL     1       4.901  11.795   6.493  1.00  0.00     0.053 C 
BRANCH   4   5
ATOM      5  C   UNL     1       4.889  13.258   6.802  1.00  0.00     0.041 C 
ATOM      6  O   UNL     1       4.598  14.093   5.904  1.00  0.00    -0.550 OA
ATOM      7  O   UNL     1       5.153  13.699   8.093  1.00  0.00    -0.550 OA
ENDBRANCH   4   5
ENDBRANCH   3   4
ENDBRANCH   2   3
ENDBRANCH   1   2
BRANCH   1   8
ATOM      8  C   UNL     1       3.870   8.445   9.932  1.00  0.00     0.000 C 
BRANCH   8   9
ATOM      9  C   UNL     1       4.040   7.433   8.794  1.00  0.00     0.000 C 
BRANCH   9  10
ATOM     10  C   UNL     1       4.177   6.005   9.343  1.00  0.00     0.006 C 
BRANCH  10  11
ATOM     11  C   UNL     1       2.832   5.268   9.390  1.00  0.00     0.053 C 
BRANCH  11  12
ATOM     12  C   UNL     1       2.674   4.323   8.240  1.00  0.00     0.041 C 
ATOM     13  O   UNL     1       2.683   4.756   7.058  1.00  0.00    -0.550 OA
ATOM     14  O   UNL     1       2.482   2.967   8.475  1.00  0.00    -0.550 OA
ENDBRANCH  11  12
ENDBRANCH  10  11
ENDBRANCH   9  10
ENDBRANCH   8   9
ENDBRANCH   1   8
TORSDOF 9
ENDMDL
MODEL 3
REMARK VINA RESULT:    -3.802      3.063      4.905
REMARK INTER + INTRA:          -6.242
REMARK INTER:                  -5.391
REMARK INTRA:                  -0.851
REMARK UNBOUND:                -0.440
REMARK SMILES O=C([O-])CCCCCCCCC(=O)[O-]
REMARK SMILES IDX 7 1 6 2 5 3 4 4 2 5 1 6 3 7 8 8 9 9 10 10 11 11 12 12 13 13
REMARK SMILES IDX 14 14
REMARK H PARENT
REMARK Flexibility Score: inf
ROOT
ATOM      1  C   UNL     1       4.369  13.638   6.421  1.00  0.00     0.000 C 
ENDROOT
BRANCH   1   2
ATOM      2  C   UNL     1       4.680  12.154   6.197  1.00  0.00     0.000 C 
BRANCH   2   3
ATOM      3  C   UNL     1       4.125  11.296   7.339  1.00  0.00     0.006 C 
BRANCH   3   4
ATOM      4  C   UNL     1       4.978  10.041   7.550  1.00  0.00     0.053 C 
BRANCH   4   5
ATOM      5  C   UNL     1       4.363   9.157   8.588  1.00  0.00     0.041 C 
ATOM      6  O   UNL     1       4.096   7.956   8.319  1.00  0.00    -0.550 OA
ATOM      7  O   UNL     1       4.130   9.645   9.867  1.00  0.00    -0.550 OA
ENDBRANCH   4   5
ENDBRANCH   3   4
ENDBRANCH   2   3
ENDBRANCH   1   2
BRANCH   1   8
ATOM      8  C   UNL     1       5.641  14.421   6.769  1.00  0.00     0.000 C 
BRANCH   8   9
ATOM      9  C   UNL     1       5.843  14.496   8.286  1.00  0.00     0.000 C 
BRANCH   9  10
ATOM     10  C   UNL     1       7.223  13.953   8.685  1.00  0.00     0.006 C 
BRANCH  10  11
ATOM     11  C   UNL     1       7.997  13.392   7.484  1.00  0.00     0.053 C 
BRANCH  11  12
ATOM     12  C   UNL     1       8.173  11.908   7.578  1.00  0.00     0.041 C 
ATOM     13  O   UNL     1       8.024  11.321   8.681  1.00  0.00    -0.550 OA
ATOM     14  O   UNL     1       8.535  11.177   6.453  1.00  0.00    -0.550 OA
ENDBRANCH  11  12
ENDBRANCH  10  11
ENDBRANCH   9  10
ENDBRANCH   8   9
ENDBRANCH   1   8
TORSDOF 9
ENDMDL
MODEL 4
REMARK VINA RESULT:    -3.768     15.771     16.780
REMARK INTER + INTRA:          -6.190
REMARK INTER:                  -5.573
REMARK INTRA:                  -0.617
REMARK UNBOUND:                -0.440
REMARK SMILES O=C([O-])CCCCCCCCC(=O)[O-]
REMARK SMILES IDX 7 1 6 2 5 3 4 4 2 5 1 6 3 7 8 8 9 9 10 10 11 11 12 12 13 13
REMARK SMILES IDX 14 14
REMARK H PARENT
REMARK Flexibility Score: inf
ROOT
ATOM      1  C   UNL     1       2.762   4.129  -9.035  1.00  0.00     0.000 C 
ENDROOT
BRANCH   1   2
ATOM      2  C   UNL     1       4.074   3.471  -9.474  1.00  0.00     0.000 C 
BRANCH   2   3
ATOM      3  C   UNL     1       4.982   3.196  -8.269  1.00  0.00     0.006 C 
BRANCH   3   4
ATOM      4  C   UNL     1       4.959   1.712  -7.890  1.00  0.00     0.053 C 
BRANCH   4   5
ATOM      5  C   UNL     1       4.797   1.552  -6.412  1.00  0.00     0.041 C 
ATOM      6  O   UNL     1       5.617   2.093  -5.623  1.00  0.00    -0.550 OA
ATOM      7  O   UNL     1       3.715   0.846  -5.903  1.00  0.00    -0.550 OA
ENDBRANCH   4   5
ENDBRANCH   3   4
ENDBRANCH   2   3
ENDBRANCH   1   2
BRANCH   1   8
ATOM      8  C   UNL     1       2.316   5.195 -10.042  1.00  0.00     0.000 C 
BRANCH   8   9
ATOM      9  C   UNL     1       1.987   6.516  -9.337  1.00  0.00     0.000 C 
BRANCH   9  10
ATOM     10  C   UNL     1       3.089   7.558  -9.579  1.00  0.00     0.006 C 
BRANCH  10  11
ATOM     11  C   UNL     1       3.659   8.116  -8.268  1.00  0.00     0.053 C 
BRANCH  11  12
ATOM     12  C   UNL     1       4.935   7.434  -7.881  1.00  0.00     0.041 C 
ATOM     13  O   UNL     1       5.495   6.638  -8.678  1.00  0.00    -0.550 OA
ATOM     14  O   UNL     1       5.487   7.652  -6.624  1.00  0.00    -0.550 OA
ENDBRANCH  11  12
ENDBRANCH  10  11
ENDBRANCH   9  10
ENDBRANCH   8   9
ENDBRANCH   1   8
TORSDOF 9
ENDMDL
MODEL 5
REMARK VINA RESULT:    -3.753      6.187      8.546
REMARK INTER + INTRA:          -6.167
REMARK INTER:                  -5.549
REMARK INTRA:                  -0.617
REMARK UNBOUND:                -0.440
REMARK SMILES O=C([O-])CCCCCCCCC(=O)[O-]
REMARK SMILES IDX 7 1 6 2 5 3 4 4 2 5 1 6 3 7 8 8 9 9 10 10 11 11 12 12 13 13
REMARK SMILES IDX 14 14
REMARK H PARENT
REMARK Flexibility Score: inf
ROOT
ATOM      1  C   UNL     1       7.928   2.794   4.897  1.00  0.00     0.000 C 
ENDROOT
BRANCH   1   2
ATOM      2  C   UNL     1       8.431   1.580   5.684  1.00  0.00     0.000 C 
BRANCH   2   3
ATOM      3  C   UNL     1       7.812   0.282   5.152  1.00  0.00     0.006 C 
BRANCH   3   4
ATOM      4  C   UNL     1       7.272  -0.580   6.297  1.00  0.00     0.053 C 
BRANCH   4   5
ATOM      5  C   UNL     1       6.455  -1.713   5.761  1.00  0.00     0.041 C 
ATOM      6  O   UNL     1       5.714  -2.379   6.530  1.00  0.00    -0.550 OA
ATOM      7  O   UNL     1       6.476  -2.002   4.402  1.00  0.00    -0.550 OA
ENDBRANCH   4   5
ENDBRANCH   3   4
ENDBRANCH   2   3
ENDBRANCH   1   2
BRANCH   1   8
ATOM      8  C   UNL     1       7.028   3.680   5.766  1.00  0.00     0.000 C 
BRANCH   8   9
ATOM      9  C   UNL     1       7.067   3.234   7.232  1.00  0.00     0.000 C 
BRANCH   9  10
ATOM     10  C   UNL     1       5.657   3.217   7.840  1.00  0.00     0.006 C 
BRANCH  10  11
ATOM     11  C   UNL     1       4.718   4.223   7.161  1.00  0.00     0.053 C 
BRANCH  11  12
ATOM     12  C   UNL     1       3.293   3.763   7.192  1.00  0.00     0.041 C 
ATOM     13  O   UNL     1       2.432   4.316   6.458  1.00  0.00    -0.550 OA
ATOM     14  O   UNL     1       2.908   2.747   8.058  1.00  0.00    -0.550 OA
ENDBRANCH  11  12
ENDBRANCH  10  11
ENDBRANCH   9  10
ENDBRANCH   8   9
ENDBRANCH   1   8
TORSDOF 9
ENDMDL
MODEL 6
REMARK VINA RESULT:    -3.752     15.843     17.977
REMARK INTER + INTRA:          -6.165
REMARK INTER:                  -5.508
REMARK INTRA:                  -0.657
REMARK UNBOUND:                -0.440
REMARK SMILES O=C([O-])CCCCCCCCC(=O)[O-]
REMARK SMILES IDX 7 1 6 2 5 3 4 4 2 5 1 6 3 7 8 8 9 9 10 10 11 11 12 12 13 13
REMARK SMILES IDX 14 14
REMARK H PARENT
REMARK Flexibility Score: inf
ROOT
ATOM      1  C   UNL     1       3.047   4.126  -9.391  1.00  0.00     0.000 C 
ENDROOT
BRANCH   1   2
ATOM      2  C   UNL     1       2.523   5.565  -9.325  1.00  0.00     0.000 C 
BRANCH   2   3
ATOM      3  C   UNL     1       3.626   6.570  -9.676  1.00  0.00     0.006 C 
BRANCH   3   4
ATOM      4  C   UNL     1       3.866   7.548  -8.522  1.00  0.00     0.053 C 
BRANCH   4   5
ATOM      5  C   UNL     1       5.223   7.336  -7.929  1.00  0.00     0.041 C 
ATOM      6  O   UNL     1       6.165   6.902  -8.642  1.00  0.00    -0.550 OA
ATOM      7  O   UNL     1       5.459   7.663  -6.599  1.00  0.00    -0.550 OA
ENDBRANCH   4   5
ENDBRANCH   3   4
ENDBRANCH   2   3
ENDBRANCH   1   2
BRANCH   1   8
ATOM      8  C   UNL     1       4.496   4.090  -9.890  1.00  0.00     0.000 C 
BRANCH   8   9
ATOM      9  C   UNL     1       5.357   3.170  -9.016  1.00  0.00     0.000 C 
BRANCH   9  10
ATOM     10  C   UNL     1       4.513   2.504  -7.920  1.00  0.00     0.006 C 
BRANCH  10  11
ATOM     11  C   UNL     1       4.907   1.038  -7.693  1.00  0.00     0.053 C 
BRANCH  11  12
ATOM     12  C   UNL     1       4.622   0.596  -6.291  1.00  0.00     0.041 C 
ATOM     13  O   UNL     1       3.678  -0.203  -6.057  1.00  0.00    -0.550 OA
ATOM     14  O   UNL     1       5.379   1.094  -5.237  1.00  0.00    -0.550 OA
ENDBRANCH  11  12
ENDBRANCH  10  11
ENDBRANCH   9  10
ENDBRANCH   8   9
ENDBRANCH   1   8
TORSDOF 9
ENDMDL
MODEL 7
REMARK VINA RESULT:    -3.695     15.446     17.449
REMARK INTER + INTRA:          -6.079
REMARK INTER:                  -5.460
REMARK INTRA:                  -0.620
REMARK UNBOUND:                -0.440
REMARK SMILES O=C([O-])CCCCCCCCC(=O)[O-]
REMARK SMILES IDX 7 1 6 2 5 3 4 4 2 5 1 6 3 7 8 8 9 9 10 10 11 11 12 12 13 13
REMARK SMILES IDX 14 14
REMARK H PARENT
REMARK Flexibility Score: inf
ROOT
ATOM      1  C   UNL     1       2.219   5.626  -9.418  1.00  0.00     0.000 C 
ENDROOT
BRANCH   1   2
ATOM      2  C   UNL     1       2.468   7.116  -9.164  1.00  0.00     0.000 C 
BRANCH   2   3
ATOM      3  C   UNL     1       3.970   7.424  -9.124  1.00  0.00     0.006 C 
BRANCH   3   4
ATOM      4  C   UNL     1       4.345   8.161  -7.834  1.00  0.00     0.053 C 
BRANCH   4   5
ATOM      5  C   UNL     1       5.578   7.566  -7.231  1.00  0.00     0.041 C 
ATOM      6  O   UNL     1       5.921   6.389  -7.521  1.00  0.00    -0.550 OA
ATOM      7  O   UNL     1       6.377   8.328  -6.387  1.00  0.00    -0.550 OA
ENDBRANCH   4   5
ENDBRANCH   3   4
ENDBRANCH   2   3
ENDBRANCH   1   2
BRANCH   1   8
ATOM      8  C   UNL     1       3.538   4.875  -9.634  1.00  0.00     0.000 C 
BRANCH   8   9
ATOM      9  C   UNL     1       3.619   3.634  -8.737  1.00  0.00     0.000 C 
BRANCH   9  10
ATOM     10  C   UNL     1       5.069   3.148  -8.600  1.00  0.00     0.006 C 
BRANCH  10  11
ATOM     11  C   UNL     1       5.175   1.860  -7.772  1.00  0.00     0.053 C 
BRANCH  11  12
ATOM     12  C   UNL     1       5.627   2.134  -6.371  1.00  0.00     0.041 C 
ATOM     13  O   UNL     1       6.332   3.146  -6.119  1.00  0.00    -0.550 OA
ATOM     14  O   UNL     1       5.297   1.253  -5.348  1.00  0.00    -0.550 OA
ENDBRANCH  11  12
ENDBRANCH  10  11
ENDBRANCH   9  10
ENDBRANCH   8   9
ENDBRANCH   1   8
TORSDOF 9
ENDMDL
MODEL 8
REMARK VINA RESULT:    -3.661      5.976      9.825
REMARK INTER + INTRA:          -6.027
REMARK INTER:                  -5.470
REMARK INTRA:                  -0.556
REMARK UNBOUND:                -0.440
REMARK SMILES O=C([O-])CCCCCCCCC(=O)[O-]
REMARK SMILES IDX 7 1 6 2 5 3 4 4 2 5 1 6 3 7 8 8 9 9 10 10 11 11 12 12 13 13
REMARK SMILES IDX 14 14
REMARK H PARENT
REMARK Flexibility Score: inf
ROOT
ATOM      1  C   UNL     1       6.680   3.649   5.718  1.00  0.00     0.000 C 
ENDROOT
BRANCH   1   2
ATOM      2  C   UNL     1       6.769   3.552   7.245  1.00  0.00     0.000 C 
BRANCH   2   3
ATOM      3  C   UNL     1       5.411   3.183   7.854  1.00  0.00     0.006 C 
BRANCH   3   4
ATOM      4  C   UNL     1       4.589   4.437   8.166  1.00  0.00     0.053 C 
BRANCH   4   5
ATOM      5  C   UNL     1       3.222   4.330   7.570  1.00  0.00     0.041 C 
ATOM      6  O   UNL     1       3.080   4.253   6.320  1.00  0.00    -0.550 OA
ATOM      7  O   UNL     1       2.106   4.265   8.394  1.00  0.00    -0.550 OA
ENDBRANCH   4   5
ENDBRANCH   3   4
ENDBRANCH   2   3
ENDBRANCH   1   2
BRANCH   1   8
ATOM      8  C   UNL     1       7.911   3.019   5.054  1.00  0.00     0.000 C 
BRANCH   8   9
ATOM      9  C   UNL     1       8.349   1.751   5.795  1.00  0.00     0.000 C 
BRANCH   9  10
ATOM     10  C   UNL     1       7.852   0.491   5.072  1.00  0.00     0.006 C 
BRANCH  10  11
ATOM     11  C   UNL     1       7.461  -0.626   6.050  1.00  0.00     0.053 C 
BRANCH  11  12
ATOM     12  C   UNL     1       6.960  -1.842   5.335  1.00  0.00     0.041 C 
ATOM     13  O   UNL     1       6.108  -1.732   4.415  1.00  0.00    -0.550 OA
ATOM     14  O   UNL     1       7.410  -3.103   5.708  1.00  0.00    -0.550 OA
ENDBRANCH  11  12
ENDBRANCH  10  11
ENDBRANCH   9  10
ENDBRANCH   8   9
ENDBRANCH   1   8
TORSDOF 9
ENDMDL
MODEL 9
REMARK VINA RESULT:    -3.641     15.652     16.667
REMARK INTER + INTRA:          -5.996
REMARK INTER:                  -5.282
REMARK INTRA:                  -0.714
REMARK UNBOUND:                -0.440
REMARK SMILES O=C([O-])CCCCCCCCC(=O)[O-]
REMARK SMILES IDX 7 1 6 2 5 3 4 4 2 5 1 6 3 7 8 8 9 9 10 10 11 11 12 12 13 13
REMARK SMILES IDX 14 14
REMARK H PARENT
REMARK Flexibility Score: inf
ROOT
ATOM      1  C   UNL     1       2.258   4.614  -9.380  1.00  0.00     0.000 C 
ENDROOT
BRANCH   1   2
ATOM      2  C   UNL     1       3.650   4.109  -9.776  1.00  0.00     0.000 C 
BRANCH   2   3
ATOM      3  C   UNL     1       4.242   3.211  -8.684  1.00  0.00     0.006 C 
BRANCH   3   4
ATOM      4  C   UNL     1       5.657   3.661  -8.308  1.00  0.00     0.053 C 
BRANCH   4   5
ATOM      5  C   UNL     1       6.253   2.731  -7.300  1.00  0.00     0.041 C 
ATOM      6  O   UNL     1       6.657   1.590  -7.652  1.00  0.00    -0.550 OA
ATOM      7  O   UNL     1       6.407   3.140  -5.982  1.00  0.00    -0.550 OA
ENDBRANCH   4   5
ENDBRANCH   3   4
ENDBRANCH   2   3
ENDBRANCH   1   2
BRANCH   1   8
ATOM      8  C   UNL     1       2.208   6.146  -9.376  1.00  0.00     0.000 C 
BRANCH   8   9
ATOM      9  C   UNL     1       3.606   6.743  -9.568  1.00  0.00     0.000 C 
BRANCH   9  10
ATOM     10  C   UNL     1       3.974   7.671  -8.401  1.00  0.00     0.006 C 
BRANCH  10  11
ATOM     11  C   UNL     1       5.270   7.240  -7.701  1.00  0.00     0.053 C 
BRANCH  11  12
ATOM     12  C   UNL     1       6.026   8.413  -7.158  1.00  0.00     0.041 C 
ATOM     13  O   UNL     1       5.814   9.569  -7.610  1.00  0.00    -0.550 OA
ATOM     14  O   UNL     1       6.992   8.225  -6.177  1.00  0.00    -0.550 OA
ENDBRANCH  11  12
ENDBRANCH  10  11
ENDBRANCH   9  10
ENDBRANCH   8   9
ENDBRANCH   1   8
TORSDOF 9
ENDMDL
