MODEL 1
REMARK VINA RESULT:    -3.086      0.000      0.000
REMARK INTER + INTRA:          -3.520
REMARK INTER:                  -4.348
REMARK INTRA:                   0.828
REMARK UNBOUND:                 0.828
REMARK SMILES CC1=CCC(=C(C)C)C(=O)CC(C)=CCC1
REMARK SMILES IDX 12 1 14 2 13 3 15 4 16 5 2 6 1 7 3 8 11 10 9 11 10 12 5 13
REMARK SMILES IDX 6 14 7 15 8 16 4 17
REMARK H PARENT
REMARK Flexibility Score: 60.00
ROOT
ATOM      1  C   UNL     1       6.813 -35.643  16.631  1.00  0.00    -0.070 C 
ATOM      2  C   UNL     1       6.787 -36.881  16.083  1.00  0.00    -0.027 C 
ATOM      3  C   UNL     1       7.876 -35.361  17.664  1.00  0.00     0.039 C 
ENDROOT
BRANCH   2   4
ATOM      4  C   UNL     1       5.884 -37.345  14.966  1.00  0.00     0.032 C 
BRANCH   4   5
ATOM      5  C   UNL     1       5.992 -36.459  13.710  1.00  0.00     0.034 C 
BRANCH   5   6
ATOM      6  C   UNL     1       7.432 -36.207  13.309  1.00  0.00    -0.077 C 
ATOM      7  C   UNL     1       8.313 -37.395  13.021  1.00  0.00     0.039 C 
ATOM      8  C   UNL     1       7.982 -34.976  13.220  1.00  0.00    -0.023 CG0
ATOM      9  G   UNL     1       7.275 -33.671  13.503  1.00  0.00     0.000 G0
ENDBRANCH   5   6
ENDBRANCH   4   5
ENDBRANCH   2   4
BRANCH   1  10
ATOM     10  C   UNL     1       5.880 -34.516  16.217  1.00  0.00     0.111 C 
BRANCH  10  11
ATOM     11  C   UNL     1       6.637 -33.237  15.953  1.00  0.00     0.163 C 
ATOM     12  O   UNL     1       6.347 -32.223  16.644  1.00  0.00    -0.294 OA
BRANCH  11  13
ATOM     13  C   UNL     1       7.667 -33.136  14.873  1.00  0.00    -0.002 C 
ATOM     14  C   UNL     1       8.921 -32.649  15.118  1.00  0.00    -0.069 C 
ATOM     15  C   UNL     1       9.359 -32.255  16.512  1.00  0.00     0.039 C 
ATOM     16  C   UNL     1       9.945 -32.514  14.012  1.00  0.00     0.039 C 
BRANCH  13  17
ATOM     17  C   UNL     1       7.286 -33.668  13.503  1.00  0.00     0.066 CG0
ATOM     18  G   UNL     1       7.986 -34.981  13.250  1.00  0.00     0.000 G0
ENDBRANCH  13  17
ENDBRANCH  11  13
ENDBRANCH  10  11
ENDBRANCH   1  10
TORSDOF 0
ENDMDL
MODEL 2
REMARK VINA RESULT:    -3.054      1.391      3.851
REMARK INTER + INTRA:          -3.476
REMARK INTER:                  -4.318
REMARK INTRA:                   0.841
REMARK UNBOUND:                 0.828
REMARK SMILES CC1=CCC(=C(C)C)C(=O)CC(C)=CCC1
REMARK SMILES IDX 12 1 14 2 13 3 15 4 16 5 2 6 1 7 3 8 11 10 9 11 10 12 5 13
REMARK SMILES IDX 6 14 7 15 8 16 4 17
REMARK H PARENT
REMARK Flexibility Score: 60.00
ROOT
ATOM      1  C   UNL     1       8.374 -33.064  16.968  1.00  0.00    -0.070 C 
ATOM      2  C   UNL     1       9.111 -32.187  16.246  1.00  0.00    -0.027 C 
ATOM      3  C   UNL     1       7.575 -32.516  18.125  1.00  0.00     0.039 C 
ENDROOT
BRANCH   2   4
ATOM      4  C   UNL     1       9.895 -32.496  14.994  1.00  0.00     0.032 C 
BRANCH   4   5
ATOM      5  C   UNL     1       8.998 -32.962  13.832  1.00  0.00     0.034 C 
BRANCH   5   6
ATOM      6  C   UNL     1       9.370 -34.348  13.341  1.00  0.00    -0.077 C 
ATOM      7  C   UNL     1      10.802 -34.609  12.952  1.00  0.00     0.039 C 
ATOM      8  C   UNL     1       8.483 -35.359  13.206  1.00  0.00    -0.023 CG0
ATOM      9  G   UNL     1       7.005 -35.284  13.509  1.00  0.00     0.000 G0
ENDBRANCH   5   6
ENDBRANCH   4   5
ENDBRANCH   2   4
BRANCH   1  10
ATOM     10  C   UNL     1       8.258 -34.543  16.636  1.00  0.00     0.111 C 
BRANCH  10  11
ATOM     11  C   UNL     1       6.910 -34.875  16.042  1.00  0.00     0.163 C 
ATOM     12  O   UNL     1       5.888 -34.350  16.560  1.00  0.00    -0.294 OA
BRANCH  11  13
ATOM     13  C   UNL     1       6.762 -35.838  14.907  1.00  0.00    -0.002 C 
ATOM     14  C   UNL     1       6.354 -37.128  15.107  1.00  0.00    -0.069 C 
ATOM     15  C   UNL     1       5.958 -37.630  16.478  1.00  0.00     0.039 C 
ATOM     16  C   UNL     1       6.243 -38.107  13.958  1.00  0.00     0.039 C 
BRANCH  13  17
ATOM     17  C   UNL     1       7.014 -35.302  13.509  1.00  0.00     0.066 CG0
ATOM     18  G   UNL     1       8.491 -35.356  13.198  1.00  0.00     0.000 G0
ENDBRANCH  13  17
ENDBRANCH  11  13
ENDBRANCH  10  11
ENDBRANCH   1  10
TORSDOF 0
ENDMDL
MODEL 3
REMARK VINA RESULT:    -2.993      1.687      3.035
REMARK INTER + INTRA:          -3.389
REMARK INTER:                  -4.378
REMARK INTRA:                   0.989
REMARK UNBOUND:                 0.828
REMARK SMILES CC1=CCC(=C(C)C)C(=O)CC(C)=CCC1
REMARK SMILES IDX 12 1 14 2 13 3 15 4 16 5 2 6 1 7 3 8 11 10 9 11 10 12 5 13
REMARK SMILES IDX 6 14 7 15 8 16 4 17
REMARK H PARENT
REMARK Flexibility Score: 60.00
ROOT
ATOM      1  C   UNL     1       8.867 -35.694  13.410  1.00  0.00    -0.070 C 
ATOM      2  C   UNL     1       8.548 -36.990  13.642  1.00  0.00    -0.027 C 
ATOM      3  C   UNL     1      10.302 -35.281  13.627  1.00  0.00     0.039 C 
ENDROOT
BRANCH   2   4
ATOM      4  C   UNL     1       7.208 -37.639  13.391  1.00  0.00     0.032 C 
BRANCH   4   5
ATOM      5  C   UNL     1       6.031 -36.783  13.895  1.00  0.00     0.034 C 
BRANCH   5   6
ATOM      6  C   UNL     1       6.052 -36.611  15.402  1.00  0.00    -0.077 C 
ATOM      7  C   UNL     1       6.102 -37.846  16.262  1.00  0.00     0.039 C 
ATOM      8  C   UNL     1       6.000 -35.410  16.020  1.00  0.00    -0.023 CG0
ATOM      9  G   UNL     1       5.910 -34.067  15.336  1.00  0.00     0.000 G0
ENDBRANCH   5   6
ENDBRANCH   4   5
ENDBRANCH   2   4
BRANCH   1  10
ATOM     10  C   UNL     1       7.881 -34.663  12.886  1.00  0.00     0.111 C 
BRANCH  10  11
ATOM     11  C   UNL     1       7.852 -33.430  13.756  1.00  0.00     0.163 C 
ATOM     12  O   UNL     1       8.359 -32.370  13.301  1.00  0.00    -0.294 OA
BRANCH  11  13
ATOM     13  C   UNL     1       7.291 -33.454  15.143  1.00  0.00    -0.002 C 
ATOM     14  C   UNL     1       7.957 -32.894  16.198  1.00  0.00    -0.069 C 
ATOM     15  C   UNL     1       9.262 -32.153  16.008  1.00  0.00     0.039 C 
ATOM     16  C   UNL     1       7.400 -32.957  17.604  1.00  0.00     0.039 C 
BRANCH  13  17
ATOM     17  C   UNL     1       5.912 -34.065  15.320  1.00  0.00     0.066 CG0
ATOM     18  G   UNL     1       6.028 -35.397  16.023  1.00  0.00     0.000 G0
ENDBRANCH  13  17
ENDBRANCH  11  13
ENDBRANCH  10  11
ENDBRANCH   1  10
TORSDOF 0
ENDMDL
MODEL 4
REMARK VINA RESULT:    -2.652      1.769      3.642
REMARK INTER + INTRA:          -2.910
REMARK INTER:                  -4.208
REMARK INTRA:                   1.298
REMARK UNBOUND:                 0.828
REMARK SMILES CC1=CCC(=C(C)C)C(=O)CC(C)=CCC1
REMARK SMILES IDX 12 1 14 2 13 3 15 4 16 5 2 6 1 7 3 8 11 10 9 11 10 12 5 13
REMARK SMILES IDX 6 14 7 15 8 16 4 17
REMARK H PARENT
REMARK Flexibility Score: 60.00
ROOT
ATOM      1  C   UNL     1       6.508 -35.961  16.184  1.00  0.00    -0.070 C 
ATOM      2  C   UNL     1       7.091 -35.315  17.223  1.00  0.00    -0.027 C 
ATOM      3  C   UNL     1       6.366 -37.459  16.289  1.00  0.00     0.039 C 
ENDROOT
BRANCH   2   4
ATOM      4  C   UNL     1       7.240 -33.820  17.375  1.00  0.00     0.032 C 
BRANCH   4   5
ATOM      5  C   UNL     1       7.215 -33.081  16.024  1.00  0.00     0.034 C 
BRANCH   5   6
ATOM      6  C   UNL     1       8.609 -32.771  15.515  1.00  0.00    -0.077 C 
ATOM      7  C   UNL     1       9.582 -32.107  16.454  1.00  0.00     0.039 C 
ATOM      8  C   UNL     1       9.023 -33.031  14.255  1.00  0.00    -0.023 CG0
ATOM      9  G   UNL     1       8.188 -33.655  13.162  1.00  0.00     0.000 G0
ENDBRANCH   5   6
ENDBRANCH   4   5
ENDBRANCH   2   4
BRANCH   1  10
ATOM     10  C   UNL     1       5.939 -35.256  14.964  1.00  0.00     0.111 C 
BRANCH  10  11
ATOM     11  C   UNL     1       6.661 -35.661  13.702  1.00  0.00     0.163 C 
ATOM     12  O   UNL     1       6.090 -36.477  12.928  1.00  0.00    -0.294 OA
BRANCH  11  13
ATOM     13  C   UNL     1       8.036 -35.165  13.383  1.00  0.00    -0.002 C 
ATOM     14  C   UNL     1       9.095 -36.019  13.251  1.00  0.00    -0.069 C 
ATOM     15  C   UNL     1       8.921 -37.519  13.345  1.00  0.00     0.039 C 
ATOM     16  C   UNL     1      10.490 -35.506  12.966  1.00  0.00     0.039 C 
BRANCH  13  17
ATOM     17  C   UNL     1       8.193 -33.675  13.138  1.00  0.00     0.066 CG0
ATOM     18  G   UNL     1       9.013 -33.058  14.246  1.00  0.00     0.000 G0
ENDBRANCH  13  17
ENDBRANCH  11  13
ENDBRANCH  10  11
ENDBRANCH   1  10
TORSDOF 0
ENDMDL
MODEL 5
REMARK VINA RESULT:    -2.258      1.622      2.488
REMARK INTER + INTRA:          -2.354
REMARK INTER:                  -4.231
REMARK INTRA:                   1.877
REMARK UNBOUND:                 0.828
REMARK SMILES CC1=CCC(=C(C)C)C(=O)CC(C)=CCC1
REMARK SMILES IDX 12 1 14 2 13 3 15 4 16 5 2 6 1 7 3 8 11 10 9 11 10 12 5 13
REMARK SMILES IDX 6 14 7 15 8 16 4 17
REMARK H PARENT
REMARK Flexibility Score: 60.00
ROOT
ATOM      1  C   UNL     1       6.318 -34.844  15.881  1.00  0.00    -0.070 C 
ATOM      2  C   UNL     1       6.281 -35.143  14.560  1.00  0.00    -0.027 C 
ATOM      3  C   UNL     1       6.365 -35.996  16.855  1.00  0.00     0.039 C 
ENDROOT
BRANCH   2   4
ATOM      4  C   UNL     1       6.336 -34.158  13.418  1.00  0.00     0.032 C 
BRANCH   4   5
ATOM      5  C   UNL     1       7.766 -33.948  12.885  1.00  0.00     0.034 C 
BRANCH   5   6
ATOM      6  C   UNL     1       8.814 -34.546  13.803  1.00  0.00    -0.077 C 
ATOM      7  C   UNL     1       9.232 -35.976  13.577  1.00  0.00     0.039 C 
ATOM      8  C   UNL     1       9.377 -33.878  14.834  1.00  0.00    -0.023 CG0
ATOM      9  G   UNL     1       9.066 -32.458  15.242  1.00  0.00     0.000 G0
ENDBRANCH   5   6
ENDBRANCH   4   5
ENDBRANCH   2   4
BRANCH   1  10
ATOM     10  C   UNL     1       6.381 -33.426  16.423  1.00  0.00     0.111 C 
BRANCH  10  11
ATOM     11  C   UNL     1       7.634 -33.195  17.232  1.00  0.00     0.163 C 
ATOM     12  O   UNL     1       7.690 -33.687  18.392  1.00  0.00    -0.294 OA
BRANCH  11  13
ATOM     13  C   UNL     1       8.767 -32.366  16.716  1.00  0.00    -0.002 C 
ATOM     14  C   UNL     1       9.542 -31.609  17.550  1.00  0.00    -0.069 C 
ATOM     15  C   UNL     1       9.344 -31.627  19.050  1.00  0.00     0.039 C 
ATOM     16  C   UNL     1      10.663 -30.743  17.016  1.00  0.00     0.039 C 
BRANCH  13  17
ATOM     17  C   UNL     1       9.069 -32.457  15.231  1.00  0.00     0.066 CG0
ATOM     18  G   UNL     1       9.378 -33.887  14.857  1.00  0.00     0.000 G0
ENDBRANCH  13  17
ENDBRANCH  11  13
ENDBRANCH  10  11
ENDBRANCH   1  10
TORSDOF 0
ENDMDL
MODEL 6
REMARK VINA RESULT:    -1.979      1.743      3.947
REMARK INTER + INTRA:          -1.961
REMARK INTER:                  -3.806
REMARK INTRA:                   1.845
REMARK UNBOUND:                 0.828
REMARK SMILES CC1=CCC(=C(C)C)C(=O)CC(C)=CCC1
REMARK SMILES IDX 12 1 14 2 13 3 15 4 16 5 2 6 1 7 3 8 11 10 9 11 10 12 5 13
REMARK SMILES IDX 6 14 7 15 8 16 4 17
REMARK H PARENT
REMARK Flexibility Score: 60.00
ROOT
ATOM      1  C   UNL     1       8.593 -32.134  17.792  1.00  0.00    -0.070 C 
ATOM      2  C   UNL     1       9.296 -32.146  16.634  1.00  0.00    -0.027 C 
ATOM      3  C   UNL     1       9.231 -31.468  18.986  1.00  0.00     0.039 C 
ENDROOT
BRANCH   2   4
ATOM      4  C   UNL     1       8.811 -32.660  15.300  1.00  0.00     0.032 C 
BRANCH   4   5
ATOM      5  C   UNL     1       8.951 -34.188  15.167  1.00  0.00     0.034 C 
BRANCH   5   6
ATOM      6  C   UNL     1       7.898 -34.783  14.252  1.00  0.00    -0.077 C 
ATOM      7  C   UNL     1       8.318 -35.232  12.876  1.00  0.00     0.039 C 
ATOM      8  C   UNL     1       6.595 -34.908  14.588  1.00  0.00    -0.023 CG0
ATOM      9  G   UNL     1       5.977 -34.485  15.900  1.00  0.00     0.000 G0
ENDBRANCH   5   6
ENDBRANCH   4   5
ENDBRANCH   2   4
BRANCH   1  10
ATOM     10  C   UNL     1       7.185 -32.690  17.931  1.00  0.00     0.111 C 
BRANCH  10  11
ATOM     11  C   UNL     1       7.196 -34.187  18.120  1.00  0.00     0.163 C 
ATOM     12  O   UNL     1       7.741 -34.650  19.158  1.00  0.00    -0.294 OA
BRANCH  11  13
ATOM     13  C   UNL     1       6.630 -35.117  17.094  1.00  0.00    -0.002 C 
ATOM     14  C   UNL     1       6.685 -36.475  17.247  1.00  0.00    -0.069 C 
ATOM     15  C   UNL     1       7.254 -37.110  18.497  1.00  0.00     0.039 C 
ATOM     16  C   UNL     1       6.144 -37.410  16.187  1.00  0.00     0.039 C 
BRANCH  13  17
ATOM     17  C   UNL     1       5.923 -34.489  15.907  1.00  0.00     0.066 CG0
ATOM     18  G   UNL     1       6.593 -34.923  14.624  1.00  0.00     0.000 G0
ENDBRANCH  13  17
ENDBRANCH  11  13
ENDBRANCH  10  11
ENDBRANCH   1  10
TORSDOF 0
ENDMDL
MODEL 7
REMARK VINA RESULT:    -1.933      2.157      3.535
REMARK INTER + INTRA:          -1.897
REMARK INTER:                  -3.869
REMARK INTRA:                   1.972
REMARK UNBOUND:                 0.828
REMARK SMILES CC1=CCC(=C(C)C)C(=O)CC(C)=CCC1
REMARK SMILES IDX 12 1 14 2 13 3 15 4 16 5 2 6 1 7 3 8 11 10 9 11 10 12 5 13
REMARK SMILES IDX 6 14 7 15 8 16 4 17
REMARK H PARENT
REMARK Flexibility Score: 60.00
ROOT
ATOM      1  C   UNL     1       8.545 -35.190  14.568  1.00  0.00    -0.070 C 
ATOM      2  C   UNL     1       7.748 -36.261  14.798  1.00  0.00    -0.027 C 
ATOM      3  C   UNL     1       9.994 -35.457  14.244  1.00  0.00     0.039 C 
ENDROOT
BRANCH   2   4
ATOM      4  C   UNL     1       6.258 -36.232  15.034  1.00  0.00     0.032 C 
BRANCH   4   5
ATOM      5  C   UNL     1       5.878 -35.501  16.336  1.00  0.00     0.034 C 
BRANCH   5   6
ATOM      6  C   UNL     1       6.971 -35.592  17.384  1.00  0.00    -0.077 C 
ATOM      7  C   UNL     1       7.286 -36.943  17.974  1.00  0.00     0.039 C 
ATOM      8  C   UNL     1       7.662 -34.525  17.841  1.00  0.00    -0.023 CG0
ATOM      9  G   UNL     1       7.468 -33.093  17.403  1.00  0.00     0.000 G0
ENDBRANCH   5   6
ENDBRANCH   4   5
ENDBRANCH   2   4
BRANCH   1  10
ATOM     10  C   UNL     1       8.045 -33.754  14.554  1.00  0.00     0.111 C 
BRANCH  10  11
ATOM     11  C   UNL     1       8.962 -32.840  15.329  1.00  0.00     0.163 C 
ATOM     12  O   UNL     1       9.977 -32.378  14.740  1.00  0.00    -0.294 OA
BRANCH  11  13
ATOM     13  C   UNL     1       8.725 -32.519  16.771  1.00  0.00    -0.002 C 
ATOM     14  C   UNL     1       9.570 -31.707  17.476  1.00  0.00    -0.069 C 
ATOM     15  C   UNL     1      10.750 -31.028  16.816  1.00  0.00     0.039 C 
ATOM     16  C   UNL     1       9.344 -31.418  18.944  1.00  0.00     0.039 C 
BRANCH  13  17
ATOM     17  C   UNL     1       7.462 -33.075  17.404  1.00  0.00     0.066 CG0
ATOM     18  G   UNL     1       7.680 -34.516  17.802  1.00  0.00     0.000 G0
ENDBRANCH  13  17
ENDBRANCH  11  13
ENDBRANCH  10  11
ENDBRANCH   1  10
TORSDOF 0
ENDMDL
MODEL 8
REMARK VINA RESULT:    -1.498      1.709      3.559
REMARK INTER + INTRA:          -1.283
REMARK INTER:                  -3.020
REMARK INTRA:                   1.736
REMARK UNBOUND:                 0.828
REMARK SMILES CC1=CCC(=C(C)C)C(=O)CC(C)=CCC1
REMARK SMILES IDX 12 1 14 2 13 3 15 4 16 5 2 6 1 7 3 8 11 10 9 11 10 12 5 13
REMARK SMILES IDX 6 14 7 15 8 16 4 17
REMARK H PARENT
REMARK Flexibility Score: 60.00
ROOT
ATOM      1  C   UNL     1       8.463 -32.591  17.106  1.00  0.00    -0.070 C 
ATOM      2  C   UNL     1       7.149 -32.721  17.405  1.00  0.00    -0.027 C 
ATOM      3  C   UNL     1       9.168 -31.347  17.589  1.00  0.00     0.039 C 
ENDROOT
BRANCH   2   4
ATOM      4  C   UNL     1       6.280 -33.922  17.115  1.00  0.00     0.032 C 
BRANCH   4   5
ATOM      5  C   UNL     1       6.999 -35.255  17.396  1.00  0.00     0.034 C 
BRANCH   5   6
ATOM      6  C   UNL     1       6.545 -36.359  16.460  1.00  0.00    -0.077 C 
ATOM      7  C   UNL     1       6.191 -37.698  17.052  1.00  0.00     0.039 C 
ATOM      8  C   UNL     1       6.464 -36.219  15.118  1.00  0.00    -0.023 CG0
ATOM      9  G   UNL     1       6.808 -34.972  14.338  1.00  0.00     0.000 G0
ENDBRANCH   5   6
ENDBRANCH   4   5
ENDBRANCH   2   4
BRANCH   1  10
ATOM     10  C   UNL     1       9.271 -33.651  16.375  1.00  0.00     0.111 C 
BRANCH  10  11
ATOM     11  C   UNL     1       8.968 -33.659  14.896  1.00  0.00     0.163 C 
ATOM     12  O   UNL     1       9.223 -32.619  14.232  1.00  0.00    -0.294 OA
BRANCH  11  13
ATOM     13  C   UNL     1       8.333 -34.836  14.226  1.00  0.00    -0.002 C 
ATOM     14  C   UNL     1       9.079 -35.796  13.600  1.00  0.00    -0.069 C 
ATOM     15  C   UNL     1      10.591 -35.760  13.616  1.00  0.00     0.039 C 
ATOM     16  C   UNL     1       8.427 -36.964  12.891  1.00  0.00     0.039 C 
BRANCH  13  17
ATOM     17  C   UNL     1       6.824 -34.961  14.332  1.00  0.00     0.066 CG0
ATOM     18  G   UNL     1       6.465 -36.214  15.095  1.00  0.00     0.000 G0
ENDBRANCH  13  17
ENDBRANCH  11  13
ENDBRANCH  10  11
ENDBRANCH   1  10
TORSDOF 0
ENDMDL
MODEL 9
REMARK VINA RESULT:    -1.012      1.727      3.515
REMARK INTER + INTRA:          -0.598
REMARK INTER:                  -2.757
REMARK INTRA:                   2.159
REMARK UNBOUND:                 0.828
REMARK SMILES CC1=CCC(=C(C)C)C(=O)CC(C)=CCC1
REMARK SMILES IDX 12 1 14 2 13 3 15 4 16 5 2 6 1 7 3 8 11 10 9 11 10 12 5 13
REMARK SMILES IDX 6 14 7 15 8 16 4 17
REMARK H PARENT
REMARK Flexibility Score: 60.00
ROOT
ATOM      1  C   UNL     1       8.522 -33.463  13.437  1.00  0.00    -0.070 C 
ATOM      2  C   UNL     1       8.428 -34.692  12.875  1.00  0.00    -0.027 C 
ATOM      3  C   UNL     1       7.392 -32.494  13.187  1.00  0.00     0.039 C 
ENDROOT
BRANCH   2   4
ATOM      4  C   UNL     1       9.383 -35.843  13.078  1.00  0.00     0.032 C 
BRANCH   4   5
ATOM      5  C   UNL     1       8.690 -37.095  13.646  1.00  0.00     0.034 C 
BRANCH   5   6
ATOM      6  C   UNL     1       7.462 -36.749  14.466  1.00  0.00    -0.077 C 
ATOM      7  C   UNL     1       6.126 -37.277  14.011  1.00  0.00     0.039 C 
ATOM      8  C   UNL     1       7.491 -35.968  15.569  1.00  0.00    -0.023 CG0
ATOM      9  G   UNL     1       8.721 -35.319  16.159  1.00  0.00     0.000 G0
ENDBRANCH   5   6
ENDBRANCH   4   5
ENDBRANCH   2   4
BRANCH   1  10
ATOM     10  C   UNL     1       9.661 -33.036  14.349  1.00  0.00     0.111 C 
BRANCH  10  11
ATOM     11  C   UNL     1       9.187 -32.822  15.766  1.00  0.00     0.163 C 
ATOM     12  O   UNL     1       9.487 -31.738  16.335  1.00  0.00    -0.294 OA
BRANCH  11  13
ATOM     13  C   UNL     1       8.429 -33.874  16.513  1.00  0.00    -0.002 C 
ATOM     14  C   UNL     1       7.462 -33.551  17.425  1.00  0.00    -0.069 C 
ATOM     15  C   UNL     1       7.053 -32.115  17.672  1.00  0.00     0.039 C 
ATOM     16  C   UNL     1       6.726 -34.619  18.204  1.00  0.00     0.039 C 
BRANCH  13  17
ATOM     17  C   UNL     1       8.727 -35.320  16.164  1.00  0.00     0.066 CG0
ATOM     18  G   UNL     1       7.497 -35.968  15.572  1.00  0.00     0.000 G0
ENDBRANCH  13  17
ENDBRANCH  11  13
ENDBRANCH  10  11
ENDBRANCH   1  10
TORSDOF 0
ENDMDL
