MODEL 1
REMARK VINA RESULT:    -3.173      0.000      0.000
REMARK INTER + INTRA:          -3.800
REMARK INTER:                  -4.472
REMARK INTRA:                   0.672
REMARK UNBOUND:                 0.672
REMARK SMILES CC1=CCC(=C(C)C)C(=O)CC(C)=CCC1
REMARK SMILES IDX 12 1 14 2 13 3 15 4 16 5 2 6 1 7 3 8 11 10 9 11 10 12 5 13
REMARK SMILES IDX 6 14 7 15 8 16 4 17
REMARK H PARENT
REMARK Flexibility Score: 60.00
ROOT
ATOM      1  C   UNL     1     190.565 189.478 240.646  1.00  0.00    -0.070 C 
ATOM      2  C   UNL     1     191.057 188.272 241.018  1.00  0.00    -0.027 C 
ATOM      3  C   UNL     1     189.076 189.689 240.767  1.00  0.00     0.039 C 
ENDROOT
BRANCH   2   4
ATOM      4  C   UNL     1     192.514 187.882 241.080  1.00  0.00     0.032 C 
BRANCH   4   5
ATOM      5  C   UNL     1     192.876 186.783 240.063  1.00  0.00     0.034 C 
BRANCH   5   6
ATOM      6  C   UNL     1     192.193 186.993 238.725  1.00  0.00    -0.077 C 
ATOM      7  C   UNL     1     191.142 186.000 238.295  1.00  0.00     0.039 C 
ATOM      8  C   UNL     1     192.489 188.007 237.882  1.00  0.00    -0.023 CG0
ATOM      9  G   UNL     1     193.530 189.075 238.117  1.00  0.00     0.000 G0
ENDBRANCH   5   6
ENDBRANCH   4   5
ENDBRANCH   2   4
BRANCH   1  10
ATOM     10  C   UNL     1     191.431 190.638 240.182  1.00  0.00     0.111 C 
BRANCH  10  11
ATOM     11  C   UNL     1     191.578 190.653 238.681  1.00  0.00     0.163 C 
ATOM     12  O   UNL     1     190.537 190.798 237.984  1.00  0.00    -0.294 OA
BRANCH  11  13
ATOM     13  C   UNL     1     192.902 190.453 238.012  1.00  0.00    -0.002 C 
ATOM     14  C   UNL     1     193.554 191.479 237.387  1.00  0.00    -0.069 C 
ATOM     15  C   UNL     1     193.010 192.890 237.400  1.00  0.00     0.039 C 
ATOM     16  C   UNL     1     194.874 191.259 236.679  1.00  0.00     0.039 C 
BRANCH  13  17
ATOM     17  C   UNL     1     193.528 189.075 238.122  1.00  0.00     0.066 CG0
ATOM     18  G   UNL     1     192.478 188.015 237.890  1.00  0.00     0.000 G0
ENDBRANCH  13  17
ENDBRANCH  11  13
ENDBRANCH  10  11
ENDBRANCH   1  10
TORSDOF 0
ENDMDL
MODEL 2
REMARK VINA RESULT:    -2.929     14.453     15.556
REMARK INTER + INTRA:          -3.456
REMARK INTER:                  -4.089
REMARK INTRA:                   0.633
REMARK UNBOUND:                 0.672
REMARK SMILES CC1=CCC(=C(C)C)C(=O)CC(C)=CCC1
REMARK SMILES IDX 12 1 14 2 13 3 15 4 16 5 2 6 1 7 3 8 11 10 9 11 10 12 5 13
REMARK SMILES IDX 6 14 7 15 8 16 4 17
REMARK H PARENT
REMARK Flexibility Score: 60.00
ROOT
ATOM      1  C   UNL     1     187.255 189.880 225.319  1.00  0.00    -0.070 C 
ATOM      2  C   UNL     1     186.800 190.303 224.116  1.00  0.00    -0.027 C 
ATOM      3  C   UNL     1     188.251 188.746 225.326  1.00  0.00     0.039 C 
ENDROOT
BRANCH   2   4
ATOM      4  C   UNL     1     185.889 191.481 223.869  1.00  0.00     0.032 C 
BRANCH   4   5
ATOM      5  C   UNL     1     184.635 191.100 223.059  1.00  0.00     0.034 C 
BRANCH   5   6
ATOM      6  C   UNL     1     183.766 190.094 223.789  1.00  0.00    -0.077 C 
ATOM      7  C   UNL     1     183.297 188.874 223.036  1.00  0.00     0.039 C 
ATOM      8  C   UNL     1     183.364 190.240 225.071  1.00  0.00    -0.023 CG0
ATOM      9  G   UNL     1     183.697 191.403 225.974  1.00  0.00     0.000 G0
ENDBRANCH   5   6
ENDBRANCH   4   5
ENDBRANCH   2   4
BRANCH   1  10
ATOM     10  C   UNL     1     186.870 190.522 226.642  1.00  0.00     0.111 C 
BRANCH  10  11
ATOM     11  C   UNL     1     185.533 190.024 227.131  1.00  0.00     0.163 C 
ATOM     12  O   UNL     1     185.415 188.796 227.389  1.00  0.00    -0.294 OA
BRANCH  11  13
ATOM     13  C   UNL     1     184.350 190.931 227.266  1.00  0.00    -0.002 C 
ATOM     14  C   UNL     1     183.912 191.366 228.486  1.00  0.00    -0.069 C 
ATOM     15  C   UNL     1     184.643 191.014 229.762  1.00  0.00     0.039 C 
ATOM     16  C   UNL     1     182.692 192.252 228.615  1.00  0.00     0.039 C 
BRANCH  13  17
ATOM     17  C   UNL     1     183.700 191.411 225.981  1.00  0.00     0.066 CG0
ATOM     18  G   UNL     1     183.390 190.231 225.091  1.00  0.00     0.000 G0
ENDBRANCH  13  17
ENDBRANCH  11  13
ENDBRANCH  10  11
ENDBRANCH   1  10
TORSDOF 0
ENDMDL
MODEL 3
REMARK VINA RESULT:    -2.833     13.917     16.478
REMARK INTER + INTRA:          -3.321
REMARK INTER:                  -3.688
REMARK INTRA:                   0.367
REMARK UNBOUND:                 0.672
REMARK SMILES CC1=CCC(=C(C)C)C(=O)CC(C)=CCC1
REMARK SMILES IDX 12 1 14 2 13 3 15 4 16 5 2 6 1 7 3 8 11 10 9 11 10 12 5 13
REMARK SMILES IDX 6 14 7 15 8 16 4 17
REMARK H PARENT
REMARK Flexibility Score: 60.00
ROOT
ATOM      1  C   UNL     1     180.995 181.767 237.408  1.00  0.00    -0.070 C 
ATOM      2  C   UNL     1     179.936 182.606 237.506  1.00  0.00    -0.027 C 
ATOM      3  C   UNL     1     182.373 182.379 237.468  1.00  0.00     0.039 C 
ENDROOT
BRANCH   2   4
ATOM      4  C   UNL     1     178.482 182.206 237.577  1.00  0.00     0.032 C 
BRANCH   4   5
ATOM      5  C   UNL     1     177.904 181.829 236.199  1.00  0.00     0.034 C 
BRANCH   5   6
ATOM      6  C   UNL     1     177.288 180.444 236.195  1.00  0.00    -0.077 C 
ATOM      7  C   UNL     1     176.093 180.190 237.080  1.00  0.00     0.039 C 
ATOM      8  C   UNL     1     177.764 179.412 235.463  1.00  0.00    -0.023 CG0
ATOM      9  G   UNL     1     178.965 179.459 234.550  1.00  0.00     0.000 G0
ENDBRANCH   5   6
ENDBRANCH   4   5
ENDBRANCH   2   4
BRANCH   1  10
ATOM     10  C   UNL     1     180.870 180.256 237.308  1.00  0.00     0.111 C 
BRANCH  10  11
ATOM     11  C   UNL     1     181.124 179.771 235.903  1.00  0.00     0.163 C 
ATOM     12  O   UNL     1     182.145 180.202 235.302  1.00  0.00    -0.294 OA
BRANCH  11  13
ATOM     13  C   UNL     1     180.181 178.845 235.201  1.00  0.00    -0.002 C 
ATOM     14  C   UNL     1     180.368 177.490 235.204  1.00  0.00    -0.069 C 
ATOM     15  C   UNL     1     181.496 176.847 235.979  1.00  0.00     0.039 C 
ATOM     16  C   UNL     1     179.431 176.564 234.459  1.00  0.00     0.039 C 
BRANCH  13  17
ATOM     17  C   UNL     1     178.962 179.469 234.546  1.00  0.00     0.066 CG0
ATOM     18  G   UNL     1     177.783 179.399 235.486  1.00  0.00     0.000 G0
ENDBRANCH  13  17
ENDBRANCH  11  13
ENDBRANCH  10  11
ENDBRANCH   1  10
TORSDOF 0
ENDMDL
MODEL 4
REMARK VINA RESULT:    -2.801     14.996     15.960
REMARK INTER + INTRA:          -3.275
REMARK INTER:                  -3.930
REMARK INTRA:                   0.655
REMARK UNBOUND:                 0.672
REMARK SMILES CC1=CCC(=C(C)C)C(=O)CC(C)=CCC1
REMARK SMILES IDX 12 1 14 2 13 3 15 4 16 5 2 6 1 7 3 8 11 10 9 11 10 12 5 13
REMARK SMILES IDX 6 14 7 15 8 16 4 17
REMARK H PARENT
REMARK Flexibility Score: 60.00
ROOT
ATOM      1  C   UNL     1     187.724 181.714 225.703  1.00  0.00    -0.070 C 
ATOM      2  C   UNL     1     186.616 182.004 224.980  1.00  0.00    -0.027 C 
ATOM      3  C   UNL     1     187.521 181.135 227.081  1.00  0.00     0.039 C 
ENDROOT
BRANCH   2   4
ATOM      4  C   UNL     1     186.583 182.487 223.549  1.00  0.00     0.032 C 
BRANCH   4   5
ATOM      5  C   UNL     1     186.026 183.917 223.420  1.00  0.00     0.034 C 
BRANCH   5   6
ATOM      6  C   UNL     1     186.538 184.832 224.516  1.00  0.00    -0.077 C 
ATOM      7  C   UNL     1     185.559 185.324 225.553  1.00  0.00     0.039 C 
ATOM      8  C   UNL     1     187.818 185.256 224.603  1.00  0.00    -0.023 CG0
ATOM      9  G   UNL     1     188.931 184.905 223.645  1.00  0.00     0.000 G0
ENDBRANCH   5   6
ENDBRANCH   4   5
ENDBRANCH   2   4
BRANCH   1  10
ATOM     10  C   UNL     1     189.141 181.877 225.180  1.00  0.00     0.111 C 
BRANCH  10  11
ATOM     11  C   UNL     1     189.684 183.254 225.471  1.00  0.00     0.163 C 
ATOM     12  O   UNL     1     189.772 183.614 226.676  1.00  0.00    -0.294 OA
BRANCH  11  13
ATOM     13  C   UNL     1     190.066 184.203 224.378  1.00  0.00    -0.002 C 
ATOM     14  C   UNL     1     191.368 184.380 224.002  1.00  0.00    -0.069 C 
ATOM     15  C   UNL     1     192.488 183.572 224.617  1.00  0.00     0.039 C 
ATOM     16  C   UNL     1     191.749 185.371 222.922  1.00  0.00     0.039 C 
BRANCH  13  17
ATOM     17  C   UNL     1     188.934 184.908 223.652  1.00  0.00     0.066 CG0
ATOM     18  G   UNL     1     187.834 185.250 224.627  1.00  0.00     0.000 G0
ENDBRANCH  13  17
ENDBRANCH  11  13
ENDBRANCH  10  11
ENDBRANCH   1  10
TORSDOF 0
ENDMDL
MODEL 5
REMARK VINA RESULT:    -2.789     14.882     16.073
REMARK INTER + INTRA:          -3.257
REMARK INTER:                  -3.816
REMARK INTRA:                   0.559
REMARK UNBOUND:                 0.672
REMARK SMILES CC1=CCC(=C(C)C)C(=O)CC(C)=CCC1
REMARK SMILES IDX 12 1 14 2 13 3 15 4 16 5 2 6 1 7 3 8 11 10 9 11 10 12 5 13
REMARK SMILES IDX 6 14 7 15 8 16 4 17
REMARK H PARENT
REMARK Flexibility Score: 60.00
ROOT
ATOM      1  C   UNL     1     186.024 190.541 223.602  1.00  0.00    -0.070 C 
ATOM      2  C   UNL     1     187.055 189.883 224.183  1.00  0.00    -0.027 C 
ATOM      3  C   UNL     1     186.248 191.984 223.221  1.00  0.00     0.039 C 
ENDROOT
BRANCH   2   4
ATOM      4  C   UNL     1     187.088 188.418 224.547  1.00  0.00     0.032 C 
BRANCH   4   5
ATOM      5  C   UNL     1     187.359 188.186 226.045  1.00  0.00     0.034 C 
BRANCH   5   6
ATOM      6  C   UNL     1     186.391 188.950 226.928  1.00  0.00    -0.077 C 
ATOM      7  C   UNL     1     186.956 189.876 227.975  1.00  0.00     0.039 C 
ATOM      8  C   UNL     1     185.047 188.829 226.848  1.00  0.00    -0.023 CG0
ATOM      9  G   UNL     1     184.297 187.930 225.894  1.00  0.00     0.000 G0
ENDBRANCH   5   6
ENDBRANCH   4   5
ENDBRANCH   2   4
BRANCH   1  10
ATOM     10  C   UNL     1     184.694 189.893 223.258  1.00  0.00     0.111 C 
BRANCH  10  11
ATOM     11  C   UNL     1     183.735 189.944 224.423  1.00  0.00     0.163 C 
ATOM     12  O   UNL     1     183.373 191.075 224.844  1.00  0.00    -0.294 OA
BRANCH  11  13
ATOM     13  C   UNL     1     183.254 188.703 225.107  1.00  0.00    -0.002 C 
ATOM     14  C   UNL     1     181.967 188.262 224.975  1.00  0.00    -0.069 C 
ATOM     15  C   UNL     1     180.978 188.961 224.070  1.00  0.00     0.039 C 
ATOM     16  C   UNL     1     181.479 187.027 225.703  1.00  0.00     0.039 C 
BRANCH  13  17
ATOM     17  C   UNL     1     184.280 187.911 225.898  1.00  0.00     0.066 CG0
ATOM     18  G   UNL     1     185.036 188.832 226.824  1.00  0.00     0.000 G0
ENDBRANCH  13  17
ENDBRANCH  11  13
ENDBRANCH  10  11
ENDBRANCH   1  10
TORSDOF 0
ENDMDL
MODEL 6
REMARK VINA RESULT:    -2.740     15.899     18.469
REMARK INTER + INTRA:          -3.189
REMARK INTER:                  -4.049
REMARK INTRA:                   0.860
REMARK UNBOUND:                 0.672
REMARK SMILES CC1=CCC(=C(C)C)C(=O)CC(C)=CCC1
REMARK SMILES IDX 12 1 14 2 13 3 15 4 16 5 2 6 1 7 3 8 11 10 9 11 10 12 5 13
REMARK SMILES IDX 6 14 7 15 8 16 4 17
REMARK H PARENT
REMARK Flexibility Score: 60.00
ROOT
ATOM      1  C   UNL     1     179.780 178.947 236.507  1.00  0.00    -0.070 C 
ATOM      2  C   UNL     1     178.614 179.294 237.100  1.00  0.00    -0.027 C 
ATOM      3  C   UNL     1     180.993 179.791 236.812  1.00  0.00     0.039 C 
ENDROOT
BRANCH   2   4
ATOM      4  C   UNL     1     177.311 178.535 237.023  1.00  0.00     0.032 C 
BRANCH   4   5
ATOM      5  C   UNL     1     176.154 179.399 236.486  1.00  0.00     0.034 C 
BRANCH   5   6
ATOM      6  C   UNL     1     176.501 180.068 235.170  1.00  0.00    -0.077 C 
ATOM      7  C   UNL     1     176.287 181.556 235.047  1.00  0.00     0.039 C 
ATOM      8  C   UNL     1     176.968 179.404 234.090  1.00  0.00    -0.023 CG0
ATOM      9  G   UNL     1     177.212 177.916 234.007  1.00  0.00     0.000 G0
ENDBRANCH   5   6
ENDBRANCH   4   5
ENDBRANCH   2   4
BRANCH   1  10
ATOM     10  C   UNL     1     179.945 177.727 235.615  1.00  0.00     0.111 C 
BRANCH  10  11
ATOM     11  C   UNL     1     179.789 178.083 234.157  1.00  0.00     0.163 C 
ATOM     12  O   UNL     1     180.686 178.786 233.618  1.00  0.00    -0.294 OA
BRANCH  11  13
ATOM     13  C   UNL     1     178.588 177.669 233.365  1.00  0.00    -0.002 C 
ATOM     14  C   UNL     1     178.706 177.042 232.156  1.00  0.00    -0.069 C 
ATOM     15  C   UNL     1     180.055 176.665 231.586  1.00  0.00     0.039 C 
ATOM     16  C   UNL     1     177.487 176.662 231.343  1.00  0.00     0.039 C 
BRANCH  13  17
ATOM     17  C   UNL     1     177.229 177.908 233.998  1.00  0.00     0.066 CG0
ATOM     18  G   UNL     1     176.966 179.391 234.101  1.00  0.00     0.000 G0
ENDBRANCH  13  17
ENDBRANCH  11  13
ENDBRANCH  10  11
ENDBRANCH   1  10
TORSDOF 0
ENDMDL
MODEL 7
REMARK VINA RESULT:    -2.725     12.333     13.827
REMARK INTER + INTRA:          -3.168
REMARK INTER:                  -3.621
REMARK INTRA:                   0.453
REMARK UNBOUND:                 0.672
REMARK SMILES CC1=CCC(=C(C)C)C(=O)CC(C)=CCC1
REMARK SMILES IDX 12 1 14 2 13 3 15 4 16 5 2 6 1 7 3 8 11 10 9 11 10 12 5 13
REMARK SMILES IDX 6 14 7 15 8 16 4 17
REMARK H PARENT
REMARK Flexibility Score: 60.00
ROOT
ATOM      1  C   UNL     1     192.954 183.126 229.155  1.00  0.00    -0.070 C 
ATOM      2  C   UNL     1     191.706 182.671 229.419  1.00  0.00    -0.027 C 
ATOM      3  C   UNL     1     193.757 183.664 230.315  1.00  0.00     0.039 C 
ENDROOT
BRANCH   2   4
ATOM      4  C   UNL     1     190.775 181.998 228.439  1.00  0.00     0.032 C 
BRANCH   4   5
ATOM      5  C   UNL     1     189.928 183.007 227.640  1.00  0.00     0.034 C 
BRANCH   5   6
ATOM      6  C   UNL     1     189.896 182.682 226.160  1.00  0.00    -0.077 C 
ATOM      7  C   UNL     1     189.153 181.448 225.714  1.00  0.00     0.039 C 
ATOM      8  C   UNL     1     190.519 183.422 225.215  1.00  0.00    -0.023 CG0
ATOM      9  G   UNL     1     191.338 184.665 225.466  1.00  0.00     0.000 G0
ENDBRANCH   5   6
ENDBRANCH   4   5
ENDBRANCH   2   4
BRANCH   1  10
ATOM     10  C   UNL     1     193.605 183.064 227.783  1.00  0.00     0.111 C 
BRANCH  10  11
ATOM     11  C   UNL     1     193.371 184.333 227.001  1.00  0.00     0.163 C 
ATOM     12  O   UNL     1     193.624 185.432 227.565  1.00  0.00    -0.294 OA
BRANCH  11  13
ATOM     13  C   UNL     1     192.807 184.316 225.615  1.00  0.00    -0.002 C 
ATOM     14  C   UNL     1     193.556 183.927 224.539  1.00  0.00    -0.069 C 
ATOM     15  C   UNL     1     194.972 183.420 224.700  1.00  0.00     0.039 C 
ATOM     16  C   UNL     1     192.990 183.951 223.135  1.00  0.00     0.039 C 
BRANCH  13  17
ATOM     17  C   UNL     1     191.341 184.680 225.463  1.00  0.00     0.066 CG0
ATOM     18  G   UNL     1     190.526 183.433 225.222  1.00  0.00     0.000 G0
ENDBRANCH  13  17
ENDBRANCH  11  13
ENDBRANCH  10  11
ENDBRANCH   1  10
TORSDOF 0
ENDMDL
MODEL 8
REMARK VINA RESULT:    -2.681     15.815     16.840
REMARK INTER + INTRA:          -3.106
REMARK INTER:                  -3.760
REMARK INTRA:                   0.655
REMARK UNBOUND:                 0.672
REMARK SMILES CC1=CCC(=C(C)C)C(=O)CC(C)=CCC1
REMARK SMILES IDX 12 1 14 2 13 3 15 4 16 5 2 6 1 7 3 8 11 10 9 11 10 12 5 13
REMARK SMILES IDX 6 14 7 15 8 16 4 17
REMARK H PARENT
REMARK Flexibility Score: 60.00
ROOT
ATOM      1  C   UNL     1     184.354 187.338 223.925  1.00  0.00    -0.070 C 
ATOM      2  C   UNL     1     183.088 186.894 224.107  1.00  0.00    -0.027 C 
ATOM      3  C   UNL     1     185.452 186.640 224.690  1.00  0.00     0.039 C 
ENDROOT
BRANCH   2   4
ATOM      4  C   UNL     1     181.859 187.371 223.370  1.00  0.00     0.032 C 
BRANCH   4   5
ATOM      5  C   UNL     1     181.654 188.893 223.483  1.00  0.00     0.034 C 
BRANCH   5   6
ATOM      6  C   UNL     1     181.564 189.354 224.926  1.00  0.00    -0.077 C 
ATOM      7  C   UNL     1     180.480 188.769 225.796  1.00  0.00     0.039 C 
ATOM      8  C   UNL     1     182.384 190.279 225.471  1.00  0.00    -0.023 CG0
ATOM      9  G   UNL     1     183.500 191.001 224.755  1.00  0.00     0.000 G0
ENDBRANCH   5   6
ENDBRANCH   4   5
ENDBRANCH   2   4
BRANCH   1  10
ATOM     10  C   UNL     1     184.731 188.444 222.952  1.00  0.00     0.111 C 
BRANCH  10  11
ATOM     11  C   UNL     1     185.388 189.603 223.660  1.00  0.00     0.163 C 
ATOM     12  O   UNL     1     186.480 190.036 223.201  1.00  0.00    -0.294 OA
BRANCH  11  13
ATOM     13  C   UNL     1     184.808 190.206 224.901  1.00  0.00    -0.002 C 
ATOM     14  C   UNL     1     185.443 190.115 226.109  1.00  0.00    -0.069 C 
ATOM     15  C   UNL     1     186.801 189.464 226.243  1.00  0.00     0.039 C 
ATOM     16  C   UNL     1     184.830 190.693 227.366  1.00  0.00     0.039 C 
BRANCH  13  17
ATOM     17  C   UNL     1     183.518 190.990 224.748  1.00  0.00     0.066 CG0
ATOM     18  G   UNL     1     182.396 190.276 225.463  1.00  0.00     0.000 G0
ENDBRANCH  13  17
ENDBRANCH  11  13
ENDBRANCH  10  11
ENDBRANCH   1  10
TORSDOF 0
ENDMDL
MODEL 9
REMARK VINA RESULT:    -2.672      9.211     11.633
REMARK INTER + INTRA:          -3.093
REMARK INTER:                  -3.831
REMARK INTRA:                   0.738
REMARK UNBOUND:                 0.672
REMARK SMILES CC1=CCC(=C(C)C)C(=O)CC(C)=CCC1
REMARK SMILES IDX 12 1 14 2 13 3 15 4 16 5 2 6 1 7 3 8 11 10 9 11 10 12 5 13
REMARK SMILES IDX 6 14 7 15 8 16 4 17
REMARK H PARENT
REMARK Flexibility Score: 60.00
ROOT
ATOM      1  C   UNL     1     180.807 182.573 239.540  1.00  0.00    -0.070 C 
ATOM      2  C   UNL     1     179.897 183.557 239.736  1.00  0.00    -0.027 C 
ATOM      3  C   UNL     1     180.591 181.652 238.364  1.00  0.00     0.039 C 
ENDROOT
BRANCH   2   4
ATOM      4  C   UNL     1     179.972 184.648 240.777  1.00  0.00     0.032 C 
BRANCH   4   5
ATOM      5  C   UNL     1     180.077 186.054 240.155  1.00  0.00     0.034 C 
BRANCH   5   6
ATOM      6  C   UNL     1     181.161 186.132 239.096  1.00  0.00    -0.077 C 
ATOM      7  C   UNL     1     180.751 186.420 237.674  1.00  0.00     0.039 C 
ATOM      8  C   UNL     1     182.473 185.931 239.349  1.00  0.00    -0.023 CG0
ATOM      9  G   UNL     1     183.072 185.597 240.694  1.00  0.00     0.000 G0
ENDBRANCH   5   6
ENDBRANCH   4   5
ENDBRANCH   2   4
BRANCH   1  10
ATOM     10  C   UNL     1     182.052 182.391 240.391  1.00  0.00     0.111 C 
BRANCH  10  11
ATOM     11  C   UNL     1     183.218 183.175 239.841  1.00  0.00     0.163 C 
ATOM     12  O   UNL     1     183.682 182.840 238.718  1.00  0.00    -0.294 OA
BRANCH  11  13
ATOM     13  C   UNL     1     183.857 184.289 240.609  1.00  0.00    -0.002 C 
ATOM     14  C   UNL     1     185.105 184.166 241.152  1.00  0.00    -0.069 C 
ATOM     15  C   UNL     1     185.941 182.923 240.942  1.00  0.00     0.039 C 
ATOM     16  C   UNL     1     185.728 185.283 241.961  1.00  0.00     0.039 C 
BRANCH  13  17
ATOM     17  C   UNL     1     183.087 185.595 240.698  1.00  0.00     0.066 CG0
ATOM     18  G   UNL     1     182.488 185.929 239.353  1.00  0.00     0.000 G0
ENDBRANCH  13  17
ENDBRANCH  11  13
ENDBRANCH  10  11
ENDBRANCH   1  10
TORSDOF 0
ENDMDL
