MODEL 1
REMARK VINA RESULT:    -4.685      0.000      0.000
REMARK INTER + INTRA:          -7.448
REMARK INTER:                  -7.150
REMARK INTRA:                  -0.298
REMARK UNBOUND:                -0.298
REMARK SMILES CC1=CCC[C@@H](C)C(=O)C[C@H](C(C)C)C(=O)C1
REMARK SMILES IDX 8 1 9 2 6 3 7 4 5 5 4 6 3 7 2 8 1 9 10 11 11 12 15 13 16 14
REMARK SMILES IDX 17 15 12 17 13 18 14 19
REMARK H PARENT
REMARK Flexibility Score: 70.00
ROOT
ATOM      1  C   UNL     1     102.736 132.599  51.271  1.00  0.00     0.136 C 
ATOM      2  O   UNL     1     102.968 132.387  50.090  1.00  0.00    -0.299 OA
ENDROOT
BRANCH   1   3
ATOM      3  C   UNL     1     102.110 131.515  52.125  1.00  0.00     0.053 C 
ATOM      4  C   UNL     1     103.010 130.276  52.111  1.00  0.00     0.016 C 
BRANCH   3   5
ATOM      5  C   UNL     1     100.688 131.150  51.636  1.00  0.00     0.015 C 
BRANCH   5   6
ATOM      6  C   UNL     1      99.593 132.048  52.231  1.00  0.00     0.028 C 
BRANCH   6   7
ATOM      7  C   UNL     1      99.850 132.331  53.692  1.00  0.00    -0.028 C 
ATOM      8  C   UNL     1      99.997 133.556  54.245  1.00  0.00    -0.070 CG0
ATOM      9  C   UNL     1     100.249 133.637  55.730  1.00  0.00     0.039 C 
ATOM     10  G   UNL     1      99.954 134.841  53.441  1.00  0.00     0.000 G0
ENDBRANCH   6   7
ENDBRANCH   5   6
ENDBRANCH   3   5
ENDBRANCH   1   3
BRANCH   1  11
ATOM     11  C   UNL     1     103.098 133.940  51.858  1.00  0.00     0.087 C 
BRANCH  11  12
ATOM     12  C   UNL     1     101.950 134.969  51.705  1.00  0.00     0.066 C 
BRANCH  12  13
ATOM     13  C   UNL     1     101.345 135.317  53.056  1.00  0.00     0.140 C 
ATOM     14  O   UNL     1     101.970 136.016  53.841  1.00  0.00    -0.299 OA
BRANCH  13  15
ATOM     15  C   UNL     1      99.962 134.854  53.436  1.00  0.00     0.106 CG0
ATOM     16  G   UNL     1     100.023 133.559  54.222  1.00  0.00     0.000 G0
ENDBRANCH  13  15
ENDBRANCH  12  13
BRANCH  12  17
ATOM     17  C   UNL     1     102.408 136.235  50.919  1.00  0.00    -0.006 C 
ATOM     18  C   UNL     1     101.663 136.447  49.590  1.00  0.00     0.008 C 
ATOM     19  C   UNL     1     103.925 136.228  50.679  1.00  0.00     0.008 C 
ENDBRANCH  12  17
ENDBRANCH  11  12
ENDBRANCH   1  11
TORSDOF 1
ENDMDL
MODEL 2
REMARK VINA RESULT:    -4.508      1.716      2.058
REMARK INTER + INTRA:          -7.178
REMARK INTER:                  -7.232
REMARK INTRA:                   0.053
REMARK UNBOUND:                -0.298
REMARK SMILES CC1=CCC[C@@H](C)C(=O)C[C@H](C(C)C)C(=O)C1
REMARK SMILES IDX 8 1 9 2 6 3 7 4 5 5 4 6 3 7 2 8 1 9 10 11 11 12 15 13 16 14
REMARK SMILES IDX 17 15 12 17 13 18 14 19
REMARK H PARENT
REMARK Flexibility Score: 70.00
ROOT
ATOM      1  C   UNL     1     102.915 132.538  50.540  1.00  0.00     0.136 C 
ATOM      2  O   UNL     1     103.257 132.412  49.373  1.00  0.00    -0.299 OA
ENDROOT
BRANCH   1   3
ATOM      3  C   UNL     1     102.032 131.490  51.186  1.00  0.00     0.053 C 
ATOM      4  C   UNL     1     100.663 132.101  51.495  1.00  0.00     0.016 C 
BRANCH   3   5
ATOM      5  C   UNL     1     102.669 130.920  52.475  1.00  0.00     0.015 C 
BRANCH   5   6
ATOM      6  C   UNL     1     101.956 131.377  53.757  1.00  0.00     0.028 C 
BRANCH   6   7
ATOM      7  C   UNL     1     102.903 132.107  54.680  1.00  0.00    -0.028 C 
ATOM      8  C   UNL     1     102.862 133.427  54.968  1.00  0.00    -0.070 CG0
ATOM      9  C   UNL     1     103.899 133.976  55.917  1.00  0.00     0.039 C 
ATOM     10  G   UNL     1     101.853 134.380  54.358  1.00  0.00     0.000 G0
ENDBRANCH   6   7
ENDBRANCH   5   6
ENDBRANCH   3   5
ENDBRANCH   1   3
BRANCH   1  11
ATOM     11  C   UNL     1     103.399 133.735  51.318  1.00  0.00     0.087 C 
BRANCH  11  12
ATOM     12  C   UNL     1     102.230 134.648  51.765  1.00  0.00     0.066 C 
BRANCH  12  13
ATOM     13  C   UNL     1     102.429 135.133  53.193  1.00  0.00     0.140 C 
ATOM     14  O   UNL     1     103.047 136.167  53.403  1.00  0.00    -0.299 OA
BRANCH  13  15
ATOM     15  C   UNL     1     101.841 134.386  54.362  1.00  0.00     0.106 CG0
ATOM     16  G   UNL     1     102.855 133.429  54.959  1.00  0.00     0.000 G0
ENDBRANCH  13  15
ENDBRANCH  12  13
BRANCH  12  17
ATOM     17  C   UNL     1     101.999 135.824  50.769  1.00  0.00    -0.006 C 
ATOM     18  C   UNL     1     100.892 135.558  49.735  1.00  0.00     0.008 C 
ATOM     19  C   UNL     1     103.302 136.221  50.058  1.00  0.00     0.008 C 
ENDBRANCH  12  17
ENDBRANCH  11  12
ENDBRANCH   1  11
TORSDOF 1
ENDMDL
MODEL 3
REMARK VINA RESULT:    -4.381      2.640      4.977
REMARK INTER + INTRA:          -6.984
REMARK INTER:                  -7.064
REMARK INTRA:                   0.080
REMARK UNBOUND:                -0.298
REMARK SMILES CC1=CCC[C@@H](C)C(=O)C[C@H](C(C)C)C(=O)C1
REMARK SMILES IDX 8 1 9 2 6 3 7 4 5 5 4 6 3 7 2 8 1 9 10 11 11 12 15 13 16 14
REMARK SMILES IDX 17 15 12 17 13 18 14 19
REMARK H PARENT
REMARK Flexibility Score: 70.00
ROOT
ATOM      1  C   UNL     1     101.327 134.554  51.375  1.00  0.00     0.136 C 
ATOM      2  O   UNL     1     100.602 134.056  50.525  1.00  0.00    -0.299 OA
ENDROOT
BRANCH   1   3
ATOM      3  C   UNL     1     101.926 135.926  51.146  1.00  0.00     0.053 C 
ATOM      4  C   UNL     1     101.404 136.494  49.823  1.00  0.00     0.016 C 
BRANCH   3   5
ATOM      5  C   UNL     1     103.473 135.882  51.136  1.00  0.00     0.015 C 
BRANCH   5   6
ATOM      6  C   UNL     1     104.098 136.262  52.487  1.00  0.00     0.028 C 
BRANCH   6   7
ATOM      7  C   UNL     1     105.326 135.430  52.776  1.00  0.00    -0.028 C 
ATOM      8  C   UNL     1     105.383 134.374  53.619  1.00  0.00    -0.070 CG0
ATOM      9  C   UNL     1     106.705 133.666  53.777  1.00  0.00     0.039 C 
ATOM     10  G   UNL     1     104.196 133.896  54.434  1.00  0.00     0.000 G0
ENDBRANCH   6   7
ENDBRANCH   5   6
ENDBRANCH   3   5
ENDBRANCH   1   3
BRANCH   1  11
ATOM     11  C   UNL     1     101.594 133.789  52.646  1.00  0.00     0.087 C 
BRANCH  11  12
ATOM     12  C   UNL     1     102.773 132.798  52.491  1.00  0.00     0.066 C 
BRANCH  12  13
ATOM     13  C   UNL     1     103.559 132.675  53.786  1.00  0.00     0.140 C 
ATOM     14  O   UNL     1     103.724 131.576  54.296  1.00  0.00    -0.299 OA
BRANCH  13  15
ATOM     15  C   UNL     1     104.184 133.881  54.440  1.00  0.00     0.106 CG0
ATOM     16  G   UNL     1     105.376 134.372  53.642  1.00  0.00     0.000 G0
ENDBRANCH  13  15
ENDBRANCH  12  13
BRANCH  12  17
ATOM     17  C   UNL     1     102.299 131.413  51.954  1.00  0.00    -0.006 C 
ATOM     18  C   UNL     1     102.570 131.198  50.455  1.00  0.00     0.008 C 
ATOM     19  C   UNL     1     100.813 131.171  52.262  1.00  0.00     0.008 C 
ENDBRANCH  12  17
ENDBRANCH  11  12
ENDBRANCH   1  11
TORSDOF 1
ENDMDL
MODEL 4
REMARK VINA RESULT:    -4.365      2.312      4.644
REMARK INTER + INTRA:          -6.960
REMARK INTER:                  -6.790
REMARK INTRA:                  -0.170
REMARK UNBOUND:                -0.298
REMARK SMILES CC1=CCC[C@@H](C)C(=O)C[C@H](C(C)C)C(=O)C1
REMARK SMILES IDX 8 1 9 2 6 3 7 4 5 5 4 6 3 7 2 8 1 9 10 11 11 12 15 13 16 14
REMARK SMILES IDX 17 15 12 17 13 18 14 19
REMARK H PARENT
REMARK Flexibility Score: 70.00
ROOT
ATOM      1  C   UNL     1     101.791 134.508  51.087  1.00  0.00     0.136 C 
ATOM      2  O   UNL     1     101.956 133.745  50.145  1.00  0.00    -0.299 OA
ENDROOT
BRANCH   1   3
ATOM      3  C   UNL     1     102.114 135.980  50.932  1.00  0.00     0.053 C 
ATOM      4  C   UNL     1     101.446 136.514  49.662  1.00  0.00     0.016 C 
BRANCH   3   5
ATOM      5  C   UNL     1     103.639 136.230  50.881  1.00  0.00     0.015 C 
BRANCH   5   6
ATOM      6  C   UNL     1     104.397 135.599  52.060  1.00  0.00     0.028 C 
BRANCH   6   7
ATOM      7  C   UNL     1     104.055 136.286  53.361  1.00  0.00    -0.028 C 
ATOM      8  C   UNL     1     103.858 135.671  54.549  1.00  0.00    -0.070 CG0
ATOM      9  C   UNL     1     103.523 136.530  55.743  1.00  0.00     0.039 C 
ATOM     10  G   UNL     1     103.923 134.166  54.727  1.00  0.00     0.000 G0
ENDBRANCH   6   7
ENDBRANCH   5   6
ENDBRANCH   3   5
ENDBRANCH   1   3
BRANCH   1  11
ATOM     11  C   UNL     1     101.249 133.962  52.384  1.00  0.00     0.087 C 
BRANCH  11  12
ATOM     12  C   UNL     1     102.251 133.001  53.072  1.00  0.00     0.066 C 
BRANCH  12  13
ATOM     13  C   UNL     1     102.613 133.495  54.464  1.00  0.00     0.140 C 
ATOM     14  O   UNL     1     101.834 133.325  55.391  1.00  0.00    -0.299 OA
BRANCH  13  15
ATOM     15  C   UNL     1     103.940 134.154  54.739  1.00  0.00     0.106 CG0
ATOM     16  G   UNL     1     103.853 135.653  54.532  1.00  0.00     0.000 G0
ENDBRANCH  13  15
ENDBRANCH  12  13
BRANCH  12  17
ATOM     17  C   UNL     1     101.730 131.532  53.083  1.00  0.00    -0.006 C 
ATOM     18  C   UNL     1     102.553 130.572  52.207  1.00  0.00     0.008 C 
ATOM     19  C   UNL     1     100.245 131.460  52.695  1.00  0.00     0.008 C 
ENDBRANCH  12  17
ENDBRANCH  11  12
ENDBRANCH   1  11
TORSDOF 1
ENDMDL
MODEL 5
REMARK VINA RESULT:    -4.359      2.645      4.222
REMARK INTER + INTRA:          -6.951
REMARK INTER:                  -6.834
REMARK INTRA:                  -0.117
REMARK UNBOUND:                -0.298
REMARK SMILES CC1=CCC[C@@H](C)C(=O)C[C@H](C(C)C)C(=O)C1
REMARK SMILES IDX 8 1 9 2 6 3 7 4 5 5 4 6 3 7 2 8 1 9 10 11 11 12 15 13 16 14
REMARK SMILES IDX 17 15 12 17 13 18 14 19
REMARK H PARENT
REMARK Flexibility Score: 70.00
ROOT
ATOM      1  C   UNL     1     102.707 131.335  53.300  1.00  0.00     0.136 C 
ATOM      2  O   UNL     1     102.870 130.148  53.543  1.00  0.00    -0.299 OA
ENDROOT
BRANCH   1   3
ATOM      3  C   UNL     1     101.914 131.754  52.079  1.00  0.00     0.053 C 
ATOM      4  C   UNL     1     100.526 131.109  52.132  1.00  0.00     0.016 C 
BRANCH   3   5
ATOM      5  C   UNL     1     102.635 131.368  50.767  1.00  0.00     0.015 C 
BRANCH   5   6
ATOM      6  C   UNL     1     103.186 132.580  49.999  1.00  0.00     0.028 C 
BRANCH   6   7
ATOM      7  C   UNL     1     102.337 133.807  50.230  1.00  0.00    -0.028 C 
ATOM      8  C   UNL     1     102.693 134.886  50.963  1.00  0.00    -0.070 CG0
ATOM      9  C   UNL     1     101.705 136.020  51.079  1.00  0.00     0.039 C 
ATOM     10  G   UNL     1     104.016 134.993  51.698  1.00  0.00     0.000 G0
ENDBRANCH   6   7
ENDBRANCH   5   6
ENDBRANCH   3   5
ENDBRANCH   1   3
BRANCH   1  11
ATOM     11  C   UNL     1     103.290 132.360  54.240  1.00  0.00     0.087 C 
BRANCH  11  12
ATOM     12  C   UNL     1     104.417 133.185  53.571  1.00  0.00     0.066 C 
BRANCH  12  13
ATOM     13  C   UNL     1     103.908 134.548  53.128  1.00  0.00     0.140 C 
ATOM     14  O   UNL     1     103.423 135.313  53.950  1.00  0.00    -0.299 OA
BRANCH  13  15
ATOM     15  C   UNL     1     104.027 135.000  51.696  1.00  0.00     0.106 CG0
ATOM     16  G   UNL     1     102.696 134.882  50.979  1.00  0.00     0.000 G0
ENDBRANCH  13  15
ENDBRANCH  12  13
BRANCH  12  17
ATOM     17  C   UNL     1     105.676 133.293  54.484  1.00  0.00    -0.006 C 
ATOM     18  C   UNL     1     106.945 133.752  53.745  1.00  0.00     0.008 C 
ATOM     19  C   UNL     1     105.944 131.975  55.227  1.00  0.00     0.008 C 
ENDBRANCH  12  17
ENDBRANCH  11  12
ENDBRANCH   1  11
TORSDOF 1
ENDMDL
MODEL 6
REMARK VINA RESULT:    -4.207      1.727      3.891
REMARK INTER + INTRA:          -6.718
REMARK INTER:                  -7.167
REMARK INTRA:                   0.449
REMARK UNBOUND:                -0.298
REMARK SMILES CC1=CCC[C@@H](C)C(=O)C[C@H](C(C)C)C(=O)C1
REMARK SMILES IDX 8 1 9 2 6 3 7 4 5 5 4 6 3 7 2 8 1 9 10 11 11 12 15 13 16 14
REMARK SMILES IDX 17 15 12 17 13 18 14 19
REMARK H PARENT
REMARK Flexibility Score: 70.00
ROOT
ATOM      1  C   UNL     1     101.520 135.285  50.367  1.00  0.00     0.136 C 
ATOM      2  O   UNL     1     100.469 135.704  49.900  1.00  0.00    -0.299 OA
ENDROOT
BRANCH   1   3
ATOM      3  C   UNL     1     102.473 136.240  51.056  1.00  0.00     0.053 C 
ATOM      4  C   UNL     1     103.725 136.417  50.192  1.00  0.00     0.016 C 
BRANCH   3   5
ATOM      5  C   UNL     1     102.862 135.742  52.467  1.00  0.00     0.015 C 
BRANCH   5   6
ATOM      6  C   UNL     1     101.904 136.226  53.566  1.00  0.00     0.028 C 
BRANCH   6   7
ATOM      7  C   UNL     1     101.480 135.088  54.464  1.00  0.00    -0.028 C 
ATOM      8  C   UNL     1     100.490 134.205  54.204  1.00  0.00    -0.070 CG0
ATOM      9  C   UNL     1     100.212 133.132  55.227  1.00  0.00     0.039 C 
ATOM     10  G   UNL     1      99.628 134.266  52.957  1.00  0.00     0.000 G0
ENDBRANCH   6   7
ENDBRANCH   5   6
ENDBRANCH   3   5
ENDBRANCH   1   3
BRANCH   1  11
ATOM     11  C   UNL     1     101.832 133.814  50.259  1.00  0.00     0.087 C 
BRANCH  11  12
ATOM     12  C   UNL     1     101.484 133.051  51.561  1.00  0.00     0.066 C 
BRANCH  12  13
ATOM     13  C   UNL     1     100.023 133.245  51.934  1.00  0.00     0.140 C 
ATOM     14  O   UNL     1      99.165 132.538  51.423  1.00  0.00    -0.299 OA
BRANCH  13  15
ATOM     15  C   UNL     1      99.606 134.266  52.961  1.00  0.00     0.106 CG0
ATOM     16  G   UNL     1     100.481 134.179  54.196  1.00  0.00     0.000 G0
ENDBRANCH  13  15
ENDBRANCH  12  13
BRANCH  12  17
ATOM     17  C   UNL     1     101.876 131.545  51.472  1.00  0.00    -0.006 C 
ATOM     18  C   UNL     1     102.312 130.933  52.814  1.00  0.00     0.008 C 
ATOM     19  C   UNL     1     102.959 131.309  50.407  1.00  0.00     0.008 C 
ENDBRANCH  12  17
ENDBRANCH  11  12
ENDBRANCH   1  11
TORSDOF 1
ENDMDL
MODEL 7
REMARK VINA RESULT:    -4.186      2.328      4.265
REMARK INTER + INTRA:          -6.687
REMARK INTER:                  -6.541
REMARK INTRA:                  -0.146
REMARK UNBOUND:                -0.298
REMARK SMILES CC1=CCC[C@@H](C)C(=O)C[C@H](C(C)C)C(=O)C1
REMARK SMILES IDX 8 1 9 2 6 3 7 4 5 5 4 6 3 7 2 8 1 9 10 11 11 12 15 13 16 14
REMARK SMILES IDX 17 15 12 17 13 18 14 19
REMARK H PARENT
REMARK Flexibility Score: 70.00
ROOT
ATOM      1  C   UNL     1     104.890 133.737  52.843  1.00  0.00     0.136 C 
ATOM      2  O   UNL     1     105.158 132.765  53.534  1.00  0.00    -0.299 OA
ENDROOT
BRANCH   1   3
ATOM      3  C   UNL     1     105.515 135.082  53.155  1.00  0.00     0.053 C 
ATOM      4  C   UNL     1     107.031 134.915  53.294  1.00  0.00     0.016 C 
BRANCH   3   5
ATOM      5  C   UNL     1     104.924 135.703  54.442  1.00  0.00     0.015 C 
BRANCH   5   6
ATOM      6  C   UNL     1     103.892 136.806  54.164  1.00  0.00     0.028 C 
BRANCH   6   7
ATOM      7  C   UNL     1     102.499 136.361  54.544  1.00  0.00    -0.028 C 
ATOM      8  C   UNL     1     101.546 135.934  53.684  1.00  0.00    -0.070 CG0
ATOM      9  C   UNL     1     100.209 135.530  54.255  1.00  0.00     0.039 C 
ATOM     10  G   UNL     1     101.746 135.878  52.182  1.00  0.00     0.000 G0
ENDBRANCH   6   7
ENDBRANCH   5   6
ENDBRANCH   3   5
ENDBRANCH   1   3
BRANCH   1  11
ATOM     11  C   UNL     1     103.949 133.568  51.677  1.00  0.00     0.087 C 
BRANCH  11  12
ATOM     12  C   UNL     1     102.487 133.347  52.138  1.00  0.00     0.066 C 
BRANCH  12  13
ATOM     13  C   UNL     1     101.583 134.465  51.643  1.00  0.00     0.140 C 
ATOM     14  O   UNL     1     100.693 134.217  50.842  1.00  0.00    -0.299 OA
BRANCH  13  15
ATOM     15  C   UNL     1     101.729 135.874  52.155  1.00  0.00     0.106 CG0
ATOM     16  G   UNL     1     101.551 135.925  53.660  1.00  0.00     0.000 G0
ENDBRANCH  13  15
ENDBRANCH  12  13
BRANCH  12  17
ATOM     17  C   UNL     1     101.959 131.937  51.735  1.00  0.00    -0.006 C 
ATOM     18  C   UNL     1     102.153 130.864  52.820  1.00  0.00     0.008 C 
ATOM     19  C   UNL     1     102.576 131.465  50.409  1.00  0.00     0.008 C 
ENDBRANCH  12  17
ENDBRANCH  11  12
ENDBRANCH   1  11
TORSDOF 1
ENDMDL
MODEL 8
REMARK VINA RESULT:    -4.164      2.161      4.191
REMARK INTER + INTRA:          -6.653
REMARK INTER:                  -6.518
REMARK INTRA:                  -0.135
REMARK UNBOUND:                -0.298
REMARK SMILES CC1=CCC[C@@H](C)C(=O)C[C@H](C(C)C)C(=O)C1
REMARK SMILES IDX 8 1 9 2 6 3 7 4 5 5 4 6 3 7 2 8 1 9 10 11 11 12 15 13 16 14
REMARK SMILES IDX 17 15 12 17 13 18 14 19
REMARK H PARENT
REMARK Flexibility Score: 70.00
ROOT
ATOM      1  C   UNL     1     103.299 135.078  51.890  1.00  0.00     0.136 C 
ATOM      2  O   UNL     1     103.261 135.908  52.787  1.00  0.00    -0.299 OA
ENDROOT
BRANCH   1   3
ATOM      3  C   UNL     1     102.677 135.391  50.544  1.00  0.00     0.053 C 
ATOM      4  C   UNL     1     103.403 136.583  49.915  1.00  0.00     0.016 C 
BRANCH   3   5
ATOM      5  C   UNL     1     101.164 135.688  50.668  1.00  0.00     0.015 C 
BRANCH   5   6
ATOM      6  C   UNL     1     100.279 134.469  50.367  1.00  0.00     0.028 C 
BRANCH   6   7
ATOM      7  C   UNL     1      99.761 133.840  51.639  1.00  0.00    -0.028 C 
ATOM      8  C   UNL     1     100.280 132.751  52.249  1.00  0.00    -0.070 CG0
ATOM      9  C   UNL     1      99.621 132.269  53.517  1.00  0.00     0.039 C 
ATOM     10  G   UNL     1     101.464 131.977  51.701  1.00  0.00     0.000 G0
ENDBRANCH   6   7
ENDBRANCH   5   6
ENDBRANCH   3   5
ENDBRANCH   1   3
BRANCH   1  11
ATOM     11  C   UNL     1     103.987 133.760  52.143  1.00  0.00     0.087 C 
BRANCH  11  12
ATOM     12  C   UNL     1     103.325 132.973  53.301  1.00  0.00     0.066 C 
BRANCH  12  13
ATOM     13  C   UNL     1     102.528 131.791  52.773  1.00  0.00     0.140 C 
ATOM     14  O   UNL     1     102.708 130.677  53.244  1.00  0.00    -0.299 OA
BRANCH  13  15
ATOM     15  C   UNL     1     101.480 131.968  51.705  1.00  0.00     0.106 CG0
ATOM     16  G   UNL     1     100.289 132.740  52.238  1.00  0.00     0.000 G0
ENDBRANCH  13  15
ENDBRANCH  12  13
BRANCH  12  17
ATOM     17  C   UNL     1     104.365 132.549  54.382  1.00  0.00    -0.006 C 
ATOM     18  C   UNL     1     104.040 133.062  55.795  1.00  0.00     0.008 C 
ATOM     19  C   UNL     1     105.790 132.965  53.984  1.00  0.00     0.008 C 
ENDBRANCH  12  17
ENDBRANCH  11  12
ENDBRANCH   1  11
TORSDOF 1
ENDMDL
MODEL 9
REMARK VINA RESULT:    -4.064      2.186      4.090
REMARK INTER + INTRA:          -6.500
REMARK INTER:                  -6.627
REMARK INTRA:                   0.127
REMARK UNBOUND:                -0.298
REMARK SMILES CC1=CCC[C@@H](C)C(=O)C[C@H](C(C)C)C(=O)C1
REMARK SMILES IDX 8 1 9 2 6 3 7 4 5 5 4 6 3 7 2 8 1 9 10 11 11 12 15 13 16 14
REMARK SMILES IDX 17 15 12 17 13 18 14 19
REMARK H PARENT
REMARK Flexibility Score: 70.00
ROOT
ATOM      1  C   UNL     1     101.241 132.539  51.505  1.00  0.00     0.136 C 
ATOM      2  O   UNL     1     100.136 133.052  51.405  1.00  0.00    -0.299 OA
ENDROOT
BRANCH   1   3
ATOM      3  C   UNL     1     102.206 132.588  50.338  1.00  0.00     0.053 C 
ATOM      4  C   UNL     1     102.813 131.199  50.123  1.00  0.00     0.016 C 
BRANCH   3   5
ATOM      5  C   UNL     1     103.324 133.633  50.563  1.00  0.00     0.015 C 
BRANCH   5   6
ATOM      6  C   UNL     1     102.799 135.074  50.650  1.00  0.00     0.028 C 
BRANCH   6   7
ATOM      7  C   UNL     1     103.473 135.836  51.767  1.00  0.00    -0.028 C 
ATOM      8  C   UNL     1     103.080 135.848  53.061  1.00  0.00    -0.070 CG0
ATOM      9  C   UNL     1     103.884 136.673  54.036  1.00  0.00     0.039 C 
ATOM     10  G   UNL     1     101.859 135.105  53.567  1.00  0.00     0.000 G0
ENDBRANCH   6   7
ENDBRANCH   5   6
ENDBRANCH   3   5
ENDBRANCH   1   3
BRANCH   1  11
ATOM     11  C   UNL     1     101.625 131.881  52.806  1.00  0.00     0.087 C 
BRANCH  11  12
ATOM     12  C   UNL     1     102.779 132.630  53.517  1.00  0.00     0.066 C 
BRANCH  12  13
ATOM     13  C   UNL     1     102.260 133.838  54.279  1.00  0.00     0.140 C 
ATOM     14  O   UNL     1     102.196 133.806  55.500  1.00  0.00    -0.299 OA
BRANCH  13  15
ATOM     15  C   UNL     1     101.858 135.102  53.563  1.00  0.00     0.106 CG0
ATOM     16  G   UNL     1     103.078 135.854  53.068  1.00  0.00     0.000 G0
ENDBRANCH  13  15
ENDBRANCH  12  13
BRANCH  12  17
ATOM     17  C   UNL     1     103.619 131.677  54.421  1.00  0.00    -0.006 C 
ATOM     18  C   UNL     1     105.105 132.060  54.521  1.00  0.00     0.008 C 
ATOM     19  C   UNL     1     103.479 130.213  53.975  1.00  0.00     0.008 C 
ENDBRANCH  12  17
ENDBRANCH  11  12
ENDBRANCH   1  11
TORSDOF 1
ENDMDL
