MODEL 1
REMARK VINA RESULT:    -3.850      0.000      0.000
REMARK INTER + INTRA:          -6.676
REMARK INTER:                  -5.876
REMARK INTRA:                  -0.800
REMARK UNBOUND:                -0.800
REMARK SMILES O=C([O-])CCCCCCCCC(=O)[O-]
REMARK SMILES IDX 7 1 6 2 5 3 4 4 2 5 1 6 3 7 8 8 9 9 10 10 11 11 12 12 13 13
REMARK SMILES IDX 14 14
REMARK H PARENT
REMARK Flexibility Score: inf
ROOT
ATOM      1  C   UNL     1      34.266  26.256  71.076  1.00  0.00     0.000 C 
ENDROOT
BRANCH   1   2
ATOM      2  C   UNL     1      34.932  25.780  69.775  1.00  0.00     0.000 C 
BRANCH   2   3
ATOM      3  C   UNL     1      35.269  24.285  69.846  1.00  0.00     0.006 C 
BRANCH   3   4
ATOM      4  C   UNL     1      36.027  23.954  71.135  1.00  0.00     0.053 C 
BRANCH   4   5
ATOM      5  C   UNL     1      37.503  24.085  70.924  1.00  0.00     0.041 C 
ATOM      6  O   UNL     1      37.966  24.229  69.762  1.00  0.00    -0.550 OA
ATOM      7  O   UNL     1      38.370  24.001  72.005  1.00  0.00    -0.550 OA
ENDBRANCH   4   5
ENDBRANCH   3   4
ENDBRANCH   2   3
ENDBRANCH   1   2
BRANCH   1   8
ATOM      8  C   UNL     1      32.786  26.633  70.890  1.00  0.00     0.000 C 
BRANCH   8   9
ATOM      9  C   UNL     1      31.778  25.584  71.395  1.00  0.00     0.000 C 
BRANCH   9  10
ATOM     10  C   UNL     1      30.901  25.008  70.274  1.00  0.00     0.006 C 
BRANCH  10  11
ATOM     11  C   UNL     1      31.671  23.967  69.455  1.00  0.00     0.053 C 
BRANCH  11  12
ATOM     12  C   UNL     1      31.587  24.283  67.995  1.00  0.00     0.041 C 
ATOM     13  O   UNL     1      30.470  24.294  67.413  1.00  0.00    -0.550 OA
ATOM     14  O   UNL     1      32.745  24.516  67.265  1.00  0.00    -0.550 OA
ENDBRANCH  11  12
ENDBRANCH  10  11
ENDBRANCH   9  10
ENDBRANCH   8   9
ENDBRANCH   1   8
TORSDOF 9
ENDMDL
MODEL 2
REMARK VINA RESULT:    -3.813      1.646      5.351
REMARK INTER + INTRA:          -6.619
REMARK INTER:                  -6.009
REMARK INTRA:                  -0.610
REMARK UNBOUND:                -0.800
REMARK SMILES O=C([O-])CCCCCCCCC(=O)[O-]
REMARK SMILES IDX 7 1 6 2 5 3 4 4 2 5 1 6 3 7 8 8 9 9 10 10 11 11 12 12 13 13
REMARK SMILES IDX 14 14
REMARK H PARENT
REMARK Flexibility Score: inf
ROOT
ATOM      1  C   UNL     1      31.686  24.469  70.381  1.00  0.00     0.000 C 
ENDROOT
BRANCH   1   2
ATOM      2  C   UNL     1      31.023  24.304  69.004  1.00  0.00     0.000 C 
BRANCH   2   3
ATOM      3  C   UNL     1      32.061  24.406  67.880  1.00  0.00     0.006 C 
BRANCH   3   4
ATOM      4  C   UNL     1      31.380  24.512  66.512  1.00  0.00     0.053 C 
BRANCH   4   5
ATOM      5  C   UNL     1      32.388  24.808  65.446  1.00  0.00     0.041 C 
ATOM      6  O   UNL     1      33.537  24.296  65.502  1.00  0.00    -0.550 OA
ATOM      7  O   UNL     1      32.075  25.687  64.418  1.00  0.00    -0.550 OA
ENDBRANCH   4   5
ENDBRANCH   3   4
ENDBRANCH   2   3
ENDBRANCH   1   2
BRANCH   1   8
ATOM      8  C   UNL     1      32.061  25.928  70.695  1.00  0.00     0.000 C 
BRANCH   8   9
ATOM      9  C   UNL     1      33.421  26.115  71.392  1.00  0.00     0.000 C 
BRANCH   9  10
ATOM     10  C   UNL     1      34.606  26.055  70.418  1.00  0.00     0.006 C 
BRANCH  10  11
ATOM     11  C   UNL     1      35.419  24.772  70.622  1.00  0.00     0.053 C 
BRANCH  11  12
ATOM     12  C   UNL     1      36.222  24.461  69.398  1.00  0.00     0.041 C 
ATOM     13  O   UNL     1      37.451  24.203  69.495  1.00  0.00    -0.550 OA
ATOM     14  O   UNL     1      35.624  24.502  68.145  1.00  0.00    -0.550 OA
ENDBRANCH  11  12
ENDBRANCH  10  11
ENDBRANCH   9  10
ENDBRANCH   8   9
ENDBRANCH   1   8
TORSDOF 9
ENDMDL
MODEL 3
REMARK VINA RESULT:    -3.786     19.129     20.484
REMARK INTER + INTRA:          -6.578
REMARK INTER:                  -5.753
REMARK INTRA:                  -0.824
REMARK UNBOUND:                -0.800
REMARK SMILES O=C([O-])CCCCCCCCC(=O)[O-]
REMARK SMILES IDX 7 1 6 2 5 3 4 4 2 5 1 6 3 7 8 8 9 9 10 10 11 11 12 12 13 13
REMARK SMILES IDX 14 14
REMARK H PARENT
REMARK Flexibility Score: inf
ROOT
ATOM      1  C   UNL     1      40.675  43.762  61.283  1.00  0.00     0.000 C 
ENDROOT
BRANCH   1   2
ATOM      2  C   UNL     1      39.178  43.489  61.499  1.00  0.00     0.000 C 
BRANCH   2   3
ATOM      3  C   UNL     1      38.955  42.596  62.726  1.00  0.00     0.006 C 
BRANCH   3   4
ATOM      4  C   UNL     1      39.245  41.128  62.398  1.00  0.00     0.053 C 
BRANCH   4   5
ATOM      5  C   UNL     1      38.016  40.457  61.870  1.00  0.00     0.041 C 
ATOM      6  O   UNL     1      38.079  39.283  61.420  1.00  0.00    -0.550 OA
ATOM      7  O   UNL     1      36.811  41.147  61.829  1.00  0.00    -0.550 OA
ENDBRANCH   4   5
ENDBRANCH   3   4
ENDBRANCH   2   3
ENDBRANCH   1   2
BRANCH   1   8
ATOM      8  C   UNL     1      41.065  43.825  59.795  1.00  0.00     0.000 C 
BRANCH   8   9
ATOM      9  C   UNL     1      40.119  43.071  58.842  1.00  0.00     0.000 C 
BRANCH   9  10
ATOM     10  C   UNL     1      40.764  41.822  58.223  1.00  0.00     0.006 C 
BRANCH  10  11
ATOM     11  C   UNL     1      40.272  40.549  58.920  1.00  0.00     0.053 C 
BRANCH  11  12
ATOM     12  C   UNL     1      41.428  39.669  59.279  1.00  0.00     0.041 C 
ATOM     13  O   UNL     1      41.855  39.636  60.463  1.00  0.00    -0.550 OA
ATOM     14  O   UNL     1      42.064  38.921  58.297  1.00  0.00    -0.550 OA
ENDBRANCH  11  12
ENDBRANCH  10  11
ENDBRANCH   9  10
ENDBRANCH   8   9
ENDBRANCH   1   8
TORSDOF 9
ENDMDL
MODEL 4
REMARK VINA RESULT:    -3.771      0.580      5.619
REMARK INTER + INTRA:          -6.555
REMARK INTER:                  -5.834
REMARK INTRA:                  -0.721
REMARK UNBOUND:                -0.800
REMARK SMILES O=C([O-])CCCCCCCCC(=O)[O-]
REMARK SMILES IDX 7 1 6 2 5 3 4 4 2 5 1 6 3 7 8 8 9 9 10 10 11 11 12 12 13 13
REMARK SMILES IDX 14 14
REMARK H PARENT
REMARK Flexibility Score: inf
ROOT
ATOM      1  C   UNL     1      32.412  26.465  71.015  1.00  0.00     0.000 C 
ENDROOT
BRANCH   1   2
ATOM      2  C   UNL     1      31.428  25.345  71.388  1.00  0.00     0.000 C 
BRANCH   2   3
ATOM      3  C   UNL     1      31.572  24.150  70.437  1.00  0.00     0.006 C 
BRANCH   3   4
ATOM      4  C   UNL     1      30.526  24.209  69.319  1.00  0.00     0.053 C 
BRANCH   4   5
ATOM      5  C   UNL     1      31.192  24.352  67.987  1.00  0.00     0.041 C 
ATOM      6  O   UNL     1      30.507  24.326  66.930  1.00  0.00    -0.550 OA
ATOM      7  O   UNL     1      32.574  24.464  67.909  1.00  0.00    -0.550 OA
ENDBRANCH   4   5
ENDBRANCH   3   4
ENDBRANCH   2   3
ENDBRANCH   1   2
BRANCH   1   8
ATOM      8  C   UNL     1      33.874  26.112  71.338  1.00  0.00     0.000 C 
BRANCH   8   9
ATOM      9  C   UNL     1      34.842  26.193  70.144  1.00  0.00     0.000 C 
BRANCH   9  10
ATOM     10  C   UNL     1      35.422  24.826  69.749  1.00  0.00     0.006 C 
BRANCH  10  11
ATOM     11  C   UNL     1      35.950  24.079  70.978  1.00  0.00     0.053 C 
BRANCH  11  12
ATOM     12  C   UNL     1      37.446  24.081  70.989  1.00  0.00     0.041 C 
ATOM     13  O   UNL     1      38.072  23.875  72.062  1.00  0.00    -0.550 OA
ATOM     14  O   UNL     1      38.150  24.358  69.825  1.00  0.00    -0.550 OA
ENDBRANCH  11  12
ENDBRANCH  10  11
ENDBRANCH   9  10
ENDBRANCH   8   9
ENDBRANCH   1   8
TORSDOF 9
ENDMDL
MODEL 5
REMARK VINA RESULT:    -3.747      3.289      4.720
REMARK INTER + INTRA:          -6.518
REMARK INTER:                  -6.012
REMARK INTRA:                  -0.506
REMARK UNBOUND:                -0.800
REMARK SMILES O=C([O-])CCCCCCCCC(=O)[O-]
REMARK SMILES IDX 7 1 6 2 5 3 4 4 2 5 1 6 3 7 8 8 9 9 10 10 11 11 12 12 13 13
REMARK SMILES IDX 14 14
REMARK H PARENT
REMARK Flexibility Score: inf
ROOT
ATOM      1  C   UNL     1      35.611  24.774  69.625  1.00  0.00     0.000 C 
ENDROOT
BRANCH   1   2
ATOM      2  C   UNL     1      34.442  24.690  70.618  1.00  0.00     0.000 C 
BRANCH   2   3
ATOM      3  C   UNL     1      34.187  26.048  71.283  1.00  0.00     0.006 C 
BRANCH   3   4
ATOM      4  C   UNL     1      32.947  26.726  70.692  1.00  0.00     0.053 C 
BRANCH   4   5
ATOM      5  C   UNL     1      31.704  26.022  71.137  1.00  0.00     0.041 C 
ATOM      6  O   UNL     1      31.282  26.166  72.315  1.00  0.00    -0.550 OA
ATOM      7  O   UNL     1      31.039  25.169  70.267  1.00  0.00    -0.550 OA
ENDBRANCH   4   5
ENDBRANCH   3   4
ENDBRANCH   2   3
ENDBRANCH   1   2
BRANCH   1   8
ATOM      8  C   UNL     1      35.290  24.132  68.264  1.00  0.00     0.000 C 
BRANCH   8   9
ATOM      9  C   UNL     1      33.824  24.260  67.812  1.00  0.00     0.000 C 
BRANCH   9  10
ATOM     10  C   UNL     1      33.638  24.025  66.306  1.00  0.00     0.006 C 
BRANCH  10  11
ATOM     11  C   UNL     1      32.348  24.681  65.804  1.00  0.00     0.053 C 
BRANCH  11  12
ATOM     12  C   UNL     1      32.489  25.086  64.371  1.00  0.00     0.041 C 
ATOM     13  O   UNL     1      33.402  24.589  63.660  1.00  0.00    -0.550 OA
ATOM     14  O   UNL     1      31.644  26.047  63.833  1.00  0.00    -0.550 OA
ENDBRANCH  11  12
ENDBRANCH  10  11
ENDBRANCH   9  10
ENDBRANCH   8   9
ENDBRANCH   1   8
TORSDOF 9
ENDMDL
MODEL 6
REMARK VINA RESULT:    -3.695      3.159      5.361
REMARK INTER + INTRA:          -6.439
REMARK INTER:                  -5.790
REMARK INTRA:                  -0.649
REMARK UNBOUND:                -0.800
REMARK SMILES O=C([O-])CCCCCCCCC(=O)[O-]
REMARK SMILES IDX 7 1 6 2 5 3 4 4 2 5 1 6 3 7 8 8 9 9 10 10 11 11 12 12 13 13
REMARK SMILES IDX 14 14
REMARK H PARENT
REMARK Flexibility Score: inf
ROOT
ATOM      1  C   UNL     1      35.364  24.661  68.420  1.00  0.00     0.000 C 
ENDROOT
BRANCH   1   2
ATOM      2  C   UNL     1      34.046  23.911  68.174  1.00  0.00     0.000 C 
BRANCH   2   3
ATOM      3  C   UNL     1      33.614  24.023  66.707  1.00  0.00     0.006 C 
BRANCH   3   4
ATOM      4  C   UNL     1      32.183  24.559  66.595  1.00  0.00     0.053 C 
BRANCH   4   5
ATOM      5  C   UNL     1      31.856  24.883  65.171  1.00  0.00     0.041 C 
ATOM      6  O   UNL     1      32.766  25.238  64.377  1.00  0.00    -0.550 OA
ATOM      7  O   UNL     1      30.538  24.841  64.734  1.00  0.00    -0.550 OA
ENDBRANCH   4   5
ENDBRANCH   3   4
ENDBRANCH   2   3
ENDBRANCH   1   2
BRANCH   1   8
ATOM      8  C   UNL     1      35.776  24.682  69.902  1.00  0.00     0.000 C 
BRANCH   8   9
ATOM      9  C   UNL     1      34.606  24.685  70.903  1.00  0.00     0.000 C 
BRANCH   9  10
ATOM     10  C   UNL     1      34.223  26.095  71.374  1.00  0.00     0.006 C 
BRANCH  10  11
ATOM     11  C   UNL     1      33.001  26.616  70.610  1.00  0.00     0.053 C 
BRANCH  11  12
ATOM     12  C   UNL     1      31.759  25.921  71.072  1.00  0.00     0.041 C 
ATOM     13  O   UNL     1      31.133  25.156  70.292  1.00  0.00    -0.550 OA
ATOM     14  O   UNL     1      31.266  26.156  72.349  1.00  0.00    -0.550 OA
ENDBRANCH  11  12
ENDBRANCH  10  11
ENDBRANCH   9  10
ENDBRANCH   8   9
ENDBRANCH   1   8
TORSDOF 9
ENDMDL
MODEL 7
REMARK VINA RESULT:    -3.652      2.062      2.903
REMARK INTER + INTRA:          -6.373
REMARK INTER:                  -5.935
REMARK INTRA:                  -0.438
REMARK UNBOUND:                -0.800
REMARK SMILES O=C([O-])CCCCCCCCC(=O)[O-]
REMARK SMILES IDX 7 1 6 2 5 3 4 4 2 5 1 6 3 7 8 8 9 9 10 10 11 11 12 12 13 13
REMARK SMILES IDX 14 14
REMARK H PARENT
REMARK Flexibility Score: inf
ROOT
ATOM      1  C   UNL     1      32.427  24.907  70.663  1.00  0.00     0.000 C 
ENDROOT
BRANCH   1   2
ATOM      2  C   UNL     1      33.102  26.250  70.982  1.00  0.00     0.000 C 
BRANCH   2   3
ATOM      3  C   UNL     1      34.629  26.115  70.963  1.00  0.00     0.006 C 
BRANCH   3   4
ATOM      4  C   UNL     1      35.051  24.642  70.950  1.00  0.00     0.053 C 
BRANCH   4   5
ATOM      5  C   UNL     1      36.380  24.484  70.282  1.00  0.00     0.041 C 
ATOM      6  O   UNL     1      36.472  24.558  69.028  1.00  0.00    -0.550 OA
ATOM      7  O   UNL     1      37.510  24.207  71.040  1.00  0.00    -0.550 OA
ENDBRANCH   4   5
ENDBRANCH   3   4
ENDBRANCH   2   3
ENDBRANCH   1   2
BRANCH   1   8
ATOM      8  C   UNL     1      31.621  24.936  69.352  1.00  0.00     0.000 C 
BRANCH   8   9
ATOM      9  C   UNL     1      32.324  24.295  68.142  1.00  0.00     0.000 C 
BRANCH   9  10
ATOM     10  C   UNL     1      31.567  24.516  66.823  1.00  0.00     0.006 C 
BRANCH  10  11
ATOM     11  C   UNL     1      32.541  24.643  65.647  1.00  0.00     0.053 C 
BRANCH  11  12
ATOM     12  C   UNL     1      31.809  25.031  64.401  1.00  0.00     0.041 C 
ATOM     13  O   UNL     1      32.024  26.148  63.862  1.00  0.00    -0.550 OA
ATOM     14  O   UNL     1      30.854  24.178  63.862  1.00  0.00    -0.550 OA
ENDBRANCH  11  12
ENDBRANCH  10  11
ENDBRANCH   9  10
ENDBRANCH   8   9
ENDBRANCH   1   8
TORSDOF 9
ENDMDL
MODEL 8
REMARK VINA RESULT:    -3.648      3.747      6.943
REMARK INTER + INTRA:          -6.368
REMARK INTER:                  -5.901
REMARK INTRA:                  -0.467
REMARK UNBOUND:                -0.800
REMARK SMILES O=C([O-])CCCCCCCCC(=O)[O-]
REMARK SMILES IDX 7 1 6 2 5 3 4 4 2 5 1 6 3 7 8 8 9 9 10 10 11 11 12 12 13 13
REMARK SMILES IDX 14 14
REMARK H PARENT
REMARK Flexibility Score: inf
ROOT
ATOM      1  C   UNL     1      32.365  24.672  65.890  1.00  0.00     0.000 C 
ENDROOT
BRANCH   1   2
ATOM      2  C   UNL     1      30.925  24.552  65.368  1.00  0.00     0.000 C 
BRANCH   2   3
ATOM      3  C   UNL     1      30.845  24.940  63.886  1.00  0.00     0.006 C 
BRANCH   3   4
ATOM      4  C   UNL     1      32.021  25.836  63.488  1.00  0.00     0.053 C 
BRANCH   4   5
ATOM      5  C   UNL     1      31.526  27.107  62.872  1.00  0.00     0.041 C 
ATOM      6  O   UNL     1      32.335  28.030  62.588  1.00  0.00    -0.550 OA
ATOM      7  O   UNL     1      30.167  27.292  62.659  1.00  0.00    -0.550 OA
ENDBRANCH   4   5
ENDBRANCH   3   4
ENDBRANCH   2   3
ENDBRANCH   1   2
BRANCH   1   8
ATOM      8  C   UNL     1      32.489  24.347  67.389  1.00  0.00     0.000 C 
BRANCH   8   9
ATOM      9  C   UNL     1      31.172  24.424  68.183  1.00  0.00     0.000 C 
BRANCH   9  10
ATOM     10  C   UNL     1      31.391  24.610  69.691  1.00  0.00     0.006 C 
BRANCH  10  11
ATOM     11  C   UNL     1      32.885  24.618  70.031  1.00  0.00     0.053 C 
BRANCH  11  12
ATOM     12  C   UNL     1      33.243  25.855  70.792  1.00  0.00     0.041 C 
ATOM     13  O   UNL     1      34.413  26.014  71.230  1.00  0.00    -0.550 OA
ATOM     14  O   UNL     1      32.273  26.811  71.061  1.00  0.00    -0.550 OA
ENDBRANCH  11  12
ENDBRANCH  10  11
ENDBRANCH   9  10
ENDBRANCH   8   9
ENDBRANCH   1   8
TORSDOF 9
ENDMDL
