MODEL 1
REMARK VINA RESULT:    -3.717      0.000      0.000
REMARK INTER + INTRA:          -5.630
REMARK INTER:                  -5.021
REMARK INTRA:                  -0.610
REMARK UNBOUND:                -0.610
REMARK SMILES CC(=O)CCC=C(C)CCC=C(C)C
REMARK SMILES IDX 7 1 6 2 8 3 9 4 10 5 11 6 13 7 12 8 14 9 5 10 4 11 2 12 3 13
REMARK SMILES IDX 1 14
REMARK H PARENT
REMARK Flexibility Score: inf
ROOT
ATOM      1  C   UNL     1     134.985  51.330  25.399  1.00  0.00    -0.077 C 
ATOM      2  C   UNL     1     135.039  51.647  26.712  1.00  0.00    -0.028 C 
ATOM      3  C   UNL     1     134.887  49.875  25.017  1.00  0.00     0.039 C 
ENDROOT
BRANCH   1   4
ATOM      4  C   UNL     1     135.038  52.376  24.299  1.00  0.00     0.034 C 
BRANCH   4   5
ATOM      5  C   UNL     1     133.889  52.212  23.292  1.00  0.00     0.032 C 
BRANCH   5   6
ATOM      6  C   UNL     1     134.323  52.540  21.883  1.00  0.00    -0.028 C 
ATOM      7  C   UNL     1     134.772  50.150  21.283  1.00  0.00     0.039 C 
ATOM      8  C   UNL     1     134.751  51.630  20.981  1.00  0.00    -0.080 C 
ATOM      9  C   UNL     1     135.200  52.119  19.628  1.00  0.00     0.039 C 
ENDBRANCH   5   6
ENDBRANCH   4   5
ENDBRANCH   1   4
BRANCH   2  10
ATOM     10  C   UNL     1     135.103  53.063  27.232  1.00  0.00     0.035 C 
BRANCH  10  11
ATOM     11  C   UNL     1     134.702  53.129  28.710  1.00  0.00     0.079 C 
BRANCH  11  12
ATOM     12  C   UNL     1     135.632  54.034  29.475  1.00  0.00     0.130 C 
ATOM     13  O   UNL     1     136.615  54.497  28.916  1.00  0.00    -0.300 OA
ATOM     14  C   UNL     1     135.386  54.372  30.915  1.00  0.00     0.087 C 
ENDBRANCH  11  12
ENDBRANCH  10  11
ENDBRANCH   2  10
TORSDOF 6
ENDMDL
MODEL 2
REMARK VINA RESULT:    -3.652      2.820      6.833
REMARK INTER + INTRA:          -5.542
REMARK INTER:                  -4.973
REMARK INTRA:                  -0.569
REMARK UNBOUND:                -0.610
REMARK SMILES CC(=O)CCC=C(C)CCC=C(C)C
REMARK SMILES IDX 7 1 6 2 8 3 9 4 10 5 11 6 13 7 12 8 14 9 5 10 4 11 2 12 3 13
REMARK SMILES IDX 1 14
REMARK H PARENT
REMARK Flexibility Score: inf
ROOT
ATOM      1  C   UNL     1     135.172  50.218  25.759  1.00  0.00    -0.077 C 
ATOM      2  C   UNL     1     135.307  49.927  24.446  1.00  0.00    -0.028 C 
ATOM      3  C   UNL     1     136.030  49.474  26.750  1.00  0.00     0.039 C 
ENDROOT
BRANCH   1   4
ATOM      4  C   UNL     1     134.179  51.247  26.274  1.00  0.00     0.034 C 
BRANCH   4   5
ATOM      5  C   UNL     1     134.719  52.680  26.151  1.00  0.00     0.032 C 
BRANCH   5   6
ATOM      6  C   UNL     1     135.629  53.041  27.301  1.00  0.00    -0.028 C 
ATOM      7  C   UNL     1     133.941  54.540  28.388  1.00  0.00     0.039 C 
ATOM      8  C   UNL     1     135.305  53.897  28.295  1.00  0.00    -0.080 C 
ATOM      9  C   UNL     1     136.341  54.197  29.348  1.00  0.00     0.039 C 
ENDBRANCH   5   6
ENDBRANCH   4   5
ENDBRANCH   1   4
BRANCH   2  10
ATOM     10  C   UNL     1     134.536  50.620  23.348  1.00  0.00     0.035 C 
BRANCH  10  11
ATOM     11  C   UNL     1     135.474  51.398  22.419  1.00  0.00     0.079 C 
BRANCH  11  12
ATOM     12  C   UNL     1     135.238  51.016  20.981  1.00  0.00     0.130 C 
ATOM     13  O   UNL     1     135.281  49.839  20.657  1.00  0.00    -0.300 OA
ATOM     14  C   UNL     1     134.962  52.052  19.932  1.00  0.00     0.087 C 
ENDBRANCH  11  12
ENDBRANCH  10  11
ENDBRANCH   2  10
TORSDOF 6
ENDMDL
MODEL 3
REMARK VINA RESULT:    -3.361      2.784      7.209
REMARK INTER + INTRA:          -5.149
REMARK INTER:                  -4.841
REMARK INTRA:                  -0.308
REMARK UNBOUND:                -0.610
REMARK SMILES CC(=O)CCC=C(C)CCC=C(C)C
REMARK SMILES IDX 7 1 6 2 8 3 9 4 10 5 11 6 13 7 12 8 14 9 5 10 4 11 2 12 3 13
REMARK SMILES IDX 1 14
REMARK H PARENT
REMARK Flexibility Score: inf
ROOT
ATOM      1  C   UNL     1     134.628  52.501  24.448  1.00  0.00    -0.077 C 
ATOM      2  C   UNL     1     135.019  52.340  23.165  1.00  0.00    -0.028 C 
ATOM      3  C   UNL     1     133.916  53.776  24.825  1.00  0.00     0.039 C 
ENDROOT
BRANCH   1   4
ATOM      4  C   UNL     1     134.895  51.463  25.525  1.00  0.00     0.034 C 
BRANCH   4   5
ATOM      5  C   UNL     1     134.441  51.943  26.912  1.00  0.00     0.032 C 
BRANCH   5   6
ATOM      6  C   UNL     1     135.452  52.867  27.548  1.00  0.00    -0.028 C 
ATOM      7  C   UNL     1     134.240  52.964  29.738  1.00  0.00     0.039 C 
ATOM      8  C   UNL     1     135.360  53.358  28.804  1.00  0.00    -0.080 C 
ATOM      9  C   UNL     1     136.424  54.313  29.280  1.00  0.00     0.039 C 
ENDBRANCH   5   6
ENDBRANCH   4   5
ENDBRANCH   1   4
BRANCH   2  10
ATOM     10  C   UNL     1     135.708  51.100  22.646  1.00  0.00     0.035 C 
BRANCH  10  11
ATOM     11  C   UNL     1     134.962  50.513  21.443  1.00  0.00     0.079 C 
BRANCH  11  12
ATOM     12  C   UNL     1     135.065  51.429  20.252  1.00  0.00     0.130 C 
ATOM     13  O   UNL     1     136.142  51.567  19.692  1.00  0.00    -0.300 OA
ATOM     14  C   UNL     1     133.875  52.187  19.743  1.00  0.00     0.087 C 
ENDBRANCH  11  12
ENDBRANCH  10  11
ENDBRANCH   2  10
TORSDOF 6
ENDMDL
MODEL 4
REMARK VINA RESULT:    -2.870      1.471      2.067
REMARK INTER + INTRA:          -4.486
REMARK INTER:                  -4.162
REMARK INTRA:                  -0.325
REMARK UNBOUND:                -0.610
REMARK SMILES CC(=O)CCC=C(C)CCC=C(C)C
REMARK SMILES IDX 7 1 6 2 8 3 9 4 10 5 11 6 13 7 12 8 14 9 5 10 4 11 2 12 3 13
REMARK SMILES IDX 1 14
REMARK H PARENT
REMARK Flexibility Score: inf
ROOT
ATOM      1  C   UNL     1     134.600  52.955  24.740  1.00  0.00    -0.077 C 
ATOM      2  C   UNL     1     133.884  53.201  25.860  1.00  0.00    -0.028 C 
ATOM      3  C   UNL     1     134.514  53.943  23.603  1.00  0.00     0.039 C 
ENDROOT
BRANCH   1   4
ATOM      4  C   UNL     1     135.466  51.719  24.573  1.00  0.00     0.034 C 
BRANCH   4   5
ATOM      5  C   UNL     1     134.868  50.728  23.563  1.00  0.00     0.032 C 
BRANCH   5   6
ATOM      6  C   UNL     1     135.621  50.734  22.254  1.00  0.00    -0.028 C 
ATOM      7  C   UNL     1     133.885  52.094  21.065  1.00  0.00     0.039 C 
ATOM      8  C   UNL     1     135.179  51.316  21.117  1.00  0.00    -0.080 C 
ATOM      9  C   UNL     1     136.022  51.192  19.874  1.00  0.00     0.039 C 
ENDBRANCH   5   6
ENDBRANCH   4   5
ENDBRANCH   1   4
BRANCH   2  10
ATOM     10  C   UNL     1     133.906  52.315  27.082  1.00  0.00     0.035 C 
BRANCH  10  11
ATOM     11  C   UNL     1     135.216  52.478  27.861  1.00  0.00     0.079 C 
BRANCH  11  12
ATOM     12  C   UNL     1     134.949  53.001  29.248  1.00  0.00     0.130 C 
ATOM     13  O   UNL     1     134.223  52.369  30.000  1.00  0.00    -0.300 OA
ATOM     14  C   UNL     1     135.547  54.291  29.726  1.00  0.00     0.087 C 
ENDBRANCH  11  12
ENDBRANCH  10  11
ENDBRANCH   2  10
TORSDOF 6
ENDMDL
MODEL 5
REMARK VINA RESULT:    -2.768      2.405      6.897
REMARK INTER + INTRA:          -4.349
REMARK INTER:                  -3.828
REMARK INTRA:                  -0.521
REMARK UNBOUND:                -0.610
REMARK SMILES CC(=O)CCC=C(C)CCC=C(C)C
REMARK SMILES IDX 7 1 6 2 8 3 9 4 10 5 11 6 13 7 12 8 14 9 5 10 4 11 2 12 3 13
REMARK SMILES IDX 1 14
REMARK H PARENT
REMARK Flexibility Score: inf
ROOT
ATOM      1  C   UNL     1     134.739  50.831  27.935  1.00  0.00    -0.077 C 
ATOM      2  C   UNL     1     134.980  50.635  26.619  1.00  0.00    -0.028 C 
ATOM      3  C   UNL     1     134.964  49.681  28.884  1.00  0.00     0.039 C 
ENDROOT
BRANCH   1   4
ATOM      4  C   UNL     1     134.234  52.152  28.488  1.00  0.00     0.034 C 
BRANCH   4   5
ATOM      5  C   UNL     1     135.379  53.144  28.746  1.00  0.00     0.032 C 
BRANCH   5   6
ATOM      6  C   UNL     1     134.926  54.578  28.601  1.00  0.00    -0.028 C 
ATOM      7  C   UNL     1     134.582  54.897  31.062  1.00  0.00     0.039 C 
ATOM      8  C   UNL     1     134.536  55.367  29.627  1.00  0.00    -0.080 C 
ATOM      9  C   UNL     1     134.061  56.763  29.317  1.00  0.00     0.039 C 
ENDBRANCH   5   6
ENDBRANCH   4   5
ENDBRANCH   1   4
BRANCH   2  10
ATOM     10  C   UNL     1     134.831  51.708  25.568  1.00  0.00     0.035 C 
BRANCH  10  11
ATOM     11  C   UNL     1     133.992  51.213  24.385  1.00  0.00     0.079 C 
BRANCH  11  12
ATOM     12  C   UNL     1     134.876  50.834  23.226  1.00  0.00     0.130 C 
ATOM     13  O   UNL     1     135.973  51.359  23.110  1.00  0.00    -0.300 OA
ATOM     14  C   UNL     1     134.436  49.831  22.201  1.00  0.00     0.087 C 
ENDBRANCH  11  12
ENDBRANCH  10  11
ENDBRANCH   2  10
TORSDOF 6
ENDMDL
MODEL 6
REMARK VINA RESULT:    -2.586      1.301      2.061
REMARK INTER + INTRA:          -4.103
REMARK INTER:                  -4.182
REMARK INTRA:                   0.079
REMARK UNBOUND:                -0.610
REMARK SMILES CC(=O)CCC=C(C)CCC=C(C)C
REMARK SMILES IDX 7 1 6 2 8 3 9 4 10 5 11 6 13 7 12 8 14 9 5 10 4 11 2 12 3 13
REMARK SMILES IDX 1 14
REMARK H PARENT
REMARK Flexibility Score: inf
ROOT
ATOM      1  C   UNL     1     134.622  52.609  27.373  1.00  0.00    -0.077 C 
ATOM      2  C   UNL     1     134.690  53.412  28.458  1.00  0.00    -0.028 C 
ATOM      3  C   UNL     1     135.179  51.212  27.480  1.00  0.00     0.039 C 
ENDROOT
BRANCH   1   4
ATOM      4  C   UNL     1     134.029  53.063  26.051  1.00  0.00     0.034 C 
BRANCH   4   5
ATOM      5  C   UNL     1     134.467  52.165  24.884  1.00  0.00     0.032 C 
BRANCH   5   6
ATOM      6  C   UNL     1     134.104  52.762  23.545  1.00  0.00    -0.028 C 
ATOM      7  C   UNL     1     135.207  50.931  22.238  1.00  0.00     0.039 C 
ATOM      8  C   UNL     1     134.456  52.237  22.351  1.00  0.00    -0.080 C 
ATOM      9  C   UNL     1     134.063  52.978  21.098  1.00  0.00     0.039 C 
ENDBRANCH   5   6
ENDBRANCH   4   5
ENDBRANCH   1   4
BRANCH   2  10
ATOM     10  C   UNL     1     134.140  54.818  28.498  1.00  0.00     0.035 C 
BRANCH  10  11
ATOM     11  C   UNL     1     134.284  55.430  29.895  1.00  0.00     0.079 C 
BRANCH  11  12
ATOM     12  C   UNL     1     135.003  54.483  30.820  1.00  0.00     0.130 C 
ATOM     13  O   UNL     1     136.218  54.376  30.746  1.00  0.00    -0.300 OA
ATOM     14  C   UNL     1     134.259  53.657  31.827  1.00  0.00     0.087 C 
ENDBRANCH  11  12
ENDBRANCH  10  11
ENDBRANCH   2  10
TORSDOF 6
ENDMDL
MODEL 7
REMARK VINA RESULT:    -2.210      2.162      2.942
REMARK INTER + INTRA:          -3.595
REMARK INTER:                  -3.253
REMARK INTRA:                  -0.342
REMARK UNBOUND:                -0.610
REMARK SMILES CC(=O)CCC=C(C)CCC=C(C)C
REMARK SMILES IDX 7 1 6 2 8 3 9 4 10 5 11 6 13 7 12 8 14 9 5 10 4 11 2 12 3 13
REMARK SMILES IDX 1 14
REMARK H PARENT
REMARK Flexibility Score: inf
ROOT
ATOM      1  C   UNL     1     134.856  52.601  25.105  1.00  0.00    -0.077 C 
ATOM      2  C   UNL     1     134.254  52.889  26.280  1.00  0.00    -0.028 C 
ATOM      3  C   UNL     1     135.213  53.740  24.184  1.00  0.00     0.039 C 
ENDROOT
BRANCH   1   4
ATOM      4  C   UNL     1     135.168  51.179  24.668  1.00  0.00     0.034 C 
BRANCH   4   5
ATOM      5  C   UNL     1     134.212  50.693  23.567  1.00  0.00     0.032 C 
BRANCH   5   6
ATOM      6  C   UNL     1     134.922  50.504  22.248  1.00  0.00    -0.028 C 
ATOM      7  C   UNL     1     134.262  52.758  21.375  1.00  0.00     0.039 C 
ATOM      8  C   UNL     1     134.928  51.408  21.243  1.00  0.00    -0.080 C 
ATOM      9  C   UNL     1     135.639  51.053  19.963  1.00  0.00     0.039 C 
ENDBRANCH   5   6
ENDBRANCH   4   5
ENDBRANCH   1   4
BRANCH   2  10
ATOM     10  C   UNL     1     133.875  51.848  27.307  1.00  0.00     0.035 C 
BRANCH  10  11
ATOM     11  C   UNL     1     135.070  51.486  28.195  1.00  0.00     0.079 C 
BRANCH  11  12
ATOM     12  C   UNL     1     135.407  50.024  28.066  1.00  0.00     0.130 C 
ATOM     13  O   UNL     1     136.290  49.675  27.296  1.00  0.00    -0.300 OA
ATOM     14  C   UNL     1     134.673  48.979  28.853  1.00  0.00     0.087 C 
ENDBRANCH  11  12
ENDBRANCH  10  11
ENDBRANCH   2  10
TORSDOF 6
ENDMDL
MODEL 8
REMARK VINA RESULT:    -1.791      2.869      6.424
REMARK INTER + INTRA:          -3.028
REMARK INTER:                  -2.693
REMARK INTRA:                  -0.335
REMARK UNBOUND:                -0.610
REMARK SMILES CC(=O)CCC=C(C)CCC=C(C)C
REMARK SMILES IDX 7 1 6 2 8 3 9 4 10 5 11 6 13 7 12 8 14 9 5 10 4 11 2 12 3 13
REMARK SMILES IDX 1 14
REMARK H PARENT
REMARK Flexibility Score: inf
ROOT
ATOM      1  C   UNL     1     136.356  48.902  26.882  1.00  0.00    -0.077 C 
ATOM      2  C   UNL     1     135.904  48.876  25.609  1.00  0.00    -0.028 C 
ATOM      3  C   UNL     1     137.845  48.875  27.115  1.00  0.00     0.039 C 
ENDROOT
BRANCH   1   4
ATOM      4  C   UNL     1     135.425  48.936  28.083  1.00  0.00     0.034 C 
BRANCH   4   5
ATOM      5  C   UNL     1     134.555  50.202  28.100  1.00  0.00     0.032 C 
BRANCH   5   6
ATOM      6  C   UNL     1     135.388  51.461  28.062  1.00  0.00    -0.028 C 
ATOM      7  C   UNL     1     134.007  52.632  29.794  1.00  0.00     0.039 C 
ATOM      8  C   UNL     1     135.137  52.569  28.793  1.00  0.00    -0.080 C 
ATOM      9  C   UNL     1     136.032  53.768  28.607  1.00  0.00     0.039 C 
ENDBRANCH   5   6
ENDBRANCH   4   5
ENDBRANCH   1   4
BRANCH   2  10
ATOM     10  C   UNL     1     134.442  48.933  25.234  1.00  0.00     0.035 C 
BRANCH  10  11
ATOM     11  C   UNL     1     134.036  50.346  24.803  1.00  0.00     0.079 C 
BRANCH  11  12
ATOM     12  C   UNL     1     134.634  50.688  23.463  1.00  0.00     0.130 C 
ATOM     13  O   UNL     1     134.384  49.983  22.496  1.00  0.00    -0.300 OA
ATOM     14  C   UNL     1     135.541  51.869  23.289  1.00  0.00     0.087 C 
ENDBRANCH  11  12
ENDBRANCH  10  11
ENDBRANCH   2  10
TORSDOF 6
ENDMDL
