MODEL 1
REMARK VINA RESULT:    11.285      0.000      0.000
REMARK INTER + INTRA:          20.531
REMARK INTER:                  21.180
REMARK INTRA:                  -0.649
REMARK UNBOUND:                -0.649
REMARK SMILES CCCCCCCCC=CCCCCCCCC(=O)[O-]
REMARK SMILES IDX 10 1 9 2 11 3 12 4 13 5 14 6 15 7 16 8 17 9 18 10 19 11
REMARK SMILES IDX 20 12 8 13 7 14 6 15 5 16 4 17 3 18 2 19 1 20
REMARK H PARENT
REMARK Flexibility Score: inf
ROOT
ATOM      1  C   UNL     1       3.667  41.955  12.301  1.00  0.00    -0.031 C 
ATOM      2  C   UNL     1       3.773  41.354  13.503  1.00  0.00    -0.031 C 
ENDROOT
BRANCH   1   3
ATOM      3  C   UNL     1       4.683  41.852  11.190  1.00  0.00     0.027 C 
BRANCH   3   4
ATOM      4  C   UNL     1       4.721  43.116  10.317  1.00  0.00     0.004 C 
BRANCH   4   5
ATOM      5  C   UNL     1       5.082  42.796   8.857  1.00  0.00     0.000 C 
BRANCH   5   6
ATOM      6  C   UNL     1       6.575  42.480   8.670  1.00  0.00     0.000 C 
BRANCH   6   7
ATOM      7  C   UNL     1       7.064  42.507   7.209  1.00  0.00     0.000 C 
BRANCH   7   8
ATOM      8  C   UNL     1       8.580  42.257   7.059  1.00  0.00     0.006 C 
BRANCH   8   9
ATOM      9  C   UNL     1       9.036  42.347   5.596  1.00  0.00     0.053 C 
BRANCH   9  10
ATOM     10  C   UNL     1       9.095  40.992   4.958  1.00  0.00     0.041 C 
ATOM     11  O   UNL     1       8.664  39.976   5.566  1.00  0.00    -0.550 OA
ATOM     12  O   UNL     1       9.607  40.854   3.671  1.00  0.00    -0.550 OA
ENDBRANCH   9  10
ENDBRANCH   8   9
ENDBRANCH   7   8
ENDBRANCH   6   7
ENDBRANCH   5   6
ENDBRANCH   4   5
ENDBRANCH   3   4
ENDBRANCH   1   3
BRANCH   2  13
ATOM     13  C   UNL     1       4.894  40.432  13.919  1.00  0.00     0.027 C 
BRANCH  13  14
ATOM     14  C   UNL     1       4.695  39.939  15.357  1.00  0.00     0.004 C 
BRANCH  14  15
ATOM     15  C   UNL     1       4.829  38.409  15.463  1.00  0.00     0.000 C 
BRANCH  15  16
ATOM     16  C   UNL     1       6.180  37.887  14.943  1.00  0.00     0.000 C 
BRANCH  16  17
ATOM     17  C   UNL     1       7.342  37.976  15.951  1.00  0.00    -0.000 C 
BRANCH  17  18
ATOM     18  C   UNL     1       8.263  39.182  15.700  1.00  0.00    -0.000 C 
BRANCH  18  19
ATOM     19  C   UNL     1       9.707  38.861  16.108  1.00  0.00    -0.003 C 
ATOM     20  C   UNL     1      10.623  38.807  14.887  1.00  0.00     0.004 C 
ENDBRANCH  18  19
ENDBRANCH  17  18
ENDBRANCH  16  17
ENDBRANCH  15  16
ENDBRANCH  14  15
ENDBRANCH  13  14
ENDBRANCH   2  13
TORSDOF 15
ENDMDL
MODEL 2
REMARK VINA RESULT:    11.745      1.180      1.562
REMARK INTER + INTRA:          21.396
REMARK INTER:                  22.365
REMARK INTRA:                  -0.970
REMARK UNBOUND:                -0.649
REMARK SMILES CCCCCCCCC=CCCCCCCCC(=O)[O-]
REMARK SMILES IDX 10 1 9 2 11 3 12 4 13 5 14 6 15 7 16 8 17 9 18 10 19 11
REMARK SMILES IDX 20 12 8 13 7 14 6 15 5 16 4 17 3 18 2 19 1 20
REMARK H PARENT
REMARK Flexibility Score: inf
ROOT
ATOM      1  C   UNL     1       3.740  41.808  12.931  1.00  0.00    -0.031 C 
ATOM      2  C   UNL     1       3.892  41.278  14.160  1.00  0.00    -0.031 C 
ENDROOT
BRANCH   1   3
ATOM      3  C   UNL     1       4.338  41.244  11.665  1.00  0.00     0.027 C 
BRANCH   3   4
ATOM      4  C   UNL     1       4.933  42.338  10.765  1.00  0.00     0.004 C 
BRANCH   4   5
ATOM      5  C   UNL     1       3.990  42.706   9.607  1.00  0.00     0.000 C 
BRANCH   5   6
ATOM      6  C   UNL     1       4.631  43.680   8.606  1.00  0.00     0.000 C 
BRANCH   6   7
ATOM      7  C   UNL     1       6.142  43.478   8.383  1.00  0.00     0.000 C 
BRANCH   7   8
ATOM      8  C   UNL     1       6.475  42.604   7.154  1.00  0.00     0.006 C 
BRANCH   8   9
ATOM      9  C   UNL     1       7.743  41.765   7.371  1.00  0.00     0.053 C 
BRANCH   9  10
ATOM     10  C   UNL     1       8.834  42.169   6.426  1.00  0.00     0.041 C 
ATOM     11  O   UNL     1       9.084  41.480   5.401  1.00  0.00    -0.550 OA
ATOM     12  O   UNL     1       9.563  43.329   6.667  1.00  0.00    -0.550 OA
ENDBRANCH   9  10
ENDBRANCH   8   9
ENDBRANCH   7   8
ENDBRANCH   6   7
ENDBRANCH   5   6
ENDBRANCH   4   5
ENDBRANCH   3   4
ENDBRANCH   1   3
BRANCH   2  13
ATOM     13  C   UNL     1       4.634  40.000  14.472  1.00  0.00     0.027 C 
BRANCH  13  14
ATOM     14  C   UNL     1       3.930  39.210  15.580  1.00  0.00     0.004 C 
BRANCH  14  15
ATOM     15  C   UNL     1       4.789  38.037  16.083  1.00  0.00     0.000 C 
BRANCH  15  16
ATOM     16  C   UNL     1       6.104  37.877  15.300  1.00  0.00     0.000 C 
BRANCH  16  17
ATOM     17  C   UNL     1       7.385  38.108  16.125  1.00  0.00    -0.000 C 
BRANCH  17  18
ATOM     18  C   UNL     1       7.969  39.519  15.943  1.00  0.00    -0.000 C 
BRANCH  18  19
ATOM     19  C   UNL     1       9.142  39.501  14.954  1.00  0.00    -0.003 C 
ATOM     20  C   UNL     1      10.163  38.429  15.332  1.00  0.00     0.004 C 
ENDBRANCH  18  19
ENDBRANCH  17  18
ENDBRANCH  16  17
ENDBRANCH  15  16
ENDBRANCH  14  15
ENDBRANCH  13  14
ENDBRANCH   2  13
TORSDOF 15
ENDMDL
MODEL 3
REMARK VINA RESULT:    11.870      3.398      8.996
REMARK INTER + INTRA:          21.630
REMARK INTER:                  22.265
REMARK INTRA:                  -0.635
REMARK UNBOUND:                -0.649
REMARK SMILES CCCCCCCCC=CCCCCCCCC(=O)[O-]
REMARK SMILES IDX 10 1 9 2 11 3 12 4 13 5 14 6 15 7 16 8 17 9 18 10 19 11
REMARK SMILES IDX 20 12 8 13 7 14 6 15 5 16 4 17 3 18 2 19 1 20
REMARK H PARENT
REMARK Flexibility Score: inf
ROOT
ATOM      1  C   UNL     1       4.070  42.529  10.500  1.00  0.00    -0.031 C 
ATOM      2  C   UNL     1       4.713  42.894   9.374  1.00  0.00    -0.031 C 
ENDROOT
BRANCH   1   3
ATOM      3  C   UNL     1       4.728  41.913  11.711  1.00  0.00     0.027 C 
BRANCH   3   4
ATOM      4  C   UNL     1       3.703  41.383  12.725  1.00  0.00     0.004 C 
BRANCH   4   5
ATOM      5  C   UNL     1       4.347  41.079  14.088  1.00  0.00     0.000 C 
BRANCH   5   6
ATOM      6  C   UNL     1       3.761  39.823  14.755  1.00  0.00     0.000 C 
BRANCH   6   7
ATOM      7  C   UNL     1       4.655  39.188  15.836  1.00  0.00     0.000 C 
BRANCH   7   8
ATOM      8  C   UNL     1       5.798  38.322  15.264  1.00  0.00     0.006 C 
BRANCH   8   9
ATOM      9  C   UNL     1       7.115  38.529  16.027  1.00  0.00     0.053 C 
BRANCH   9  10
ATOM     10  C   UNL     1       8.044  39.434  15.276  1.00  0.00     0.041 C 
ATOM     11  O   UNL     1       9.076  38.975  14.717  1.00  0.00    -0.550 OA
ATOM     12  O   UNL     1       7.756  40.791  15.173  1.00  0.00    -0.550 OA
ENDBRANCH   9  10
ENDBRANCH   8   9
ENDBRANCH   7   8
ENDBRANCH   6   7
ENDBRANCH   5   6
ENDBRANCH   4   5
ENDBRANCH   3   4
ENDBRANCH   1   3
BRANCH   2  13
ATOM     13  C   UNL     1       6.204  42.805   9.154  1.00  0.00     0.027 C 
BRANCH  13  14
ATOM     14  C   UNL     1       6.536  42.721   7.660  1.00  0.00     0.004 C 
BRANCH  14  15
ATOM     15  C   UNL     1       7.879  42.012   7.410  1.00  0.00     0.000 C 
BRANCH  15  16
ATOM     16  C   UNL     1       8.347  42.109   5.947  1.00  0.00     0.000 C 
BRANCH  16  17
ATOM     17  C   UNL     1       8.198  40.811   5.130  1.00  0.00    -0.000 C 
BRANCH  17  18
ATOM     18  C   UNL     1       9.549  40.182   4.753  1.00  0.00    -0.000 C 
BRANCH  18  19
ATOM     19  C   UNL     1      10.179  40.914   3.561  1.00  0.00    -0.003 C 
ATOM     20  C   UNL     1      10.046  40.094   2.279  1.00  0.00     0.004 C 
ENDBRANCH  18  19
ENDBRANCH  17  18
ENDBRANCH  16  17
ENDBRANCH  15  16
ENDBRANCH  14  15
ENDBRANCH  13  14
ENDBRANCH   2  13
TORSDOF 15
ENDMDL
MODEL 4
REMARK VINA RESULT:    12.026      4.163      9.375
REMARK INTER + INTRA:          21.923
REMARK INTER:                  21.809
REMARK INTRA:                   0.114
REMARK UNBOUND:                -0.649
REMARK SMILES CCCCCCCCC=CCCCCCCCC(=O)[O-]
REMARK SMILES IDX 10 1 9 2 11 3 12 4 13 5 14 6 15 7 16 8 17 9 18 10 19 11
REMARK SMILES IDX 20 12 8 13 7 14 6 15 5 16 4 17 3 18 2 19 1 20
REMARK H PARENT
REMARK Flexibility Score: inf
ROOT
ATOM      1  C   UNL     1       6.069  42.005  10.838  1.00  0.00    -0.031 C 
ATOM      2  C   UNL     1       5.972  42.424   9.561  1.00  0.00    -0.031 C 
ENDROOT
BRANCH   1   3
ATOM      3  C   UNL     1       7.309  41.413  11.463  1.00  0.00     0.027 C 
BRANCH   3   4
ATOM      4  C   UNL     1       7.102  41.056  12.943  1.00  0.00     0.004 C 
BRANCH   4   5
ATOM      5  C   UNL     1       8.308  40.302  13.527  1.00  0.00     0.000 C 
BRANCH   5   6
ATOM      6  C   UNL     1       8.361  40.365  15.062  1.00  0.00     0.000 C 
BRANCH   6   7
ATOM      7  C   UNL     1       7.039  40.011  15.770  1.00  0.00     0.000 C 
BRANCH   7   8
ATOM      8  C   UNL     1       6.063  39.200  14.889  1.00  0.00     0.006 C 
BRANCH   8   9
ATOM      9  C   UNL     1       5.110  38.338  15.729  1.00  0.00     0.053 C 
BRANCH   9  10
ATOM     10  C   UNL     1       3.707  38.861  15.674  1.00  0.00     0.041 C 
ATOM     11  O   UNL     1       3.469  40.016  15.230  1.00  0.00    -0.550 OA
ATOM     12  O   UNL     1       2.651  38.057  16.093  1.00  0.00    -0.550 OA
ENDBRANCH   9  10
ENDBRANCH   8   9
ENDBRANCH   7   8
ENDBRANCH   6   7
ENDBRANCH   5   6
ENDBRANCH   4   5
ENDBRANCH   3   4
ENDBRANCH   1   3
BRANCH   2  13
ATOM     13  C   UNL     1       7.101  42.427   8.558  1.00  0.00     0.027 C 
BRANCH  13  14
ATOM     14  C   UNL     1       6.576  42.675   7.139  1.00  0.00     0.004 C 
BRANCH  14  15
ATOM     15  C   UNL     1       7.696  43.121   6.183  1.00  0.00     0.000 C 
BRANCH  15  16
ATOM     16  C   UNL     1       8.988  42.302   6.347  1.00  0.00     0.000 C 
BRANCH  16  17
ATOM     17  C   UNL     1       8.788  40.775   6.393  1.00  0.00    -0.000 C 
BRANCH  17  18
ATOM     18  C   UNL     1       8.920  40.111   5.012  1.00  0.00    -0.000 C 
BRANCH  18  19
ATOM     19  C   UNL     1       9.640  41.040   4.026  1.00  0.00    -0.003 C 
ATOM     20  C   UNL     1      10.291  40.245   2.896  1.00  0.00     0.004 C 
ENDBRANCH  18  19
ENDBRANCH  17  18
ENDBRANCH  16  17
ENDBRANCH  15  16
ENDBRANCH  14  15
ENDBRANCH  13  14
ENDBRANCH   2  13
TORSDOF 15
ENDMDL
MODEL 5
REMARK VINA RESULT:    12.745      1.298      2.398
REMARK INTER + INTRA:          23.272
REMARK INTER:                  24.045
REMARK INTRA:                  -0.773
REMARK UNBOUND:                -0.649
REMARK SMILES CCCCCCCCC=CCCCCCCCC(=O)[O-]
REMARK SMILES IDX 10 1 9 2 11 3 12 4 13 5 14 6 15 7 16 8 17 9 18 10 19 11
REMARK SMILES IDX 20 12 8 13 7 14 6 15 5 16 4 17 3 18 2 19 1 20
REMARK H PARENT
REMARK Flexibility Score: inf
ROOT
ATOM      1  C   UNL     1       4.404  42.750   9.725  1.00  0.00    -0.031 C 
ATOM      2  C   UNL     1       3.954  42.149  10.844  1.00  0.00    -0.031 C 
ENDROOT
BRANCH   1   3
ATOM      3  C   UNL     1       5.853  43.053   9.429  1.00  0.00     0.027 C 
BRANCH   3   4
ATOM      4  C   UNL     1       6.232  42.720   7.978  1.00  0.00     0.004 C 
BRANCH   4   5
ATOM      5  C   UNL     1       7.602  42.027   7.886  1.00  0.00     0.000 C 
BRANCH   5   6
ATOM      6  C   UNL     1       8.537  42.693   6.864  1.00  0.00     0.000 C 
BRANCH   6   7
ATOM      7  C   UNL     1       8.111  42.526   5.392  1.00  0.00     0.000 C 
BRANCH   7   8
ATOM      8  C   UNL     1       8.305  41.092   4.851  1.00  0.00     0.006 C 
BRANCH   8   9
ATOM      9  C   UNL     1       9.788  40.740   4.672  1.00  0.00     0.053 C 
BRANCH   9  10
ATOM     10  C   UNL     1      10.099  40.394   3.247  1.00  0.00     0.041 C 
ATOM     11  O   UNL     1      10.790  39.377   2.969  1.00  0.00    -0.550 OA
ATOM     12  O   UNL     1       9.601  41.186   2.218  1.00  0.00    -0.550 OA
ENDBRANCH   9  10
ENDBRANCH   8   9
ENDBRANCH   7   8
ENDBRANCH   6   7
ENDBRANCH   5   6
ENDBRANCH   4   5
ENDBRANCH   3   4
ENDBRANCH   1   3
BRANCH   2  13
ATOM     13  C   UNL     1       4.824  41.624  11.961  1.00  0.00     0.027 C 
BRANCH  13  14
ATOM     14  C   UNL     1       3.979  41.236  13.181  1.00  0.00     0.004 C 
BRANCH  14  15
ATOM     15  C   UNL     1       4.853  40.934  14.410  1.00  0.00     0.000 C 
BRANCH  15  16
ATOM     16  C   UNL     1       4.606  39.531  14.993  1.00  0.00     0.000 C 
BRANCH  16  17
ATOM     17  C   UNL     1       5.862  38.819  15.531  1.00  0.00    -0.000 C 
BRANCH  17  18
ATOM     18  C   UNL     1       6.979  39.796  15.934  1.00  0.00    -0.000 C 
BRANCH  18  19
ATOM     19  C   UNL     1       8.230  39.580  15.073  1.00  0.00    -0.003 C 
ATOM     20  C   UNL     1       8.762  38.155  15.223  1.00  0.00     0.004 C 
ENDBRANCH  18  19
ENDBRANCH  17  18
ENDBRANCH  16  17
ENDBRANCH  15  16
ENDBRANCH  14  15
ENDBRANCH  13  14
ENDBRANCH   2  13
TORSDOF 15
ENDMDL
MODEL 6
REMARK VINA RESULT:    12.771      1.834      3.473
REMARK INTER + INTRA:          23.320
REMARK INTER:                  24.002
REMARK INTRA:                  -0.682
REMARK UNBOUND:                -0.649
REMARK SMILES CCCCCCCCC=CCCCCCCCC(=O)[O-]
REMARK SMILES IDX 10 1 9 2 11 3 12 4 13 5 14 6 15 7 16 8 17 9 18 10 19 11
REMARK SMILES IDX 20 12 8 13 7 14 6 15 5 16 4 17 3 18 2 19 1 20
REMARK H PARENT
REMARK Flexibility Score: inf
ROOT
ATOM      1  C   UNL     1       5.596  42.599   9.637  1.00  0.00    -0.031 C 
ATOM      2  C   UNL     1       5.594  42.046  10.866  1.00  0.00    -0.031 C 
ENDROOT
BRANCH   1   3
ATOM      3  C   UNL     1       6.765  42.584   8.683  1.00  0.00     0.027 C 
BRANCH   3   4
ATOM      4  C   UNL     1       6.326  42.753   7.221  1.00  0.00     0.004 C 
BRANCH   4   5
ATOM      5  C   UNL     1       7.504  43.127   6.306  1.00  0.00     0.000 C 
BRANCH   5   6
ATOM      6  C   UNL     1       8.740  42.242   6.536  1.00  0.00     0.000 C 
BRANCH   6   7
ATOM      7  C   UNL     1       8.513  40.738   6.290  1.00  0.00     0.000 C 
BRANCH   7   8
ATOM      8  C   UNL     1       8.676  40.320   4.813  1.00  0.00     0.006 C 
BRANCH   8   9
ATOM      9  C   UNL     1       9.901  40.976   4.161  1.00  0.00     0.053 C 
BRANCH   9  10
ATOM     10  C   UNL     1      10.124  40.459   2.772  1.00  0.00     0.041 C 
ATOM     11  O   UNL     1      10.609  39.311   2.584  1.00  0.00    -0.550 OA
ATOM     12  O   UNL     1       9.771  41.241   1.677  1.00  0.00    -0.550 OA
ENDBRANCH   9  10
ENDBRANCH   8   9
ENDBRANCH   7   8
ENDBRANCH   6   7
ENDBRANCH   5   6
ENDBRANCH   4   5
ENDBRANCH   3   4
ENDBRANCH   1   3
BRANCH   2  13
ATOM     13  C   UNL     1       6.736  41.266  11.471  1.00  0.00     0.027 C 
BRANCH  13  14
ATOM     14  C   UNL     1       6.522  41.054  12.975  1.00  0.00     0.004 C 
BRANCH  14  15
ATOM     15  C   UNL     1       7.743  40.395  13.640  1.00  0.00     0.000 C 
BRANCH  15  16
ATOM     16  C   UNL     1       7.769  40.583  15.167  1.00  0.00     0.000 C 
BRANCH  16  17
ATOM     17  C   UNL     1       7.117  39.444  15.974  1.00  0.00    -0.000 C 
BRANCH  17  18
ATOM     18  C   UNL     1       5.588  39.577  16.071  1.00  0.00    -0.000 C 
BRANCH  18  19
ATOM     19  C   UNL     1       4.909  38.212  15.898  1.00  0.00    -0.003 C 
ATOM     20  C   UNL     1       3.449  38.375  15.476  1.00  0.00     0.004 C 
ENDBRANCH  18  19
ENDBRANCH  17  18
ENDBRANCH  16  17
ENDBRANCH  15  16
ENDBRANCH  14  15
ENDBRANCH  13  14
ENDBRANCH   2  13
TORSDOF 15
ENDMDL
