MODEL 1
REMARK VINA RESULT:    -3.385      0.000      0.000
REMARK INTER + INTRA:          -5.735
REMARK INTER:                  -5.166
REMARK INTRA:                  -0.568
REMARK UNBOUND:                -0.568
REMARK SMILES CCCCCCCCCCC(=O)[O-]
REMARK SMILES IDX 7 1 8 2 9 3 10 4 11 5 12 6 13 7 6 8 5 9 4 10 3 11 2 12 1 13
REMARK H PARENT
REMARK Flexibility Score: inf
ROOT
ATOM      1  C   UNL     1      50.092  45.046  14.830  1.00  0.00     0.000 C 
ENDROOT
BRANCH   1   2
ATOM      2  C   UNL     1      49.638  46.493  15.083  1.00  0.00     0.000 C 
BRANCH   2   3
ATOM      3  C   UNL     1      50.216  47.541  14.111  1.00  0.00     0.006 C 
BRANCH   3   4
ATOM      4  C   UNL     1      51.247  46.975  13.118  1.00  0.00     0.053 C 
BRANCH   4   5
ATOM      5  C   UNL     1      52.159  48.030  12.567  1.00  0.00     0.041 C 
ATOM      6  O   UNL     1      53.360  48.089  12.940  1.00  0.00    -0.550 OA
ATOM      7  O   UNL     1      51.671  48.973  11.671  1.00  0.00    -0.550 OA
ENDBRANCH   4   5
ENDBRANCH   3   4
ENDBRANCH   2   3
ENDBRANCH   1   2
BRANCH   1   8
ATOM      8  C   UNL     1      48.961  44.020  15.020  1.00  0.00     0.000 C 
BRANCH   8   9
ATOM      9  C   UNL     1      47.565  44.676  14.971  1.00  0.00    -0.000 C 
BRANCH   9  10
ATOM     10  C   UNL     1      46.455  43.722  14.499  1.00  0.00    -0.000 C 
BRANCH  10  11
ATOM     11  C   UNL     1      46.978  42.317  14.162  1.00  0.00    -0.000 C 
BRANCH  11  12
ATOM     12  C   UNL     1      46.179  41.207  14.863  1.00  0.00    -0.003 C 
ATOM     13  C   UNL     1      45.704  41.614  16.257  1.00  0.00     0.004 C 
ENDBRANCH  11  12
ENDBRANCH  10  11
ENDBRANCH   9  10
ENDBRANCH   8   9
ENDBRANCH   1   8
TORSDOF 9
ENDMDL
MODEL 2
REMARK VINA RESULT:    -3.355      1.144      1.643
REMARK INTER + INTRA:          -5.689
REMARK INTER:                  -5.271
REMARK INTRA:                  -0.418
REMARK UNBOUND:                -0.568
REMARK SMILES CCCCCCCCCCC(=O)[O-]
REMARK SMILES IDX 7 1 8 2 9 3 10 4 11 5 12 6 13 7 6 8 5 9 4 10 3 11 2 12 1 13
REMARK H PARENT
REMARK Flexibility Score: inf
ROOT
ATOM      1  C   UNL     1      48.459  45.489  15.155  1.00  0.00     0.000 C 
ENDROOT
BRANCH   1   2
ATOM      2  C   UNL     1      49.794  45.068  14.517  1.00  0.00     0.000 C 
BRANCH   2   3
ATOM      3  C   UNL     1      50.858  46.180  14.427  1.00  0.00     0.006 C 
BRANCH   3   4
ATOM      4  C   UNL     1      50.284  47.573  14.108  1.00  0.00     0.053 C 
BRANCH   4   5
ATOM      5  C   UNL     1      50.939  48.210  12.919  1.00  0.00     0.041 C 
ATOM      6  O   UNL     1      52.011  47.738  12.457  1.00  0.00    -0.550 OA
ATOM      7  O   UNL     1      50.387  49.349  12.347  1.00  0.00    -0.550 OA
ENDBRANCH   4   5
ENDBRANCH   3   4
ENDBRANCH   2   3
ENDBRANCH   1   2
BRANCH   1   8
ATOM      8  C   UNL     1      47.358  44.425  15.001  1.00  0.00     0.000 C 
BRANCH   8   9
ATOM      9  C   UNL     1      47.936  43.029  14.687  1.00  0.00    -0.000 C 
BRANCH   9  10
ATOM     10  C   UNL     1      46.891  42.039  14.146  1.00  0.00    -0.000 C 
BRANCH  10  11
ATOM     11  C   UNL     1      45.611  41.998  14.996  1.00  0.00    -0.000 C 
BRANCH  11  12
ATOM     12  C   UNL     1      45.564  40.781  15.933  1.00  0.00    -0.003 C 
ATOM     13  C   UNL     1      45.555  39.455  15.175  1.00  0.00     0.004 C 
ENDBRANCH  11  12
ENDBRANCH  10  11
ENDBRANCH   9  10
ENDBRANCH   8   9
ENDBRANCH   1   8
TORSDOF 9
ENDMDL
MODEL 3
REMARK VINA RESULT:    -3.314     12.077     14.298
REMARK INTER + INTRA:          -5.626
REMARK INTER:                  -4.662
REMARK INTRA:                  -0.964
REMARK UNBOUND:                -0.568
REMARK SMILES CCCCCCCCCCC(=O)[O-]
REMARK SMILES IDX 7 1 8 2 9 3 10 4 11 5 12 6 13 7 6 8 5 9 4 10 3 11 2 12 1 13
REMARK H PARENT
REMARK Flexibility Score: inf
ROOT
ATOM      1  C   UNL     1      63.028  44.226  15.667  1.00  0.00     0.000 C 
ENDROOT
BRANCH   1   2
ATOM      2  C   UNL     1      62.981  45.536  16.469  1.00  0.00     0.000 C 
BRANCH   2   3
ATOM      3  C   UNL     1      61.890  45.601  17.557  1.00  0.00     0.006 C 
BRANCH   3   4
ATOM      4  C   UNL     1      60.791  44.532  17.407  1.00  0.00     0.053 C 
BRANCH   4   5
ATOM      5  C   UNL     1      59.444  45.125  17.122  1.00  0.00     0.041 C 
ATOM      6  O   UNL     1      58.616  44.506  16.404  1.00  0.00    -0.550 OA
ATOM      7  O   UNL     1      59.117  46.381  17.618  1.00  0.00    -0.550 OA
ENDBRANCH   4   5
ENDBRANCH   3   4
ENDBRANCH   2   3
ENDBRANCH   1   2
BRANCH   1   8
ATOM      8  C   UNL     1      64.337  44.052  14.876  1.00  0.00     0.000 C 
BRANCH   8   9
ATOM      9  C   UNL     1      65.060  42.735  15.230  1.00  0.00    -0.000 C 
BRANCH   9  10
ATOM     10  C   UNL     1      64.104  41.563  15.501  1.00  0.00    -0.000 C 
BRANCH  10  11
ATOM     11  C   UNL     1      64.420  40.825  16.812  1.00  0.00    -0.000 C 
BRANCH  11  12
ATOM     12  C   UNL     1      63.353  41.060  17.893  1.00  0.00    -0.003 C 
ATOM     13  C   UNL     1      63.614  42.323  18.713  1.00  0.00     0.004 C 
ENDBRANCH  11  12
ENDBRANCH  10  11
ENDBRANCH   9  10
ENDBRANCH   8   9
ENDBRANCH   1   8
TORSDOF 9
ENDMDL
MODEL 4
REMARK VINA RESULT:    -3.239     12.763     15.128
REMARK INTER + INTRA:          -5.512
REMARK INTER:                  -4.670
REMARK INTRA:                  -0.842
REMARK UNBOUND:                -0.568
REMARK SMILES CCCCCCCCCCC(=O)[O-]
REMARK SMILES IDX 7 1 8 2 9 3 10 4 11 5 12 6 13 7 6 8 5 9 4 10 3 11 2 12 1 13
REMARK H PARENT
REMARK Flexibility Score: inf
ROOT
ATOM      1  C   UNL     1      65.078  42.376  15.929  1.00  0.00     0.000 C 
ENDROOT
BRANCH   1   2
ATOM      2  C   UNL     1      64.220  41.103  15.990  1.00  0.00     0.000 C 
BRANCH   2   3
ATOM      3  C   UNL     1      63.716  40.718  17.395  1.00  0.00     0.006 C 
BRANCH   3   4
ATOM      4  C   UNL     1      63.121  41.894  18.192  1.00  0.00     0.053 C 
BRANCH   4   5
ATOM      5  C   UNL     1      62.058  41.459  19.157  1.00  0.00     0.041 C 
ATOM      6  O   UNL     1      62.358  40.756  20.157  1.00  0.00    -0.550 OA
ATOM      7  O   UNL     1      60.730  41.799  18.930  1.00  0.00    -0.550 OA
ENDBRANCH   4   5
ENDBRANCH   3   4
ENDBRANCH   2   3
ENDBRANCH   1   2
BRANCH   1   8
ATOM      8  C   UNL     1      64.600  43.373  14.859  1.00  0.00     0.000 C 
BRANCH   8   9
ATOM      9  C   UNL     1      63.315  44.114  15.287  1.00  0.00    -0.000 C 
BRANCH   9  10
ATOM     10  C   UNL     1      63.584  45.370  16.133  1.00  0.00    -0.000 C 
BRANCH  10  11
ATOM     11  C   UNL     1      62.390  45.760  17.019  1.00  0.00    -0.000 C 
BRANCH  11  12
ATOM     12  C   UNL     1      61.255  44.725  16.968  1.00  0.00    -0.003 C 
ATOM     13  C   UNL     1      59.888  45.335  17.278  1.00  0.00     0.004 C 
ENDBRANCH  11  12
ENDBRANCH  10  11
ENDBRANCH   9  10
ENDBRANCH   8   9
ENDBRANCH   1   8
TORSDOF 9
ENDMDL
MODEL 5
REMARK VINA RESULT:    -3.178      3.654      6.491
REMARK INTER + INTRA:          -5.418
REMARK INTER:                  -4.197
REMARK INTRA:                  -1.221
REMARK UNBOUND:                -0.568
REMARK SMILES CCCCCCCCCCC(=O)[O-]
REMARK SMILES IDX 7 1 8 2 9 3 10 4 11 5 12 6 13 7 6 8 5 9 4 10 3 11 2 12 1 13
REMARK H PARENT
REMARK Flexibility Score: inf
ROOT
ATOM      1  C   UNL     1      49.753  49.867  14.798  1.00  0.00     0.000 C 
ENDROOT
BRANCH   1   2
ATOM      2  C   UNL     1      49.736  48.484  15.469  1.00  0.00     0.000 C 
BRANCH   2   3
ATOM      3  C   UNL     1      49.222  47.332  14.583  1.00  0.00     0.006 C 
BRANCH   3   4
ATOM      4  C   UNL     1      50.319  46.350  14.131  1.00  0.00     0.053 C 
BRANCH   4   5
ATOM      5  C   UNL     1      50.244  45.032  14.841  1.00  0.00     0.041 C 
ATOM      6  O   UNL     1      51.161  44.682  15.629  1.00  0.00    -0.550 OA
ATOM      7  O   UNL     1      49.179  44.172  14.602  1.00  0.00    -0.550 OA
ENDBRANCH   4   5
ENDBRANCH   3   4
ENDBRANCH   2   3
ENDBRANCH   1   2
BRANCH   1   8
ATOM      8  C   UNL     1      49.021  49.888  13.445  1.00  0.00     0.000 C 
BRANCH   8   9
ATOM      9  C   UNL     1      49.999  49.976  12.254  1.00  0.00    -0.000 C 
BRANCH   9  10
ATOM     10  C   UNL     1      51.478  49.926  12.670  1.00  0.00    -0.000 C 
BRANCH  10  11
ATOM     11  C   UNL     1      52.228  48.726  12.072  1.00  0.00    -0.000 C 
BRANCH  11  12
ATOM     12  C   UNL     1      53.390  48.253  12.959  1.00  0.00    -0.003 C 
ATOM     13  C   UNL     1      53.323  48.831  14.372  1.00  0.00     0.004 C 
ENDBRANCH  11  12
ENDBRANCH  10  11
ENDBRANCH   9  10
ENDBRANCH   8   9
ENDBRANCH   1   8
TORSDOF 9
ENDMDL
MODEL 6
REMARK VINA RESULT:    -3.165     10.632     13.062
REMARK INTER + INTRA:          -5.399
REMARK INTER:                  -4.998
REMARK INTRA:                  -0.400
REMARK UNBOUND:                -0.568
REMARK SMILES CCCCCCCCCCC(=O)[O-]
REMARK SMILES IDX 7 1 8 2 9 3 10 4 11 5 12 6 13 7 6 8 5 9 4 10 3 11 2 12 1 13
REMARK H PARENT
REMARK Flexibility Score: inf
ROOT
ATOM      1  C   UNL     1      61.195  45.238  17.112  1.00  0.00     0.000 C 
ENDROOT
BRANCH   1   2
ATOM      2  C   UNL     1      59.902  44.430  17.304  1.00  0.00     0.000 C 
BRANCH   2   3
ATOM      3  C   UNL     1      58.621  45.104  16.773  1.00  0.00     0.006 C 
BRANCH   3   4
ATOM      4  C   UNL     1      57.319  44.399  17.194  1.00  0.00     0.053 C 
BRANCH   4   5
ATOM      5  C   UNL     1      56.189  44.653  16.242  1.00  0.00     0.041 C 
ATOM      6  O   UNL     1      55.456  45.667  16.382  1.00  0.00    -0.550 OA
ATOM      7  O   UNL     1      55.922  43.748  15.222  1.00  0.00    -0.550 OA
ENDBRANCH   4   5
ENDBRANCH   3   4
ENDBRANCH   2   3
ENDBRANCH   1   2
BRANCH   1   8
ATOM      8  C   UNL     1      62.452  44.354  17.043  1.00  0.00     0.000 C 
BRANCH   8   9
ATOM      9  C   UNL     1      63.420  44.803  15.928  1.00  0.00    -0.000 C 
BRANCH   9  10
ATOM     10  C   UNL     1      63.665  43.727  14.857  1.00  0.00    -0.000 C 
BRANCH  10  11
ATOM     11  C   UNL     1      64.713  42.687  15.284  1.00  0.00    -0.000 C 
BRANCH  11  12
ATOM     12  C   UNL     1      64.103  41.297  15.521  1.00  0.00    -0.003 C 
ATOM     13  C   UNL     1      64.045  40.925  17.003  1.00  0.00     0.004 C 
ENDBRANCH  11  12
ENDBRANCH  10  11
ENDBRANCH   9  10
ENDBRANCH   8   9
ENDBRANCH   1   8
TORSDOF 9
ENDMDL
MODEL 7
REMARK VINA RESULT:    -3.164      1.428      2.591
REMARK INTER + INTRA:          -5.397
REMARK INTER:                  -4.884
REMARK INTRA:                  -0.514
REMARK UNBOUND:                -0.568
REMARK SMILES CCCCCCCCCCC(=O)[O-]
REMARK SMILES IDX 7 1 8 2 9 3 10 4 11 5 12 6 13 7 6 8 5 9 4 10 3 11 2 12 1 13
REMARK H PARENT
REMARK Flexibility Score: inf
ROOT
ATOM      1  C   UNL     1      49.701  48.014  15.529  1.00  0.00     0.000 C 
ENDROOT
BRANCH   1   2
ATOM      2  C   UNL     1      49.467  49.393  14.890  1.00  0.00     0.000 C 
BRANCH   2   3
ATOM      3  C   UNL     1      49.514  49.419  13.349  1.00  0.00     0.006 C 
BRANCH   3   4
ATOM      4  C   UNL     1      50.837  49.954  12.771  1.00  0.00     0.053 C 
BRANCH   4   5
ATOM      5  C   UNL     1      51.538  48.951  11.904  1.00  0.00     0.041 C 
ATOM      6  O   UNL     1      51.569  49.104  10.655  1.00  0.00    -0.550 OA
ATOM      7  O   UNL     1      52.121  47.826  12.473  1.00  0.00    -0.550 OA
ENDBRANCH   4   5
ENDBRANCH   3   4
ENDBRANCH   2   3
ENDBRANCH   1   2
BRANCH   1   8
ATOM      8  C   UNL     1      49.074  46.863  14.722  1.00  0.00     0.000 C 
BRANCH   8   9
ATOM      9  C   UNL     1      50.106  45.771  14.370  1.00  0.00    -0.000 C 
BRANCH   9  10
ATOM     10  C   UNL     1      49.728  44.377  14.898  1.00  0.00    -0.000 C 
BRANCH  10  11
ATOM     11  C   UNL     1      48.235  44.055  14.720  1.00  0.00    -0.000 C 
BRANCH  11  12
ATOM     12  C   UNL     1      47.870  42.650  15.226  1.00  0.00    -0.003 C 
ATOM     13  C   UNL     1      46.777  41.989  14.388  1.00  0.00     0.004 C 
ENDBRANCH  11  12
ENDBRANCH  10  11
ENDBRANCH   9  10
ENDBRANCH   8   9
ENDBRANCH   1   8
TORSDOF 9
ENDMDL
MODEL 8
REMARK VINA RESULT:    -3.145     12.006     14.356
REMARK INTER + INTRA:          -5.367
REMARK INTER:                  -4.634
REMARK INTRA:                  -0.734
REMARK UNBOUND:                -0.568
REMARK SMILES CCCCCCCCCCC(=O)[O-]
REMARK SMILES IDX 7 1 8 2 9 3 10 4 11 5 12 6 13 7 6 8 5 9 4 10 3 11 2 12 1 13
REMARK H PARENT
REMARK Flexibility Score: inf
ROOT
ATOM      1  C   UNL     1      62.600  44.986  16.807  1.00  0.00     0.000 C 
ENDROOT
BRANCH   1   2
ATOM      2  C   UNL     1      61.123  44.791  17.189  1.00  0.00     0.000 C 
BRANCH   2   3
ATOM      3  C   UNL     1      60.862  43.735  18.281  1.00  0.00     0.006 C 
BRANCH   3   4
ATOM      4  C   UNL     1      59.390  43.644  18.726  1.00  0.00     0.053 C 
BRANCH   4   5
ATOM      5  C   UNL     1      58.721  42.388  18.255  1.00  0.00     0.041 C 
ATOM      6  O   UNL     1      57.775  42.444  17.426  1.00  0.00    -0.550 OA
ATOM      7  O   UNL     1      59.116  41.156  18.763  1.00  0.00    -0.550 OA
ENDBRANCH   4   5
ENDBRANCH   3   4
ENDBRANCH   2   3
ENDBRANCH   1   2
BRANCH   1   8
ATOM      8  C   UNL     1      62.945  44.407  15.424  1.00  0.00     0.000 C 
BRANCH   8   9
ATOM      9  C   UNL     1      64.463  44.424  15.148  1.00  0.00    -0.000 C 
BRANCH   9  10
ATOM     10  C   UNL     1      65.125  43.041  15.272  1.00  0.00    -0.000 C 
BRANCH  10  11
ATOM     11  C   UNL     1      64.108  41.888  15.256  1.00  0.00    -0.000 C 
BRANCH  11  12
ATOM     12  C   UNL     1      64.376  40.851  16.357  1.00  0.00    -0.003 C 
ATOM     13  C   UNL     1      63.553  41.107  17.619  1.00  0.00     0.004 C 
ENDBRANCH  11  12
ENDBRANCH  10  11
ENDBRANCH   9  10
ENDBRANCH   8   9
ENDBRANCH   1   8
TORSDOF 9
ENDMDL
MODEL 9
REMARK VINA RESULT:    -3.120      4.407      7.190
REMARK INTER + INTRA:          -5.330
REMARK INTER:                  -4.730
REMARK INTRA:                  -0.600
REMARK UNBOUND:                -0.568
REMARK SMILES CCCCCCCCCCC(=O)[O-]
REMARK SMILES IDX 7 1 8 2 9 3 10 4 11 5 12 6 13 7 6 8 5 9 4 10 3 11 2 12 1 13
REMARK H PARENT
REMARK Flexibility Score: inf
ROOT
ATOM      1  C   UNL     1      48.560  43.398  15.151  1.00  0.00     0.000 C 
ENDROOT
BRANCH   1   2
ATOM      2  C   UNL     1      47.424  42.592  14.501  1.00  0.00     0.000 C 
BRANCH   2   3
ATOM      3  C   UNL     1      46.022  43.221  14.620  1.00  0.00     0.006 C 
BRANCH   3   4
ATOM      4  C   UNL     1      44.997  42.335  15.352  1.00  0.00     0.053 C 
BRANCH   4   5
ATOM      5  C   UNL     1      45.451  41.942  16.726  1.00  0.00     0.041 C 
ATOM      6  O   UNL     1      45.509  40.727  17.052  1.00  0.00    -0.550 OA
ATOM      7  O   UNL     1      45.771  42.919  17.660  1.00  0.00    -0.550 OA
ENDBRANCH   4   5
ENDBRANCH   3   4
ENDBRANCH   2   3
ENDBRANCH   1   2
BRANCH   1   8
ATOM      8  C   UNL     1      48.187  44.870  15.400  1.00  0.00     0.000 C 
BRANCH   8   9
ATOM      9  C   UNL     1      49.432  45.758  15.612  1.00  0.00    -0.000 C 
BRANCH   9  10
ATOM     10  C   UNL     1      50.309  45.895  14.356  1.00  0.00    -0.000 C 
BRANCH  10  11
ATOM     11  C   UNL     1      50.421  47.346  13.861  1.00  0.00    -0.000 C 
BRANCH  11  12
ATOM     12  C   UNL     1      49.219  48.206  14.279  1.00  0.00    -0.003 C 
ATOM     13  C   UNL     1      49.220  49.582  13.614  1.00  0.00     0.004 C 
ENDBRANCH  11  12
ENDBRANCH  10  11
ENDBRANCH   9  10
ENDBRANCH   8   9
ENDBRANCH   1   8
TORSDOF 9
ENDMDL
