MODEL 1
REMARK VINA RESULT:    -3.922      0.000      0.000
REMARK INTER + INTRA:          -5.738
REMARK INTER:                  -5.298
REMARK INTRA:                  -0.440
REMARK UNBOUND:                -0.440
REMARK SMILES CC(=O)OCC=C(C)CCC=C(C)C
REMARK SMILES IDX 7 1 6 2 8 3 9 4 10 5 11 6 13 7 12 8 14 9 5 10 4 11 2 12 3 13
REMARK SMILES IDX 1 14
REMARK H PARENT
REMARK Flexibility Score: inf
ROOT
ATOM      1  C   UNL     1      -6.651  22.444  10.629  1.00  0.00    -0.074 C 
ATOM      2  C   UNL     1      -5.660  23.048  11.321  1.00  0.00     0.013 C 
ATOM      3  C   UNL     1      -6.611  22.348   9.121  1.00  0.00     0.039 C 
ENDROOT
BRANCH   1   4
ATOM      4  C   UNL     1      -7.827  21.857  11.379  1.00  0.00     0.034 C 
BRANCH   4   5
ATOM      5  C   UNL     1      -7.366  21.174  12.671  1.00  0.00     0.032 C 
BRANCH   5   6
ATOM      6  C   UNL     1      -8.541  20.813  13.549  1.00  0.00    -0.028 C 
ATOM      7  C   UNL     1      -8.293  22.902  14.894  1.00  0.00     0.039 C 
ATOM      8  C   UNL     1      -8.970  21.593  14.562  1.00  0.00    -0.080 C 
ATOM      9  C   UNL     1     -10.154  21.138  15.376  1.00  0.00     0.039 C 
ENDBRANCH   5   6
ENDBRANCH   4   5
ENDBRANCH   1   4
BRANCH   2  10
ATOM     10  C   UNL     1      -4.452  23.660  10.666  1.00  0.00     0.260 C 
BRANCH  10  11
ATOM     11  O   UNL     1      -3.302  23.422  11.471  1.00  0.00    -0.462 OA
BRANCH  11  12
ATOM     12  C   UNL     1      -2.176  24.248  11.439  1.00  0.00     0.302 C 
ATOM     13  O   UNL     1      -1.934  24.970  10.432  1.00  0.00    -0.253 OA
ATOM     14  C   UNL     1      -1.277  24.314  12.626  1.00  0.00     0.139 C 
ENDBRANCH  11  12
ENDBRANCH  10  11
ENDBRANCH   2  10
TORSDOF 6
ENDMDL
MODEL 2
REMARK VINA RESULT:    -3.756      1.458      2.605
REMARK INTER + INTRA:          -5.513
REMARK INTER:                  -4.782
REMARK INTRA:                  -0.731
REMARK UNBOUND:                -0.440
REMARK SMILES CC(=O)OCC=C(C)CCC=C(C)C
REMARK SMILES IDX 7 1 6 2 8 3 9 4 10 5 11 6 13 7 12 8 14 9 5 10 4 11 2 12 3 13
REMARK SMILES IDX 1 14
REMARK H PARENT
REMARK Flexibility Score: inf
ROOT
ATOM      1  C   UNL     1      -8.051  21.477  12.156  1.00  0.00    -0.074 C 
ATOM      2  C   UNL     1      -6.733  21.731  12.003  1.00  0.00     0.013 C 
ATOM      3  C   UNL     1      -9.058  21.892  11.109  1.00  0.00     0.039 C 
ENDROOT
BRANCH   1   4
ATOM      4  C   UNL     1      -8.529  20.770  13.407  1.00  0.00     0.034 C 
BRANCH   4   5
ATOM      5  C   UNL     1      -9.427  21.686  14.244  1.00  0.00     0.032 C 
BRANCH   5   6
ATOM      6  C   UNL     1      -8.715  22.165  15.486  1.00  0.00    -0.028 C 
ATOM      7  C   UNL     1      -8.115  24.338  14.413  1.00  0.00     0.039 C 
ATOM      8  C   UNL     1      -8.115  23.370  15.573  1.00  0.00    -0.080 C 
ATOM      9  C   UNL     1      -7.432  23.749  16.862  1.00  0.00     0.039 C 
ENDBRANCH   5   6
ENDBRANCH   4   5
ENDBRANCH   1   4
BRANCH   2  10
ATOM     10  C   UNL     1      -6.161  22.427  10.799  1.00  0.00     0.260 C 
BRANCH  10  11
ATOM     11  O   UNL     1      -5.323  23.498  11.220  1.00  0.00    -0.462 OA
BRANCH  11  12
ATOM     12  C   UNL     1      -3.993  23.619  10.810  1.00  0.00     0.302 C 
ATOM     13  O   UNL     1      -3.047  23.359  11.604  1.00  0.00    -0.253 OA
ATOM     14  C   UNL     1      -3.689  24.013   9.405  1.00  0.00     0.139 C 
ENDBRANCH  11  12
ENDBRANCH  10  11
ENDBRANCH   2  10
TORSDOF 6
ENDMDL
MODEL 3
REMARK VINA RESULT:    -3.746      3.009      5.882
REMARK INTER + INTRA:          -5.500
REMARK INTER:                  -4.914
REMARK INTRA:                  -0.586
REMARK UNBOUND:                -0.440
REMARK SMILES CC(=O)OCC=C(C)CCC=C(C)C
REMARK SMILES IDX 7 1 6 2 8 3 9 4 10 5 11 6 13 7 12 8 14 9 5 10 4 11 2 12 3 13
REMARK SMILES IDX 1 14
REMARK H PARENT
REMARK Flexibility Score: inf
ROOT
ATOM      1  C   UNL     1      -8.528  21.859  14.119  1.00  0.00    -0.074 C 
ATOM      2  C   UNL     1      -7.995  23.094  14.243  1.00  0.00     0.013 C 
ATOM      3  C   UNL     1      -9.560  21.345  15.096  1.00  0.00     0.039 C 
ENDROOT
BRANCH   1   4
ATOM      4  C   UNL     1      -8.075  20.968  12.981  1.00  0.00     0.034 C 
BRANCH   4   5
ATOM      5  C   UNL     1      -6.714  21.420  12.441  1.00  0.00     0.032 C 
BRANCH   5   6
ATOM      6  C   UNL     1      -6.791  21.751  10.970  1.00  0.00    -0.028 C 
ATOM      7  C   UNL     1      -4.998  23.477  11.173  1.00  0.00     0.039 C 
ATOM      8  C   UNL     1      -6.014  22.686  10.384  1.00  0.00    -0.080 C 
ATOM      9  C   UNL     1      -6.172  22.937   8.907  1.00  0.00     0.039 C 
ENDBRANCH   5   6
ENDBRANCH   4   5
ENDBRANCH   1   4
BRANCH   2  10
ATOM     10  C   UNL     1      -8.380  24.051  15.338  1.00  0.00     0.260 C 
BRANCH  10  11
ATOM     11  O   UNL     1      -7.205  24.553  15.966  1.00  0.00    -0.462 OA
BRANCH  11  12
ATOM     12  C   UNL     1      -6.990  24.461  17.344  1.00  0.00     0.302 C 
ATOM     13  O   UNL     1      -5.870  24.759  17.843  1.00  0.00    -0.253 OA
ATOM     14  C   UNL     1      -8.112  24.054  18.238  1.00  0.00     0.139 C 
ENDBRANCH  11  12
ENDBRANCH  10  11
ENDBRANCH   2  10
TORSDOF 6
ENDMDL
MODEL 4
REMARK VINA RESULT:    -3.714      3.069      6.740
REMARK INTER + INTRA:          -5.457
REMARK INTER:                  -4.907
REMARK INTRA:                  -0.550
REMARK UNBOUND:                -0.440
REMARK SMILES CC(=O)OCC=C(C)CCC=C(C)C
REMARK SMILES IDX 7 1 6 2 8 3 9 4 10 5 11 6 13 7 12 8 14 9 5 10 4 11 2 12 3 13
REMARK SMILES IDX 1 14
REMARK H PARENT
REMARK Flexibility Score: inf
ROOT
ATOM      1  C   UNL     1      -4.049  23.728   8.903  1.00  0.00    -0.074 C 
ATOM      2  C   UNL     1      -5.349  23.458   9.153  1.00  0.00     0.013 C 
ATOM      3  C   UNL     1      -3.112  24.168  10.004  1.00  0.00     0.039 C 
ENDROOT
BRANCH   1   4
ATOM      4  C   UNL     1      -3.524  23.596   7.489  1.00  0.00     0.034 C 
BRANCH   4   5
ATOM      5  C   UNL     1      -4.676  23.442   6.490  1.00  0.00     0.032 C 
BRANCH   5   6
ATOM      6  C   UNL     1      -4.459  22.253   5.585  1.00  0.00    -0.028 C 
ATOM      7  C   UNL     1      -6.520  21.123   6.429  1.00  0.00     0.039 C 
ATOM      8  C   UNL     1      -5.293  21.192   5.550  1.00  0.00    -0.080 C 
ATOM      9  C   UNL     1      -4.984  20.058   4.608  1.00  0.00     0.039 C 
ENDBRANCH   5   6
ENDBRANCH   4   5
ENDBRANCH   1   4
BRANCH   2  10
ATOM     10  C   UNL     1      -5.964  23.561  10.522  1.00  0.00     0.260 C 
BRANCH  10  11
ATOM     11  O   UNL     1      -5.623  22.408  11.285  1.00  0.00    -0.462 OA
BRANCH  11  12
ATOM     12  C   UNL     1      -6.480  21.859  12.243  1.00  0.00     0.302 C 
ATOM     13  O   UNL     1      -6.482  20.618  12.471  1.00  0.00    -0.253 OA
ATOM     14  C   UNL     1      -7.367  22.756  13.037  1.00  0.00     0.139 C 
ENDBRANCH  11  12
ENDBRANCH  10  11
ENDBRANCH   2  10
TORSDOF 6
ENDMDL
MODEL 5
REMARK VINA RESULT:    -3.681      3.359      7.058
REMARK INTER + INTRA:          -5.412
REMARK INTER:                  -4.801
REMARK INTRA:                  -0.611
REMARK UNBOUND:                -0.440
REMARK SMILES CC(=O)OCC=C(C)CCC=C(C)C
REMARK SMILES IDX 7 1 6 2 8 3 9 4 10 5 11 6 13 7 12 8 14 9 5 10 4 11 2 12 3 13
REMARK SMILES IDX 1 14
REMARK H PARENT
REMARK Flexibility Score: inf
ROOT
ATOM      1  C   UNL     1      -6.290  22.567   8.847  1.00  0.00    -0.074 C 
ATOM      2  C   UNL     1      -6.692  22.107  10.051  1.00  0.00     0.013 C 
ATOM      3  C   UNL     1      -5.190  23.596   8.726  1.00  0.00     0.039 C 
ENDROOT
BRANCH   1   4
ATOM      4  C   UNL     1      -6.960  22.047   7.593  1.00  0.00     0.034 C 
BRANCH   4   5
ATOM      5  C   UNL     1      -6.266  22.586   6.338  1.00  0.00     0.032 C 
BRANCH   5   6
ATOM      6  C   UNL     1      -5.479  21.502   5.640  1.00  0.00    -0.028 C 
ATOM      7  C   UNL     1      -3.442  22.940   5.513  1.00  0.00     0.039 C 
ATOM      8  C   UNL     1      -4.193  21.654   5.261  1.00  0.00    -0.080 C 
ATOM      9  C   UNL     1      -3.501  20.508   4.571  1.00  0.00     0.039 C 
ENDBRANCH   5   6
ENDBRANCH   4   5
ENDBRANCH   1   4
BRANCH   2  10
ATOM     10  C   UNL     1      -6.089  22.562  11.352  1.00  0.00     0.260 C 
BRANCH  10  11
ATOM     11  O   UNL     1      -6.294  21.566  12.347  1.00  0.00    -0.462 OA
BRANCH  11  12
ATOM     12  C   UNL     1      -7.493  21.444  13.054  1.00  0.00     0.302 C 
ATOM     13  O   UNL     1      -8.015  20.311  13.249  1.00  0.00    -0.253 OA
ATOM     14  C   UNL     1      -8.137  22.660  13.627  1.00  0.00     0.139 C 
ENDBRANCH  11  12
ENDBRANCH  10  11
ENDBRANCH   2  10
TORSDOF 6
ENDMDL
MODEL 6
REMARK VINA RESULT:    -3.674      1.898      2.502
REMARK INTER + INTRA:          -5.402
REMARK INTER:                  -4.625
REMARK INTRA:                  -0.777
REMARK UNBOUND:                -0.440
REMARK SMILES CC(=O)OCC=C(C)CCC=C(C)C
REMARK SMILES IDX 7 1 6 2 8 3 9 4 10 5 11 6 13 7 12 8 14 9 5 10 4 11 2 12 3 13
REMARK SMILES IDX 1 14
REMARK H PARENT
REMARK Flexibility Score: inf
ROOT
ATOM      1  C   UNL     1      -6.356  22.359  11.098  1.00  0.00    -0.074 C 
ATOM      2  C   UNL     1      -5.371  23.262  11.296  1.00  0.00     0.013 C 
ATOM      3  C   UNL     1      -7.093  22.274   9.782  1.00  0.00     0.039 C 
ENDROOT
BRANCH   1   4
ATOM      4  C   UNL     1      -6.733  21.417  12.222  1.00  0.00     0.034 C 
BRANCH   4   5
ATOM      5  C   UNL     1      -8.160  21.690  12.709  1.00  0.00     0.032 C 
BRANCH   5   6
ATOM      6  C   UNL     1      -8.188  21.971  14.192  1.00  0.00    -0.028 C 
ATOM      7  C   UNL     1      -7.899  24.424  13.823  1.00  0.00     0.039 C 
ATOM      8  C   UNL     1      -8.070  23.212  14.709  1.00  0.00    -0.080 C 
ATOM      9  C   UNL     1      -8.112  23.381  16.206  1.00  0.00     0.039 C 
ENDBRANCH   5   6
ENDBRANCH   4   5
ENDBRANCH   1   4
BRANCH   2  10
ATOM     10  C   UNL     1      -4.925  24.239  10.242  1.00  0.00     0.260 C 
BRANCH  10  11
ATOM     11  O   UNL     1      -3.756  23.744   9.598  1.00  0.00    -0.462 OA
BRANCH  11  12
ATOM     12  C   UNL     1      -3.540  23.879   8.223  1.00  0.00     0.302 C 
ATOM     13  O   UNL     1      -2.525  24.489   7.787  1.00  0.00    -0.253 OA
ATOM     14  C   UNL     1      -4.494  23.253   7.264  1.00  0.00     0.139 C 
ENDBRANCH  11  12
ENDBRANCH  10  11
ENDBRANCH   2  10
TORSDOF 6
ENDMDL
MODEL 7
REMARK VINA RESULT:    -3.623      2.351      3.295
REMARK INTER + INTRA:          -5.334
REMARK INTER:                  -4.774
REMARK INTRA:                  -0.559
REMARK UNBOUND:                -0.440
REMARK SMILES CC(=O)OCC=C(C)CCC=C(C)C
REMARK SMILES IDX 7 1 6 2 8 3 9 4 10 5 11 6 13 7 12 8 14 9 5 10 4 11 2 12 3 13
REMARK SMILES IDX 1 14
REMARK H PARENT
REMARK Flexibility Score: inf
ROOT
ATOM      1  C   UNL     1      -5.391  23.619  10.012  1.00  0.00    -0.074 C 
ATOM      2  C   UNL     1      -4.389  24.521   9.930  1.00  0.00     0.013 C 
ATOM      3  C   UNL     1      -6.095  23.112   8.774  1.00  0.00     0.039 C 
ENDROOT
BRANCH   1   4
ATOM      4  C   UNL     1      -5.823  23.112  11.371  1.00  0.00     0.034 C 
BRANCH   4   5
ATOM      5  C   UNL     1      -6.511  21.748  11.253  1.00  0.00     0.032 C 
BRANCH   5   6
ATOM      6  C   UNL     1      -7.162  21.349  12.556  1.00  0.00    -0.028 C 
ATOM      7  C   UNL     1      -9.436  21.355  11.523  1.00  0.00     0.039 C 
ATOM      8  C   UNL     1      -8.493  21.168  12.688  1.00  0.00    -0.080 C 
ATOM      9  C   UNL     1      -9.039  20.769  14.035  1.00  0.00     0.039 C 
ENDBRANCH   5   6
ENDBRANCH   4   5
ENDBRANCH   1   4
BRANCH   2  10
ATOM     10  C   UNL     1      -3.890  25.084   8.627  1.00  0.00     0.260 C 
BRANCH  10  11
ATOM     11  O   UNL     1      -2.807  24.292   8.150  1.00  0.00    -0.462 OA
BRANCH  11  12
ATOM     12  C   UNL     1      -2.647  23.971   6.799  1.00  0.00     0.302 C 
ATOM     13  O   UNL     1      -1.717  24.487   6.120  1.00  0.00    -0.253 OA
ATOM     14  C   UNL     1      -3.555  22.972   6.168  1.00  0.00     0.139 C 
ENDBRANCH  11  12
ENDBRANCH  10  11
ENDBRANCH   2  10
TORSDOF 6
ENDMDL
MODEL 8
REMARK VINA RESULT:    -3.575      2.714      4.644
REMARK INTER + INTRA:          -5.268
REMARK INTER:                  -3.975
REMARK INTRA:                  -1.294
REMARK UNBOUND:                -0.440
REMARK SMILES CC(=O)OCC=C(C)CCC=C(C)C
REMARK SMILES IDX 7 1 6 2 8 3 9 4 10 5 11 6 13 7 12 8 14 9 5 10 4 11 2 12 3 13
REMARK SMILES IDX 1 14
REMARK H PARENT
REMARK Flexibility Score: inf
ROOT
ATOM      1  C   UNL     1      -5.161  23.843  11.346  1.00  0.00    -0.074 C 
ATOM      2  C   UNL     1      -3.842  23.626  11.157  1.00  0.00     0.013 C 
ATOM      3  C   UNL     1      -5.734  25.241  11.353  1.00  0.00     0.039 C 
ENDROOT
BRANCH   1   4
ATOM      4  C   UNL     1      -6.083  22.662  11.563  1.00  0.00     0.034 C 
BRANCH   4   5
ATOM      5  C   UNL     1      -7.234  22.674  10.551  1.00  0.00     0.032 C 
BRANCH   5   6
ATOM      6  C   UNL     1      -6.846  21.969   9.273  1.00  0.00    -0.028 C 
ATOM      7  C   UNL     1      -6.935  24.097   7.968  1.00  0.00     0.039 C 
ATOM      8  C   UNL     1      -6.707  22.609   8.092  1.00  0.00    -0.080 C 
ATOM      9  C   UNL     1      -6.315  21.809   6.877  1.00  0.00     0.039 C 
ENDBRANCH   5   6
ENDBRANCH   4   5
ENDBRANCH   1   4
BRANCH   2  10
ATOM     10  C   UNL     1      -2.847  24.733  10.934  1.00  0.00     0.260 C 
BRANCH  10  11
ATOM     11  O   UNL     1      -2.356  24.670   9.600  1.00  0.00    -0.462 OA
BRANCH  11  12
ATOM     12  C   UNL     1      -3.183  24.836   8.485  1.00  0.00     0.302 C 
ATOM     13  O   UNL     1      -3.872  25.883   8.343  1.00  0.00    -0.253 OA
ATOM     14  C   UNL     1      -3.213  23.785   7.429  1.00  0.00     0.139 C 
ENDBRANCH  11  12
ENDBRANCH  10  11
ENDBRANCH   2  10
TORSDOF 6
ENDMDL
MODEL 9
REMARK VINA RESULT:    -3.507      2.939      6.289
REMARK INTER + INTRA:          -5.178
REMARK INTER:                  -4.199
REMARK INTRA:                  -0.979
REMARK UNBOUND:                -0.440
REMARK SMILES CC(=O)OCC=C(C)CCC=C(C)C
REMARK SMILES IDX 7 1 6 2 8 3 9 4 10 5 11 6 13 7 12 8 14 9 5 10 4 11 2 12 3 13
REMARK SMILES IDX 1 14
REMARK H PARENT
REMARK Flexibility Score: inf
ROOT
ATOM      1  C   UNL     1      -7.406  22.515  10.143  1.00  0.00    -0.074 C 
ATOM      2  C   UNL     1      -6.563  21.830  10.946  1.00  0.00     0.013 C 
ATOM      3  C   UNL     1      -8.542  23.334  10.712  1.00  0.00     0.039 C 
ENDROOT
BRANCH   1   4
ATOM      4  C   UNL     1      -7.213  22.455   8.643  1.00  0.00     0.034 C 
BRANCH   4   5
ATOM      5  C   UNL     1      -5.801  22.907   8.254  1.00  0.00     0.032 C 
BRANCH   5   6
ATOM      6  C   UNL     1      -5.598  24.375   8.544  1.00  0.00    -0.028 C 
ATOM      7  C   UNL     1      -3.575  23.913   9.932  1.00  0.00     0.039 C 
ATOM      8  C   UNL     1      -4.588  24.843   9.306  1.00  0.00    -0.080 C 
ATOM      9  C   UNL     1      -4.477  26.329   9.532  1.00  0.00     0.039 C 
ENDBRANCH   5   6
ENDBRANCH   4   5
ENDBRANCH   1   4
BRANCH   2  10
ATOM     10  C   UNL     1      -6.672  21.828  12.446  1.00  0.00     0.260 C 
BRANCH  10  11
ATOM     11  O   UNL     1      -7.319  20.634  12.875  1.00  0.00    -0.462 OA
BRANCH  11  12
ATOM     12  C   UNL     1      -8.619  20.625  13.389  1.00  0.00     0.302 C 
ATOM     13  O   UNL     1      -8.852  21.036  14.559  1.00  0.00    -0.253 OA
ATOM     14  C   UNL     1      -9.747  20.170  12.528  1.00  0.00     0.139 C 
ENDBRANCH  11  12
ENDBRANCH  10  11
ENDBRANCH   2  10
TORSDOF 6
ENDMDL
