MODEL 1
REMARK VINA RESULT:    -3.196      0.000      0.000
REMARK INTER + INTRA:          -4.191
REMARK INTER:                  -3.943
REMARK INTRA:                  -0.248
REMARK UNBOUND:                -0.248
REMARK SMILES CCCCCC(=O)[O-]
REMARK SMILES IDX 4 1 5 2 6 3 7 4 8 5 3 6 2 7 1 8
REMARK H PARENT
REMARK Flexibility Score: inf
ROOT
ATOM      1  C   UNL     1      49.978  26.313  33.254  1.00  0.00     0.006 C 
ENDROOT
BRANCH   1   2
ATOM      2  C   UNL     1      48.878  25.856  34.221  1.00  0.00     0.053 C 
BRANCH   2   3
ATOM      3  C   UNL     1      49.403  25.801  35.621  1.00  0.00     0.041 C 
ATOM      4  O   UNL     1      49.642  26.864  36.251  1.00  0.00    -0.550 OA
ATOM      5  O   UNL     1      49.675  24.573  36.213  1.00  0.00    -0.550 OA
ENDBRANCH   2   3
ENDBRANCH   1   2
BRANCH   1   6
ATOM      6  C   UNL     1      50.918  25.169  32.843  1.00  0.00     0.000 C 
BRANCH   6   7
ATOM      7  C   UNL     1      52.310  25.291  33.481  1.00  0.00    -0.003 C 
ATOM      8  C   UNL     1      52.583  26.722  33.934  1.00  0.00     0.004 C 
ENDBRANCH   6   7
ENDBRANCH   1   6
TORSDOF 4
ENDMDL
MODEL 2
REMARK VINA RESULT:    -3.125      1.209      1.623
REMARK INTER + INTRA:          -4.104
REMARK INTER:                  -3.938
REMARK INTRA:                  -0.166
REMARK UNBOUND:                -0.248
REMARK SMILES CCCCCC(=O)[O-]
REMARK SMILES IDX 4 1 5 2 6 3 7 4 8 5 3 6 2 7 1 8
REMARK H PARENT
REMARK Flexibility Score: inf
ROOT
ATOM      1  C   UNL     1      50.851  25.956  33.045  1.00  0.00     0.006 C 
ENDROOT
BRANCH   1   2
ATOM      2  C   UNL     1      49.760  26.789  33.731  1.00  0.00     0.053 C 
BRANCH   2   3
ATOM      3  C   UNL     1      49.080  25.986  34.794  1.00  0.00     0.041 C 
ATOM      4  O   UNL     1      49.249  26.268  36.009  1.00  0.00    -0.550 OA
ATOM      5  O   UNL     1      48.298  24.892  34.444  1.00  0.00    -0.550 OA
ENDBRANCH   2   3
ENDBRANCH   1   2
BRANCH   1   6
ATOM      6  C   UNL     1      52.203  26.042  33.769  1.00  0.00     0.000 C 
BRANCH   6   7
ATOM      7  C   UNL     1      52.435  27.410  34.427  1.00  0.00    -0.003 C 
ATOM      8  C   UNL     1      53.794  27.984  34.037  1.00  0.00     0.004 C 
ENDBRANCH   6   7
ENDBRANCH   1   6
TORSDOF 4
ENDMDL
MODEL 3
REMARK VINA RESULT:    -3.093      2.325      3.551
REMARK INTER + INTRA:          -4.064
REMARK INTER:                  -3.852
REMARK INTRA:                  -0.212
REMARK UNBOUND:                -0.248
REMARK SMILES CCCCCC(=O)[O-]
REMARK SMILES IDX 4 1 5 2 6 3 7 4 8 5 3 6 2 7 1 8
REMARK H PARENT
REMARK Flexibility Score: inf
ROOT
ATOM      1  C   UNL     1      49.786  24.790  35.898  1.00  0.00     0.006 C 
ENDROOT
BRANCH   1   2
ATOM      2  C   UNL     1      49.195  26.109  35.384  1.00  0.00     0.053 C 
BRANCH   2   3
ATOM      3  C   UNL     1      49.913  26.557  34.151  1.00  0.00     0.041 C 
ATOM      4  O   UNL     1      51.084  27.012  34.228  1.00  0.00    -0.550 OA
ATOM      5  O   UNL     1      49.269  26.519  32.919  1.00  0.00    -0.550 OA
ENDBRANCH   2   3
ENDBRANCH   1   2
BRANCH   1   6
ATOM      6  C   UNL     1      49.820  23.696  34.819  1.00  0.00     0.000 C 
BRANCH   6   7
ATOM      7  C   UNL     1      48.545  22.839  34.809  1.00  0.00    -0.003 C 
ATOM      8  C   UNL     1      47.601  23.271  33.691  1.00  0.00     0.004 C 
ENDBRANCH   6   7
ENDBRANCH   1   6
TORSDOF 4
ENDMDL
MODEL 4
REMARK VINA RESULT:    -3.082      2.831      3.997
REMARK INTER + INTRA:          -4.051
REMARK INTER:                  -3.917
REMARK INTRA:                  -0.134
REMARK UNBOUND:                -0.248
REMARK SMILES CCCCCC(=O)[O-]
REMARK SMILES IDX 4 1 5 2 6 3 7 4 8 5 3 6 2 7 1 8
REMARK H PARENT
REMARK Flexibility Score: inf
ROOT
ATOM      1  C   UNL     1      52.172  26.530  34.002  1.00  0.00     0.006 C 
ENDROOT
BRANCH   1   2
ATOM      2  C   UNL     1      51.976  27.652  35.029  1.00  0.00     0.053 C 
BRANCH   2   3
ATOM      3  C   UNL     1      52.944  28.764  34.779  1.00  0.00     0.041 C 
ATOM      4  O   UNL     1      52.716  29.917  35.229  1.00  0.00    -0.550 OA
ATOM      5  O   UNL     1      54.076  28.539  34.005  1.00  0.00    -0.550 OA
ENDBRANCH   2   3
ENDBRANCH   1   2
BRANCH   1   6
ATOM      6  C   UNL     1      50.850  26.067  33.372  1.00  0.00     0.000 C 
BRANCH   6   7
ATOM      7  C   UNL     1      49.631  26.800  33.951  1.00  0.00    -0.003 C 
ATOM      8  C   UNL     1      48.717  25.837  34.703  1.00  0.00     0.004 C 
ENDBRANCH   6   7
ENDBRANCH   1   6
TORSDOF 4
ENDMDL
MODEL 5
REMARK VINA RESULT:    -3.048      2.587      3.525
REMARK INTER + INTRA:          -4.009
REMARK INTER:                  -3.878
REMARK INTRA:                  -0.131
REMARK UNBOUND:                -0.248
REMARK SMILES CCCCCC(=O)[O-]
REMARK SMILES IDX 4 1 5 2 6 3 7 4 8 5 3 6 2 7 1 8
REMARK H PARENT
REMARK Flexibility Score: inf
ROOT
ATOM      1  C   UNL     1      52.687  27.144  34.346  1.00  0.00     0.006 C 
ENDROOT
BRANCH   1   2
ATOM      2  C   UNL     1      51.255  27.260  34.882  1.00  0.00     0.053 C 
BRANCH   2   3
ATOM      3  C   UNL     1      50.290  26.615  33.939  1.00  0.00     0.041 C 
ATOM      4  O   UNL     1      49.058  26.615  34.194  1.00  0.00    -0.550 OA
ATOM      5  O   UNL     1      50.758  25.969  32.800  1.00  0.00    -0.550 OA
ENDBRANCH   2   3
ENDBRANCH   1   2
BRANCH   1   6
ATOM      6  C   UNL     1      53.468  28.463  34.450  1.00  0.00     0.000 C 
BRANCH   6   7
ATOM      7  C   UNL     1      52.636  29.593  35.075  1.00  0.00    -0.003 C 
ATOM      8  C   UNL     1      53.199  30.002  36.433  1.00  0.00     0.004 C 
ENDBRANCH   6   7
ENDBRANCH   1   6
TORSDOF 4
ENDMDL
MODEL 6
REMARK VINA RESULT:    -3.000      1.863      2.865
REMARK INTER + INTRA:          -3.949
REMARK INTER:                  -3.689
REMARK INTRA:                  -0.259
REMARK UNBOUND:                -0.248
REMARK SMILES CCCCCC(=O)[O-]
REMARK SMILES IDX 4 1 5 2 6 3 7 4 8 5 3 6 2 7 1 8
REMARK H PARENT
REMARK Flexibility Score: inf
ROOT
ATOM      1  C   UNL     1      49.239  25.423  33.131  1.00  0.00     0.006 C 
ENDROOT
BRANCH   1   2
ATOM      2  C   UNL     1      49.559  26.702  33.915  1.00  0.00     0.053 C 
BRANCH   2   3
ATOM      3  C   UNL     1      50.109  26.364  35.264  1.00  0.00     0.041 C 
ATOM      4  O   UNL     1      49.510  26.736  36.306  1.00  0.00    -0.550 OA
ATOM      5  O   UNL     1      51.314  25.678  35.370  1.00  0.00    -0.550 OA
ENDBRANCH   2   3
ENDBRANCH   1   2
BRANCH   1   6
ATOM      6  C   UNL     1      48.158  24.568  33.809  1.00  0.00     0.000 C 
BRANCH   6   7
ATOM      7  C   UNL     1      48.539  23.081  33.877  1.00  0.00    -0.003 C 
ATOM      8  C   UNL     1      49.159  22.734  35.227  1.00  0.00     0.004 C 
ENDBRANCH   6   7
ENDBRANCH   1   6
TORSDOF 4
ENDMDL
MODEL 7
REMARK VINA RESULT:    -2.993      2.143      2.664
REMARK INTER + INTRA:          -3.941
REMARK INTER:                  -3.799
REMARK INTRA:                  -0.142
REMARK UNBOUND:                -0.248
REMARK SMILES CCCCCC(=O)[O-]
REMARK SMILES IDX 4 1 5 2 6 3 7 4 8 5 3 6 2 7 1 8
REMARK H PARENT
REMARK Flexibility Score: inf
ROOT
ATOM      1  C   UNL     1      50.526  26.585  35.212  1.00  0.00     0.006 C 
ENDROOT
BRANCH   1   2
ATOM      2  C   UNL     1      49.437  26.693  34.138  1.00  0.00     0.053 C 
BRANCH   2   3
ATOM      3  C   UNL     1      49.398  25.450  33.307  1.00  0.00     0.041 C 
ATOM      4  O   UNL     1      50.372  25.151  32.567  1.00  0.00    -0.550 OA
ATOM      5  O   UNL     1      48.264  24.647  33.310  1.00  0.00    -0.550 OA
ENDBRANCH   2   3
ENDBRANCH   1   2
BRANCH   1   6
ATOM      6  C   UNL     1      51.658  27.604  35.012  1.00  0.00     0.000 C 
BRANCH   6   7
ATOM      7  C   UNL     1      52.853  27.016  34.246  1.00  0.00    -0.003 C 
ATOM      8  C   UNL     1      53.900  28.087  33.955  1.00  0.00     0.004 C 
ENDBRANCH   6   7
ENDBRANCH   1   6
TORSDOF 4
ENDMDL
MODEL 8
REMARK VINA RESULT:    -2.985      1.452      1.941
REMARK INTER + INTRA:          -3.930
REMARK INTER:                  -3.687
REMARK INTRA:                  -0.243
REMARK UNBOUND:                -0.248
REMARK SMILES CCCCCC(=O)[O-]
REMARK SMILES IDX 4 1 5 2 6 3 7 4 8 5 3 6 2 7 1 8
REMARK H PARENT
REMARK Flexibility Score: inf
ROOT
ATOM      1  C   UNL     1      49.449  26.613  33.387  1.00  0.00     0.006 C 
ENDROOT
BRANCH   1   2
ATOM      2  C   UNL     1      48.929  26.010  34.698  1.00  0.00     0.053 C 
BRANCH   2   3
ATOM      3  C   UNL     1      48.693  24.542  34.541  1.00  0.00     0.041 C 
ATOM      4  O   UNL     1      49.351  23.717  35.227  1.00  0.00    -0.550 OA
ATOM      5  O   UNL     1      47.781  24.082  33.599  1.00  0.00    -0.550 OA
ENDBRANCH   2   3
ENDBRANCH   1   2
BRANCH   1   6
ATOM      6  C   UNL     1      50.740  25.939  32.898  1.00  0.00     0.000 C 
BRANCH   6   7
ATOM      7  C   UNL     1      51.970  26.352  33.720  1.00  0.00    -0.003 C 
ATOM      8  C   UNL     1      52.763  25.129  34.173  1.00  0.00     0.004 C 
ENDBRANCH   6   7
ENDBRANCH   1   6
TORSDOF 4
ENDMDL
MODEL 9
REMARK VINA RESULT:    -2.978      1.809      3.242
REMARK INTER + INTRA:          -3.922
REMARK INTER:                  -3.683
REMARK INTRA:                  -0.239
REMARK UNBOUND:                -0.248
REMARK SMILES CCCCCC(=O)[O-]
REMARK SMILES IDX 4 1 5 2 6 3 7 4 8 5 3 6 2 7 1 8
REMARK H PARENT
REMARK Flexibility Score: inf
ROOT
ATOM      1  C   UNL     1      49.678  26.682  33.619  1.00  0.00     0.006 C 
ENDROOT
BRANCH   1   2
ATOM      2  C   UNL     1      51.166  26.314  33.656  1.00  0.00     0.053 C 
BRANCH   2   3
ATOM      3  C   UNL     1      51.768  26.705  34.968  1.00  0.00     0.041 C 
ATOM      4  O   UNL     1      52.205  25.823  35.753  1.00  0.00    -0.550 OA
ATOM      5  O   UNL     1      51.803  28.042  35.346  1.00  0.00    -0.550 OA
ENDBRANCH   2   3
ENDBRANCH   1   2
BRANCH   1   6
ATOM      6  C   UNL     1      48.854  25.922  34.669  1.00  0.00     0.000 C 
BRANCH   6   7
ATOM      7  C   UNL     1      48.585  24.464  34.267  1.00  0.00    -0.003 C 
ATOM      8  C   UNL     1      49.329  23.496  35.181  1.00  0.00     0.004 C 
ENDBRANCH   6   7
ENDBRANCH   1   6
TORSDOF 4
ENDMDL
