MODEL 1
REMARK VINA RESULT:    -3.364      0.000      0.000
REMARK INTER + INTRA:          -4.377
REMARK INTER:                  -4.938
REMARK INTRA:                   0.561
REMARK UNBOUND:                 0.561
REMARK SMILES C=C1CC=CC(C)(C)CC=C(C)CCC1
REMARK SMILES IDX 2 1 1 2 15 3 14 4 13 5 11 6 12 7 10 8 3 10 4 11 5 12 6 13
REMARK SMILES IDX 7 14 8 15 9 16
REMARK H PARENT
REMARK Flexibility Score: 60.00
ROOT
ATOM      1  C   UNL     1      20.600  63.723  14.723  1.00  0.00    -0.074 C 
ATOM      2  C   UNL     1      19.789  62.765  14.245  1.00  0.00     0.008 C 
ENDROOT
BRANCH   1   3
ATOM      3  C   UNL     1      21.899  64.043  14.014  1.00  0.00     0.031 C 
BRANCH   3   4
ATOM      4  C   UNL     1      22.946  62.923  14.230  1.00  0.00     0.009 C 
BRANCH   4   5
ATOM      5  C   UNL     1      24.093  63.241  15.220  1.00  0.00     0.030 C 
BRANCH   5   6
ATOM      6  C   UNL     1      24.102  62.448  16.520  1.00  0.00    -0.077 C 
ATOM      7  C   UNL     1      24.622  61.031  16.495  1.00  0.00     0.039 C 
ATOM      8  C   UNL     1      23.670  62.935  17.707  1.00  0.00    -0.027 CG0
ATOM      9  G   UNL     1      23.073  64.311  17.940  1.00  0.00     0.000 G0
ENDBRANCH   5   6
ENDBRANCH   4   5
ENDBRANCH   3   4
ENDBRANCH   1   3
BRANCH   1  10
ATOM     10  C   UNL     1      20.260  64.437  16.017  1.00  0.00     0.057 C 
BRANCH  10  11
ATOM     11  C   UNL     1      20.039  63.448  17.132  1.00  0.00    -0.026 C 
ATOM     12  C   UNL     1      20.692  63.366  18.315  1.00  0.00    -0.024 C 
BRANCH  12  13
ATOM     13  C   UNL     1      21.804  64.266  18.880  1.00  0.00    -0.014 C 
ATOM     14  C   UNL     1      22.196  63.823  20.310  1.00  0.00     0.016 C 
ATOM     15  C   UNL     1      21.230  65.700  19.014  1.00  0.00     0.016 C 
BRANCH  13  16
ATOM     16  C   UNL     1      23.063  64.313  17.957  1.00  0.00     0.038 CG0
ATOM     17  G   UNL     1      23.676  62.946  17.713  1.00  0.00     0.000 G0
ENDBRANCH  13  16
ENDBRANCH  12  13
ENDBRANCH  10  11
ENDBRANCH   1  10
TORSDOF 0
ENDMDL
MODEL 2
REMARK VINA RESULT:    -3.314      1.371      3.391
REMARK INTER + INTRA:          -4.303
REMARK INTER:                  -4.864
REMARK INTRA:                   0.561
REMARK UNBOUND:                 0.561
REMARK SMILES C=C1CC=CC(C)(C)CC=C(C)CCC1
REMARK SMILES IDX 2 1 1 2 15 3 14 4 13 5 11 6 12 7 10 8 3 10 4 11 5 12 6 13
REMARK SMILES IDX 7 14 8 15 9 16
REMARK H PARENT
REMARK Flexibility Score: 60.00
ROOT
ATOM      1  C   UNL     1      24.459  62.138  15.847  1.00  0.00    -0.074 C 
ATOM      2  C   UNL     1      24.893  60.869  15.916  1.00  0.00     0.008 C 
ENDROOT
BRANCH   1   3
ATOM      3  C   UNL     1      24.323  62.825  14.505  1.00  0.00     0.031 C 
BRANCH   3   4
ATOM      4  C   UNL     1      22.922  62.582  13.891  1.00  0.00     0.009 C 
BRANCH   4   5
ATOM      5  C   UNL     1      21.950  63.787  13.913  1.00  0.00     0.030 C 
BRANCH   5   6
ATOM      6  C   UNL     1      20.650  63.590  14.681  1.00  0.00    -0.077 C 
ATOM      7  C   UNL     1      19.572  62.731  14.066  1.00  0.00     0.039 C 
ATOM      8  C   UNL     1      20.396  64.140  15.892  1.00  0.00    -0.027 CG0
ATOM      9  G   UNL     1      21.321  65.064  16.662  1.00  0.00     0.000 G0
ENDBRANCH   5   6
ENDBRANCH   4   5
ENDBRANCH   3   4
ENDBRANCH   1   3
BRANCH   1  10
ATOM     10  C   UNL     1      24.175  62.918  17.117  1.00  0.00     0.057 C 
BRANCH  10  11
ATOM     11  C   UNL     1      22.937  62.395  17.800  1.00  0.00    -0.026 C 
ATOM     12  C   UNL     1      21.868  63.098  18.241  1.00  0.00    -0.024 C 
BRANCH  12  13
ATOM     13  C   UNL     1      21.584  64.606  18.142  1.00  0.00    -0.014 C 
ATOM     14  C   UNL     1      22.742  65.426  18.761  1.00  0.00     0.016 C 
ATOM     15  C   UNL     1      20.331  64.909  19.005  1.00  0.00     0.016 C 
BRANCH  13  16
ATOM     16  C   UNL     1      21.308  65.069  16.676  1.00  0.00     0.038 CG0
ATOM     17  G   UNL     1      20.396  64.125  15.914  1.00  0.00     0.000 G0
ENDBRANCH  13  16
ENDBRANCH  12  13
ENDBRANCH  10  11
ENDBRANCH   1  10
TORSDOF 0
ENDMDL
MODEL 3
REMARK VINA RESULT:    -3.190      1.476      3.680
REMARK INTER + INTRA:          -4.121
REMARK INTER:                  -4.587
REMARK INTRA:                   0.466
REMARK UNBOUND:                 0.561
REMARK SMILES C=C1CC=CC(C)(C)CC=C(C)CCC1
REMARK SMILES IDX 2 1 1 2 15 3 14 4 13 5 11 6 12 7 10 8 3 10 4 11 5 12 6 13
REMARK SMILES IDX 7 14 8 15 9 16
REMARK H PARENT
REMARK Flexibility Score: 60.00
ROOT
ATOM      1  C   UNL     1      22.946  62.950  14.673  1.00  0.00    -0.074 C 
ATOM      2  C   UNL     1      23.625  62.140  13.845  1.00  0.00     0.008 C 
ENDROOT
BRANCH   1   3
ATOM      3  C   UNL     1      22.018  64.007  14.113  1.00  0.00     0.031 C 
BRANCH   3   4
ATOM      4  C   UNL     1      20.670  63.389  13.667  1.00  0.00     0.009 C 
BRANCH   4   5
ATOM      5  C   UNL     1      19.651  63.087  14.794  1.00  0.00     0.030 C 
BRANCH   5   6
ATOM      6  C   UNL     1      19.227  64.270  15.653  1.00  0.00    -0.077 C 
ATOM      7  C   UNL     1      18.388  65.355  15.023  1.00  0.00     0.039 C 
ATOM      8  C   UNL     1      19.557  64.414  16.959  1.00  0.00    -0.027 CG0
ATOM      9  G   UNL     1      20.424  63.466  17.768  1.00  0.00     0.000 G0
ENDBRANCH   5   6
ENDBRANCH   4   5
ENDBRANCH   3   4
ENDBRANCH   1   3
BRANCH   1  10
ATOM     10  C   UNL     1      23.160  62.863  16.172  1.00  0.00     0.057 C 
BRANCH  10  11
ATOM     11  C   UNL     1      23.326  64.237  16.769  1.00  0.00    -0.026 C 
ATOM     12  C   UNL     1      22.626  64.795  17.783  1.00  0.00    -0.024 C 
BRANCH  12  13
ATOM     13  C   UNL     1      21.501  64.191  18.641  1.00  0.00    -0.014 C 
ATOM     14  C   UNL     1      20.852  65.273  19.538  1.00  0.00     0.016 C 
ATOM     15  C   UNL     1      22.143  63.159  19.605  1.00  0.00     0.016 C 
BRANCH  13  16
ATOM     16  C   UNL     1      20.415  63.469  17.782  1.00  0.00     0.038 CG0
ATOM     17  G   UNL     1      19.573  64.425  16.957  1.00  0.00     0.000 G0
ENDBRANCH  13  16
ENDBRANCH  12  13
ENDBRANCH  10  11
ENDBRANCH   1  10
TORSDOF 0
ENDMDL
MODEL 4
REMARK VINA RESULT:    -3.105      1.541      3.907
REMARK INTER + INTRA:          -3.996
REMARK INTER:                  -4.869
REMARK INTRA:                   0.872
REMARK UNBOUND:                 0.561
REMARK SMILES C=C1CC=CC(C)(C)CC=C(C)CCC1
REMARK SMILES IDX 2 1 1 2 15 3 14 4 13 5 11 6 12 7 10 8 3 10 4 11 5 12 6 13
REMARK SMILES IDX 7 14 8 15 9 16
REMARK H PARENT
REMARK Flexibility Score: 60.00
ROOT
ATOM      1  C   UNL     1      22.152  63.136  18.654  1.00  0.00    -0.074 C 
ATOM      2  C   UNL     1      21.861  63.643  19.862  1.00  0.00     0.008 C 
ENDROOT
BRANCH   1   3
ATOM      3  C   UNL     1      23.593  63.009  18.208  1.00  0.00     0.031 C 
BRANCH   3   4
ATOM      4  C   UNL     1      23.734  61.997  17.045  1.00  0.00     0.009 C 
BRANCH   4   5
ATOM      5  C   UNL     1      24.414  62.524  15.759  1.00  0.00     0.030 C 
BRANCH   5   6
ATOM      6  C   UNL     1      23.637  62.344  14.462  1.00  0.00    -0.077 C 
ATOM      7  C   UNL     1      24.064  61.251  13.511  1.00  0.00     0.039 C 
ATOM      8  C   UNL     1      22.577  63.106  14.103  1.00  0.00    -0.027 CG0
ATOM      9  G   UNL     1      22.015  64.277  14.889  1.00  0.00     0.000 G0
ENDBRANCH   5   6
ENDBRANCH   4   5
ENDBRANCH   3   4
ENDBRANCH   1   3
BRANCH   1  10
ATOM     10  C   UNL     1      21.039  62.756  17.696  1.00  0.00     0.057 C 
BRANCH  10  11
ATOM     11  C   UNL     1      20.112  63.922  17.464  1.00  0.00    -0.026 C 
ATOM     12  C   UNL     1      19.879  64.583  16.306  1.00  0.00    -0.024 C 
BRANCH  12  13
ATOM     13  C   UNL     1      20.447  64.321  14.901  1.00  0.00    -0.014 C 
ATOM     14  C   UNL     1      19.927  65.373  13.892  1.00  0.00     0.016 C 
ATOM     15  C   UNL     1      19.901  62.952  14.417  1.00  0.00     0.016 C 
BRANCH  13  16
ATOM     16  C   UNL     1      22.008  64.273  14.885  1.00  0.00     0.038 CG0
ATOM     17  G   UNL     1      22.561  63.096  14.101  1.00  0.00     0.000 G0
ENDBRANCH  13  16
ENDBRANCH  12  13
ENDBRANCH  10  11
ENDBRANCH   1  10
TORSDOF 0
ENDMDL
MODEL 5
REMARK VINA RESULT:    -2.975      1.030      3.638
REMARK INTER + INTRA:          -3.806
REMARK INTER:                  -4.387
REMARK INTRA:                   0.581
REMARK UNBOUND:                 0.561
REMARK SMILES C=C1CC=CC(C)(C)CC=C(C)CCC1
REMARK SMILES IDX 2 1 1 2 15 3 14 4 13 5 11 6 12 7 10 8 3 10 4 11 5 12 6 13
REMARK SMILES IDX 7 14 8 15 9 16
REMARK H PARENT
REMARK Flexibility Score: 60.00
ROOT
ATOM      1  C   UNL     1      20.446  63.582  14.633  1.00  0.00    -0.074 C 
ATOM      2  C   UNL     1      19.351  63.150  13.988  1.00  0.00     0.008 C 
ENDROOT
BRANCH   1   3
ATOM      3  C   UNL     1      20.389  64.843  15.468  1.00  0.00     0.031 C 
BRANCH   3   4
ATOM      4  C   UNL     1      19.399  64.689  16.649  1.00  0.00     0.009 C 
BRANCH   4   5
ATOM      5  C   UNL     1      19.735  63.587  17.682  1.00  0.00     0.030 C 
BRANCH   5   6
ATOM      6  C   UNL     1      20.861  63.898  18.658  1.00  0.00    -0.077 C 
ATOM      7  C   UNL     1      20.591  64.864  19.787  1.00  0.00     0.039 C 
ATOM      8  C   UNL     1      22.102  63.361  18.580  1.00  0.00    -0.027 CG0
ATOM      9  G   UNL     1      22.592  62.408  17.505  1.00  0.00     0.000 G0
ENDBRANCH   5   6
ENDBRANCH   4   5
ENDBRANCH   3   4
ENDBRANCH   1   3
BRANCH   1  10
ATOM     10  C   UNL     1      21.767  62.853  14.471  1.00  0.00     0.057 C 
BRANCH  10  11
ATOM     11  C   UNL     1      22.926  63.790  14.698  1.00  0.00    -0.026 C 
ATOM     12  C   UNL     1      23.829  63.768  15.706  1.00  0.00    -0.024 C 
BRANCH  12  13
ATOM     13  C   UNL     1      23.964  62.777  16.874  1.00  0.00    -0.014 C 
ATOM     14  C   UNL     1      24.917  63.333  17.959  1.00  0.00     0.016 C 
ATOM     15  C   UNL     1      24.636  61.490  16.327  1.00  0.00     0.016 C 
BRANCH  13  16
ATOM     16  C   UNL     1      22.585  62.396  17.500  1.00  0.00     0.038 CG0
ATOM     17  G   UNL     1      22.127  63.368  18.572  1.00  0.00     0.000 G0
ENDBRANCH  13  16
ENDBRANCH  12  13
ENDBRANCH  10  11
ENDBRANCH   1  10
TORSDOF 0
ENDMDL
MODEL 6
REMARK VINA RESULT:    -2.958      1.382      3.665
REMARK INTER + INTRA:          -3.781
REMARK INTER:                  -4.673
REMARK INTRA:                   0.892
REMARK UNBOUND:                 0.561
REMARK SMILES C=C1CC=CC(C)(C)CC=C(C)CCC1
REMARK SMILES IDX 2 1 1 2 15 3 14 4 13 5 11 6 12 7 10 8 3 10 4 11 5 12 6 13
REMARK SMILES IDX 7 14 8 15 9 16
REMARK H PARENT
REMARK Flexibility Score: 60.00
ROOT
ATOM      1  C   UNL     1      23.544  62.735  14.564  1.00  0.00    -0.074 C 
ATOM      2  C   UNL     1      23.843  61.648  13.835  1.00  0.00     0.008 C 
ENDROOT
BRANCH   1   3
ATOM      3  C   UNL     1      24.198  62.951  15.912  1.00  0.00     0.031 C 
BRANCH   3   4
ATOM      4  C   UNL     1      23.569  62.036  16.992  1.00  0.00     0.009 C 
BRANCH   4   5
ATOM      5  C   UNL     1      22.807  62.751  18.134  1.00  0.00     0.030 C 
BRANCH   5   6
ATOM      6  C   UNL     1      22.567  64.244  17.952  1.00  0.00    -0.077 C 
ATOM      7  C   UNL     1      23.652  65.205  18.373  1.00  0.00     0.039 C 
ATOM      8  C   UNL     1      21.433  64.770  17.433  1.00  0.00    -0.027 CG0
ATOM      9  G   UNL     1      20.210  63.988  16.990  1.00  0.00     0.000 G0
ENDBRANCH   5   6
ENDBRANCH   4   5
ENDBRANCH   3   4
ENDBRANCH   1   3
BRANCH   1  10
ATOM     10  C   UNL     1      22.494  63.716  14.078  1.00  0.00     0.057 C 
BRANCH  10  11
ATOM     11  C   UNL     1      21.166  63.029  13.890  1.00  0.00    -0.026 C 
ATOM     12  C   UNL     1      19.998  63.286  14.523  1.00  0.00    -0.024 C 
BRANCH  12  13
ATOM     13  C   UNL     1      19.673  64.363  15.571  1.00  0.00    -0.014 C 
ATOM     14  C   UNL     1      18.153  64.652  15.610  1.00  0.00     0.016 C 
ATOM     15  C   UNL     1      20.351  65.683  15.121  1.00  0.00     0.016 C 
BRANCH  13  16
ATOM     16  C   UNL     1      20.195  63.990  16.995  1.00  0.00     0.038 CG0
ATOM     17  G   UNL     1      21.425  64.780  17.405  1.00  0.00     0.000 G0
ENDBRANCH  13  16
ENDBRANCH  12  13
ENDBRANCH  10  11
ENDBRANCH   1  10
TORSDOF 0
ENDMDL
MODEL 7
REMARK VINA RESULT:    -2.868      0.857      1.367
REMARK INTER + INTRA:          -3.649
REMARK INTER:                  -4.679
REMARK INTRA:                   1.030
REMARK UNBOUND:                 0.561
REMARK SMILES C=C1CC=CC(C)(C)CC=C(C)CCC1
REMARK SMILES IDX 2 1 1 2 15 3 14 4 13 5 11 6 12 7 10 8 3 10 4 11 5 12 6 13
REMARK SMILES IDX 7 14 8 15 9 16
REMARK H PARENT
REMARK Flexibility Score: 60.00
ROOT
ATOM      1  C   UNL     1      20.782  63.571  14.687  1.00  0.00    -0.074 C 
ATOM      2  C   UNL     1      19.781  62.776  14.278  1.00  0.00     0.008 C 
ENDROOT
BRANCH   1   3
ATOM      3  C   UNL     1      22.063  63.655  13.885  1.00  0.00     0.031 C 
BRANCH   3   4
ATOM      4  C   UNL     1      22.952  62.408  14.117  1.00  0.00     0.009 C 
BRANCH   4   5
ATOM      5  C   UNL     1      24.128  62.582  15.108  1.00  0.00     0.030 C 
BRANCH   5   6
ATOM      6  C   UNL     1      24.279  63.958  15.740  1.00  0.00    -0.077 C 
ATOM      7  C   UNL     1      24.832  65.083  14.898  1.00  0.00     0.039 C 
ATOM      8  C   UNL     1      23.945  64.243  17.022  1.00  0.00    -0.027 CG0
ATOM      9  G   UNL     1      23.417  63.255  18.045  1.00  0.00     0.000 G0
ENDBRANCH   5   6
ENDBRANCH   4   5
ENDBRANCH   3   4
ENDBRANCH   1   3
BRANCH   1  10
ATOM     10  C   UNL     1      20.669  64.333  15.994  1.00  0.00     0.057 C 
BRANCH  10  11
ATOM     11  C   UNL     1      20.219  63.421  17.107  1.00  0.00    -0.026 C 
ATOM     12  C   UNL     1      20.847  63.163  18.278  1.00  0.00    -0.024 C 
BRANCH  12  13
ATOM     13  C   UNL     1      22.160  63.743  18.829  1.00  0.00    -0.014 C 
ATOM     14  C   UNL     1      22.307  63.433  20.338  1.00  0.00     0.016 C 
ATOM     15  C   UNL     1      22.083  65.287  18.711  1.00  0.00     0.016 C 
BRANCH  13  16
ATOM     16  C   UNL     1      23.413  63.242  18.043  1.00  0.00     0.038 CG0
ATOM     17  G   UNL     1      23.932  64.254  17.038  1.00  0.00     0.000 G0
ENDBRANCH  13  16
ENDBRANCH  12  13
ENDBRANCH  10  11
ENDBRANCH   1  10
TORSDOF 0
ENDMDL
MODEL 8
REMARK VINA RESULT:    -2.833      1.221      3.964
REMARK INTER + INTRA:          -3.596
REMARK INTER:                  -4.236
REMARK INTRA:                   0.640
REMARK UNBOUND:                 0.561
REMARK SMILES C=C1CC=CC(C)(C)CC=C(C)CCC1
REMARK SMILES IDX 2 1 1 2 15 3 14 4 13 5 11 6 12 7 10 8 3 10 4 11 5 12 6 13
REMARK SMILES IDX 7 14 8 15 9 16
REMARK H PARENT
REMARK Flexibility Score: 60.00
ROOT
ATOM      1  C   UNL     1      20.106  64.240  16.439  1.00  0.00    -0.074 C 
ATOM      2  C   UNL     1      19.001  64.991  16.312  1.00  0.00     0.008 C 
ENDROOT
BRANCH   1   3
ATOM      3  C   UNL     1      20.201  63.206  17.540  1.00  0.00     0.031 C 
BRANCH   3   4
ATOM      4  C   UNL     1      21.227  63.629  18.620  1.00  0.00     0.009 C 
BRANCH   4   5
ATOM      5  C   UNL     1      22.535  62.802  18.681  1.00  0.00     0.030 C 
BRANCH   5   6
ATOM      6  C   UNL     1      23.778  63.463  18.102  1.00  0.00    -0.077 C 
ATOM      7  C   UNL     1      24.451  64.556  18.899  1.00  0.00     0.039 C 
ATOM      8  C   UNL     1      24.326  63.132  16.909  1.00  0.00    -0.027 CG0
ATOM      9  G   UNL     1      23.785  62.098  15.938  1.00  0.00     0.000 G0
ENDBRANCH   5   6
ENDBRANCH   4   5
ENDBRANCH   3   4
ENDBRANCH   1   3
BRANCH   1  10
ATOM     10  C   UNL     1      21.297  64.473  15.529  1.00  0.00     0.057 C 
BRANCH  10  11
ATOM     11  C   UNL     1      21.288  63.502  14.376  1.00  0.00    -0.026 C 
ATOM     12  C   UNL     1      22.310  62.742  13.918  1.00  0.00    -0.024 C 
BRANCH  12  13
ATOM     13  C   UNL     1      23.746  62.615  14.452  1.00  0.00    -0.014 C 
ATOM     14  C   UNL     1      24.505  63.957  14.315  1.00  0.00     0.016 C 
ATOM     15  C   UNL     1      24.498  61.601  13.551  1.00  0.00     0.016 C 
BRANCH  13  16
ATOM     16  C   UNL     1      23.795  62.108  15.928  1.00  0.00     0.038 CG0
ATOM     17  G   UNL     1      24.307  63.153  16.902  1.00  0.00     0.000 G0
ENDBRANCH  13  16
ENDBRANCH  12  13
ENDBRANCH  10  11
ENDBRANCH   1  10
TORSDOF 0
ENDMDL
MODEL 9
REMARK VINA RESULT:    -2.770      1.519      4.134
REMARK INTER + INTRA:          -3.505
REMARK INTER:                  -4.175
REMARK INTRA:                   0.671
REMARK UNBOUND:                 0.561
REMARK SMILES C=C1CC=CC(C)(C)CC=C(C)CCC1
REMARK SMILES IDX 2 1 1 2 15 3 14 4 13 5 11 6 12 7 10 8 3 10 4 11 5 12 6 13
REMARK SMILES IDX 7 14 8 15 9 16
REMARK H PARENT
REMARK Flexibility Score: 60.00
ROOT
ATOM      1  C   UNL     1      20.458  64.736  18.513  1.00  0.00    -0.074 C 
ATOM      2  C   UNL     1      19.914  65.884  18.949  1.00  0.00     0.008 C 
ENDROOT
BRANCH   1   3
ATOM      3  C   UNL     1      19.676  63.826  17.591  1.00  0.00     0.031 C 
BRANCH   3   4
ATOM      4  C   UNL     1      18.831  64.642  16.582  1.00  0.00     0.009 C 
BRANCH   4   5
ATOM      5  C   UNL     1      19.458  64.856  15.182  1.00  0.00     0.030 C 
BRANCH   5   6
ATOM      6  C   UNL     1      20.226  63.677  14.600  1.00  0.00    -0.077 C 
ATOM      7  C   UNL     1      19.454  62.601  13.875  1.00  0.00     0.039 C 
ATOM      8  C   UNL     1      21.569  63.530  14.691  1.00  0.00    -0.027 CG0
ATOM      9  G   UNL     1      22.521  64.468  15.410  1.00  0.00     0.000 G0
ENDBRANCH   5   6
ENDBRANCH   4   5
ENDBRANCH   3   4
ENDBRANCH   1   3
BRANCH   1  10
ATOM     10  C   UNL     1      21.829  64.307  18.999  1.00  0.00     0.057 C 
BRANCH  10  11
ATOM     11  C   UNL     1      22.217  62.979  18.401  1.00  0.00    -0.026 C 
ATOM     12  C   UNL     1      22.930  62.750  17.273  1.00  0.00    -0.024 C 
BRANCH  12  13
ATOM     13  C   UNL     1      23.579  63.755  16.308  1.00  0.00    -0.014 C 
ATOM     14  C   UNL     1      24.666  63.067  15.447  1.00  0.00     0.016 C 
ATOM     15  C   UNL     1      24.314  64.823  17.159  1.00  0.00     0.016 C 
BRANCH  13  16
ATOM     16  C   UNL     1      22.532  64.472  15.397  1.00  0.00     0.038 CG0
ATOM     17  G   UNL     1      21.586  63.510  14.702  1.00  0.00     0.000 G0
ENDBRANCH  13  16
ENDBRANCH  12  13
ENDBRANCH  10  11
ENDBRANCH   1  10
TORSDOF 0
ENDMDL
