MODEL 1
REMARK VINA RESULT:    -4.232      0.000      0.000
REMARK INTER + INTRA:          -7.384
REMARK INTER:                  -6.458
REMARK INTRA:                  -0.926
REMARK UNBOUND:                -0.926
REMARK SMILES CCCCCCCCCCC(=O)[O-]
REMARK SMILES IDX 7 1 8 2 9 3 10 4 11 5 12 6 13 7 6 8 5 9 4 10 3 11 2 12 1 13
REMARK H PARENT
REMARK Flexibility Score: inf
ROOT
ATOM      1  C   UNL     1      27.376  12.584 -11.898  1.00  0.00     0.000 C 
ENDROOT
BRANCH   1   2
ATOM      2  C   UNL     1      27.215  12.950 -13.382  1.00  0.00     0.000 C 
BRANCH   2   3
ATOM      3  C   UNL     1      25.870  13.628 -13.681  1.00  0.00     0.006 C 
BRANCH   3   4
ATOM      4  C   UNL     1      26.039  14.752 -14.709  1.00  0.00     0.053 C 
BRANCH   4   5
ATOM      5  C   UNL     1      24.863  15.676 -14.671  1.00  0.00     0.041 C 
ATOM      6  O   UNL     1      24.480  16.257 -15.720  1.00  0.00    -0.550 OA
ATOM      7  O   UNL     1      24.161  15.860 -13.487  1.00  0.00    -0.550 OA
ENDBRANCH   4   5
ENDBRANCH   3   4
ENDBRANCH   2   3
ENDBRANCH   1   2
BRANCH   1   8
ATOM      8  C   UNL     1      28.700  13.095 -11.304  1.00  0.00     0.000 C 
BRANCH   8   9
ATOM      9  C   UNL     1      28.604  13.378  -9.796  1.00  0.00    -0.000 C 
BRANCH   9  10
ATOM     10  C   UNL     1      28.454  14.877  -9.486  1.00  0.00    -0.000 C 
BRANCH  10  11
ATOM     11  C   UNL     1      28.490  15.756 -10.750  1.00  0.00    -0.000 C 
BRANCH  11  12
ATOM     12  C   UNL     1      27.124  16.296 -11.207  1.00  0.00    -0.003 C 
ATOM     13  C   UNL     1      27.237  17.476 -12.170  1.00  0.00     0.004 C 
ENDBRANCH  11  12
ENDBRANCH  10  11
ENDBRANCH   9  10
ENDBRANCH   8   9
ENDBRANCH   1   8
TORSDOF 9
ENDMDL
MODEL 2
REMARK VINA RESULT:    -4.162      1.688      3.635
REMARK INTER + INTRA:          -7.278
REMARK INTER:                  -6.421
REMARK INTRA:                  -0.857
REMARK UNBOUND:                -0.926
REMARK SMILES CCCCCCCCCCC(=O)[O-]
REMARK SMILES IDX 7 1 8 2 9 3 10 4 11 5 12 6 13 7 6 8 5 9 4 10 3 11 2 12 1 13
REMARK H PARENT
REMARK Flexibility Score: inf
ROOT
ATOM      1  C   UNL     1      28.245  15.331 -10.477  1.00  0.00     0.000 C 
ENDROOT
BRANCH   1   2
ATOM      2  C   UNL     1      26.900  15.532  -9.761  1.00  0.00     0.000 C 
BRANCH   2   3
ATOM      3  C   UNL     1      25.892  16.323 -10.608  1.00  0.00     0.006 C 
BRANCH   3   4
ATOM      4  C   UNL     1      26.579  16.972 -11.813  1.00  0.00     0.053 C 
BRANCH   4   5
ATOM      5  C   UNL     1      25.938  18.285 -12.137  1.00  0.00     0.041 C 
ATOM      6  O   UNL     1      25.816  18.652 -13.335  1.00  0.00    -0.550 OA
ATOM      7  O   UNL     1      25.432  19.081 -11.118  1.00  0.00    -0.550 OA
ENDBRANCH   4   5
ENDBRANCH   3   4
ENDBRANCH   2   3
ENDBRANCH   1   2
BRANCH   1   8
ATOM      8  C   UNL     1      28.887  13.970 -10.156  1.00  0.00     0.000 C 
BRANCH   8   9
ATOM      9  C   UNL     1      28.854  13.000 -11.349  1.00  0.00    -0.000 C 
BRANCH   9  10
ATOM     10  C   UNL     1      27.425  12.739 -11.856  1.00  0.00    -0.000 C 
BRANCH  10  11
ATOM     11  C   UNL     1      27.302  12.856 -13.386  1.00  0.00    -0.000 C 
BRANCH  11  12
ATOM     12  C   UNL     1      25.918  13.295 -13.897  1.00  0.00    -0.003 C 
ATOM     13  C   UNL     1      25.943  14.649 -14.605  1.00  0.00     0.004 C 
ENDBRANCH  11  12
ENDBRANCH  10  11
ENDBRANCH   9  10
ENDBRANCH   8   9
ENDBRANCH   1   8
TORSDOF 9
ENDMDL
MODEL 3
REMARK VINA RESULT:    -4.127      1.837      3.288
REMARK INTER + INTRA:          -7.224
REMARK INTER:                  -6.028
REMARK INTRA:                  -1.196
REMARK UNBOUND:                -0.926
REMARK SMILES CCCCCCCCCCC(=O)[O-]
REMARK SMILES IDX 7 1 8 2 9 3 10 4 11 5 12 6 13 7 6 8 5 9 4 10 3 11 2 12 1 13
REMARK H PARENT
REMARK Flexibility Score: inf
ROOT
ATOM      1  C   UNL     1      24.979  16.260 -10.437  1.00  0.00     0.000 C 
ENDROOT
BRANCH   1   2
ATOM      2  C   UNL     1      26.010  17.132 -11.171  1.00  0.00     0.000 C 
BRANCH   2   3
ATOM      3  C   UNL     1      26.230  16.688 -12.625  1.00  0.00     0.006 C 
BRANCH   3   4
ATOM      4  C   UNL     1      26.340  15.163 -12.722  1.00  0.00     0.053 C 
BRANCH   4   5
ATOM      5  C   UNL     1      25.473  14.645 -13.826  1.00  0.00     0.041 C 
ATOM      6  O   UNL     1      24.634  15.402 -14.381  1.00  0.00    -0.550 OA
ATOM      7  O   UNL     1      25.624  13.339 -14.274  1.00  0.00    -0.550 OA
ENDBRANCH   4   5
ENDBRANCH   3   4
ENDBRANCH   2   3
ENDBRANCH   1   2
BRANCH   1   8
ATOM      8  C   UNL     1      25.524  15.683  -9.119  1.00  0.00     0.000 C 
BRANCH   8   9
ATOM      9  C   UNL     1      25.810  14.175  -9.204  1.00  0.00    -0.000 C 
BRANCH   9  10
ATOM     10  C   UNL     1      27.230  13.816  -8.731  1.00  0.00    -0.000 C 
BRANCH  10  11
ATOM     11  C   UNL     1      28.237  14.962  -8.938  1.00  0.00    -0.000 C 
BRANCH  11  12
ATOM     12  C   UNL     1      29.113  14.839 -10.197  1.00  0.00    -0.003 C 
ATOM     13  C   UNL     1      29.154  13.420 -10.763  1.00  0.00     0.004 C 
ENDBRANCH  11  12
ENDBRANCH  10  11
ENDBRANCH   9  10
ENDBRANCH   8   9
ENDBRANCH   1   8
TORSDOF 9
ENDMDL
MODEL 4
REMARK VINA RESULT:    -4.102      1.801      2.508
REMARK INTER + INTRA:          -7.186
REMARK INTER:                  -5.823
REMARK INTRA:                  -1.363
REMARK UNBOUND:                -0.926
REMARK SMILES CCCCCCCCCCC(=O)[O-]
REMARK SMILES IDX 7 1 8 2 9 3 10 4 11 5 12 6 13 7 6 8 5 9 4 10 3 11 2 12 1 13
REMARK H PARENT
REMARK Flexibility Score: inf
ROOT
ATOM      1  C   UNL     1      28.129  12.839 -10.878  1.00  0.00     0.000 C 
ENDROOT
BRANCH   1   2
ATOM      2  C   UNL     1      27.618  12.842 -12.327  1.00  0.00     0.000 C 
BRANCH   2   3
ATOM      3  C   UNL     1      26.203  13.425 -12.453  1.00  0.00     0.006 C 
BRANCH   3   4
ATOM      4  C   UNL     1      26.240  14.822 -13.079  1.00  0.00     0.053 C 
BRANCH   4   5
ATOM      5  C   UNL     1      24.862  15.261 -13.462  1.00  0.00     0.041 C 
ATOM      6  O   UNL     1      23.943  15.290 -12.602  1.00  0.00    -0.550 OA
ATOM      7  O   UNL     1      24.603  15.683 -14.760  1.00  0.00    -0.550 OA
ENDBRANCH   4   5
ENDBRANCH   3   4
ENDBRANCH   2   3
ENDBRANCH   1   2
BRANCH   1   8
ATOM      8  C   UNL     1      29.135  13.971 -10.603  1.00  0.00     0.000 C 
BRANCH   8   9
ATOM      9  C   UNL     1      28.472  15.223 -10.006  1.00  0.00    -0.000 C 
BRANCH   9  10
ATOM     10  C   UNL     1      27.332  14.878  -9.032  1.00  0.00    -0.000 C 
BRANCH  10  11
ATOM     11  C   UNL     1      26.006  15.574  -9.391  1.00  0.00    -0.000 C 
BRANCH  11  12
ATOM     12  C   UNL     1      24.750  14.698  -9.242  1.00  0.00    -0.003 C 
ATOM     13  C   UNL     1      25.068  13.255  -8.851  1.00  0.00     0.004 C 
ENDBRANCH  11  12
ENDBRANCH  10  11
ENDBRANCH   9  10
ENDBRANCH   8   9
ENDBRANCH   1   8
TORSDOF 9
ENDMDL
MODEL 5
REMARK VINA RESULT:    -4.069      2.063      3.520
REMARK INTER + INTRA:          -7.135
REMARK INTER:                  -5.857
REMARK INTRA:                  -1.279
REMARK UNBOUND:                -0.926
REMARK SMILES CCCCCCCCCCC(=O)[O-]
REMARK SMILES IDX 7 1 8 2 9 3 10 4 11 5 12 6 13 7 6 8 5 9 4 10 3 11 2 12 1 13
REMARK H PARENT
REMARK Flexibility Score: inf
ROOT
ATOM      1  C   UNL     1      26.249  15.794 -10.339  1.00  0.00     0.000 C 
ENDROOT
BRANCH   1   2
ATOM      2  C   UNL     1      25.167  15.261 -11.291  1.00  0.00     0.000 C 
BRANCH   2   3
ATOM      3  C   UNL     1      25.286  13.749 -11.532  1.00  0.00     0.006 C 
BRANCH   3   4
ATOM      4  C   UNL     1      25.084  13.413 -13.013  1.00  0.00     0.053 C 
BRANCH   4   5
ATOM      5  C   UNL     1      26.378  13.528 -13.756  1.00  0.00     0.041 C 
ATOM      6  O   UNL     1      26.540  14.439 -14.610  1.00  0.00    -0.550 OA
ATOM      7  O   UNL     1      27.423  12.658 -13.471  1.00  0.00    -0.550 OA
ENDBRANCH   4   5
ENDBRANCH   3   4
ENDBRANCH   2   3
ENDBRANCH   1   2
BRANCH   1   8
ATOM      8  C   UNL     1      27.632  15.885 -11.008  1.00  0.00     0.000 C 
BRANCH   8   9
ATOM      9  C   UNL     1      28.739  15.216 -10.177  1.00  0.00    -0.000 C 
BRANCH   9  10
ATOM     10  C   UNL     1      29.103  13.815 -10.698  1.00  0.00    -0.000 C 
BRANCH  10  11
ATOM     11  C   UNL     1      28.376  12.688  -9.940  1.00  0.00    -0.000 C 
BRANCH  11  12
ATOM     12  C   UNL     1      27.908  13.054  -8.521  1.00  0.00    -0.003 C 
ATOM     13  C   UNL     1      26.526  12.497  -8.183  1.00  0.00     0.004 C 
ENDBRANCH  11  12
ENDBRANCH  10  11
ENDBRANCH   9  10
ENDBRANCH   8   9
ENDBRANCH   1   8
TORSDOF 9
ENDMDL
MODEL 6
REMARK VINA RESULT:    -4.056      8.662     10.194
REMARK INTER + INTRA:          -7.116
REMARK INTER:                  -6.097
REMARK INTRA:                  -1.019
REMARK UNBOUND:                -0.926
REMARK SMILES CCCCCCCCCCC(=O)[O-]
REMARK SMILES IDX 7 1 8 2 9 3 10 4 11 5 12 6 13 7 6 8 5 9 4 10 3 11 2 12 1 13
REMARK H PARENT
REMARK Flexibility Score: inf
ROOT
ATOM      1  C   UNL     1      22.236  20.219  -6.086  1.00  0.00     0.000 C 
ENDROOT
BRANCH   1   2
ATOM      2  C   UNL     1      20.850  20.822  -5.811  1.00  0.00     0.000 C 
BRANCH   2   3
ATOM      3  C   UNL     1      20.391  21.779  -6.922  1.00  0.00     0.006 C 
BRANCH   3   4
ATOM      4  C   UNL     1      19.400  21.090  -7.864  1.00  0.00     0.053 C 
BRANCH   4   5
ATOM      5  C   UNL     1      18.177  20.661  -7.114  1.00  0.00     0.041 C 
ATOM      6  O   UNL     1      17.708  21.387  -6.199  1.00  0.00    -0.550 OA
ATOM      7  O   UNL     1      17.529  19.482  -7.459  1.00  0.00    -0.550 OA
ENDBRANCH   4   5
ENDBRANCH   3   4
ENDBRANCH   2   3
ENDBRANCH   1   2
BRANCH   1   8
ATOM      8  C   UNL     1      22.166  18.734  -6.483  1.00  0.00     0.000 C 
BRANCH   8   9
ATOM      9  C   UNL     1      20.814  18.089  -6.138  1.00  0.00    -0.000 C 
BRANCH   9  10
ATOM     10  C   UNL     1      20.215  17.306  -7.319  1.00  0.00    -0.000 C 
BRANCH  10  11
ATOM     11  C   UNL     1      20.805  17.729  -8.678  1.00  0.00    -0.000 C 
BRANCH  11  12
ATOM     12  C   UNL     1      21.411  16.584  -9.509  1.00  0.00    -0.003 C 
ATOM     13  C   UNL     1      22.213  15.593  -8.668  1.00  0.00     0.004 C 
ENDBRANCH  11  12
ENDBRANCH  10  11
ENDBRANCH   9  10
ENDBRANCH   8   9
ENDBRANCH   1   8
TORSDOF 9
ENDMDL
MODEL 7
REMARK VINA RESULT:    -4.038      1.760      2.983
REMARK INTER + INTRA:          -7.088
REMARK INTER:                  -6.343
REMARK INTRA:                  -0.745
REMARK UNBOUND:                -0.926
REMARK SMILES CCCCCCCCCCC(=O)[O-]
REMARK SMILES IDX 7 1 8 2 9 3 10 4 11 5 12 6 13 7 6 8 5 9 4 10 3 11 2 12 1 13
REMARK H PARENT
REMARK Flexibility Score: inf
ROOT
ATOM      1  C   UNL     1      28.668  14.817 -10.255  1.00  0.00     0.000 C 
ENDROOT
BRANCH   1   2
ATOM      2  C   UNL     1      29.006  13.443 -10.854  1.00  0.00     0.000 C 
BRANCH   2   3
ATOM      3  C   UNL     1      27.761  12.689 -11.344  1.00  0.00     0.006 C 
BRANCH   3   4
ATOM      4  C   UNL     1      27.519  12.941 -12.835  1.00  0.00     0.053 C 
BRANCH   4   5
ATOM      5  C   UNL     1      26.093  13.325 -13.077  1.00  0.00     0.041 C 
ATOM      6  O   UNL     1      25.715  13.667 -14.228  1.00  0.00    -0.550 OA
ATOM      7  O   UNL     1      25.171  13.259 -12.040  1.00  0.00    -0.550 OA
ENDBRANCH   4   5
ENDBRANCH   3   4
ENDBRANCH   2   3
ENDBRANCH   1   2
BRANCH   1   8
ATOM      8  C   UNL     1      27.877  14.709  -8.939  1.00  0.00     0.000 C 
BRANCH   8   9
ATOM      9  C   UNL     1      26.450  15.269  -9.057  1.00  0.00    -0.000 C 
BRANCH   9  10
ATOM     10  C   UNL     1      26.241  16.087 -10.343  1.00  0.00    -0.000 C 
BRANCH  10  11
ATOM     11  C   UNL     1      25.071  17.082 -10.237  1.00  0.00    -0.000 C 
BRANCH  11  12
ATOM     12  C   UNL     1      25.132  18.266 -11.218  1.00  0.00    -0.003 C 
ATOM     13  C   UNL     1      26.383  18.254 -12.094  1.00  0.00     0.004 C 
ENDBRANCH  11  12
ENDBRANCH  10  11
ENDBRANCH   9  10
ENDBRANCH   8   9
ENDBRANCH   1   8
TORSDOF 9
ENDMDL
MODEL 8
REMARK VINA RESULT:    -4.036      3.301      5.404
REMARK INTER + INTRA:          -7.086
REMARK INTER:                  -6.018
REMARK INTRA:                  -1.068
REMARK UNBOUND:                -0.926
REMARK SMILES CCCCCCCCCCC(=O)[O-]
REMARK SMILES IDX 7 1 8 2 9 3 10 4 11 5 12 6 13 7 6 8 5 9 4 10 3 11 2 12 1 13
REMARK H PARENT
REMARK Flexibility Score: inf
ROOT
ATOM      1  C   UNL     1      24.297  16.023  -9.202  1.00  0.00     0.000 C 
ENDROOT
BRANCH   1   2
ATOM      2  C   UNL     1      25.386  15.181  -9.885  1.00  0.00     0.000 C 
BRANCH   2   3
ATOM      3  C   UNL     1      26.725  15.226  -9.136  1.00  0.00     0.006 C 
BRANCH   3   4
ATOM      4  C   UNL     1      27.902  15.129 -10.111  1.00  0.00     0.053 C 
BRANCH   4   5
ATOM      5  C   UNL     1      28.573  13.797  -9.991  1.00  0.00     0.041 C 
ATOM      6  O   UNL     1      28.324  13.048  -9.010  1.00  0.00    -0.550 OA
ATOM      7  O   UNL     1      29.438  13.362 -10.987  1.00  0.00    -0.550 OA
ENDBRANCH   4   5
ENDBRANCH   3   4
ENDBRANCH   2   3
ENDBRANCH   1   2
BRANCH   1   8
ATOM      8  C   UNL     1      24.462  17.530  -9.465  1.00  0.00     0.000 C 
BRANCH   8   9
ATOM      9  C   UNL     1      24.328  17.891 -10.953  1.00  0.00    -0.000 C 
BRANCH   9  10
ATOM     10  C   UNL     1      25.436  18.847 -11.430  1.00  0.00    -0.000 C 
BRANCH  10  11
ATOM     11  C   UNL     1      26.644  18.108 -12.034  1.00  0.00    -0.000 C 
BRANCH  11  12
ATOM     12  C   UNL     1      26.419  17.536 -13.444  1.00  0.00    -0.003 C 
ATOM     13  C   UNL     1      26.118  16.038 -13.443  1.00  0.00     0.004 C 
ENDBRANCH  11  12
ENDBRANCH  10  11
ENDBRANCH   9  10
ENDBRANCH   8   9
ENDBRANCH   1   8
TORSDOF 9
ENDMDL
MODEL 9
REMARK VINA RESULT:    -3.998      2.143      3.550
REMARK INTER + INTRA:          -7.027
REMARK INTER:                  -6.071
REMARK INTRA:                  -0.956
REMARK UNBOUND:                -0.926
REMARK SMILES CCCCCCCCCCC(=O)[O-]
REMARK SMILES IDX 7 1 8 2 9 3 10 4 11 5 12 6 13 7 6 8 5 9 4 10 3 11 2 12 1 13
REMARK H PARENT
REMARK Flexibility Score: inf
ROOT
ATOM      1  C   UNL     1      25.258  16.796 -10.187  1.00  0.00     0.000 C 
ENDROOT
BRANCH   1   2
ATOM      2  C   UNL     1      25.990  16.391 -11.476  1.00  0.00     0.000 C 
BRANCH   2   3
ATOM      3  C   UNL     1      26.913  17.499 -12.005  1.00  0.00     0.006 C 
BRANCH   3   4
ATOM      4  C   UNL     1      26.746  17.676 -13.517  1.00  0.00     0.053 C 
BRANCH   4   5
ATOM      5  C   UNL     1      25.399  18.247 -13.831  1.00  0.00     0.041 C 
ATOM      6  O   UNL     1      24.652  17.684 -14.674  1.00  0.00    -0.550 OA
ATOM      7  O   UNL     1      24.949  19.376 -13.158  1.00  0.00    -0.550 OA
ENDBRANCH   4   5
ENDBRANCH   3   4
ENDBRANCH   2   3
ENDBRANCH   1   2
BRANCH   1   8
ATOM      8  C   UNL     1      25.233  15.667  -9.142  1.00  0.00     0.000 C 
BRANCH   8   9
ATOM      9  C   UNL     1      25.880  14.370  -9.653  1.00  0.00    -0.000 C 
BRANCH   9  10
ATOM     10  C   UNL     1      27.082  13.934  -8.798  1.00  0.00    -0.000 C 
BRANCH  10  11
ATOM     11  C   UNL     1      28.272  14.906  -8.899  1.00  0.00    -0.000 C 
BRANCH  11  12
ATOM     12  C   UNL     1      29.081  14.811 -10.205  1.00  0.00    -0.003 C 
ATOM     13  C   UNL     1      29.142  13.393 -10.770  1.00  0.00     0.004 C 
ENDBRANCH  11  12
ENDBRANCH  10  11
ENDBRANCH   9  10
ENDBRANCH   8   9
ENDBRANCH   1   8
TORSDOF 9
ENDMDL
