MODEL 1
REMARK VINA RESULT:    -2.418      0.000      0.000
REMARK INTER + INTRA:          -2.710
REMARK INTER:                  -2.701
REMARK INTRA:                  -0.009
REMARK UNBOUND:                -0.009
REMARK SMILES CCCC(=O)[O-]
REMARK SMILES IDX 3 1 4 2 5 3 6 4 2 5 1 6
REMARK H PARENT
REMARK Flexibility Score: inf
ROOT
ATOM      1  C   UNL     1      55.729  27.790  50.119  1.00  0.00     0.052 C 
ENDROOT
BRANCH   1   2
ATOM      2  C   UNL     1      56.062  26.402  49.663  1.00  0.00     0.041 C 
ATOM      3  O   UNL     1      57.188  25.902  49.925  1.00  0.00    -0.550 OA
ATOM      4  O   UNL     1      55.142  25.674  48.919  1.00  0.00    -0.550 OA
ENDBRANCH   1   2
BRANCH   1   5
ATOM      5  C   UNL     1      54.301  28.191  49.729  1.00  0.00     0.003 C 
ATOM      6  C   UNL     1      53.944  29.600  50.201  1.00  0.00     0.004 C 
ENDBRANCH   1   5
TORSDOF 2
ENDMDL
MODEL 2
REMARK VINA RESULT:    -2.410      8.864      9.638
REMARK INTER + INTRA:          -2.701
REMARK INTER:                  -2.643
REMARK INTRA:                  -0.058
REMARK UNBOUND:                -0.009
REMARK SMILES CCCC(=O)[O-]
REMARK SMILES IDX 3 1 4 2 5 3 6 4 2 5 1 6
REMARK H PARENT
REMARK Flexibility Score: inf
ROOT
ATOM      1  C   UNL     1      58.807  17.741  50.710  1.00  0.00     0.052 C 
ENDROOT
BRANCH   1   2
ATOM      2  C   UNL     1      59.295  18.112  49.342  1.00  0.00     0.041 C 
ATOM      3  O   UNL     1      59.760  19.262  49.127  1.00  0.00    -0.550 OA
ATOM      4  O   UNL     1      59.203  17.200  48.299  1.00  0.00    -0.550 OA
ENDBRANCH   1   2
BRANCH   1   5
ATOM      5  C   UNL     1      57.757  18.732  51.228  1.00  0.00     0.003 C 
ATOM      6  C   UNL     1      56.519  18.788  50.333  1.00  0.00     0.004 C 
ENDBRANCH   1   5
TORSDOF 2
ENDMDL
MODEL 3
REMARK VINA RESULT:    -2.396     12.890     13.526
REMARK INTER + INTRA:          -2.685
REMARK INTER:                  -2.647
REMARK INTRA:                  -0.038
REMARK UNBOUND:                -0.009
REMARK SMILES CCCC(=O)[O-]
REMARK SMILES IDX 3 1 4 2 5 3 6 4 2 5 1 6
REMARK H PARENT
REMARK Flexibility Score: inf
ROOT
ATOM      1  C   UNL     1      61.332  30.732  61.416  1.00  0.00     0.052 C 
ENDROOT
BRANCH   1   2
ATOM      2  C   UNL     1      62.485  29.778  61.331  1.00  0.00     0.041 C 
ATOM      3  O   UNL     1      62.279  28.536  61.318  1.00  0.00    -0.550 OA
ATOM      4  O   UNL     1      63.787  30.260  61.303  1.00  0.00    -0.550 OA
ENDBRANCH   1   2
BRANCH   1   5
ATOM      5  C   UNL     1      61.065  31.424  60.074  1.00  0.00     0.003 C 
ATOM      6  C   UNL     1      61.665  32.828  60.014  1.00  0.00     0.004 C 
ENDBRANCH   1   5
TORSDOF 2
ENDMDL
MODEL 4
REMARK VINA RESULT:    -2.394      8.793      9.898
REMARK INTER + INTRA:          -2.683
REMARK INTER:                  -2.649
REMARK INTRA:                  -0.034
REMARK UNBOUND:                -0.009
REMARK SMILES CCCC(=O)[O-]
REMARK SMILES IDX 3 1 4 2 5 3 6 4 2 5 1 6
REMARK H PARENT
REMARK Flexibility Score: inf
ROOT
ATOM      1  C   UNL     1      58.524  18.616  50.394  1.00  0.00     0.052 C 
ENDROOT
BRANCH   1   2
ATOM      2  C   UNL     1      57.126  18.861  50.874  1.00  0.00     0.041 C 
ATOM      3  O   UNL     1      56.165  18.841  50.061  1.00  0.00    -0.550 OA
ATOM      4  O   UNL     1      56.890  19.147  52.212  1.00  0.00    -0.550 OA
ENDBRANCH   1   2
BRANCH   1   5
ATOM      5  C   UNL     1      58.733  17.158  49.967  1.00  0.00     0.003 C 
ATOM      6  C   UNL     1      59.101  17.032  48.489  1.00  0.00     0.004 C 
ENDBRANCH   1   5
TORSDOF 2
ENDMDL
MODEL 5
REMARK VINA RESULT:    -2.380     19.574     20.369
REMARK INTER + INTRA:          -2.667
REMARK INTER:                  -2.647
REMARK INTRA:                  -0.020
REMARK UNBOUND:                -0.009
REMARK SMILES CCCC(=O)[O-]
REMARK SMILES IDX 3 1 4 2 5 3 6 4 2 5 1 6
REMARK H PARENT
REMARK Flexibility Score: inf
ROOT
ATOM      1  C   UNL     1      72.758  31.110  60.162  1.00  0.00     0.052 C 
ENDROOT
BRANCH   1   2
ATOM      2  C   UNL     1      72.313  30.206  61.272  1.00  0.00     0.041 C 
ATOM      3  O   UNL     1      73.125  29.857  62.168  1.00  0.00    -0.550 OA
ATOM      4  O   UNL     1      71.011  29.722  61.296  1.00  0.00    -0.550 OA
ENDBRANCH   1   2
BRANCH   1   5
ATOM      5  C   UNL     1      72.003  32.445  60.179  1.00  0.00     0.003 C 
ATOM      6  C   UNL     1      71.502  32.846  58.792  1.00  0.00     0.004 C 
ENDBRANCH   1   5
TORSDOF 2
ENDMDL
MODEL 6
REMARK VINA RESULT:    -2.361      3.892      4.708
REMARK INTER + INTRA:          -2.646
REMARK INTER:                  -2.610
REMARK INTRA:                  -0.036
REMARK UNBOUND:                -0.009
REMARK SMILES CCCC(=O)[O-]
REMARK SMILES IDX 3 1 4 2 5 3 6 4 2 5 1 6
REMARK H PARENT
REMARK Flexibility Score: inf
ROOT
ATOM      1  C   UNL     1      59.587  29.062  48.988  1.00  0.00     0.052 C 
ENDROOT
BRANCH   1   2
ATOM      2  C   UNL     1      60.452  27.841  49.081  1.00  0.00     0.041 C 
ATOM      3  O   UNL     1      59.928  26.698  49.147  1.00  0.00    -0.550 OA
ATOM      4  O   UNL     1      61.834  27.969  49.130  1.00  0.00    -0.550 OA
ENDBRANCH   1   2
BRANCH   1   5
ATOM      5  C   UNL     1      58.851  29.340  50.304  1.00  0.00     0.003 C 
ATOM      6  C   UNL     1      57.386  28.907  50.252  1.00  0.00     0.004 C 
ENDBRANCH   1   5
TORSDOF 2
ENDMDL
MODEL 7
REMARK VINA RESULT:    -2.360     15.391     16.015
REMARK INTER + INTRA:          -2.645
REMARK INTER:                  -2.636
REMARK INTRA:                  -0.009
REMARK UNBOUND:                -0.009
REMARK SMILES CCCC(=O)[O-]
REMARK SMILES IDX 3 1 4 2 5 3 6 4 2 5 1 6
REMARK H PARENT
REMARK Flexibility Score: inf
ROOT
ATOM      1  C   UNL     1      63.489  35.887  60.968  1.00  0.00     0.052 C 
ENDROOT
BRANCH   1   2
ATOM      2  C   UNL     1      64.718  35.030  60.975  1.00  0.00     0.041 C 
ATOM      3  O   UNL     1      64.616  33.777  60.902  1.00  0.00    -0.550 OA
ATOM      4  O   UNL     1      65.972  35.612  61.099  1.00  0.00    -0.550 OA
ENDBRANCH   1   2
BRANCH   1   5
ATOM      5  C   UNL     1      62.312  35.190  60.275  1.00  0.00     0.003 C 
ATOM      6  C   UNL     1      61.118  36.123  60.077  1.00  0.00     0.004 C 
ENDBRANCH   1   5
TORSDOF 2
ENDMDL
MODEL 8
REMARK VINA RESULT:    -2.262     13.568     14.162
REMARK INTER + INTRA:          -2.536
REMARK INTER:                  -2.522
REMARK INTRA:                  -0.013
REMARK UNBOUND:                -0.009
REMARK SMILES CCCC(=O)[O-]
REMARK SMILES IDX 3 1 4 2 5 3 6 4 2 5 1 6
REMARK H PARENT
REMARK Flexibility Score: inf
ROOT
ATOM      1  C   UNL     1      63.695  30.305  61.068  1.00  0.00     0.052 C 
ENDROOT
BRANCH   1   2
ATOM      2  C   UNL     1      64.635  29.217  60.647  1.00  0.00     0.041 C 
ATOM      3  O   UNL     1      64.235  28.026  60.579  1.00  0.00    -0.550 OA
ATOM      4  O   UNL     1      65.962  29.515  60.363  1.00  0.00    -0.550 OA
ENDBRANCH   1   2
BRANCH   1   5
ATOM      5  C   UNL     1      62.310  29.753  61.428  1.00  0.00     0.003 C 
ATOM      6  C   UNL     1      61.214  30.812  61.312  1.00  0.00     0.004 C 
ENDBRANCH   1   5
TORSDOF 2
ENDMDL
MODEL 9
REMARK VINA RESULT:    -2.220      2.701      3.408
REMARK INTER + INTRA:          -2.488
REMARK INTER:                  -2.482
REMARK INTRA:                  -0.006
REMARK UNBOUND:                -0.009
REMARK SMILES CCCC(=O)[O-]
REMARK SMILES IDX 3 1 4 2 5 3 6 4 2 5 1 6
REMARK H PARENT
REMARK Flexibility Score: inf
ROOT
ATOM      1  C   UNL     1      57.505  28.920  50.414  1.00  0.00     0.052 C 
ENDROOT
BRANCH   1   2
ATOM      2  C   UNL     1      58.830  28.727  49.740  1.00  0.00     0.041 C 
ATOM      3  O   UNL     1      59.268  29.597  48.943  1.00  0.00    -0.550 OA
ATOM      4  O   UNL     1      59.563  27.569  49.966  1.00  0.00    -0.550 OA
ENDBRANCH   1   2
BRANCH   1   5
ATOM      5  C   UNL     1      56.561  27.738  50.163  1.00  0.00     0.003 C 
ATOM      6  C   UNL     1      55.106  28.179  50.007  1.00  0.00     0.004 C 
ENDBRANCH   1   5
TORSDOF 2
ENDMDL
