MODEL 1
REMARK VINA RESULT:    -5.772      0.000      0.000
REMARK INTER + INTRA:          -6.715
REMARK INTER:                  -6.953
REMARK INTRA:                   0.238
REMARK UNBOUND:                 0.238
REMARK SMILES Oc1cc(O)c2c(c1)O[C@@H](c1ccc(O)c(O)c1)[C@H](O)C2
REMARK SMILES IDX 21 1 19 2 10 3 9 4 7 5 8 6 2 7 3 8 4 9 6 10 20 11 11 13
REMARK SMILES IDX 18 14 12 15 16 16 13 17 14 18 17 19 15 21 5 23 1 25
REMARK H PARENT 20 12 17 20 15 22 5 24 1 26
REMARK Flexibility Score: inf
ROOT
ATOM      1  C   UNL     1      42.333  62.059  -2.486  1.00  0.00     0.079 C 
ATOM      2  C   UNL     1      43.673  61.370  -2.167  1.00  0.00     0.164 C 
ATOM      3  C   UNL     1      43.913  61.374  -0.648  1.00  0.00     0.232 C 
ATOM      4  O   UNL     1      42.820  60.741   0.016  1.00  0.00    -0.482 OA
ATOM      5  C   UNL     1      41.494  60.911  -0.397  1.00  0.00     0.131 A 
ATOM      6  C   UNL     1      40.464  60.419   0.408  1.00  0.00     0.093 A 
ATOM      7  C   UNL     1      39.129  60.590   0.027  1.00  0.00     0.122 A 
ATOM      8  C   UNL     1      38.826  61.265  -1.157  1.00  0.00     0.092 A 
ATOM      9  C   UNL     1      39.846  61.765  -1.976  1.00  0.00     0.126 A 
ATOM     10  C   UNL     1      41.199  61.557  -1.618  1.00  0.00     0.039 A 
ENDROOT
BRANCH   2  11
ATOM     11  O   UNL     1      44.720  62.045  -2.814  1.00  0.00    -0.389 OA
ATOM     12  H   UNL     1      44.309  62.798  -3.314  1.00  0.00     0.211 HD
ENDBRANCH   2  11
BRANCH   3  13
ATOM     13  C   UNL     1      45.200  60.663  -0.297  1.00  0.00    -0.001 A 
ATOM     14  C   UNL     1      45.200  59.625   0.650  1.00  0.00     0.057 A 
ATOM     15  C   UNL     1      46.417  61.064  -0.875  1.00  0.00     0.012 A 
ATOM     16  C   UNL     1      46.396  58.981   0.999  1.00  0.00     0.157 A 
ATOM     17  C   UNL     1      47.609  60.422  -0.528  1.00  0.00     0.050 A 
ATOM     18  C   UNL     1      47.601  59.380   0.408  1.00  0.00     0.157 A 
BRANCH  16  19
ATOM     19  O   UNL     1      46.394  57.948   1.934  1.00  0.00    -0.504 OA
ATOM     20  H   UNL     1      47.256  57.533   2.268  1.00  0.00     0.293 HD
ENDBRANCH  16  19
BRANCH  18  21
ATOM     21  O   UNL     1      48.788  58.738   0.756  1.00  0.00    -0.504 OA
ATOM     22  H   UNL     1      48.872  57.728   0.738  1.00  0.00     0.293 HD
ENDBRANCH  18  21
ENDBRANCH   3  13
BRANCH   9  23
ATOM     23  O   UNL     1      39.479  62.469  -3.125  1.00  0.00    -0.507 OA
ATOM     24  H   UNL     1      40.148  62.898  -3.752  1.00  0.00     0.293 HD
ENDBRANCH   9  23
BRANCH   7  25
ATOM     25  O   UNL     1      38.095  60.101   0.823  1.00  0.00    -0.508 OA
ATOM     26  H   UNL     1      37.785  59.139   0.756  1.00  0.00     0.293 HD
ENDBRANCH   7  25
TORSDOF 6
ENDMDL
MODEL 2
REMARK VINA RESULT:    -4.329      1.436      6.672
REMARK INTER + INTRA:          -4.978
REMARK INTER:                  -4.822
REMARK INTRA:                  -0.155
REMARK UNBOUND:                 0.238
REMARK SMILES Oc1cc(O)c2c(c1)O[C@@H](c1ccc(O)c(O)c1)[C@H](O)C2
REMARK SMILES IDX 21 1 19 2 10 3 9 4 7 5 8 6 2 7 3 8 4 9 6 10 20 11 11 13
REMARK SMILES IDX 18 14 12 15 16 16 13 17 14 18 17 19 15 21 5 23 1 25
REMARK H PARENT 20 12 17 20 15 22 5 24 1 26
REMARK Flexibility Score: inf
ROOT
ATOM      1  C   UNL     1      44.583  61.754  -1.788  1.00  0.00     0.079 C 
ATOM      2  C   UNL     1      43.047  61.869  -1.806  1.00  0.00     0.164 C 
ATOM      3  C   UNL     1      42.418  60.467  -1.729  1.00  0.00     0.232 C 
ATOM      4  O   UNL     1      42.886  59.790  -0.563  1.00  0.00    -0.482 OA
ATOM      5  C   UNL     1      44.207  59.895  -0.118  1.00  0.00     0.131 A 
ATOM      6  C   UNL     1      44.644  59.060   0.914  1.00  0.00     0.093 A 
ATOM      7  C   UNL     1      45.965  59.133   1.369  1.00  0.00     0.122 A 
ATOM      8  C   UNL     1      46.853  60.037   0.780  1.00  0.00     0.092 A 
ATOM      9  C   UNL     1      46.432  60.880  -0.255  1.00  0.00     0.126 A 
ATOM     10  C   UNL     1      45.085  60.842  -0.689  1.00  0.00     0.039 A 
ENDROOT
BRANCH   2  11
ATOM     11  O   UNL     1      42.632  62.511  -2.983  1.00  0.00    -0.389 OA
ATOM     12  H   UNL     1      43.145  63.358  -3.042  1.00  0.00     0.211 HD
ENDBRANCH   2  11
BRANCH   3  13
ATOM     13  C   UNL     1      40.909  60.548  -1.697  1.00  0.00    -0.001 A 
ATOM     14  C   UNL     1      40.222  60.507  -0.472  1.00  0.00     0.057 A 
ATOM     15  C   UNL     1      40.173  60.615  -2.893  1.00  0.00     0.012 A 
ATOM     16  C   UNL     1      38.821  60.553  -0.440  1.00  0.00     0.157 A 
ATOM     17  C   UNL     1      38.776  60.661  -2.862  1.00  0.00     0.050 A 
ATOM     18  C   UNL     1      38.098  60.632  -1.636  1.00  0.00     0.157 A 
BRANCH  16  19
ATOM     19  O   UNL     1      38.142  60.518   0.777  1.00  0.00    -0.504 OA
ATOM     20  H   UNL     1      37.394  61.169   0.986  1.00  0.00     0.293 HD
ENDBRANCH  16  19
BRANCH  18  21
ATOM     21  O   UNL     1      36.705  60.679  -1.601  1.00  0.00    -0.504 OA
ATOM     22  H   UNL     1      36.142  59.848  -1.739  1.00  0.00     0.293 HD
ENDBRANCH  18  21
ENDBRANCH   3  13
BRANCH   9  23
ATOM     23  O   UNL     1      47.377  61.732  -0.833  1.00  0.00    -0.507 OA
ATOM     24  H   UNL     1      48.336  61.796  -0.516  1.00  0.00     0.293 HD
ENDBRANCH   9  23
BRANCH   7  25
ATOM     25  O   UNL     1      46.409  58.306   2.398  1.00  0.00    -0.508 OA
ATOM     26  H   UNL     1      45.822  58.093   3.196  1.00  0.00     0.293 HD
ENDBRANCH   7  25
TORSDOF 6
ENDMDL
MODEL 3
REMARK VINA RESULT:    -3.767      1.500      7.187
REMARK INTER + INTRA:          -4.300
REMARK INTER:                  -4.080
REMARK INTRA:                  -0.221
REMARK UNBOUND:                 0.238
REMARK SMILES Oc1cc(O)c2c(c1)O[C@@H](c1ccc(O)c(O)c1)[C@H](O)C2
REMARK SMILES IDX 21 1 19 2 10 3 9 4 7 5 8 6 2 7 3 8 4 9 6 10 20 11 11 13
REMARK SMILES IDX 18 14 12 15 16 16 13 17 14 18 17 19 15 21 5 23 1 25
REMARK H PARENT 20 12 17 20 15 22 5 24 1 26
REMARK Flexibility Score: inf
ROOT
ATOM      1  C   UNL     1      44.667  58.985   1.018  1.00  0.00     0.079 C 
ATOM      2  C   UNL     1      43.210  59.036   0.519  1.00  0.00     0.164 C 
ATOM      3  C   UNL     1      42.682  60.477   0.599  1.00  0.00     0.232 C 
ATOM      4  O   UNL     1      43.530  61.347  -0.151  1.00  0.00    -0.482 OA
ATOM      5  C   UNL     1      44.921  61.202  -0.167  1.00  0.00     0.131 A 
ATOM      6  C   UNL     1      45.700  62.196  -0.764  1.00  0.00     0.093 A 
ATOM      7  C   UNL     1      47.094  62.086  -0.780  1.00  0.00     0.122 A 
ATOM      8  C   UNL     1      47.710  60.982  -0.186  1.00  0.00     0.092 A 
ATOM      9  C   UNL     1      46.945  59.977   0.418  1.00  0.00     0.126 A 
ATOM     10  C   UNL     1      45.532  60.061   0.398  1.00  0.00     0.039 A 
ENDROOT
BRANCH   2  11
ATOM     11  O   UNL     1      42.409  58.192   1.305  1.00  0.00    -0.389 OA
ATOM     12  H   UNL     1      41.763  58.775   1.782  1.00  0.00     0.211 HD
ENDBRANCH   2  11
BRANCH   3  13
ATOM     13  C   UNL     1      41.268  60.570   0.072  1.00  0.00    -0.001 A 
ATOM     14  C   UNL     1      41.035  60.836  -1.288  1.00  0.00     0.057 A 
ATOM     15  C   UNL     1      40.172  60.440   0.943  1.00  0.00     0.012 A 
ATOM     16  C   UNL     1      39.724  60.951  -1.775  1.00  0.00     0.157 A 
ATOM     17  C   UNL     1      38.867  60.553   0.458  1.00  0.00     0.050 A 
ATOM     18  C   UNL     1      38.640  60.807  -0.901  1.00  0.00     0.157 A 
BRANCH  16  19
ATOM     19  O   UNL     1      39.495  61.210  -3.125  1.00  0.00    -0.504 OA
ATOM     20  H   UNL     1      40.182  60.979  -3.833  1.00  0.00     0.293 HD
ENDBRANCH  16  19
BRANCH  18  21
ATOM     21  O   UNL     1      37.339  60.920  -1.389  1.00  0.00    -0.504 OA
ATOM     22  H   UNL     1      36.840  61.802  -1.372  1.00  0.00     0.293 HD
ENDBRANCH  18  21
ENDBRANCH   3  13
BRANCH   9  23
ATOM     23  O   UNL     1      47.619  58.920   1.034  1.00  0.00    -0.507 OA
ATOM     24  H   UNL     1      47.152  58.105   1.410  1.00  0.00     0.293 HD
ENDBRANCH   9  23
BRANCH   7  25
ATOM     25  O   UNL     1      47.878  63.072  -1.375  1.00  0.00    -0.508 OA
ATOM     26  H   UNL     1      48.830  63.244  -1.075  1.00  0.00     0.293 HD
ENDBRANCH   7  25
TORSDOF 6
ENDMDL
MODEL 4
REMARK VINA RESULT:    -3.712      1.372      6.862
REMARK INTER + INTRA:          -4.234
REMARK INTER:                  -4.301
REMARK INTRA:                   0.067
REMARK UNBOUND:                 0.238
REMARK SMILES Oc1cc(O)c2c(c1)O[C@@H](c1ccc(O)c(O)c1)[C@H](O)C2
REMARK SMILES IDX 21 1 19 2 10 3 9 4 7 5 8 6 2 7 3 8 4 9 6 10 20 11 11 13
REMARK SMILES IDX 18 14 12 15 16 16 13 17 14 18 17 19 15 21 5 23 1 25
REMARK H PARENT 20 12 17 20 15 22 5 24 1 26
REMARK Flexibility Score: inf
ROOT
ATOM      1  C   UNL     1      44.963  61.429  -1.173  1.00  0.00     0.079 C 
ATOM      2  C   UNL     1      43.463  61.481  -0.828  1.00  0.00     0.164 C 
ATOM      3  C   UNL     1      42.890  60.055  -0.777  1.00  0.00     0.232 C 
ATOM      4  O   UNL     1      43.623  59.272   0.164  1.00  0.00    -0.482 OA
ATOM      5  C   UNL     1      45.010  59.382   0.307  1.00  0.00     0.131 A 
ATOM      6  C   UNL     1      45.685  58.456   1.107  1.00  0.00     0.093 A 
ATOM      7  C   UNL     1      47.074  58.533   1.256  1.00  0.00     0.122 A 
ATOM      8  C   UNL     1      47.789  59.533   0.593  1.00  0.00     0.092 A 
ATOM      9  C   UNL     1      47.129  60.468  -0.213  1.00  0.00     0.126 A 
ATOM     10  C   UNL     1      45.719  60.423  -0.332  1.00  0.00     0.039 A 
ENDROOT
BRANCH   2  11
ATOM     11  O   UNL     1      42.779  62.233  -1.796  1.00  0.00    -0.389 OA
ATOM     12  H   UNL     1      43.468  62.631  -2.389  1.00  0.00     0.211 HD
ENDBRANCH   2  11
BRANCH   3  13
ATOM     13  C   UNL     1      41.427  60.068  -0.396  1.00  0.00    -0.001 A 
ATOM     14  C   UNL     1      40.466  60.565  -1.292  1.00  0.00     0.057 A 
ATOM     15  C   UNL     1      41.017  59.630   0.875  1.00  0.00     0.012 A 
ATOM     16  C   UNL     1      39.111  60.606  -0.931  1.00  0.00     0.157 A 
ATOM     17  C   UNL     1      39.667  59.668   1.235  1.00  0.00     0.050 A 
ATOM     18  C   UNL     1      38.712  60.154   0.332  1.00  0.00     0.157 A 
BRANCH  16  19
ATOM     19  O   UNL     1      38.158  61.094  -1.824  1.00  0.00    -0.504 OA
ATOM     20  H   UNL     1      37.643  60.476  -2.440  1.00  0.00     0.293 HD
ENDBRANCH  16  19
BRANCH  18  21
ATOM     21  O   UNL     1      37.364  60.195   0.687  1.00  0.00    -0.504 OA
ATOM     22  H   UNL     1      37.030  60.785   1.439  1.00  0.00     0.293 HD
ENDBRANCH  18  21
ENDBRANCH   3  13
BRANCH   9  23
ATOM     23  O   UNL     1      47.902  61.417  -0.885  1.00  0.00    -0.507 OA
ATOM     24  H   UNL     1      48.683  61.901  -0.460  1.00  0.00     0.293 HD
ENDBRANCH   9  23
BRANCH   7  25
ATOM     25  O   UNL     1      47.754  57.615   2.053  1.00  0.00    -0.508 OA
ATOM     26  H   UNL     1      47.285  56.810   2.451  1.00  0.00     0.293 HD
ENDBRANCH   7  25
TORSDOF 6
ENDMDL
MODEL 5
REMARK VINA RESULT:    -2.872      1.431      3.100
REMARK INTER + INTRA:          -3.222
REMARK INTER:                  -3.513
REMARK INTRA:                   0.291
REMARK UNBOUND:                 0.238
REMARK SMILES Oc1cc(O)c2c(c1)O[C@@H](c1ccc(O)c(O)c1)[C@H](O)C2
REMARK SMILES IDX 21 1 19 2 10 3 9 4 7 5 8 6 2 7 3 8 4 9 6 10 20 11 11 13
REMARK SMILES IDX 18 14 12 15 16 16 13 17 14 18 17 19 15 21 5 23 1 25
REMARK H PARENT 20 12 17 20 15 22 5 24 1 26
REMARK Flexibility Score: inf
ROOT
ATOM      1  C   UNL     1      41.293  59.728   0.506  1.00  0.00     0.079 C 
ATOM      2  C   UNL     1      42.761  59.613   0.959  1.00  0.00     0.164 C 
ATOM      3  C   UNL     1      43.691  59.678  -0.264  1.00  0.00     0.232 C 
ATOM      4  O   UNL     1      43.454  60.883  -0.991  1.00  0.00    -0.482 OA
ATOM      5  C   UNL     1      42.169  61.407  -1.167  1.00  0.00     0.131 A 
ATOM      6  C   UNL     1      41.989  62.480  -2.045  1.00  0.00     0.093 A 
ATOM      7  C   UNL     1      40.713  63.014  -2.253  1.00  0.00     0.122 A 
ATOM      8  C   UNL     1      39.614  62.465  -1.589  1.00  0.00     0.092 A 
ATOM      9  C   UNL     1      39.776  61.390  -0.707  1.00  0.00     0.126 A 
ATOM     10  C   UNL     1      41.071  60.874  -0.459  1.00  0.00     0.039 A 
ENDROOT
BRANCH   2  11
ATOM     11  O   UNL     1      42.955  58.401   1.640  1.00  0.00    -0.389 OA
ATOM     12  H   UNL     1      42.175  58.284   2.242  1.00  0.00     0.211 HD
ENDBRANCH   2  11
BRANCH   3  13
ATOM     13  C   UNL     1      45.143  59.614   0.151  1.00  0.00    -0.001 A 
ATOM     14  C   UNL     1      46.068  60.540  -0.361  1.00  0.00     0.057 A 
ATOM     15  C   UNL     1      45.595  58.600   1.014  1.00  0.00     0.012 A 
ATOM     16  C   UNL     1      47.421  60.467  -0.001  1.00  0.00     0.157 A 
ATOM     17  C   UNL     1      46.943  58.527   1.374  1.00  0.00     0.050 A 
ATOM     18  C   UNL     1      47.858  59.461   0.869  1.00  0.00     0.157 A 
BRANCH  16  19
ATOM     19  O   UNL     1      48.336  61.389  -0.505  1.00  0.00    -0.504 OA
ATOM     20  H   UNL     1      49.327  61.181  -0.555  1.00  0.00     0.293 HD
ENDBRANCH  16  19
BRANCH  18  21
ATOM     21  O   UNL     1      49.204  59.392   1.226  1.00  0.00    -0.504 OA
ATOM     22  H   UNL     1      49.756  58.559   1.060  1.00  0.00     0.293 HD
ENDBRANCH  18  21
ENDBRANCH   3  13
BRANCH   9  23
ATOM     23  O   UNL     1      38.633  60.856  -0.107  1.00  0.00    -0.507 OA
ATOM     24  H   UNL     1      38.013  60.206  -0.571  1.00  0.00     0.293 HD
ENDBRANCH   9  23
BRANCH   7  25
ATOM     25  O   UNL     1      40.525  64.084  -3.125  1.00  0.00    -0.508 OA
ATOM     26  H   UNL     1      40.811  64.033  -4.096  1.00  0.00     0.293 HD
ENDBRANCH   7  25
TORSDOF 6
ENDMDL
