MODEL 1
REMARK VINA RESULT:    -5.348      0.000      0.000
REMARK INTER + INTRA:         -10.448
REMARK INTER:                  -9.412
REMARK INTRA:                  -1.036
REMARK UNBOUND:                -1.036
REMARK SMILES CCCCCCCCCCCCCCC(=O)[O-]
REMARK SMILES IDX 9 1 10 2 11 3 12 4 13 5 14 6 15 7 16 8 17 9 8 10 7 11 6 12
REMARK SMILES IDX 5 13 4 14 3 15 2 16 1 17
REMARK H PARENT
REMARK Flexibility Score: inf
ROOT
ATOM      1  C   UNL     1      22.920  14.020   8.842  1.00  0.00     0.000 C 
ENDROOT
BRANCH   1   2
ATOM      2  C   UNL     1      24.199  13.241   8.468  1.00  0.00     0.000 C 
BRANCH   2   3
ATOM      3  C   UNL     1      25.478  14.093   8.521  1.00  0.00     0.000 C 
BRANCH   3   4
ATOM      4  C   UNL     1      26.437  13.664   9.640  1.00  0.00     0.000 C 
BRANCH   4   5
ATOM      5  C   UNL     1      25.717  12.784  10.673  1.00  0.00     0.006 C 
BRANCH   5   6
ATOM      6  C   UNL     1      26.646  12.347  11.812  1.00  0.00     0.053 C 
BRANCH   6   7
ATOM      7  C   UNL     1      25.875  11.897  13.015  1.00  0.00     0.041 C 
ATOM      8  O   UNL     1      26.472  11.649  14.096  1.00  0.00    -0.550 OA
ATOM      9  O   UNL     1      24.500  11.724  12.934  1.00  0.00    -0.550 OA
ENDBRANCH   6   7
ENDBRANCH   5   6
ENDBRANCH   4   5
ENDBRANCH   3   4
ENDBRANCH   2   3
ENDBRANCH   1   2
BRANCH   1  10
ATOM     10  C   UNL     1      22.168  13.372  10.019  1.00  0.00     0.000 C 
BRANCH  10  11
ATOM     11  C   UNL     1      22.189  11.836   9.963  1.00  0.00    -0.000 C 
BRANCH  11  12
ATOM     12  C   UNL     1      21.414  11.189  11.120  1.00  0.00    -0.000 C 
BRANCH  12  13
ATOM     13  C   UNL     1      21.777   9.703  11.262  1.00  0.00    -0.000 C 
BRANCH  13  14
ATOM     14  C   UNL     1      21.823   9.241  12.727  1.00  0.00    -0.000 C 
BRANCH  14  15
ATOM     15  C   UNL     1      20.816   8.116  13.022  1.00  0.00    -0.000 C 
BRANCH  15  16
ATOM     16  C   UNL     1      19.782   8.514  14.085  1.00  0.00    -0.003 C 
ATOM     17  C   UNL     1      18.951   9.733  13.679  1.00  0.00     0.004 C 
ENDBRANCH  15  16
ENDBRANCH  14  15
ENDBRANCH  13  14
ENDBRANCH  12  13
ENDBRANCH  11  12
ENDBRANCH  10  11
ENDBRANCH   1  10
TORSDOF 13
ENDMDL
MODEL 2
REMARK VINA RESULT:    -5.330      2.344      5.944
REMARK INTER + INTRA:         -10.416
REMARK INTER:                  -9.268
REMARK INTRA:                  -1.148
REMARK UNBOUND:                -1.036
REMARK SMILES CCCCCCCCCCCCCCC(=O)[O-]
REMARK SMILES IDX 9 1 10 2 11 3 12 4 13 5 14 6 15 7 16 8 17 9 8 10 7 11 6 12
REMARK SMILES IDX 5 13 4 14 3 15 2 16 1 17
REMARK H PARENT
REMARK Flexibility Score: inf
ROOT
ATOM      1  C   UNL     1      22.086  13.533  10.013  1.00  0.00     0.000 C 
ENDROOT
BRANCH   1   2
ATOM      2  C   UNL     1      22.530  12.141  10.509  1.00  0.00     0.000 C 
BRANCH   2   3
ATOM      3  C   UNL     1      21.360  11.230  10.919  1.00  0.00     0.000 C 
BRANCH   3   4
ATOM      4  C   UNL     1      21.793   9.780  11.175  1.00  0.00     0.000 C 
BRANCH   4   5
ATOM      5  C   UNL     1      21.773   9.457  12.675  1.00  0.00     0.006 C 
BRANCH   5   6
ATOM      6  C   UNL     1      20.727   8.393  13.028  1.00  0.00     0.053 C 
BRANCH   6   7
ATOM      7  C   UNL     1      19.582   8.974  13.800  1.00  0.00     0.041 C 
ATOM      8  O   UNL     1      19.077  10.074  13.456  1.00  0.00    -0.550 OA
ATOM      9  O   UNL     1      19.091   8.311  14.917  1.00  0.00    -0.550 OA
ENDBRANCH   6   7
ENDBRANCH   5   6
ENDBRANCH   4   5
ENDBRANCH   3   4
ENDBRANCH   2   3
ENDBRANCH   1   2
BRANCH   1  10
ATOM     10  C   UNL     1      22.883  13.991   8.778  1.00  0.00     0.000 C 
BRANCH  10  11
ATOM     11  C   UNL     1      24.136  13.137   8.530  1.00  0.00    -0.000 C 
BRANCH  11  12
ATOM     12  C   UNL     1      25.396  13.985   8.294  1.00  0.00    -0.000 C 
BRANCH  12  13
ATOM     13  C   UNL     1      26.318  13.952   9.522  1.00  0.00    -0.000 C 
BRANCH  13  14
ATOM     14  C   UNL     1      26.011  12.775  10.462  1.00  0.00    -0.000 C 
BRANCH  14  15
ATOM     15  C   UNL     1      27.210  12.404  11.353  1.00  0.00    -0.000 C 
BRANCH  15  16
ATOM     16  C   UNL     1      26.781  11.747  12.673  1.00  0.00    -0.003 C 
ATOM     17  C   UNL     1      25.263  11.637  12.817  1.00  0.00     0.004 C 
ENDBRANCH  15  16
ENDBRANCH  14  15
ENDBRANCH  13  14
ENDBRANCH  12  13
ENDBRANCH  11  12
ENDBRANCH  10  11
ENDBRANCH   1  10
TORSDOF 13
ENDMDL
MODEL 3
REMARK VINA RESULT:    -5.318      3.226      3.966
REMARK INTER + INTRA:         -10.396
REMARK INTER:                  -9.626
REMARK INTRA:                  -0.770
REMARK UNBOUND:                -1.036
REMARK SMILES CCCCCCCCCCCCCCC(=O)[O-]
REMARK SMILES IDX 9 1 10 2 11 3 12 4 13 5 14 6 15 7 16 8 17 9 8 10 7 11 6 12
REMARK SMILES IDX 5 13 4 14 3 15 2 16 1 17
REMARK H PARENT
REMARK Flexibility Score: inf
ROOT
ATOM      1  C   UNL     1      22.461  13.612   9.548  1.00  0.00     0.000 C 
ENDROOT
BRANCH   1   2
ATOM      2  C   UNL     1      23.479  13.537   8.390  1.00  0.00     0.000 C 
BRANCH   2   3
ATOM      3  C   UNL     1      24.940  13.429   8.861  1.00  0.00     0.000 C 
BRANCH   3   4
ATOM      4  C   UNL     1      25.929  14.101   7.898  1.00  0.00     0.000 C 
BRANCH   4   5
ATOM      5  C   UNL     1      26.730  15.200   8.611  1.00  0.00     0.006 C 
BRANCH   5   6
ATOM      6  C   UNL     1      27.030  16.391   7.692  1.00  0.00     0.053 C 
BRANCH   6   7
ATOM      7  C   UNL     1      25.968  17.443   7.781  1.00  0.00     0.041 C 
ATOM      8  O   UNL     1      24.786  17.184   7.431  1.00  0.00    -0.550 OA
ATOM      9  O   UNL     1      26.290  18.719   8.224  1.00  0.00    -0.550 OA
ENDBRANCH   6   7
ENDBRANCH   5   6
ENDBRANCH   4   5
ENDBRANCH   3   4
ENDBRANCH   2   3
ENDBRANCH   1   2
BRANCH   1  10
ATOM     10  C   UNL     1      22.613  12.437  10.531  1.00  0.00     0.000 C 
BRANCH  10  11
ATOM     11  C   UNL     1      21.435  11.451  10.465  1.00  0.00    -0.000 C 
BRANCH  11  12
ATOM     12  C   UNL     1      21.789  10.065  11.024  1.00  0.00    -0.000 C 
BRANCH  12  13
ATOM     13  C   UNL     1      22.613  10.187  12.314  1.00  0.00    -0.000 C 
BRANCH  13  14
ATOM     14  C   UNL     1      22.086   9.285  13.442  1.00  0.00    -0.000 C 
BRANCH  14  15
ATOM     15  C   UNL     1      21.069   8.246  12.938  1.00  0.00    -0.000 C 
BRANCH  15  16
ATOM     16  C   UNL     1      19.742   8.297  13.711  1.00  0.00    -0.003 C 
ATOM     17  C   UNL     1      19.095   9.683  13.687  1.00  0.00     0.004 C 
ENDBRANCH  15  16
ENDBRANCH  14  15
ENDBRANCH  13  14
ENDBRANCH  12  13
ENDBRANCH  11  12
ENDBRANCH  10  11
ENDBRANCH   1  10
TORSDOF 13
ENDMDL
MODEL 4
REMARK VINA RESULT:    -5.293      2.477      6.292
REMARK INTER + INTRA:         -10.352
REMARK INTER:                  -9.160
REMARK INTRA:                  -1.193
REMARK UNBOUND:                -1.036
REMARK SMILES CCCCCCCCCCCCCCC(=O)[O-]
REMARK SMILES IDX 9 1 10 2 11 3 12 4 13 5 14 6 15 7 16 8 17 9 8 10 7 11 6 12
REMARK SMILES IDX 5 13 4 14 3 15 2 16 1 17
REMARK H PARENT
REMARK Flexibility Score: inf
ROOT
ATOM      1  C   UNL     1      25.005  12.209  12.122  1.00  0.00     0.000 C 
ENDROOT
BRANCH   1   2
ATOM      2  C   UNL     1      24.334  11.417  13.264  1.00  0.00     0.000 C 
BRANCH   2   3
ATOM      3  C   UNL     1      23.814  10.034  12.833  1.00  0.00     0.000 C 
BRANCH   3   4
ATOM      4  C   UNL     1      22.512   9.638  13.543  1.00  0.00     0.000 C 
BRANCH   4   5
ATOM      5  C   UNL     1      21.540   8.959  12.568  1.00  0.00     0.006 C 
BRANCH   5   6
ATOM      6  C   UNL     1      20.560   8.020  13.283  1.00  0.00     0.053 C 
BRANCH   6   7
ATOM      7  C   UNL     1      19.480   8.779  13.992  1.00  0.00     0.041 C 
ATOM      8  O   UNL     1      18.967   8.320  15.046  1.00  0.00    -0.550 OA
ATOM      9  O   UNL     1      19.020   9.981  13.471  1.00  0.00    -0.550 OA
ENDBRANCH   6   7
ENDBRANCH   5   6
ENDBRANCH   4   5
ENDBRANCH   3   4
ENDBRANCH   2   3
ENDBRANCH   1   2
BRANCH   1  10
ATOM     10  C   UNL     1      26.522  11.957  12.055  1.00  0.00     0.000 C 
BRANCH  10  11
ATOM     11  C   UNL     1      27.126  12.329  10.691  1.00  0.00    -0.000 C 
BRANCH  11  12
ATOM     12  C   UNL     1      26.507  13.601  10.094  1.00  0.00    -0.000 C 
BRANCH  12  13
ATOM     13  C   UNL     1      25.877  13.314   8.722  1.00  0.00    -0.000 C 
BRANCH  13  14
ATOM     14  C   UNL     1      24.567  14.086   8.498  1.00  0.00    -0.000 C 
BRANCH  14  15
ATOM     15  C   UNL     1      23.337  13.162   8.462  1.00  0.00    -0.000 C 
BRANCH  15  16
ATOM     16  C   UNL     1      22.400  13.380   9.659  1.00  0.00    -0.003 C 
ATOM     17  C   UNL     1      21.922  12.069  10.286  1.00  0.00     0.004 C 
ENDBRANCH  15  16
ENDBRANCH  14  15
ENDBRANCH  13  14
ENDBRANCH  12  13
ENDBRANCH  11  12
ENDBRANCH  10  11
ENDBRANCH   1  10
TORSDOF 13
ENDMDL
MODEL 5
REMARK VINA RESULT:    -5.215      2.754      7.472
REMARK INTER + INTRA:         -10.214
REMARK INTER:                  -9.588
REMARK INTRA:                  -0.626
REMARK UNBOUND:                -1.036
REMARK SMILES CCCCCCCCCCCCCCC(=O)[O-]
REMARK SMILES IDX 9 1 10 2 11 3 12 4 13 5 14 6 15 7 16 8 17 9 8 10 7 11 6 12
REMARK SMILES IDX 5 13 4 14 3 15 2 16 1 17
REMARK H PARENT
REMARK Flexibility Score: inf
ROOT
ATOM      1  C   UNL     1      22.818  12.648  10.129  1.00  0.00     0.000 C 
ENDROOT
BRANCH   1   2
ATOM      2  C   UNL     1      21.775  11.568  10.484  1.00  0.00     0.000 C 
BRANCH   2   3
ATOM      3  C   UNL     1      22.132  10.756  11.741  1.00  0.00     0.000 C 
BRANCH   3   4
ATOM      4  C   UNL     1      21.714   9.282  11.639  1.00  0.00     0.000 C 
BRANCH   4   5
ATOM      5  C   UNL     1      21.663   8.628  13.027  1.00  0.00     0.006 C 
BRANCH   5   6
ATOM      6  C   UNL     1      20.338   7.896  13.277  1.00  0.00     0.053 C 
BRANCH   6   7
ATOM      7  C   UNL     1      19.375   8.740  14.053  1.00  0.00     0.041 C 
ATOM      8  O   UNL     1      19.084   9.900  13.658  1.00  0.00    -0.550 OA
ATOM      9  O   UNL     1      18.819   8.256  15.230  1.00  0.00    -0.550 OA
ENDBRANCH   6   7
ENDBRANCH   5   6
ENDBRANCH   4   5
ENDBRANCH   3   4
ENDBRANCH   2   3
ENDBRANCH   1   2
BRANCH   1  10
ATOM     10  C   UNL     1      22.841  12.960   8.622  1.00  0.00     0.000 C 
BRANCH  10  11
ATOM     11  C   UNL     1      24.190  13.527   8.153  1.00  0.00    -0.000 C 
BRANCH  11  12
ATOM     12  C   UNL     1      25.202  13.677   9.299  1.00  0.00    -0.000 C 
BRANCH  12  13
ATOM     13  C   UNL     1      26.641  13.515   8.786  1.00  0.00    -0.000 C 
BRANCH  13  14
ATOM     14  C   UNL     1      26.915  14.343   7.520  1.00  0.00    -0.000 C 
BRANCH  14  15
ATOM     15  C   UNL     1      27.388  15.772   7.841  1.00  0.00    -0.000 C 
BRANCH  15  16
ATOM     16  C   UNL     1      26.229  16.780   7.885  1.00  0.00    -0.003 C 
ATOM     17  C   UNL     1      26.628  18.116   8.512  1.00  0.00     0.004 C 
ENDBRANCH  15  16
ENDBRANCH  14  15
ENDBRANCH  13  14
ENDBRANCH  12  13
ENDBRANCH  11  12
ENDBRANCH  10  11
ENDBRANCH   1  10
TORSDOF 13
ENDMDL
MODEL 6
REMARK VINA RESULT:    -4.996      2.085      3.517
REMARK INTER + INTRA:          -9.829
REMARK INTER:                  -8.842
REMARK INTRA:                  -0.987
REMARK UNBOUND:                -1.036
REMARK SMILES CCCCCCCCCCCCCCC(=O)[O-]
REMARK SMILES IDX 9 1 10 2 11 3 12 4 13 5 14 6 15 7 16 8 17 9 8 10 7 11 6 12
REMARK SMILES IDX 5 13 4 14 3 15 2 16 1 17
REMARK H PARENT
REMARK Flexibility Score: inf
ROOT
ATOM      1  C   UNL     1      26.340  12.250  12.738  1.00  0.00     0.000 C 
ENDROOT
BRANCH   1   2
ATOM      2  C   UNL     1      26.388  12.010  11.214  1.00  0.00     0.000 C 
BRANCH   2   3
ATOM      3  C   UNL     1      27.114  13.121  10.437  1.00  0.00     0.000 C 
BRANCH   3   4
ATOM      4  C   UNL     1      26.159  13.993   9.610  1.00  0.00     0.000 C 
BRANCH   4   5
ATOM      5  C   UNL     1      25.128  13.130   8.869  1.00  0.00     0.006 C 
BRANCH   5   6
ATOM      6  C   UNL     1      23.821  13.887   8.601  1.00  0.00     0.053 C 
BRANCH   6   7
ATOM      7  C   UNL     1      22.696  13.369   9.443  1.00  0.00     0.041 C 
ATOM      8  O   UNL     1      22.449  12.135   9.484  1.00  0.00    -0.550 OA
ATOM      9  O   UNL     1      21.902  14.253  10.161  1.00  0.00    -0.550 OA
ENDBRANCH   6   7
ENDBRANCH   5   6
ENDBRANCH   4   5
ENDBRANCH   3   4
ENDBRANCH   2   3
ENDBRANCH   1   2
BRANCH   1  10
ATOM     10  C   UNL     1      24.909  12.156  13.296  1.00  0.00     0.000 C 
BRANCH  10  11
ATOM     11  C   UNL     1      24.011  11.218  12.473  1.00  0.00    -0.000 C 
BRANCH  11  12
ATOM     12  C   UNL     1      23.628   9.941  13.236  1.00  0.00    -0.000 C 
BRANCH  12  13
ATOM     13  C   UNL     1      22.833   8.982  12.337  1.00  0.00    -0.000 C 
BRANCH  13  14
ATOM     14  C   UNL     1      21.473   8.595  12.940  1.00  0.00    -0.000 C 
BRANCH  14  15
ATOM     15  C   UNL     1      20.474   9.765  12.938  1.00  0.00    -0.000 C 
BRANCH  15  16
ATOM     16  C   UNL     1      19.084   9.354  13.445  1.00  0.00    -0.003 C 
ATOM     17  C   UNL     1      19.135   8.604  14.778  1.00  0.00     0.004 C 
ENDBRANCH  15  16
ENDBRANCH  14  15
ENDBRANCH  13  14
ENDBRANCH  12  13
ENDBRANCH  11  12
ENDBRANCH  10  11
ENDBRANCH   1  10
TORSDOF 13
ENDMDL
MODEL 7
REMARK VINA RESULT:    -4.948      1.502      5.842
REMARK INTER + INTRA:          -9.745
REMARK INTER:                  -8.464
REMARK INTRA:                  -1.281
REMARK UNBOUND:                -1.036
REMARK SMILES CCCCCCCCCCCCCCC(=O)[O-]
REMARK SMILES IDX 9 1 10 2 11 3 12 4 13 5 14 6 15 7 16 8 17 9 8 10 7 11 6 12
REMARK SMILES IDX 5 13 4 14 3 15 2 16 1 17
REMARK H PARENT
REMARK Flexibility Score: inf
ROOT
ATOM      1  C   UNL     1      20.990  10.697  11.509  1.00  0.00     0.000 C 
ENDROOT
BRANCH   1   2
ATOM      2  C   UNL     1      21.310   9.244  11.920  1.00  0.00     0.000 C 
BRANCH   2   3
ATOM      3  C   UNL     1      22.768   9.037  12.364  1.00  0.00     0.000 C 
BRANCH   3   4
ATOM      4  C   UNL     1      23.205  10.019  13.459  1.00  0.00     0.000 C 
BRANCH   4   5
ATOM      5  C   UNL     1      24.717  10.280  13.392  1.00  0.00     0.006 C 
BRANCH   5   6
ATOM      6  C   UNL     1      25.042  11.681  12.861  1.00  0.00     0.053 C 
BRANCH   6   7
ATOM      7  C   UNL     1      26.494  12.013  13.020  1.00  0.00     0.041 C 
ATOM      8  O   UNL     1      26.960  12.302  14.154  1.00  0.00    -0.550 OA
ATOM      9  O   UNL     1      27.328  12.030  11.910  1.00  0.00    -0.550 OA
ENDBRANCH   6   7
ENDBRANCH   5   6
ENDBRANCH   4   5
ENDBRANCH   3   4
ENDBRANCH   2   3
ENDBRANCH   1   2
BRANCH   1  10
ATOM     10  C   UNL     1      21.742  11.119  10.234  1.00  0.00     0.000 C 
BRANCH  10  11
ATOM     11  C   UNL     1      22.453  12.473  10.384  1.00  0.00    -0.000 C 
BRANCH  11  12
ATOM     12  C   UNL     1      22.466  13.285   9.080  1.00  0.00    -0.000 C 
BRANCH  12  13
ATOM     13  C   UNL     1      23.865  13.279   8.444  1.00  0.00    -0.000 C 
BRANCH  13  14
ATOM     14  C   UNL     1      24.991  13.257   9.489  1.00  0.00    -0.000 C 
BRANCH  14  15
ATOM     15  C   UNL     1      26.339  13.725   8.913  1.00  0.00    -0.000 C 
BRANCH  15  16
ATOM     16  C   UNL     1      26.173  14.750   7.782  1.00  0.00    -0.003 C 
ATOM     17  C   UNL     1      26.688  16.140   8.159  1.00  0.00     0.004 C 
ENDBRANCH  15  16
ENDBRANCH  14  15
ENDBRANCH  13  14
ENDBRANCH  12  13
ENDBRANCH  11  12
ENDBRANCH  10  11
ENDBRANCH   1  10
TORSDOF 13
ENDMDL
MODEL 8
REMARK VINA RESULT:    -4.846      1.867      6.713
REMARK INTER + INTRA:          -9.565
REMARK INTER:                  -8.649
REMARK INTRA:                  -0.917
REMARK UNBOUND:                -1.036
REMARK SMILES CCCCCCCCCCCCCCC(=O)[O-]
REMARK SMILES IDX 9 1 10 2 11 3 12 4 13 5 14 6 15 7 16 8 17 9 8 10 7 11 6 12
REMARK SMILES IDX 5 13 4 14 3 15 2 16 1 17
REMARK H PARENT
REMARK Flexibility Score: inf
ROOT
ATOM      1  C   UNL     1      22.548  12.465   8.953  1.00  0.00     0.000 C 
ENDROOT
BRANCH   1   2
ATOM      2  C   UNL     1      22.138  12.091  10.393  1.00  0.00     0.000 C 
BRANCH   2   3
ATOM      3  C   UNL     1      21.404  10.743  10.495  1.00  0.00     0.000 C 
BRANCH   3   4
ATOM      4  C   UNL     1      21.345  10.201  11.930  1.00  0.00     0.000 C 
BRANCH   4   5
ATOM      5  C   UNL     1      22.567   9.323  12.237  1.00  0.00     0.006 C 
BRANCH   5   6
ATOM      6  C   UNL     1      23.231   9.695  13.568  1.00  0.00     0.053 C 
BRANCH   6   7
ATOM      7  C   UNL     1      24.604  10.258  13.367  1.00  0.00     0.041 C 
ATOM      8  O   UNL     1      25.574   9.828  14.046  1.00  0.00    -0.550 OA
ATOM      9  O   UNL     1      24.808  11.278  12.447  1.00  0.00    -0.550 OA
ENDBRANCH   6   7
ENDBRANCH   5   6
ENDBRANCH   4   5
ENDBRANCH   3   4
ENDBRANCH   2   3
ENDBRANCH   1   2
BRANCH   1  10
ATOM     10  C   UNL     1      23.415  13.735   8.907  1.00  0.00     0.000 C 
BRANCH  10  11
ATOM     11  C   UNL     1      24.852  13.457   8.439  1.00  0.00    -0.000 C 
BRANCH  11  12
ATOM     12  C   UNL     1      25.868  13.481   9.591  1.00  0.00    -0.000 C 
BRANCH  12  13
ATOM     13  C   UNL     1      27.246  13.947   9.098  1.00  0.00    -0.000 C 
BRANCH  13  14
ATOM     14  C   UNL     1      27.188  14.609   7.712  1.00  0.00    -0.000 C 
BRANCH  14  15
ATOM     15  C   UNL     1      27.503  16.114   7.763  1.00  0.00    -0.000 C 
BRANCH  15  16
ATOM     16  C   UNL     1      26.237  16.979   7.844  1.00  0.00    -0.003 C 
ATOM     17  C   UNL     1      26.488  18.341   8.492  1.00  0.00     0.004 C 
ENDBRANCH  15  16
ENDBRANCH  14  15
ENDBRANCH  13  14
ENDBRANCH  12  13
ENDBRANCH  11  12
ENDBRANCH  10  11
ENDBRANCH   1  10
TORSDOF 13
ENDMDL
MODEL 9
REMARK VINA RESULT:    -4.843      2.384      5.002
REMARK INTER + INTRA:          -9.560
REMARK INTER:                  -8.503
REMARK INTRA:                  -1.057
REMARK UNBOUND:                -1.036
REMARK SMILES CCCCCCCCCCCCCCC(=O)[O-]
REMARK SMILES IDX 9 1 10 2 11 3 12 4 13 5 14 6 15 7 16 8 17 9 8 10 7 11 6 12
REMARK SMILES IDX 5 13 4 14 3 15 2 16 1 17
REMARK H PARENT
REMARK Flexibility Score: inf
ROOT
ATOM      1  C   UNL     1      21.332  10.324  10.883  1.00  0.00     0.000 C 
ENDROOT
BRANCH   1   2
ATOM      2  C   UNL     1      21.712  11.795  10.611  1.00  0.00     0.000 C 
BRANCH   2   3
ATOM      3  C   UNL     1      22.501  11.996   9.306  1.00  0.00     0.000 C 
BRANCH   3   4
ATOM      4  C   UNL     1      22.947  13.450   9.095  1.00  0.00     0.000 C 
BRANCH   4   5
ATOM      5  C   UNL     1      24.257  13.513   8.297  1.00  0.00     0.006 C 
BRANCH   5   6
ATOM      6  C   UNL     1      25.493  13.470   9.204  1.00  0.00     0.053 C 
BRANCH   6   7
ATOM      7  C   UNL     1      26.742  13.833   8.460  1.00  0.00     0.041 C 
ATOM      8  O   UNL     1      27.790  14.138   9.087  1.00  0.00    -0.550 OA
ATOM      9  O   UNL     1      26.739  13.862   7.072  1.00  0.00    -0.550 OA
ENDBRANCH   6   7
ENDBRANCH   5   6
ENDBRANCH   4   5
ENDBRANCH   3   4
ENDBRANCH   2   3
ENDBRANCH   1   2
BRANCH   1  10
ATOM     10  C   UNL     1      20.712  10.134  12.279  1.00  0.00     0.000 C 
BRANCH  10  11
ATOM     11  C   UNL     1      21.496   9.136  13.146  1.00  0.00    -0.000 C 
BRANCH  11  12
ATOM     12  C   UNL     1      22.947   8.954  12.678  1.00  0.00    -0.000 C 
BRANCH  12  13
ATOM     13  C   UNL     1      23.915   9.750  13.566  1.00  0.00    -0.000 C 
BRANCH  13  14
ATOM     14  C   UNL     1      24.238  11.139  12.994  1.00  0.00    -0.000 C 
BRANCH  14  15
ATOM     15  C   UNL     1      25.615  11.657  13.445  1.00  0.00    -0.000 C 
BRANCH  15  16
ATOM     16  C   UNL     1      26.563  11.916  12.265  1.00  0.00    -0.003 C 
ATOM     17  C   UNL     1      27.930  11.253  12.443  1.00  0.00     0.004 C 
ENDBRANCH  15  16
ENDBRANCH  14  15
ENDBRANCH  13  14
ENDBRANCH  12  13
ENDBRANCH  11  12
ENDBRANCH  10  11
ENDBRANCH   1  10
TORSDOF 13
ENDMDL
