MODEL 1
REMARK VINA RESULT:    -4.085      0.000      0.000
REMARK INTER + INTRA:          -7.562
REMARK INTER:                  -6.951
REMARK INTRA:                  -0.611
REMARK UNBOUND:                -0.611
REMARK SMILES CCCCCCCCCCCCCC(=O)[O-]
REMARK SMILES IDX 8 1 9 2 10 3 11 4 12 5 13 6 14 7 15 8 16 9 7 10 6 11 5 12
REMARK SMILES IDX 4 13 3 14 2 15 1 16
REMARK H PARENT
REMARK Flexibility Score: inf
ROOT
ATOM      1  C   UNL     1      -5.705  36.696   0.923  1.00  0.00     0.000 C 
ENDROOT
BRANCH   1   2
ATOM      2  C   UNL     1      -4.832  35.576   0.334  1.00  0.00     0.000 C 
BRANCH   2   3
ATOM      3  C   UNL     1      -5.321  34.174   0.726  1.00  0.00     0.000 C 
BRANCH   3   4
ATOM      4  C   UNL     1      -6.774  34.217   1.218  1.00  0.00     0.000 C 
BRANCH   4   5
ATOM      5  C   UNL     1      -7.475  32.872   0.983  1.00  0.00     0.006 C 
BRANCH   5   6
ATOM      6  C   UNL     1      -6.593  31.680   1.380  1.00  0.00     0.053 C 
BRANCH   6   7
ATOM      7  C   UNL     1      -7.392  30.423   1.536  1.00  0.00     0.041 C 
ATOM      8  O   UNL     1      -7.799  29.803   0.519  1.00  0.00    -0.550 OA
ATOM      9  O   UNL     1      -7.658  29.919   2.802  1.00  0.00    -0.550 OA
ENDBRANCH   6   7
ENDBRANCH   5   6
ENDBRANCH   4   5
ENDBRANCH   3   4
ENDBRANCH   2   3
ENDBRANCH   1   2
BRANCH   1  10
ATOM     10  C   UNL     1      -5.497  38.043   0.211  1.00  0.00     0.000 C 
BRANCH  10  11
ATOM     11  C   UNL     1      -5.581  37.931  -1.322  1.00  0.00    -0.000 C 
BRANCH  11  12
ATOM     12  C   UNL     1      -7.006  37.933  -1.902  1.00  0.00    -0.000 C 
BRANCH  12  13
ATOM     13  C   UNL     1      -8.094  37.939  -0.818  1.00  0.00    -0.000 C 
BRANCH  13  14
ATOM     14  C   UNL     1      -9.478  37.674  -1.426  1.00  0.00    -0.000 C 
BRANCH  14  15
ATOM     15  C   UNL     1      -9.984  36.275  -1.056  1.00  0.00    -0.003 C 
ATOM     16  C   UNL     1     -11.479  36.141  -1.325  1.00  0.00     0.004 C 
ENDBRANCH  14  15
ENDBRANCH  13  14
ENDBRANCH  12  13
ENDBRANCH  11  12
ENDBRANCH  10  11
ENDBRANCH   1  10
TORSDOF 12
ENDMDL
MODEL 2
REMARK VINA RESULT:    -3.560     11.880     15.407
REMARK INTER + INTRA:          -6.668
REMARK INTER:                  -5.946
REMARK INTRA:                  -0.722
REMARK UNBOUND:                -0.611
REMARK SMILES CCCCCCCCCCCCCC(=O)[O-]
REMARK SMILES IDX 8 1 9 2 10 3 11 4 12 5 13 6 14 7 15 8 16 9 7 10 6 11 5 12
REMARK SMILES IDX 4 13 3 14 2 15 1 16
REMARK H PARENT
REMARK Flexibility Score: inf
ROOT
ATOM      1  C   UNL     1     -18.535  34.174 -11.326  1.00  0.00     0.000 C 
ENDROOT
BRANCH   1   2
ATOM      2  C   UNL     1     -17.634  33.582 -12.423  1.00  0.00     0.000 C 
BRANCH   2   3
ATOM      3  C   UNL     1     -16.363  32.931 -11.859  1.00  0.00     0.000 C 
BRANCH   3   4
ATOM      4  C   UNL     1     -15.106  33.647 -12.369  1.00  0.00     0.000 C 
BRANCH   4   5
ATOM      5  C   UNL     1     -14.364  34.345 -11.220  1.00  0.00     0.006 C 
BRANCH   5   6
ATOM      6  C   UNL     1     -15.027  34.085  -9.859  1.00  0.00     0.053 C 
BRANCH   6   7
ATOM      7  C   UNL     1     -14.350  34.840  -8.758  1.00  0.00     0.041 C 
ATOM      8  O   UNL     1     -14.830  34.827  -7.594  1.00  0.00    -0.550 OA
ATOM      9  O   UNL     1     -13.171  35.530  -9.007  1.00  0.00    -0.550 OA
ENDBRANCH   6   7
ENDBRANCH   5   6
ENDBRANCH   4   5
ENDBRANCH   3   4
ENDBRANCH   2   3
ENDBRANCH   1   2
BRANCH   1  10
ATOM     10  C   UNL     1     -18.492  33.358 -10.023  1.00  0.00     0.000 C 
BRANCH  10  11
ATOM     11  C   UNL     1     -19.116  34.101  -8.828  1.00  0.00    -0.000 C 
BRANCH  11  12
ATOM     12  C   UNL     1     -20.281  33.370  -8.137  1.00  0.00    -0.000 C 
BRANCH  12  13
ATOM     13  C   UNL     1     -21.402  34.318  -7.687  1.00  0.00    -0.000 C 
BRANCH  13  14
ATOM     14  C   UNL     1     -22.609  33.532  -7.160  1.00  0.00    -0.000 C 
BRANCH  14  15
ATOM     15  C   UNL     1     -23.897  33.954  -7.876  1.00  0.00    -0.003 C 
ATOM     16  C   UNL     1     -23.960  35.468  -8.052  1.00  0.00     0.004 C 
ENDBRANCH  14  15
ENDBRANCH  13  14
ENDBRANCH  12  13
ENDBRANCH  11  12
ENDBRANCH  10  11
ENDBRANCH   1  10
TORSDOF 12
ENDMDL
MODEL 3
REMARK VINA RESULT:    -3.510      2.483      5.429
REMARK INTER + INTRA:          -6.583
REMARK INTER:                  -6.060
REMARK INTRA:                  -0.523
REMARK UNBOUND:                -0.611
REMARK SMILES CCCCCCCCCCCCCC(=O)[O-]
REMARK SMILES IDX 8 1 9 2 10 3 11 4 12 5 13 6 14 7 15 8 16 9 7 10 6 11 5 12
REMARK SMILES IDX 4 13 3 14 2 15 1 16
REMARK H PARENT
REMARK Flexibility Score: inf
ROOT
ATOM      1  C   UNL     1      -5.685  36.922   1.603  1.00  0.00     0.000 C 
ENDROOT
BRANCH   1   2
ATOM      2  C   UNL     1      -6.225  38.125   0.813  1.00  0.00     0.000 C 
BRANCH   2   3
ATOM      3  C   UNL     1      -5.862  38.066  -0.678  1.00  0.00     0.000 C 
BRANCH   3   4
ATOM      4  C   UNL     1      -7.124  38.011  -1.549  1.00  0.00     0.000 C 
BRANCH   4   5
ATOM      5  C   UNL     1      -8.355  37.636  -0.711  1.00  0.00     0.006 C 
BRANCH   5   6
ATOM      6  C   UNL     1      -9.606  37.431  -1.576  1.00  0.00     0.053 C 
BRANCH   6   7
ATOM      7  C   UNL     1     -10.410  36.253  -1.122  1.00  0.00     0.041 C 
ATOM      8  O   UNL     1     -11.651  36.213  -1.337  1.00  0.00    -0.550 OA
ATOM      9  O   UNL     1      -9.787  35.185  -0.491  1.00  0.00    -0.550 OA
ENDBRANCH   6   7
ENDBRANCH   5   6
ENDBRANCH   4   5
ENDBRANCH   3   4
ENDBRANCH   2   3
ENDBRANCH   1   2
BRANCH   1  10
ATOM     10  C   UNL     1      -4.371  36.375   1.021  1.00  0.00     0.000 C 
BRANCH  10  11
ATOM     11  C   UNL     1      -4.453  34.881   0.655  1.00  0.00    -0.000 C 
BRANCH  11  12
ATOM     12  C   UNL     1      -5.429  34.050   1.507  1.00  0.00    -0.000 C 
BRANCH  12  13
ATOM     13  C   UNL     1      -6.896  34.243   1.096  1.00  0.00    -0.000 C 
BRANCH  13  14
ATOM     14  C   UNL     1      -7.608  32.893   0.947  1.00  0.00    -0.000 C 
BRANCH  14  15
ATOM     15  C   UNL     1      -6.711  31.742   1.419  1.00  0.00    -0.003 C 
ATOM     16  C   UNL     1      -7.480  30.425   1.459  1.00  0.00     0.004 C 
ENDBRANCH  14  15
ENDBRANCH  13  14
ENDBRANCH  12  13
ENDBRANCH  11  12
ENDBRANCH  10  11
ENDBRANCH   1  10
TORSDOF 12
ENDMDL
MODEL 4
REMARK VINA RESULT:    -3.460     12.065     15.457
REMARK INTER + INTRA:          -6.499
REMARK INTER:                  -5.685
REMARK INTRA:                  -0.814
REMARK UNBOUND:                -0.611
REMARK SMILES CCCCCCCCCCCCCC(=O)[O-]
REMARK SMILES IDX 8 1 9 2 10 3 11 4 12 5 13 6 14 7 15 8 16 9 7 10 6 11 5 12
REMARK SMILES IDX 4 13 3 14 2 15 1 16
REMARK H PARENT
REMARK Flexibility Score: inf
ROOT
ATOM      1  C   UNL     1     -17.853  33.686 -12.470  1.00  0.00     0.000 C 
ENDROOT
BRANCH   1   2
ATOM      2  C   UNL     1     -18.656  34.191 -11.260  1.00  0.00     0.000 C 
BRANCH   2   3
ATOM      3  C   UNL     1     -18.586  33.235 -10.060  1.00  0.00     0.000 C 
BRANCH   3   4
ATOM      4  C   UNL     1     -19.014  33.944  -8.769  1.00  0.00     0.000 C 
BRANCH   4   5
ATOM      5  C   UNL     1     -20.284  33.306  -8.186  1.00  0.00     0.006 C 
BRANCH   5   6
ATOM      6  C   UNL     1     -21.285  34.357  -7.688  1.00  0.00     0.053 C 
BRANCH   6   7
ATOM      7  C   UNL     1     -22.634  33.762  -7.429  1.00  0.00     0.041 C 
ATOM      8  O   UNL     1     -22.750  32.765  -6.667  1.00  0.00    -0.550 OA
ATOM      9  O   UNL     1     -23.767  34.326  -7.999  1.00  0.00    -0.550 OA
ENDBRANCH   6   7
ENDBRANCH   5   6
ENDBRANCH   4   5
ENDBRANCH   3   4
ENDBRANCH   2   3
ENDBRANCH   1   2
BRANCH   1  10
ATOM     10  C   UNL     1     -16.627  32.854 -12.058  1.00  0.00     0.000 C 
BRANCH  10  11
ATOM     11  C   UNL     1     -15.292  33.556 -12.368  1.00  0.00    -0.000 C 
BRANCH  11  12
ATOM     12  C   UNL     1     -14.658  34.309 -11.185  1.00  0.00    -0.000 C 
BRANCH  12  13
ATOM     13  C   UNL     1     -15.292  33.945  -9.834  1.00  0.00    -0.000 C 
BRANCH  13  14
ATOM     14  C   UNL     1     -14.468  34.510  -8.670  1.00  0.00    -0.000 C 
BRANCH  14  15
ATOM     15  C   UNL     1     -13.318  35.384  -9.182  1.00  0.00    -0.003 C 
ATOM     16  C   UNL     1     -13.063  36.563  -8.247  1.00  0.00     0.004 C 
ENDBRANCH  14  15
ENDBRANCH  13  14
ENDBRANCH  12  13
ENDBRANCH  11  12
ENDBRANCH  10  11
ENDBRANCH   1  10
TORSDOF 12
ENDMDL
MODEL 5
REMARK VINA RESULT:    -3.358      3.253      6.128
REMARK INTER + INTRA:          -6.326
REMARK INTER:                  -5.477
REMARK INTRA:                  -0.849
REMARK UNBOUND:                -0.611
REMARK SMILES CCCCCCCCCCCCCC(=O)[O-]
REMARK SMILES IDX 8 1 9 2 10 3 11 4 12 5 13 6 14 7 15 8 16 9 7 10 6 11 5 12
REMARK SMILES IDX 4 13 3 14 2 15 1 16
REMARK H PARENT
REMARK Flexibility Score: inf
ROOT
ATOM      1  C   UNL     1      -4.101  34.661   0.459  1.00  0.00     0.000 C 
ENDROOT
BRANCH   1   2
ATOM      2  C   UNL     1      -4.233  35.909  -0.430  1.00  0.00     0.000 C 
BRANCH   2   3
ATOM      3  C   UNL     1      -3.877  37.206   0.310  1.00  0.00     0.000 C 
BRANCH   3   4
ATOM      4  C   UNL     1      -5.100  38.123   0.430  1.00  0.00     0.000 C 
BRANCH   4   5
ATOM      5  C   UNL     1      -6.061  37.916  -0.750  1.00  0.00     0.006 C 
BRANCH   5   6
ATOM      6  C   UNL     1      -7.520  37.786  -0.293  1.00  0.00     0.053 C 
BRANCH   6   7
ATOM      7  C   UNL     1      -8.461  37.688  -1.454  1.00  0.00     0.041 C 
ATOM      8  O   UNL     1      -9.671  37.396  -1.266  1.00  0.00    -0.550 OA
ATOM      9  O   UNL     1      -8.009  37.951  -2.741  1.00  0.00    -0.550 OA
ENDBRANCH   6   7
ENDBRANCH   5   6
ENDBRANCH   4   5
ENDBRANCH   3   4
ENDBRANCH   2   3
ENDBRANCH   1   2
BRANCH   1  10
ATOM     10  C   UNL     1      -4.759  34.847   1.837  1.00  0.00     0.000 C 
BRANCH  10  11
ATOM     11  C   UNL     1      -6.292  34.958   1.760  1.00  0.00    -0.000 C 
BRANCH  11  12
ATOM     12  C   UNL     1      -6.984  33.891   0.893  1.00  0.00    -0.000 C 
BRANCH  12  13
ATOM     13  C   UNL     1      -6.479  32.469   1.177  1.00  0.00    -0.000 C 
BRANCH  13  14
ATOM     14  C   UNL     1      -7.648  31.484   1.300  1.00  0.00    -0.000 C 
BRANCH  14  15
ATOM     15  C   UNL     1      -7.183  30.145   1.883  1.00  0.00    -0.003 C 
ATOM     16  C   UNL     1      -7.958  29.796   3.150  1.00  0.00     0.004 C 
ENDBRANCH  14  15
ENDBRANCH  13  14
ENDBRANCH  12  13
ENDBRANCH  11  12
ENDBRANCH  10  11
ENDBRANCH   1  10
TORSDOF 12
ENDMDL
MODEL 6
REMARK VINA RESULT:    -2.955      1.119      2.015
REMARK INTER + INTRA:          -5.639
REMARK INTER:                  -5.041
REMARK INTRA:                  -0.597
REMARK UNBOUND:                -0.611
REMARK SMILES CCCCCCCCCCCCCC(=O)[O-]
REMARK SMILES IDX 8 1 9 2 10 3 11 4 12 5 13 6 14 7 15 8 16 9 7 10 6 11 5 12
REMARK SMILES IDX 4 13 3 14 2 15 1 16
REMARK H PARENT
REMARK Flexibility Score: inf
ROOT
ATOM      1  C   UNL     1      -5.684  36.968   1.761  1.00  0.00     0.000 C 
ENDROOT
BRANCH   1   2
ATOM      2  C   UNL     1      -6.773  35.932   2.087  1.00  0.00     0.000 C 
BRANCH   2   3
ATOM      3  C   UNL     1      -7.042  34.967   0.923  1.00  0.00     0.000 C 
BRANCH   3   4
ATOM      4  C   UNL     1      -6.227  33.678   1.080  1.00  0.00     0.000 C 
BRANCH   4   5
ATOM      5  C   UNL     1      -7.116  32.518   1.551  1.00  0.00     0.006 C 
BRANCH   5   6
ATOM      6  C   UNL     1      -6.523  31.149   1.190  1.00  0.00     0.053 C 
BRANCH   6   7
ATOM      7  C   UNL     1      -7.477  30.033   1.487  1.00  0.00     0.041 C 
ATOM      8  O   UNL     1      -8.073  29.443   0.548  1.00  0.00    -0.550 OA
ATOM      9  O   UNL     1      -7.684  29.623   2.798  1.00  0.00    -0.550 OA
ENDBRANCH   6   7
ENDBRANCH   5   6
ENDBRANCH   4   5
ENDBRANCH   3   4
ENDBRANCH   2   3
ENDBRANCH   1   2
BRANCH   1  10
ATOM     10  C   UNL     1      -4.349  36.315   1.366  1.00  0.00     0.000 C 
BRANCH  10  11
ATOM     11  C   UNL     1      -3.993  36.526  -0.118  1.00  0.00    -0.000 C 
BRANCH  11  12
ATOM     12  C   UNL     1      -4.268  37.940  -0.662  1.00  0.00    -0.000 C 
BRANCH  12  13
ATOM     13  C   UNL     1      -5.378  37.968  -1.723  1.00  0.00    -0.000 C 
BRANCH  13  14
ATOM     14  C   UNL     1      -6.761  38.089  -1.070  1.00  0.00    -0.000 C 
BRANCH  14  15
ATOM     15  C   UNL     1      -7.877  37.888  -2.101  1.00  0.00    -0.003 C 
ATOM     16  C   UNL     1      -9.173  37.442  -1.431  1.00  0.00     0.004 C 
ENDBRANCH  14  15
ENDBRANCH  13  14
ENDBRANCH  12  13
ENDBRANCH  11  12
ENDBRANCH  10  11
ENDBRANCH   1  10
TORSDOF 12
ENDMDL
MODEL 7
REMARK VINA RESULT:    -2.287     18.260     19.268
REMARK INTER + INTRA:          -4.503
REMARK INTER:                  -3.878
REMARK INTRA:                  -0.625
REMARK UNBOUND:                -0.611
REMARK SMILES CCCCCCCCCCCCCC(=O)[O-]
REMARK SMILES IDX 8 1 9 2 10 3 11 4 12 5 13 6 14 7 15 8 16 9 7 10 6 11 5 12
REMARK SMILES IDX 4 13 3 14 2 15 1 16
REMARK H PARENT
REMARK Flexibility Score: inf
ROOT
ATOM      1  C   UNL     1     -22.241  26.189  -5.189  1.00  0.00     0.000 C 
ENDROOT
BRANCH   1   2
ATOM      2  C   UNL     1     -23.572  25.845  -4.500  1.00  0.00     0.000 C 
BRANCH   2   3
ATOM      3  C   UNL     1     -23.381  25.307  -3.075  1.00  0.00     0.000 C 
BRANCH   3   4
ATOM      4  C   UNL     1     -21.937  24.840  -2.854  1.00  0.00     0.000 C 
BRANCH   4   5
ATOM      5  C   UNL     1     -21.869  23.313  -2.705  1.00  0.00     0.006 C 
BRANCH   5   6
ATOM      6  C   UNL     1     -20.727  22.700  -3.529  1.00  0.00     0.053 C 
BRANCH   6   7
ATOM      7  C   UNL     1     -20.396  21.312  -3.075  1.00  0.00     0.041 C 
ATOM      8  O   UNL     1     -19.977  20.460  -3.902  1.00  0.00    -0.550 OA
ATOM      9  O   UNL     1     -20.518  20.970  -1.735  1.00  0.00    -0.550 OA
ENDBRANCH   6   7
ENDBRANCH   5   6
ENDBRANCH   4   5
ENDBRANCH   3   4
ENDBRANCH   2   3
ENDBRANCH   1   2
BRANCH   1  10
ATOM     10  C   UNL     1     -21.834  25.144  -6.241  1.00  0.00     0.000 C 
BRANCH  10  11
ATOM     11  C   UNL     1     -21.565  25.760  -7.626  1.00  0.00    -0.000 C 
BRANCH  11  12
ATOM     12  C   UNL     1     -22.515  25.297  -8.745  1.00  0.00    -0.000 C 
BRANCH  12  13
ATOM     13  C   UNL     1     -22.481  26.213  -9.978  1.00  0.00    -0.000 C 
BRANCH  13  14
ATOM     14  C   UNL     1     -23.826  26.196 -10.714  1.00  0.00    -0.000 C 
BRANCH  14  15
ATOM     15  C   UNL     1     -24.098  27.541 -11.396  1.00  0.00    -0.003 C 
ATOM     16  C   UNL     1     -23.069  28.588 -10.982  1.00  0.00     0.004 C 
ENDBRANCH  14  15
ENDBRANCH  13  14
ENDBRANCH  12  13
ENDBRANCH  11  12
ENDBRANCH  10  11
ENDBRANCH   1  10
TORSDOF 12
ENDMDL
MODEL 8
REMARK VINA RESULT:    -2.239      1.083      3.552
REMARK INTER + INTRA:          -4.420
REMARK INTER:                  -3.459
REMARK INTRA:                  -0.961
REMARK UNBOUND:                -0.611
REMARK SMILES CCCCCCCCCCCCCC(=O)[O-]
REMARK SMILES IDX 8 1 9 2 10 3 11 4 12 5 13 6 14 7 15 8 16 9 7 10 6 11 5 12
REMARK SMILES IDX 4 13 3 14 2 15 1 16
REMARK H PARENT
REMARK Flexibility Score: inf
ROOT
ATOM      1  C   UNL     1      -9.281  36.719  -1.050  1.00  0.00     0.000 C 
ENDROOT
BRANCH   1   2
ATOM      2  C   UNL     1      -9.049  35.691   0.070  1.00  0.00     0.000 C 
BRANCH   2   3
ATOM      3  C   UNL     1      -7.685  34.993  -0.039  1.00  0.00     0.000 C 
BRANCH   3   4
ATOM      4  C   UNL     1      -7.453  34.054   1.152  1.00  0.00     0.000 C 
BRANCH   4   5
ATOM      5  C   UNL     1      -7.342  32.594   0.689  1.00  0.00     0.006 C 
BRANCH   5   6
ATOM      6  C   UNL     1      -6.863  31.664   1.812  1.00  0.00     0.053 C 
BRANCH   6   7
ATOM      7  C   UNL     1      -7.526  30.323   1.744  1.00  0.00     0.041 C 
ATOM      8  O   UNL     1      -7.816  29.816   0.629  1.00  0.00    -0.550 OA
ATOM      9  O   UNL     1      -7.793  29.617   2.910  1.00  0.00    -0.550 OA
ENDBRANCH   6   7
ENDBRANCH   5   6
ENDBRANCH   4   5
ENDBRANCH   3   4
ENDBRANCH   2   3
ENDBRANCH   1   2
BRANCH   1  10
ATOM     10  C   UNL     1      -8.516  38.032  -0.813  1.00  0.00     0.000 C 
BRANCH  10  11
ATOM     11  C   UNL     1      -7.193  38.106  -1.597  1.00  0.00    -0.000 C 
BRANCH  11  12
ATOM     12  C   UNL     1      -5.919  37.946  -0.748  1.00  0.00    -0.000 C 
BRANCH  12  13
ATOM     13  C   UNL     1      -4.632  37.980  -1.586  1.00  0.00    -0.000 C 
BRANCH  13  14
ATOM     14  C   UNL     1      -3.925  36.620  -1.564  1.00  0.00    -0.000 C 
BRANCH  14  15
ATOM     15  C   UNL     1      -3.916  36.026  -0.151  1.00  0.00    -0.003 C 
ATOM     16  C   UNL     1      -3.877  34.502  -0.193  1.00  0.00     0.004 C 
ENDBRANCH  14  15
ENDBRANCH  13  14
ENDBRANCH  12  13
ENDBRANCH  11  12
ENDBRANCH  10  11
ENDBRANCH   1  10
TORSDOF 12
ENDMDL
