MODEL 1
REMARK VINA RESULT:    -3.343      0.000      0.000
REMARK INTER + INTRA:          -8.441
REMARK INTER:                  -6.469
REMARK INTRA:                  -1.972
REMARK UNBOUND:                -1.972
REMARK SMILES CCCCCCCCCCCCCCCCCC(=O)[O-]
REMARK SMILES IDX 10 1 11 2 12 3 13 4 14 5 15 6 16 7 17 8 18 9 19 10 20 11
REMARK SMILES IDX 9 12 8 13 7 14 6 15 5 16 4 17 3 18 2 19 1 20
REMARK H PARENT
REMARK Flexibility Score: inf
ROOT
ATOM      1  C   UNL     1       3.776  66.896  14.935  1.00  0.00     0.000 C 
ENDROOT
BRANCH   1   2
ATOM      2  C   UNL     1       4.333  66.420  13.577  1.00  0.00     0.000 C 
BRANCH   2   3
ATOM      3  C   UNL     1       3.644  67.020  12.338  1.00  0.00     0.000 C 
BRANCH   3   4
ATOM      4  C   UNL     1       2.108  66.960  12.423  1.00  0.00     0.000 C 
BRANCH   4   5
ATOM      5  C   UNL     1       1.499  65.985  11.402  1.00  0.00     0.000 C 
BRANCH   5   6
ATOM      6  C   UNL     1       2.570  65.227  10.598  1.00  0.00     0.000 C 
BRANCH   6   7
ATOM      7  C   UNL     1       2.292  65.234   9.083  1.00  0.00     0.006 C 
BRANCH   7   8
ATOM      8  C   UNL     1       2.978  64.099   8.307  1.00  0.00     0.053 C 
BRANCH   8   9
ATOM      9  C   UNL     1       2.168  62.839   8.327  1.00  0.00     0.041 C 
ATOM     10  O   UNL     1       1.090  62.767   7.678  1.00  0.00    -0.550 OA
ATOM     11  O   UNL     1       2.589  61.753   9.085  1.00  0.00    -0.550 OA
ENDBRANCH   8   9
ENDBRANCH   7   8
ENDBRANCH   6   7
ENDBRANCH   5   6
ENDBRANCH   4   5
ENDBRANCH   3   4
ENDBRANCH   2   3
ENDBRANCH   1   2
BRANCH   1  12
ATOM     12  C   UNL     1       4.758  66.797  16.117  1.00  0.00     0.000 C 
BRANCH  12  13
ATOM     13  C   UNL     1       6.226  66.550  15.721  1.00  0.00    -0.000 C 
BRANCH  13  14
ATOM     14  C   UNL     1       6.836  65.281  16.352  1.00  0.00    -0.000 C 
BRANCH  14  15
ATOM     15  C   UNL     1       5.855  64.561  17.293  1.00  0.00    -0.000 C 
BRANCH  15  16
ATOM     16  C   UNL     1       5.730  63.061  16.982  1.00  0.00    -0.000 C 
BRANCH  16  17
ATOM     17  C   UNL     1       4.273  62.627  16.742  1.00  0.00    -0.000 C 
BRANCH  17  18
ATOM     18  C   UNL     1       3.695  63.193  15.436  1.00  0.00    -0.000 C 
BRANCH  18  19
ATOM     19  C   UNL     1       2.210  62.846  15.249  1.00  0.00    -0.003 C 
ATOM     20  C   UNL     1       1.447  64.014  14.631  1.00  0.00     0.004 C 
ENDBRANCH  18  19
ENDBRANCH  17  18
ENDBRANCH  16  17
ENDBRANCH  15  16
ENDBRANCH  14  15
ENDBRANCH  13  14
ENDBRANCH  12  13
ENDBRANCH   1  12
TORSDOF 16
ENDMDL
MODEL 2
REMARK VINA RESULT:    -3.315      5.686      8.297
REMARK INTER + INTRA:          -8.388
REMARK INTER:                  -5.650
REMARK INTRA:                  -2.738
REMARK UNBOUND:                -1.972
REMARK SMILES CCCCCCCCCCCCCCCCCC(=O)[O-]
REMARK SMILES IDX 10 1 11 2 12 3 13 4 14 5 15 6 16 7 17 8 18 9 19 10 20 11
REMARK SMILES IDX 9 12 8 13 7 14 6 15 5 16 4 17 3 18 2 19 1 20
REMARK H PARENT
REMARK Flexibility Score: inf
ROOT
ATOM      1  C   UNL     1       1.572  66.649  15.602  1.00  0.00     0.000 C 
ENDROOT
BRANCH   1   2
ATOM      2  C   UNL     1       1.804  67.468  16.890  1.00  0.00     0.000 C 
BRANCH   2   3
ATOM      3  C   UNL     1       1.427  66.751  18.200  1.00  0.00     0.000 C 
BRANCH   3   4
ATOM      4  C   UNL     1       2.447  66.991  19.326  1.00  0.00     0.000 C 
BRANCH   4   5
ATOM      5  C   UNL     1       3.462  68.093  18.978  1.00  0.00     0.000 C 
BRANCH   5   6
ATOM      6  C   UNL     1       3.345  69.316  19.904  1.00  0.00     0.000 C 
BRANCH   6   7
ATOM      7  C   UNL     1       1.914  69.885  19.959  1.00  0.00     0.006 C 
BRANCH   7   8
ATOM      8  C   UNL     1       1.536  70.770  18.761  1.00  0.00     0.053 C 
BRANCH   8   9
ATOM      9  C   UNL     1       1.958  72.193  18.962  1.00  0.00     0.041 C 
ATOM     10  O   UNL     1       1.180  73.013  19.520  1.00  0.00    -0.550 OA
ATOM     11  O   UNL     1       3.198  72.622  18.506  1.00  0.00    -0.550 OA
ENDBRANCH   8   9
ENDBRANCH   7   8
ENDBRANCH   6   7
ENDBRANCH   5   6
ENDBRANCH   4   5
ENDBRANCH   3   4
ENDBRANCH   2   3
ENDBRANCH   1   2
BRANCH   1  12
ATOM     12  C   UNL     1       0.679  65.406  15.769  1.00  0.00     0.000 C 
BRANCH  12  13
ATOM     13  C   UNL     1       1.020  64.232  14.831  1.00  0.00    -0.000 C 
BRANCH  13  14
ATOM     14  C   UNL     1       2.318  64.441  14.021  1.00  0.00    -0.000 C 
BRANCH  14  15
ATOM     15  C   UNL     1       3.407  63.415  14.379  1.00  0.00    -0.000 C 
BRANCH  15  16
ATOM     16  C   UNL     1       2.981  62.472  15.516  1.00  0.00    -0.000 C 
BRANCH  16  17
ATOM     17  C   UNL     1       3.886  62.595  16.754  1.00  0.00    -0.000 C 
BRANCH  17  18
ATOM     18  C   UNL     1       3.696  63.927  17.497  1.00  0.00    -0.000 C 
BRANCH  18  19
ATOM     19  C   UNL     1       5.011  64.702  17.665  1.00  0.00    -0.003 C 
ATOM     20  C   UNL     1       5.137  65.805  16.618  1.00  0.00     0.004 C 
ENDBRANCH  18  19
ENDBRANCH  17  18
ENDBRANCH  16  17
ENDBRANCH  15  16
ENDBRANCH  14  15
ENDBRANCH  13  14
ENDBRANCH  12  13
ENDBRANCH   1  12
TORSDOF 16
ENDMDL
MODEL 3
REMARK VINA RESULT:    -3.279      5.716      8.410
REMARK INTER + INTRA:          -8.318
REMARK INTER:                  -6.063
REMARK INTRA:                  -2.255
REMARK UNBOUND:                -1.972
REMARK SMILES CCCCCCCCCCCCCCCCCC(=O)[O-]
REMARK SMILES IDX 10 1 11 2 12 3 13 4 14 5 15 6 16 7 17 8 18 9 19 10 20 11
REMARK SMILES IDX 9 12 8 13 7 14 6 15 5 16 4 17 3 18 2 19 1 20
REMARK H PARENT
REMARK Flexibility Score: inf
ROOT
ATOM      1  C   UNL     1       2.994  69.674  12.834  1.00  0.00     0.000 C 
ENDROOT
BRANCH   1   2
ATOM      2  C   UNL     1       3.340  69.927  14.316  1.00  0.00     0.000 C 
BRANCH   2   3
ATOM      3  C   UNL     1       3.889  68.707  15.078  1.00  0.00     0.000 C 
BRANCH   3   4
ATOM      4  C   UNL     1       3.359  68.615  16.520  1.00  0.00     0.000 C 
BRANCH   4   5
ATOM      5  C   UNL     1       1.863  68.957  16.621  1.00  0.00     0.000 C 
BRANCH   5   6
ATOM      6  C   UNL     1       1.601  70.212  17.471  1.00  0.00     0.000 C 
BRANCH   6   7
ATOM      7  C   UNL     1       2.408  70.218  18.784  1.00  0.00     0.006 C 
BRANCH   7   8
ATOM      8  C   UNL     1       3.262  71.478  18.998  1.00  0.00     0.053 C 
BRANCH   8   9
ATOM      9  C   UNL     1       2.469  72.732  18.794  1.00  0.00     0.041 C 
ATOM     10  O   UNL     1       2.889  73.628  18.014  1.00  0.00    -0.550 OA
ATOM     11  O   UNL     1       1.281  72.926  19.488  1.00  0.00    -0.550 OA
ENDBRANCH   8   9
ENDBRANCH   7   8
ENDBRANCH   6   7
ENDBRANCH   5   6
ENDBRANCH   4   5
ENDBRANCH   3   4
ENDBRANCH   2   3
ENDBRANCH   1   2
BRANCH   1  12
ATOM     12  C   UNL     1       1.578  70.107  12.410  1.00  0.00     0.000 C 
BRANCH  12  13
ATOM     13  C   UNL     1       0.586  68.949  12.189  1.00  0.00    -0.000 C 
BRANCH  13  14
ATOM     14  C   UNL     1       0.209  68.197  13.484  1.00  0.00    -0.000 C 
BRANCH  14  15
ATOM     15  C   UNL     1       0.700  66.739  13.483  1.00  0.00    -0.000 C 
BRANCH  15  16
ATOM     16  C   UNL     1       1.330  66.329  12.143  1.00  0.00    -0.000 C 
BRANCH  16  17
ATOM     17  C   UNL     1       2.743  65.740  12.311  1.00  0.00    -0.000 C 
BRANCH  17  18
ATOM     18  C   UNL     1       3.072  65.401  13.773  1.00  0.00    -0.000 C 
BRANCH  18  19
ATOM     19  C   UNL     1       3.253  63.894  14.002  1.00  0.00    -0.003 C 
ATOM     20  C   UNL     1       2.076  63.311  14.779  1.00  0.00     0.004 C 
ENDBRANCH  18  19
ENDBRANCH  17  18
ENDBRANCH  16  17
ENDBRANCH  15  16
ENDBRANCH  14  15
ENDBRANCH  13  14
ENDBRANCH  12  13
ENDBRANCH   1  12
TORSDOF 16
ENDMDL
MODEL 4
REMARK VINA RESULT:    -3.274      6.086      8.597
REMARK INTER + INTRA:          -8.309
REMARK INTER:                  -5.404
REMARK INTRA:                  -2.905
REMARK UNBOUND:                -1.972
REMARK SMILES CCCCCCCCCCCCCCCCCC(=O)[O-]
REMARK SMILES IDX 10 1 11 2 12 3 13 4 14 5 15 6 16 7 17 8 18 9 19 10 20 11
REMARK SMILES IDX 9 12 8 13 7 14 6 15 5 16 4 17 3 18 2 19 1 20
REMARK H PARENT
REMARK Flexibility Score: inf
ROOT
ATOM      1  C   UNL     1       0.785  70.124  11.268  1.00  0.00     0.000 C 
ENDROOT
BRANCH   1   2
ATOM      2  C   UNL     1       0.082  69.722  12.582  1.00  0.00     0.000 C 
BRANCH   2   3
ATOM      3  C   UNL     1       0.671  68.488  13.290  1.00  0.00     0.000 C 
BRANCH   3   4
ATOM      4  C   UNL     1       0.931  68.727  14.788  1.00  0.00     0.000 C 
BRANCH   4   5
ATOM      5  C   UNL     1       2.312  68.220  15.235  1.00  0.00     0.000 C 
BRANCH   5   6
ATOM      6  C   UNL     1       3.305  69.366  15.495  1.00  0.00     0.000 C 
BRANCH   6   7
ATOM      7  C   UNL     1       2.658  70.556  16.230  1.00  0.00     0.006 C 
BRANCH   7   8
ATOM      8  C   UNL     1       2.591  70.398  17.757  1.00  0.00     0.053 C 
BRANCH   8   9
ATOM      9  C   UNL     1       2.443  71.718  18.450  1.00  0.00     0.041 C 
ATOM     10  O   UNL     1       3.376  72.564  18.411  1.00  0.00    -0.550 OA
ATOM     11  O   UNL     1       1.286  72.002  19.166  1.00  0.00    -0.550 OA
ENDBRANCH   8   9
ENDBRANCH   7   8
ENDBRANCH   6   7
ENDBRANCH   5   6
ENDBRANCH   4   5
ENDBRANCH   3   4
ENDBRANCH   2   3
ENDBRANCH   1   2
BRANCH   1  12
ATOM     12  C   UNL     1       1.634  71.406  11.344  1.00  0.00     0.000 C 
BRANCH  12  13
ATOM     13  C   UNL     1       2.193  71.731  12.743  1.00  0.00    -0.000 C 
BRANCH  13  14
ATOM     14  C   UNL     1       3.665  72.196  12.731  1.00  0.00    -0.000 C 
BRANCH  14  15
ATOM     15  C   UNL     1       4.540  71.361  11.780  1.00  0.00    -0.000 C 
BRANCH  15  16
ATOM     16  C   UNL     1       5.233  70.188  12.492  1.00  0.00    -0.000 C 
BRANCH  16  17
ATOM     17  C   UNL     1       5.248  68.906  11.640  1.00  0.00    -0.000 C 
BRANCH  17  18
ATOM     18  C   UNL     1       4.145  67.915  12.043  1.00  0.00    -0.000 C 
BRANCH  18  19
ATOM     19  C   UNL     1       3.303  67.450  10.846  1.00  0.00    -0.003 C 
ATOM     20  C   UNL     1       3.536  68.343   9.631  1.00  0.00     0.004 C 
ENDBRANCH  18  19
ENDBRANCH  17  18
ENDBRANCH  16  17
ENDBRANCH  15  16
ENDBRANCH  14  15
ENDBRANCH  13  14
ENDBRANCH  12  13
ENDBRANCH   1  12
TORSDOF 16
ENDMDL
MODEL 5
REMARK VINA RESULT:    -3.263      5.243      7.675
REMARK INTER + INTRA:          -8.288
REMARK INTER:                  -5.303
REMARK INTRA:                  -2.985
REMARK UNBOUND:                -1.972
REMARK SMILES CCCCCCCCCCCCCCCCCC(=O)[O-]
REMARK SMILES IDX 10 1 11 2 12 3 13 4 14 5 15 6 16 7 17 8 18 9 19 10 20 11
REMARK SMILES IDX 9 12 8 13 7 14 6 15 5 16 4 17 3 18 2 19 1 20
REMARK H PARENT
REMARK Flexibility Score: inf
ROOT
ATOM      1  C   UNL     1       4.174  68.474  14.972  1.00  0.00     0.000 C 
ENDROOT
BRANCH   1   2
ATOM      2  C   UNL     1       4.729  67.085  15.350  1.00  0.00     0.000 C 
BRANCH   2   3
ATOM      3  C   UNL     1       4.429  66.628  16.789  1.00  0.00     0.000 C 
BRANCH   3   4
ATOM      4  C   UNL     1       2.950  66.803  17.174  1.00  0.00     0.000 C 
BRANCH   4   5
ATOM      5  C   UNL     1       2.722  68.005  18.106  1.00  0.00     0.000 C 
BRANCH   5   6
ATOM      6  C   UNL     1       1.285  68.549  18.025  1.00  0.00     0.000 C 
BRANCH   6   7
ATOM      7  C   UNL     1       1.237  70.083  17.889  1.00  0.00     0.006 C 
BRANCH   7   8
ATOM      8  C   UNL     1       2.531  70.713  17.349  1.00  0.00     0.053 C 
BRANCH   8   9
ATOM      9  C   UNL     1       3.107  71.714  18.303  1.00  0.00     0.041 C 
ATOM     10  O   UNL     1       3.089  72.942  18.022  1.00  0.00    -0.550 OA
ATOM     11  O   UNL     1       3.691  71.287  19.490  1.00  0.00    -0.550 OA
ENDBRANCH   8   9
ENDBRANCH   7   8
ENDBRANCH   6   7
ENDBRANCH   5   6
ENDBRANCH   4   5
ENDBRANCH   3   4
ENDBRANCH   2   3
ENDBRANCH   1   2
BRANCH   1  12
ATOM     12  C   UNL     1       3.186  68.486  13.791  1.00  0.00     0.000 C 
BRANCH  12  13
ATOM     13  C   UNL     1       1.745  68.892  14.155  1.00  0.00    -0.000 C 
BRANCH  13  14
ATOM     14  C   UNL     1       0.812  67.694  14.430  1.00  0.00    -0.000 C 
BRANCH  14  15
ATOM     15  C   UNL     1       0.952  66.583  13.374  1.00  0.00    -0.000 C 
BRANCH  15  16
ATOM     16  C   UNL     1       1.308  65.222  13.993  1.00  0.00    -0.000 C 
BRANCH  16  17
ATOM     17  C   UNL     1       2.622  64.646  13.436  1.00  0.00    -0.000 C 
BRANCH  17  18
ATOM     18  C   UNL     1       3.352  63.750  14.448  1.00  0.00    -0.000 C 
BRANCH  18  19
ATOM     19  C   UNL     1       2.385  62.907  15.293  1.00  0.00    -0.003 C 
ATOM     20  C   UNL     1       2.687  63.051  16.782  1.00  0.00     0.004 C 
ENDBRANCH  18  19
ENDBRANCH  17  18
ENDBRANCH  16  17
ENDBRANCH  15  16
ENDBRANCH  14  15
ENDBRANCH  13  14
ENDBRANCH  12  13
ENDBRANCH   1  12
TORSDOF 16
ENDMDL
MODEL 6
REMARK VINA RESULT:    -3.259      5.438      7.978
REMARK INTER + INTRA:          -8.280
REMARK INTER:                  -5.540
REMARK INTRA:                  -2.740
REMARK UNBOUND:                -1.972
REMARK SMILES CCCCCCCCCCCCCCCCCC(=O)[O-]
REMARK SMILES IDX 10 1 11 2 12 3 13 4 14 5 15 6 16 7 17 8 18 9 19 10 20 11
REMARK SMILES IDX 9 12 8 13 7 14 6 15 5 16 4 17 3 18 2 19 1 20
REMARK H PARENT
REMARK Flexibility Score: inf
ROOT
ATOM      1  C   UNL     1       3.439  64.427  18.513  1.00  0.00     0.000 C 
ENDROOT
BRANCH   1   2
ATOM      2  C   UNL     1       2.392  65.520  18.815  1.00  0.00     0.000 C 
BRANCH   2   3
ATOM      3  C   UNL     1       1.101  65.440  17.980  1.00  0.00     0.000 C 
BRANCH   3   4
ATOM      4  C   UNL     1       0.649  66.812  17.448  1.00  0.00     0.000 C 
BRANCH   4   5
ATOM      5  C   UNL     1       1.686  67.917  17.708  1.00  0.00     0.000 C 
BRANCH   5   6
ATOM      6  C   UNL     1       1.141  69.321  17.399  1.00  0.00     0.000 C 
BRANCH   6   7
ATOM      7  C   UNL     1       0.715  70.085  18.668  1.00  0.00     0.006 C 
BRANCH   7   8
ATOM      8  C   UNL     1       1.411  71.443  18.855  1.00  0.00     0.053 C 
BRANCH   8   9
ATOM      9  C   UNL     1       2.879  71.289  19.110  1.00  0.00     0.041 C 
ATOM     10  O   UNL     1       3.701  72.086  18.585  1.00  0.00    -0.550 OA
ATOM     11  O   UNL     1       3.341  70.247  19.905  1.00  0.00    -0.550 OA
ENDBRANCH   8   9
ENDBRANCH   7   8
ENDBRANCH   6   7
ENDBRANCH   5   6
ENDBRANCH   4   5
ENDBRANCH   3   4
ENDBRANCH   2   3
ENDBRANCH   1   2
BRANCH   1  12
ATOM     12  C   UNL     1       2.900  63.193  17.765  1.00  0.00     0.000 C 
BRANCH  12  13
ATOM     13  C   UNL     1       3.944  62.444  16.916  1.00  0.00    -0.000 C 
BRANCH  13  14
ATOM     14  C   UNL     1       3.472  62.138  15.478  1.00  0.00    -0.000 C 
BRANCH  14  15
ATOM     15  C   UNL     1       2.381  63.110  14.996  1.00  0.00    -0.000 C 
BRANCH  15  16
ATOM     16  C   UNL     1       2.941  64.231  14.107  1.00  0.00    -0.000 C 
BRANCH  16  17
ATOM     17  C   UNL     1       2.694  65.632  14.697  1.00  0.00    -0.000 C 
BRANCH  17  18
ATOM     18  C   UNL     1       3.961  66.246  15.311  1.00  0.00    -0.000 C 
BRANCH  18  19
ATOM     19  C   UNL     1       5.239  65.504  14.893  1.00  0.00    -0.003 C 
ATOM     20  C   UNL     1       6.165  65.290  16.086  1.00  0.00     0.004 C 
ENDBRANCH  18  19
ENDBRANCH  17  18
ENDBRANCH  16  17
ENDBRANCH  15  16
ENDBRANCH  14  15
ENDBRANCH  13  14
ENDBRANCH  12  13
ENDBRANCH   1  12
TORSDOF 16
ENDMDL
MODEL 7
REMARK VINA RESULT:    -3.237      3.989      5.733
REMARK INTER + INTRA:          -8.237
REMARK INTER:                  -5.217
REMARK INTRA:                  -3.020
REMARK UNBOUND:                -1.972
REMARK SMILES CCCCCCCCCCCCCCCCCC(=O)[O-]
REMARK SMILES IDX 10 1 11 2 12 3 13 4 14 5 15 6 16 7 17 8 18 9 19 10 20 11
REMARK SMILES IDX 9 12 8 13 7 14 6 15 5 16 4 17 3 18 2 19 1 20
REMARK H PARENT
REMARK Flexibility Score: inf
ROOT
ATOM      1  C   UNL     1       0.750  65.172  16.213  1.00  0.00     0.000 C 
ENDROOT
BRANCH   1   2
ATOM      2  C   UNL     1       1.051  64.333  14.953  1.00  0.00     0.000 C 
BRANCH   2   3
ATOM      3  C   UNL     1       1.902  63.073  15.192  1.00  0.00     0.000 C 
BRANCH   3   4
ATOM      4  C   UNL     1       3.353  63.231  14.705  1.00  0.00     0.000 C 
BRANCH   4   5
ATOM      5  C   UNL     1       3.545  64.472  13.816  1.00  0.00     0.000 C 
BRANCH   5   6
ATOM      6  C   UNL     1       4.606  65.437  14.373  1.00  0.00     0.000 C 
BRANCH   6   7
ATOM      7  C   UNL     1       4.438  66.874  13.843  1.00  0.00     0.006 C 
BRANCH   7   8
ATOM      8  C   UNL     1       4.798  67.971  14.859  1.00  0.00     0.053 C 
BRANCH   8   9
ATOM      9  C   UNL     1       3.828  69.111  14.817  1.00  0.00     0.041 C 
ATOM     10  O   UNL     1       3.555  69.673  13.723  1.00  0.00    -0.550 OA
ATOM     11  O   UNL     1       3.246  69.573  15.991  1.00  0.00    -0.550 OA
ENDBRANCH   8   9
ENDBRANCH   7   8
ENDBRANCH   6   7
ENDBRANCH   5   6
ENDBRANCH   4   5
ENDBRANCH   3   4
ENDBRANCH   2   3
ENDBRANCH   1   2
BRANCH   1  12
ATOM     12  C   UNL     1       1.598  66.449  16.367  1.00  0.00     0.000 C 
BRANCH  12  13
ATOM     13  C   UNL     1       2.655  66.394  17.486  1.00  0.00    -0.000 C 
BRANCH  13  14
ATOM     14  C   UNL     1       2.684  65.052  18.248  1.00  0.00    -0.000 C 
BRANCH  14  15
ATOM     15  C   UNL     1       4.028  64.318  18.099  1.00  0.00    -0.000 C 
BRANCH  15  16
ATOM     16  C   UNL     1       5.235  65.250  18.292  1.00  0.00    -0.000 C 
BRANCH  16  17
ATOM     17  C   UNL     1       6.440  64.842  17.425  1.00  0.00    -0.000 C 
BRANCH  17  18
ATOM     18  C   UNL     1       6.372  63.376  16.970  1.00  0.00    -0.000 C 
BRANCH  18  19
ATOM     19  C   UNL     1       7.635  62.584  17.339  1.00  0.00    -0.003 C 
ATOM     20  C   UNL     1       8.890  63.431  17.147  1.00  0.00     0.004 C 
ENDBRANCH  18  19
ENDBRANCH  17  18
ENDBRANCH  16  17
ENDBRANCH  15  16
ENDBRANCH  14  15
ENDBRANCH  13  14
ENDBRANCH  12  13
ENDBRANCH   1  12
TORSDOF 16
ENDMDL
MODEL 8
REMARK VINA RESULT:    -3.222      6.470      9.336
REMARK INTER + INTRA:          -8.208
REMARK INTER:                  -5.708
REMARK INTRA:                  -2.499
REMARK UNBOUND:                -1.972
REMARK SMILES CCCCCCCCCCCCCCCCCC(=O)[O-]
REMARK SMILES IDX 10 1 11 2 12 3 13 4 14 5 15 6 16 7 17 8 18 9 19 10 20 11
REMARK SMILES IDX 9 12 8 13 7 14 6 15 5 16 4 17 3 18 2 19 1 20
REMARK H PARENT
REMARK Flexibility Score: inf
ROOT
ATOM      1  C   UNL     1       5.284  68.799  11.994  1.00  0.00     0.000 C 
ENDROOT
BRANCH   1   2
ATOM      2  C   UNL     1       4.521  68.140  13.162  1.00  0.00     0.000 C 
BRANCH   2   3
ATOM      3  C   UNL     1       3.763  69.114  14.083  1.00  0.00     0.000 C 
BRANCH   3   4
ATOM      4  C   UNL     1       2.327  68.653  14.387  1.00  0.00     0.000 C 
BRANCH   4   5
ATOM      5  C   UNL     1       1.642  69.522  15.455  1.00  0.00     0.000 C 
BRANCH   5   6
ATOM      6  C   UNL     1       2.264  69.338  16.850  1.00  0.00     0.000 C 
BRANCH   6   7
ATOM      7  C   UNL     1       1.808  70.418  17.851  1.00  0.00     0.006 C 
BRANCH   7   8
ATOM      8  C   UNL     1       2.919  71.384  18.292  1.00  0.00     0.053 C 
BRANCH   8   9
ATOM      9  C   UNL     1       2.381  72.743  18.618  1.00  0.00     0.041 C 
ATOM     10  O   UNL     1       2.906  73.772  18.112  1.00  0.00    -0.550 OA
ATOM     11  O   UNL     1       1.319  72.878  19.503  1.00  0.00    -0.550 OA
ENDBRANCH   8   9
ENDBRANCH   7   8
ENDBRANCH   6   7
ENDBRANCH   5   6
ENDBRANCH   4   5
ENDBRANCH   3   4
ENDBRANCH   2   3
ENDBRANCH   1   2
BRANCH   1  12
ATOM     12  C   UNL     1       5.476  70.322  12.114  1.00  0.00     0.000 C 
BRANCH  12  13
ATOM     13  C   UNL     1       5.105  71.123  10.851  1.00  0.00    -0.000 C 
BRANCH  13  14
ATOM     14  C   UNL     1       4.301  72.407  11.142  1.00  0.00    -0.000 C 
BRANCH  14  15
ATOM     15  C   UNL     1       3.662  72.398  12.542  1.00  0.00    -0.000 C 
BRANCH  15  16
ATOM     16  C   UNL     1       2.166  72.044  12.507  1.00  0.00    -0.000 C 
BRANCH  16  17
ATOM     17  C   UNL     1       1.552  72.220  11.106  1.00  0.00    -0.000 C 
BRANCH  17  18
ATOM     18  C   UNL     1       0.840  70.952  10.610  1.00  0.00    -0.000 C 
BRANCH  18  19
ATOM     19  C   UNL     1       1.580  69.666  11.007  1.00  0.00    -0.003 C 
ATOM     20  C   UNL     1       2.254  69.024   9.798  1.00  0.00     0.004 C 
ENDBRANCH  18  19
ENDBRANCH  17  18
ENDBRANCH  16  17
ENDBRANCH  15  16
ENDBRANCH  14  15
ENDBRANCH  13  14
ENDBRANCH  12  13
ENDBRANCH   1  12
TORSDOF 16
ENDMDL
MODEL 9
REMARK VINA RESULT:    -3.148      3.267      6.537
REMARK INTER + INTRA:          -8.065
REMARK INTER:                  -4.762
REMARK INTRA:                  -3.303
REMARK UNBOUND:                -1.972
REMARK SMILES CCCCCCCCCCCCCCCCCC(=O)[O-]
REMARK SMILES IDX 10 1 11 2 12 3 13 4 14 5 15 6 16 7 17 8 18 9 19 10 20 11
REMARK SMILES IDX 9 12 8 13 7 14 6 15 5 16 4 17 3 18 2 19 1 20
REMARK H PARENT
REMARK Flexibility Score: inf
ROOT
ATOM      1  C   UNL     1       1.258  67.768  14.261  1.00  0.00     0.000 C 
ENDROOT
BRANCH   1   2
ATOM      2  C   UNL     1       1.751  69.132  14.789  1.00  0.00     0.000 C 
BRANCH   2   3
ATOM      3  C   UNL     1       3.168  69.128  15.393  1.00  0.00     0.000 C 
BRANCH   3   4
ATOM      4  C   UNL     1       3.591  67.744  15.914  1.00  0.00     0.000 C 
BRANCH   4   5
ATOM      5  C   UNL     1       4.924  67.269  15.310  1.00  0.00     0.000 C 
BRANCH   5   6
ATOM      6  C   UNL     1       4.825  65.860  14.701  1.00  0.00     0.000 C 
BRANCH   6   7
ATOM      7  C   UNL     1       3.629  65.058  15.248  1.00  0.00     0.006 C 
BRANCH   7   8
ATOM      8  C   UNL     1       3.281  63.802  14.433  1.00  0.00     0.053 C 
BRANCH   8   9
ATOM      9  C   UNL     1       3.079  62.604  15.309  1.00  0.00     0.041 C 
ATOM     10  O   UNL     1       2.028  62.490  15.995  1.00  0.00    -0.550 OA
ATOM     11  O   UNL     1       4.064  61.628  15.392  1.00  0.00    -0.550 OA
ENDBRANCH   8   9
ENDBRANCH   7   8
ENDBRANCH   6   7
ENDBRANCH   5   6
ENDBRANCH   4   5
ENDBRANCH   3   4
ENDBRANCH   2   3
ENDBRANCH   1   2
BRANCH   1  12
ATOM     12  C   UNL     1       0.596  67.805  12.871  1.00  0.00     0.000 C 
BRANCH  12  13
ATOM     13  C   UNL     1       1.061  66.700  11.903  1.00  0.00    -0.000 C 
BRANCH  13  14
ATOM     14  C   UNL     1       2.584  66.449  11.931  1.00  0.00    -0.000 C 
BRANCH  14  15
ATOM     15  C   UNL     1       3.352  67.379  10.975  1.00  0.00    -0.000 C 
BRANCH  15  16
ATOM     16  C   UNL     1       4.422  68.214  11.697  1.00  0.00    -0.000 C 
BRANCH  16  17
ATOM     17  C   UNL     1       3.990  69.678  11.900  1.00  0.00    -0.000 C 
BRANCH  17  18
ATOM     18  C   UNL     1       2.830  70.086  10.978  1.00  0.00    -0.000 C 
BRANCH  18  19
ATOM     19  C   UNL     1       1.894  71.115  11.629  1.00  0.00    -0.003 C 
ATOM     20  C   UNL     1       2.660  72.034  12.575  1.00  0.00     0.004 C 
ENDBRANCH  18  19
ENDBRANCH  17  18
ENDBRANCH  16  17
ENDBRANCH  15  16
ENDBRANCH  14  15
ENDBRANCH  13  14
ENDBRANCH  12  13
ENDBRANCH   1  12
TORSDOF 16
ENDMDL
