MODEL 1
REMARK VINA RESULT:    -4.630      0.000      0.000
REMARK INTER + INTRA:          -5.224
REMARK INTER:                  -4.900
REMARK INTRA:                  -0.323
REMARK UNBOUND:                -0.323
REMARK SMILES c1ccc(-c2ccccc2)cc1
REMARK SMILES IDX 1 1 2 2 3 3 4 4 11 5 12 6 5 7 6 8 10 9 7 10 9 11 8 12
REMARK H PARENT
REMARK Flexibility Score: inf
ROOT
ATOM      1  C   UNL     1       7.662  -4.601  -3.278  1.00  0.00     0.000 A 
ATOM      2  C   UNL     1       8.376  -4.126  -2.175  1.00  0.00     0.001 A 
ATOM      3  C   UNL     1       8.367  -2.763  -1.868  1.00  0.00     0.009 A 
ATOM      4  C   UNL     1       7.640  -1.856  -2.663  1.00  0.00    -0.018 A 
ATOM      5  C   UNL     1       6.924  -2.347  -3.772  1.00  0.00     0.009 A 
ATOM      6  C   UNL     1       6.937  -3.712  -4.076  1.00  0.00     0.001 A 
ENDROOT
BRANCH   4   7
ATOM      7  C   UNL     1       7.629  -0.407  -2.340  1.00  0.00    -0.018 A 
ATOM      8  C   UNL     1       6.894   0.498  -3.131  1.00  0.00     0.009 A 
ATOM      9  C   UNL     1       8.354   0.087  -1.239  1.00  0.00     0.009 A 
ATOM     10  C   UNL     1       6.886   1.862  -2.825  1.00  0.00     0.001 A 
ATOM     11  C   UNL     1       8.342   1.453  -0.937  1.00  0.00     0.001 A 
ATOM     12  C   UNL     1       7.610   2.339  -1.729  1.00  0.00     0.000 A 
ENDBRANCH   4   7
TORSDOF 1
ENDMDL
MODEL 2
REMARK VINA RESULT:    -4.607      0.878      4.624
REMARK INTER + INTRA:          -5.200
REMARK INTER:                  -4.877
REMARK INTRA:                  -0.323
REMARK UNBOUND:                -0.323
REMARK SMILES c1ccc(-c2ccccc2)cc1
REMARK SMILES IDX 1 1 2 2 3 3 4 4 11 5 12 6 5 7 6 8 10 9 7 10 9 11 8 12
REMARK H PARENT
REMARK Flexibility Score: inf
ROOT
ATOM      1  C   UNL     1       6.422   2.233  -3.337  1.00  0.00     0.000 A 
ATOM      2  C   UNL     1       7.278   1.981  -2.263  1.00  0.00     0.001 A 
ATOM      3  C   UNL     1       7.701   0.676  -1.995  1.00  0.00     0.009 A 
ATOM      4  C   UNL     1       7.270  -0.394  -2.801  1.00  0.00    -0.018 A 
ATOM      5  C   UNL     1       6.406  -0.127  -3.881  1.00  0.00     0.009 A 
ATOM      6  C   UNL     1       5.985   1.181  -4.145  1.00  0.00     0.001 A 
ENDROOT
BRANCH   4   7
ATOM      7  C   UNL     1       7.717  -1.782  -2.518  1.00  0.00    -0.018 A 
ATOM      8  C   UNL     1       7.336  -2.842  -3.363  1.00  0.00     0.009 A 
ATOM      9  C   UNL     1       8.526  -2.060  -1.401  1.00  0.00     0.009 A 
ATOM     10  C   UNL     1       7.758  -4.149  -3.094  1.00  0.00     0.001 A 
ATOM     11  C   UNL     1       8.945  -3.368  -1.136  1.00  0.00     0.001 A 
ATOM     12  C   UNL     1       8.561  -4.410  -1.982  1.00  0.00     0.000 A 
ENDBRANCH   4   7
TORSDOF 1
ENDMDL
MODEL 3
REMARK VINA RESULT:    -4.597      0.612      4.982
REMARK INTER + INTRA:          -5.189
REMARK INTER:                  -4.865
REMARK INTRA:                  -0.323
REMARK UNBOUND:                -0.323
REMARK SMILES c1ccc(-c2ccccc2)cc1
REMARK SMILES IDX 1 1 2 2 3 3 4 4 11 5 12 6 5 7 6 8 10 9 7 10 9 11 8 12
REMARK H PARENT
REMARK Flexibility Score: inf
ROOT
ATOM      1  C   UNL     1       7.563   1.774  -1.983  1.00  0.00     0.000 A 
ATOM      2  C   UNL     1       8.327   0.931  -1.173  1.00  0.00     0.001 A 
ATOM      3  C   UNL     1       8.357  -0.444  -1.424  1.00  0.00     0.009 A 
ATOM      4  C   UNL     1       7.620  -0.992  -2.491  1.00  0.00    -0.018 A 
ATOM      5  C   UNL     1       6.854  -0.131  -3.300  1.00  0.00     0.009 A 
ATOM      6  C   UNL     1       6.827   1.244  -3.045  1.00  0.00     0.001 A 
ENDROOT
BRANCH   4   7
ATOM      7  C   UNL     1       7.650  -2.452  -2.759  1.00  0.00    -0.018 A 
ATOM      8  C   UNL     1       8.407  -3.315  -1.944  1.00  0.00     0.009 A 
ATOM      9  C   UNL     1       6.922  -2.997  -3.834  1.00  0.00     0.009 A 
ATOM     10  C   UNL     1       8.434  -4.690  -2.200  1.00  0.00     0.001 A 
ATOM     11  C   UNL     1       6.952  -4.373  -4.085  1.00  0.00     0.001 A 
ATOM     12  C   UNL     1       7.707  -5.218  -3.269  1.00  0.00     0.000 A 
ENDBRANCH   4   7
TORSDOF 1
ENDMDL
MODEL 4
REMARK VINA RESULT:    -4.596      0.488      2.035
REMARK INTER + INTRA:          -5.188
REMARK INTER:                  -4.865
REMARK INTRA:                  -0.323
REMARK UNBOUND:                -0.323
REMARK SMILES c1ccc(-c2ccccc2)cc1
REMARK SMILES IDX 1 1 2 2 3 3 4 4 11 5 12 6 5 7 6 8 10 9 7 10 9 11 8 12
REMARK H PARENT
REMARK Flexibility Score: inf
ROOT
ATOM      1  C   UNL     1       7.643  -4.142  -3.243  1.00  0.00     0.000 A 
ATOM      2  C   UNL     1       6.961  -3.195  -4.011  1.00  0.00     0.001 A 
ATOM      3  C   UNL     1       6.980  -1.847  -3.641  1.00  0.00     0.009 A 
ATOM      4  C   UNL     1       7.685  -1.430  -2.497  1.00  0.00    -0.018 A 
ATOM      5  C   UNL     1       8.369  -2.394  -1.731  1.00  0.00     0.009 A 
ATOM      6  C   UNL     1       8.346  -3.742  -2.104  1.00  0.00     0.001 A 
ENDROOT
BRANCH   4   7
ATOM      7  C   UNL     1       7.707   0.001  -2.101  1.00  0.00    -0.018 A 
ATOM      8  C   UNL     1       8.439   0.421  -0.974  1.00  0.00     0.009 A 
ATOM      9  C   UNL     1       6.994   0.960  -2.846  1.00  0.00     0.009 A 
ATOM     10  C   UNL     1       8.457   1.770  -0.604  1.00  0.00     0.001 A 
ATOM     11  C   UNL     1       7.016   2.308  -2.470  1.00  0.00     0.001 A 
ATOM     12  C   UNL     1       7.746   2.711  -1.351  1.00  0.00     0.000 A 
ENDBRANCH   4   7
TORSDOF 1
ENDMDL
MODEL 5
REMARK VINA RESULT:    -4.591      0.563      1.507
REMARK INTER + INTRA:          -5.182
REMARK INTER:                  -4.859
REMARK INTRA:                  -0.323
REMARK UNBOUND:                -0.323
REMARK SMILES c1ccc(-c2ccccc2)cc1
REMARK SMILES IDX 1 1 2 2 3 3 4 4 11 5 12 6 5 7 6 8 10 9 7 10 9 11 8 12
REMARK H PARENT
REMARK Flexibility Score: inf
ROOT
ATOM      1  C   UNL     1       7.622  -4.032  -3.260  1.00  0.00     0.000 A 
ATOM      2  C   UNL     1       8.337  -3.586  -2.147  1.00  0.00     0.001 A 
ATOM      3  C   UNL     1       8.330  -2.231  -1.806  1.00  0.00     0.009 A 
ATOM      4  C   UNL     1       7.605  -1.303  -2.578  1.00  0.00    -0.018 A 
ATOM      5  C   UNL     1       6.888  -1.766  -3.698  1.00  0.00     0.009 A 
ATOM      6  C   UNL     1       6.899  -3.123  -4.036  1.00  0.00     0.001 A 
ENDROOT
BRANCH   4   7
ATOM      7  C   UNL     1       7.596   0.138  -2.219  1.00  0.00    -0.018 A 
ATOM      8  C   UNL     1       8.313   0.600  -1.098  1.00  0.00     0.009 A 
ATOM      9  C   UNL     1       6.870   1.064  -2.991  1.00  0.00     0.009 A 
ATOM     10  C   UNL     1       8.302   1.958  -0.762  1.00  0.00     0.001 A 
ATOM     11  C   UNL     1       6.862   2.420  -2.650  1.00  0.00     0.001 A 
ATOM     12  C   UNL     1       7.577   2.866  -1.537  1.00  0.00     0.000 A 
ENDBRANCH   4   7
TORSDOF 1
ENDMDL
MODEL 6
REMARK VINA RESULT:    -4.590      0.559      1.505
REMARK INTER + INTRA:          -5.181
REMARK INTER:                  -4.858
REMARK INTRA:                  -0.323
REMARK UNBOUND:                -0.323
REMARK SMILES c1ccc(-c2ccccc2)cc1
REMARK SMILES IDX 1 1 2 2 3 3 4 4 11 5 12 6 5 7 6 8 10 9 7 10 9 11 8 12
REMARK H PARENT
REMARK Flexibility Score: inf
ROOT
ATOM      1  C   UNL     1       7.623  -4.043  -3.247  1.00  0.00     0.000 A 
ATOM      2  C   UNL     1       6.897  -3.120  -4.002  1.00  0.00     0.001 A 
ATOM      3  C   UNL     1       6.902  -1.767  -3.651  1.00  0.00     0.009 A 
ATOM      4  C   UNL     1       7.637  -1.322  -2.536  1.00  0.00    -0.018 A 
ATOM      5  C   UNL     1       8.366  -2.262  -1.783  1.00  0.00     0.009 A 
ATOM      6  C   UNL     1       8.357  -3.615  -2.138  1.00  0.00     0.001 A 
ENDROOT
BRANCH   4   7
ATOM      7  C   UNL     1       7.645   0.115  -2.160  1.00  0.00    -0.018 A 
ATOM      8  C   UNL     1       6.935   1.059  -2.926  1.00  0.00     0.009 A 
ATOM      9  C   UNL     1       8.362   0.556  -1.032  1.00  0.00     0.009 A 
ATOM     10  C   UNL     1       6.945   2.412  -2.570  1.00  0.00     0.001 A 
ATOM     11  C   UNL     1       8.368   1.910  -0.680  1.00  0.00     0.001 A 
ATOM     12  C   UNL     1       7.660   2.836  -1.448  1.00  0.00     0.000 A 
ENDBRANCH   4   7
TORSDOF 1
ENDMDL
MODEL 7
REMARK VINA RESULT:    -4.586      0.532      4.771
REMARK INTER + INTRA:          -5.177
REMARK INTER:                  -4.854
REMARK INTRA:                  -0.323
REMARK UNBOUND:                -0.323
REMARK SMILES c1ccc(-c2ccccc2)cc1
REMARK SMILES IDX 1 1 2 2 3 3 4 4 11 5 12 6 5 7 6 8 10 9 7 10 9 11 8 12
REMARK H PARENT
REMARK Flexibility Score: inf
ROOT
ATOM      1  C   UNL     1       7.648   2.789  -1.433  1.00  0.00     0.000 A 
ATOM      2  C   UNL     1       8.358   1.845  -0.688  1.00  0.00     0.001 A 
ATOM      3  C   UNL     1       8.344   0.499  -1.066  1.00  0.00     0.009 A 
ATOM      4  C   UNL     1       7.616   0.082  -2.197  1.00  0.00    -0.018 A 
ATOM      5  C   UNL     1       6.904   1.044  -2.939  1.00  0.00     0.009 A 
ATOM      6  C   UNL     1       6.921   2.390  -2.557  1.00  0.00     0.001 A 
ENDROOT
BRANCH   4   7
ATOM      7  C   UNL     1       7.598  -1.347  -2.600  1.00  0.00    -0.018 A 
ATOM      8  C   UNL     1       6.884  -1.760  -3.741  1.00  0.00     0.009 A 
ATOM      9  C   UNL     1       8.293  -2.312  -1.846  1.00  0.00     0.009 A 
ATOM     10  C   UNL     1       6.868  -3.106  -4.118  1.00  0.00     0.001 A 
ATOM     11  C   UNL     1       8.273  -3.658  -2.228  1.00  0.00     0.001 A 
ATOM     12  C   UNL     1       7.562  -4.054  -3.362  1.00  0.00     0.000 A 
ENDBRANCH   4   7
TORSDOF 1
ENDMDL
MODEL 8
REMARK VINA RESULT:    -4.586      0.579      4.975
REMARK INTER + INTRA:          -5.177
REMARK INTER:                  -4.854
REMARK INTRA:                  -0.323
REMARK UNBOUND:                -0.323
REMARK SMILES c1ccc(-c2ccccc2)cc1
REMARK SMILES IDX 1 1 2 2 3 3 4 4 11 5 12 6 5 7 6 8 10 9 7 10 9 11 8 12
REMARK H PARENT
REMARK Flexibility Score: inf
ROOT
ATOM      1  C   UNL     1       7.664   2.827  -1.414  1.00  0.00     0.000 A 
ATOM      2  C   UNL     1       6.940   2.439  -2.543  1.00  0.00     0.001 A 
ATOM      3  C   UNL     1       6.913   1.097  -2.932  1.00  0.00     0.009 A 
ATOM      4  C   UNL     1       7.613   0.124  -2.192  1.00  0.00    -0.018 A 
ATOM      5  C   UNL     1       8.339   0.529  -1.056  1.00  0.00     0.009 A 
ATOM      6  C   UNL     1       8.364   1.874  -0.671  1.00  0.00     0.001 A 
ENDROOT
BRANCH   4   7
ATOM      7  C   UNL     1       7.587  -1.302  -2.603  1.00  0.00    -0.018 A 
ATOM      8  C   UNL     1       6.864  -1.706  -3.742  1.00  0.00     0.009 A 
ATOM      9  C   UNL     1       8.283  -2.274  -1.859  1.00  0.00     0.009 A 
ATOM     10  C   UNL     1       6.841  -3.051  -4.126  1.00  0.00     0.001 A 
ATOM     11  C   UNL     1       8.256  -3.618  -2.248  1.00  0.00     0.001 A 
ATOM     12  C   UNL     1       7.536  -4.005  -3.379  1.00  0.00     0.000 A 
ENDBRANCH   4   7
TORSDOF 1
ENDMDL
MODEL 9
REMARK VINA RESULT:    -4.584      0.566      5.168
REMARK INTER + INTRA:          -5.175
REMARK INTER:                  -4.852
REMARK INTRA:                  -0.323
REMARK UNBOUND:                -0.323
REMARK SMILES c1ccc(-c2ccccc2)cc1
REMARK SMILES IDX 1 1 2 2 3 3 4 4 11 5 12 6 5 7 6 8 10 9 7 10 9 11 8 12
REMARK H PARENT
REMARK Flexibility Score: inf
ROOT
ATOM      1  C   UNL     1       7.652   2.834  -1.436  1.00  0.00     0.000 A 
ATOM      2  C   UNL     1       6.925   2.422  -2.555  1.00  0.00     0.001 A 
ATOM      3  C   UNL     1       6.909   1.074  -2.924  1.00  0.00     0.009 A 
ATOM      4  C   UNL     1       7.622   0.120  -2.174  1.00  0.00    -0.018 A 
ATOM      5  C   UNL     1       8.352   0.548  -1.049  1.00  0.00     0.009 A 
ATOM      6  C   UNL     1       8.366   1.899  -0.684  1.00  0.00     0.001 A 
ENDROOT
BRANCH   4   7
ATOM      7  C   UNL     1       7.608  -1.313  -2.564  1.00  0.00    -0.018 A 
ATOM      8  C   UNL     1       8.317  -2.267  -1.809  1.00  0.00     0.009 A 
ATOM      9  C   UNL     1       6.887  -1.740  -3.695  1.00  0.00     0.009 A 
ATOM     10  C   UNL     1       8.302  -3.616  -2.179  1.00  0.00     0.001 A 
ATOM     11  C   UNL     1       6.876  -3.090  -4.060  1.00  0.00     0.001 A 
ATOM     12  C   UNL     1       7.582  -4.026  -3.303  1.00  0.00     0.000 A 
ENDBRANCH   4   7
TORSDOF 1
ENDMDL
