MODEL 1
REMARK VINA RESULT:    -3.773      0.000      0.000
REMARK INTER + INTRA:          -4.472
REMARK INTER:                  -4.435
REMARK INTRA:                  -0.037
REMARK UNBOUND:                -0.037
REMARK SMILES O=C([O-])CCC(=O)[O-]
REMARK SMILES IDX 4 1 2 2 1 3 3 4 5 5 6 6 7 7 8 8
REMARK H PARENT
REMARK Flexibility Score: inf
ROOT
ATOM      1  C   UNL     1       2.459   0.509 -14.612  1.00  0.00     0.059 C 
ENDROOT
BRANCH   1   2
ATOM      2  C   UNL     1       1.455   0.902 -13.572  1.00  0.00     0.042 C 
ATOM      3  O   UNL     1       1.355   0.239 -12.505  1.00  0.00    -0.550 OA
ATOM      4  O   UNL     1       0.600   1.973 -13.798  1.00  0.00    -0.550 OA
ENDBRANCH   1   2
BRANCH   1   5
ATOM      5  C   UNL     1       2.536   1.544 -15.739  1.00  0.00     0.059 C 
BRANCH   5   6
ATOM      6  C   UNL     1       3.888   1.554 -16.387  1.00  0.00     0.042 C 
ATOM      7  O   UNL     1       4.009   1.265 -17.606  1.00  0.00    -0.550 OA
ATOM      8  O   UNL     1       5.018   1.844 -15.632  1.00  0.00    -0.550 OA
ENDBRANCH   5   6
ENDBRANCH   1   5
TORSDOF 3
ENDMDL
MODEL 2
REMARK VINA RESULT:    -3.769      0.104      4.227
REMARK INTER + INTRA:          -4.468
REMARK INTER:                  -4.428
REMARK INTRA:                  -0.040
REMARK UNBOUND:                -0.037
REMARK SMILES O=C([O-])CCC(=O)[O-]
REMARK SMILES IDX 4 1 2 2 1 3 3 4 5 5 6 6 7 7 8 8
REMARK H PARENT
REMARK Flexibility Score: inf
ROOT
ATOM      1  C   UNL     1       2.560   1.591 -15.786  1.00  0.00     0.059 C 
ENDROOT
BRANCH   1   2
ATOM      2  C   UNL     1       3.921   1.573 -16.411  1.00  0.00     0.042 C 
ATOM      3  O   UNL     1       4.942   1.817 -15.715  1.00  0.00    -0.550 OA
ATOM      4  O   UNL     1       4.059   1.328 -17.772  1.00  0.00    -0.550 OA
ENDBRANCH   1   2
BRANCH   1   5
ATOM      5  C   UNL     1       2.410   0.489 -14.732  1.00  0.00     0.059 C 
BRANCH   5   6
ATOM      6  C   UNL     1       1.453   0.888 -13.650  1.00  0.00     0.042 C 
ATOM      7  O   UNL     1       1.395   0.230 -12.579  1.00  0.00    -0.550 OA
ATOM      8  O   UNL     1       0.596   1.966 -13.843  1.00  0.00    -0.550 OA
ENDBRANCH   5   6
ENDBRANCH   1   5
TORSDOF 3
ENDMDL
MODEL 3
REMARK VINA RESULT:    -3.761      0.091      4.226
REMARK INTER + INTRA:          -4.458
REMARK INTER:                  -4.418
REMARK INTRA:                  -0.040
REMARK UNBOUND:                -0.037
REMARK SMILES O=C([O-])CCC(=O)[O-]
REMARK SMILES IDX 4 1 2 2 1 3 3 4 5 5 6 6 7 7 8 8
REMARK H PARENT
REMARK Flexibility Score: inf
ROOT
ATOM      1  C   UNL     1       2.482   1.514 -15.729  1.00  0.00     0.059 C 
ENDROOT
BRANCH   1   2
ATOM      2  C   UNL     1       3.843   1.516 -16.355  1.00  0.00     0.042 C 
ATOM      3  O   UNL     1       3.982   1.224 -17.572  1.00  0.00    -0.550 OA
ATOM      4  O   UNL     1       4.963   1.800 -15.583  1.00  0.00    -0.550 OA
ENDBRANCH   1   2
BRANCH   1   5
ATOM      5  C   UNL     1       2.387   0.497 -14.588  1.00  0.00     0.059 C 
BRANCH   5   6
ATOM      6  C   UNL     1       1.369   0.906 -13.568  1.00  0.00     0.042 C 
ATOM      7  O   UNL     1       0.620   1.896 -13.780  1.00  0.00    -0.550 OA
ATOM      8  O   UNL     1       1.274   0.217 -12.365  1.00  0.00    -0.550 OA
ENDBRANCH   5   6
ENDBRANCH   1   5
TORSDOF 3
ENDMDL
MODEL 4
REMARK VINA RESULT:    -3.662      1.289      1.581
REMARK INTER + INTRA:          -4.342
REMARK INTER:                  -4.313
REMARK INTRA:                  -0.029
REMARK UNBOUND:                -0.037
REMARK SMILES O=C([O-])CCC(=O)[O-]
REMARK SMILES IDX 4 1 2 2 1 3 3 4 5 5 6 6 7 7 8 8
REMARK H PARENT
REMARK Flexibility Score: inf
ROOT
ATOM      1  C   UNL     1       3.284   0.492 -13.618  1.00  0.00     0.059 C 
ENDROOT
BRANCH   1   2
ATOM      2  C   UNL     1       2.299   0.083 -12.567  1.00  0.00     0.042 C 
ATOM      3  O   UNL     1       2.664  -0.640 -11.602  1.00  0.00    -0.550 OA
ATOM      4  O   UNL     1       0.967   0.465 -12.674  1.00  0.00    -0.550 OA
ENDBRANCH   1   2
BRANCH   1   5
ATOM      5  C   UNL     1       2.631   0.576 -15.001  1.00  0.00     0.059 C 
BRANCH   5   6
ATOM      6  C   UNL     1       3.598   1.058 -16.039  1.00  0.00     0.042 C 
ATOM      7  O   UNL     1       3.630   2.275 -16.359  1.00  0.00    -0.550 OA
ATOM      8  O   UNL     1       4.436   0.155 -16.682  1.00  0.00    -0.550 OA
ENDBRANCH   5   6
ENDBRANCH   1   5
TORSDOF 3
ENDMDL
MODEL 5
REMARK VINA RESULT:    -3.660      1.631      4.223
REMARK INTER + INTRA:          -4.339
REMARK INTER:                  -4.294
REMARK INTRA:                  -0.045
REMARK UNBOUND:                -0.037
REMARK SMILES O=C([O-])CCC(=O)[O-]
REMARK SMILES IDX 4 1 2 2 1 3 3 4 5 5 6 6 7 7 8 8
REMARK H PARENT
REMARK Flexibility Score: inf
ROOT
ATOM      1  C   UNL     1       2.110   0.749 -14.504  1.00  0.00     0.059 C 
ENDROOT
BRANCH   1   2
ATOM      2  C   UNL     1       3.577   0.534 -14.719  1.00  0.00     0.042 C 
ATOM      3  O   UNL     1       4.386   0.683 -13.766  1.00  0.00    -0.550 OA
ATOM      4  O   UNL     1       4.054   0.208 -15.983  1.00  0.00    -0.550 OA
ENDBRANCH   1   2
BRANCH   1   5
ATOM      5  C   UNL     1       1.730   0.605 -13.027  1.00  0.00     0.059 C 
BRANCH   5   6
ATOM      6  C   UNL     1       0.668   1.585 -12.632  1.00  0.00     0.042 C 
ATOM      7  O   UNL     1      -0.341   1.757 -13.365  1.00  0.00    -0.550 OA
ATOM      8  O   UNL     1       0.812   2.338 -11.473  1.00  0.00    -0.550 OA
ENDBRANCH   5   6
ENDBRANCH   1   5
TORSDOF 3
ENDMDL
MODEL 6
REMARK VINA RESULT:    -3.657      1.231      1.325
REMARK INTER + INTRA:          -4.336
REMARK INTER:                  -4.300
REMARK INTRA:                  -0.036
REMARK UNBOUND:                -0.037
REMARK SMILES O=C([O-])CCC(=O)[O-]
REMARK SMILES IDX 4 1 2 2 1 3 3 4 5 5 6 6 7 7 8 8
REMARK H PARENT
REMARK Flexibility Score: inf
ROOT
ATOM      1  C   UNL     1       2.130   0.717 -14.506  1.00  0.00     0.059 C 
ENDROOT
BRANCH   1   2
ATOM      2  C   UNL     1       1.806   0.379 -13.084  1.00  0.00     0.042 C 
ATOM      3  O   UNL     1       2.634  -0.257 -12.379  1.00  0.00    -0.550 OA
ATOM      4  O   UNL     1       0.573   0.730 -12.548  1.00  0.00    -0.550 OA
ENDBRANCH   1   2
BRANCH   1   5
ATOM      5  C   UNL     1       3.587   0.385 -14.847  1.00  0.00     0.059 C 
BRANCH   5   6
ATOM      6  C   UNL     1       4.000   0.996 -16.152  1.00  0.00     0.042 C 
ATOM      7  O   UNL     1       4.721   0.348 -16.955  1.00  0.00    -0.550 OA
ATOM      8  O   UNL     1       3.621   2.296 -16.462  1.00  0.00    -0.550 OA
ENDBRANCH   5   6
ENDBRANCH   1   5
TORSDOF 3
ENDMDL
MODEL 7
REMARK VINA RESULT:    -3.656      1.617      2.141
REMARK INTER + INTRA:          -4.335
REMARK INTER:                  -4.289
REMARK INTRA:                  -0.046
REMARK UNBOUND:                -0.037
REMARK SMILES O=C([O-])CCC(=O)[O-]
REMARK SMILES IDX 4 1 2 2 1 3 3 4 5 5 6 6 7 7 8 8
REMARK H PARENT
REMARK Flexibility Score: inf
ROOT
ATOM      1  C   UNL     1       1.819   0.520 -12.973  1.00  0.00     0.059 C 
ENDROOT
BRANCH   1   2
ATOM      2  C   UNL     1       0.762   1.495 -12.554  1.00  0.00     0.042 C 
ATOM      3  O   UNL     1       0.893   2.151 -11.487  1.00  0.00    -0.550 OA
ATOM      4  O   UNL     1      -0.386   1.649 -13.320  1.00  0.00    -0.550 OA
ENDBRANCH   1   2
BRANCH   1   5
ATOM      5  C   UNL     1       2.169   0.671 -14.457  1.00  0.00     0.059 C 
BRANCH   5   6
ATOM      6  C   UNL     1       3.640   0.515 -14.695  1.00  0.00     0.042 C 
ATOM      7  O   UNL     1       4.458   0.688 -13.754  1.00  0.00    -0.550 OA
ATOM      8  O   UNL     1       4.110   0.215 -15.968  1.00  0.00    -0.550 OA
ENDBRANCH   5   6
ENDBRANCH   1   5
TORSDOF 3
ENDMDL
MODEL 8
REMARK VINA RESULT:    -3.630      1.198      4.290
REMARK INTER + INTRA:          -4.304
REMARK INTER:                  -4.272
REMARK INTRA:                  -0.032
REMARK UNBOUND:                -0.037
REMARK SMILES O=C([O-])CCC(=O)[O-]
REMARK SMILES IDX 4 1 2 2 1 3 3 4 5 5 6 6 7 7 8 8
REMARK H PARENT
REMARK Flexibility Score: inf
ROOT
ATOM      1  C   UNL     1       2.522   0.552 -15.071  1.00  0.00     0.059 C 
ENDROOT
BRANCH   1   2
ATOM      2  C   UNL     1       3.592   0.947 -16.042  1.00  0.00     0.042 C 
ATOM      3  O   UNL     1       4.380   0.080 -16.505  1.00  0.00    -0.550 OA
ATOM      4  O   UNL     1       3.747   2.280 -16.403  1.00  0.00    -0.550 OA
ENDBRANCH   1   2
BRANCH   1   5
ATOM      5  C   UNL     1       3.053   0.503 -13.635  1.00  0.00     0.059 C 
BRANCH   5   6
ATOM      6  C   UNL     1       1.938   0.487 -12.635  1.00  0.00     0.042 C 
ATOM      7  O   UNL     1       2.157   0.140 -11.445  1.00  0.00    -0.550 OA
ATOM      8  O   UNL     1       0.647   0.820 -13.028  1.00  0.00    -0.550 OA
ENDBRANCH   5   6
ENDBRANCH   1   5
TORSDOF 3
ENDMDL
MODEL 9
REMARK VINA RESULT:    -3.381      2.847      3.587
REMARK INTER + INTRA:          -4.011
REMARK INTER:                  -3.975
REMARK INTRA:                  -0.036
REMARK UNBOUND:                -0.037
REMARK SMILES O=C([O-])CCC(=O)[O-]
REMARK SMILES IDX 4 1 2 2 1 3 3 4 5 5 6 6 7 7 8 8
REMARK H PARENT
REMARK Flexibility Score: inf
ROOT
ATOM      1  C   UNL     1       1.070   0.717 -12.609  1.00  0.00     0.059 C 
ENDROOT
BRANCH   1   2
ATOM      2  C   UNL     1       0.177   1.643 -13.377  1.00  0.00     0.042 C 
ATOM      3  O   UNL     1       0.663   2.421 -14.240  1.00  0.00    -0.550 OA
ATOM      4  O   UNL     1      -1.185   1.677 -13.110  1.00  0.00    -0.550 OA
ENDBRANCH   1   2
BRANCH   1   5
ATOM      5  C   UNL     1       2.399   0.485 -13.335  1.00  0.00     0.059 C 
BRANCH   5   6
ATOM      6  C   UNL     1       3.355  -0.307 -12.495  1.00  0.00     0.042 C 
ATOM      7  O   UNL     1       4.584  -0.315 -12.768  1.00  0.00    -0.550 OA
ATOM      8  O   UNL     1       2.881  -1.069 -11.434  1.00  0.00    -0.550 OA
ENDBRANCH   5   6
ENDBRANCH   1   5
TORSDOF 3
ENDMDL
