MODEL 1
REMARK VINA RESULT:    -4.684      0.000      0.000
REMARK INTER + INTRA:          -5.921
REMARK INTER:                  -5.779
REMARK INTRA:                  -0.142
REMARK UNBOUND:                -0.142
REMARK SMILES C=CC[C@H](C)C(=O)CC
REMARK SMILES IDX 4 1 5 2 6 3 7 4 8 5 9 6 3 7 2 8 1 9
REMARK H PARENT
REMARK Flexibility Score: inf
ROOT
ATOM      1  C   UNL     1      15.418  26.016  53.820  1.00  0.00     0.057 C 
ATOM      2  C   UNL     1      16.053  27.122  52.971  1.00  0.00     0.016 C 
ENDROOT
BRANCH   1   3
ATOM      3  C   UNL     1      16.485  25.305  54.628  1.00  0.00     0.135 C 
ATOM      4  O   UNL     1      16.164  24.434  55.425  1.00  0.00    -0.299 OA
BRANCH   3   5
ATOM      5  C   UNL     1      17.940  25.664  54.480  1.00  0.00     0.072 C 
ATOM      6  C   UNL     1      18.752  25.129  55.654  1.00  0.00     0.012 C 
ENDBRANCH   3   5
ENDBRANCH   1   3
BRANCH   1   7
ATOM      7  C   UNL     1      14.645  25.024  52.926  1.00  0.00     0.038 C 
BRANCH   7   8
ATOM      8  C   UNL     1      13.383  25.628  52.367  1.00  0.00    -0.034 C 
ATOM      9  C   UNL     1      12.396  24.870  51.879  1.00  0.00     0.004 C 
ENDBRANCH   7   8
ENDBRANCH   1   7
TORSDOF 4
ENDMDL
MODEL 2
REMARK VINA RESULT:    -4.616      1.240      4.389
REMARK INTER + INTRA:          -5.837
REMARK INTER:                  -5.629
REMARK INTRA:                  -0.209
REMARK UNBOUND:                -0.142
REMARK SMILES C=CC[C@H](C)C(=O)CC
REMARK SMILES IDX 4 1 5 2 6 3 7 4 8 5 9 6 3 7 2 8 1 9
REMARK H PARENT
REMARK Flexibility Score: inf
ROOT
ATOM      1  C   UNL     1      15.976  25.679  53.444  1.00  0.00     0.057 C 
ATOM      2  C   UNL     1      16.167  27.125  52.974  1.00  0.00     0.016 C 
ENDROOT
BRANCH   1   3
ATOM      3  C   UNL     1      14.693  25.113  52.869  1.00  0.00     0.135 C 
ATOM      4  O   UNL     1      14.626  23.925  52.587  1.00  0.00    -0.299 OA
BRANCH   3   5
ATOM      5  C   UNL     1      13.497  25.994  52.623  1.00  0.00     0.072 C 
ATOM      6  C   UNL     1      12.380  25.213  51.942  1.00  0.00     0.012 C 
ENDBRANCH   3   5
ENDBRANCH   1   3
BRANCH   1   7
ATOM      7  C   UNL     1      15.975  25.605  54.984  1.00  0.00     0.038 C 
BRANCH   7   8
ATOM      8  C   UNL     1      17.100  24.753  55.513  1.00  0.00    -0.034 C 
ATOM      9  C   UNL     1      18.380  25.039  55.254  1.00  0.00     0.004 C 
ENDBRANCH   7   8
ENDBRANCH   1   7
TORSDOF 4
ENDMDL
MODEL 3
REMARK VINA RESULT:    -4.121      7.234      8.198
REMARK INTER + INTRA:          -5.227
REMARK INTER:                  -4.975
REMARK INTRA:                  -0.252
REMARK UNBOUND:                -0.142
REMARK SMILES C=CC[C@H](C)C(=O)CC
REMARK SMILES IDX 4 1 5 2 6 3 7 4 8 5 9 6 3 7 2 8 1 9
REMARK H PARENT
REMARK Flexibility Score: inf
ROOT
ATOM      1  C   UNL     1      14.367  18.213  55.790  1.00  0.00     0.057 C 
ATOM      2  C   UNL     1      13.603  17.221  54.908  1.00  0.00     0.016 C 
ENDROOT
BRANCH   1   3
ATOM      3  C   UNL     1      13.447  18.775  56.855  1.00  0.00     0.135 C 
ATOM      4  O   UNL     1      12.268  18.974  56.595  1.00  0.00    -0.299 OA
BRANCH   3   5
ATOM      5  C   UNL     1      13.962  19.111  58.229  1.00  0.00     0.072 C 
ATOM      6  C   UNL     1      13.208  18.326  59.296  1.00  0.00     0.012 C 
ENDBRANCH   3   5
ENDBRANCH   1   3
BRANCH   1   7
ATOM      7  C   UNL     1      14.982  19.339  54.934  1.00  0.00     0.038 C 
BRANCH   7   8
ATOM      8  C   UNL     1      16.359  19.726  55.408  1.00  0.00    -0.034 C 
ATOM      9  C   UNL     1      17.019  19.003  56.318  1.00  0.00     0.004 C 
ENDBRANCH   7   8
ENDBRANCH   1   7
TORSDOF 4
ENDMDL
MODEL 4
REMARK VINA RESULT:    -4.023      6.883      7.850
REMARK INTER + INTRA:          -5.106
REMARK INTER:                  -4.642
REMARK INTRA:                  -0.463
REMARK UNBOUND:                -0.142
REMARK SMILES C=CC[C@H](C)C(=O)CC
REMARK SMILES IDX 4 1 5 2 6 3 7 4 8 5 9 6 3 7 2 8 1 9
REMARK H PARENT
REMARK Flexibility Score: inf
ROOT
ATOM      1  C   UNL     1      15.455  18.868  56.281  1.00  0.00     0.057 C 
ATOM      2  C   UNL     1      16.972  19.079  56.332  1.00  0.00     0.016 C 
ENDROOT
BRANCH   1   3
ATOM      3  C   UNL     1      14.928  19.228  54.906  1.00  0.00     0.135 C 
ATOM      4  O   UNL     1      15.508  20.071  54.235  1.00  0.00    -0.299 OA
BRANCH   3   5
ATOM      5  C   UNL     1      13.690  18.574  54.353  1.00  0.00     0.072 C 
ATOM      6  C   UNL     1      13.618  17.110  54.771  1.00  0.00     0.012 C 
ENDBRANCH   3   5
ENDBRANCH   1   3
BRANCH   1   7
ATOM      7  C   UNL     1      14.755  19.695  57.378  1.00  0.00     0.038 C 
BRANCH   7   8
ATOM      8  C   UNL     1      13.789  18.866  58.185  1.00  0.00    -0.034 C 
ATOM      9  C   UNL     1      12.466  18.988  58.042  1.00  0.00     0.004 C 
ENDBRANCH   7   8
ENDBRANCH   1   7
TORSDOF 4
ENDMDL
MODEL 5
REMARK VINA RESULT:    -3.939     13.255     14.149
REMARK INTER + INTRA:          -5.002
REMARK INTER:                  -4.593
REMARK INTRA:                  -0.409
REMARK UNBOUND:                -0.142
REMARK SMILES C=CC[C@H](C)C(=O)CC
REMARK SMILES IDX 4 1 5 2 6 3 7 4 8 5 9 6 3 7 2 8 1 9
REMARK H PARENT
REMARK Flexibility Score: inf
ROOT
ATOM      1  C   UNL     1      19.038  12.806  51.434  1.00  0.00     0.057 C 
ATOM      2  C   UNL     1      18.802  13.931  50.421  1.00  0.00     0.016 C 
ENDROOT
BRANCH   1   3
ATOM      3  C   UNL     1      17.719  12.160  51.808  1.00  0.00     0.135 C 
ATOM      4  O   UNL     1      16.946  11.804  50.929  1.00  0.00    -0.299 OA
BRANCH   3   5
ATOM      5  C   UNL     1      17.333  11.960  53.250  1.00  0.00     0.072 C 
ATOM      6  C   UNL     1      17.440  10.491  53.640  1.00  0.00     0.012 C 
ENDBRANCH   3   5
ENDBRANCH   1   3
BRANCH   1   7
ATOM      7  C   UNL     1      19.768  13.344  52.682  1.00  0.00     0.038 C 
BRANCH   7   8
ATOM      8  C   UNL     1      21.087  12.652  52.911  1.00  0.00    -0.034 C 
ATOM      9  C   UNL     1      21.190  11.577  53.700  1.00  0.00     0.004 C 
ENDBRANCH   7   8
ENDBRANCH   1   7
TORSDOF 4
ENDMDL
MODEL 6
REMARK VINA RESULT:    -3.906      9.598     10.577
REMARK INTER + INTRA:          -4.962
REMARK INTER:                  -4.588
REMARK INTRA:                  -0.373
REMARK UNBOUND:                -0.142
REMARK SMILES C=CC[C@H](C)C(=O)CC
REMARK SMILES IDX 4 1 5 2 6 3 7 4 8 5 9 6 3 7 2 8 1 9
REMARK H PARENT
REMARK Flexibility Score: inf
ROOT
ATOM      1  C   UNL     1       9.057  19.124  58.706  1.00  0.00     0.057 C 
ATOM      2  C   UNL     1       8.309  18.420  57.570  1.00  0.00     0.016 C 
ENDROOT
BRANCH   1   3
ATOM      3  C   UNL     1      10.553  19.012  58.490  1.00  0.00     0.135 C 
ATOM      4  O   UNL     1      11.174  18.096  59.009  1.00  0.00    -0.299 OA
BRANCH   3   5
ATOM      5  C   UNL     1      11.295  20.022  57.654  1.00  0.00     0.072 C 
ATOM      6  C   UNL     1      10.616  21.385  57.723  1.00  0.00     0.012 C 
ENDBRANCH   3   5
ENDBRANCH   1   3
BRANCH   1   7
ATOM      7  C   UNL     1       8.647  18.537  60.071  1.00  0.00     0.038 C 
BRANCH   7   8
ATOM      8  C   UNL     1       8.501  19.601  61.128  1.00  0.00    -0.034 C 
ATOM      9  C   UNL     1       9.509  19.927  61.943  1.00  0.00     0.004 C 
ENDBRANCH   7   8
ENDBRANCH   1   7
TORSDOF 4
ENDMDL
MODEL 7
REMARK VINA RESULT:    -3.906      6.926      7.437
REMARK INTER + INTRA:          -4.961
REMARK INTER:                  -4.783
REMARK INTRA:                  -0.178
REMARK UNBOUND:                -0.142
REMARK SMILES C=CC[C@H](C)C(=O)CC
REMARK SMILES IDX 4 1 5 2 6 3 7 4 8 5 9 6 3 7 2 8 1 9
REMARK H PARENT
REMARK Flexibility Score: inf
ROOT
ATOM      1  C   UNL     1      14.040  18.620  56.712  1.00  0.00     0.057 C 
ATOM      2  C   UNL     1      12.931  19.336  57.489  1.00  0.00     0.016 C 
ENDROOT
BRANCH   1   3
ATOM      3  C   UNL     1      15.353  19.355  56.887  1.00  0.00     0.135 C 
ATOM      4  O   UNL     1      15.491  20.140  57.815  1.00  0.00    -0.299 OA
BRANCH   3   5
ATOM      5  C   UNL     1      16.494  19.147  55.927  1.00  0.00     0.072 C 
ATOM      6  C   UNL     1      16.623  20.329  54.974  1.00  0.00     0.012 C 
ENDBRANCH   3   5
ENDBRANCH   1   3
BRANCH   1   7
ATOM      7  C   UNL     1      13.666  18.498  55.221  1.00  0.00     0.038 C 
BRANCH   7   8
ATOM      8  C   UNL     1      13.608  17.062  54.765  1.00  0.00    -0.034 C 
ATOM      9  C   UNL     1      12.598  16.601  54.020  1.00  0.00     0.004 C 
ENDBRANCH   7   8
ENDBRANCH   1   7
TORSDOF 4
ENDMDL
MODEL 8
REMARK VINA RESULT:    -3.872     10.078     10.943
REMARK INTER + INTRA:          -4.919
REMARK INTER:                  -4.657
REMARK INTRA:                  -0.262
REMARK UNBOUND:                -0.142
REMARK SMILES C=CC[C@H](C)C(=O)CC
REMARK SMILES IDX 4 1 5 2 6 3 7 4 8 5 9 6 3 7 2 8 1 9
REMARK H PARENT
REMARK Flexibility Score: inf
ROOT
ATOM      1  C   UNL     1       9.408  18.456  59.842  1.00  0.00     0.057 C 
ATOM      2  C   UNL     1       9.304  19.577  60.882  1.00  0.00     0.016 C 
ENDROOT
BRANCH   1   3
ATOM      3  C   UNL     1      10.664  18.632  59.014  1.00  0.00     0.135 C 
ATOM      4  O   UNL     1      11.744  18.274  59.465  1.00  0.00    -0.299 OA
BRANCH   3   5
ATOM      5  C   UNL     1      10.611  19.256  57.644  1.00  0.00     0.072 C 
ATOM      6  C   UNL     1      10.856  20.758  57.725  1.00  0.00     0.012 C 
ENDBRANCH   3   5
ENDBRANCH   1   3
BRANCH   1   7
ATOM      7  C   UNL     1       8.152  18.429  58.948  1.00  0.00     0.038 C 
BRANCH   7   8
ATOM      8  C   UNL     1       6.879  18.473  59.754  1.00  0.00    -0.034 C 
ATOM      9  C   UNL     1       5.813  17.736  59.427  1.00  0.00     0.004 C 
ENDBRANCH   7   8
ENDBRANCH   1   7
TORSDOF 4
ENDMDL
MODEL 9
REMARK VINA RESULT:    -3.853      8.762      9.292
REMARK INTER + INTRA:          -4.896
REMARK INTER:                  -4.759
REMARK INTRA:                  -0.137
REMARK UNBOUND:                -0.142
REMARK SMILES C=CC[C@H](C)C(=O)CC
REMARK SMILES IDX 4 1 5 2 6 3 7 4 8 5 9 6 3 7 2 8 1 9
REMARK H PARENT
REMARK Flexibility Score: inf
ROOT
ATOM      1  C   UNL     1      11.512  19.080  58.209  1.00  0.00     0.057 C 
ATOM      2  C   UNL     1      10.982  18.601  56.854  1.00  0.00     0.016 C 
ENDROOT
BRANCH   1   3
ATOM      3  C   UNL     1      13.007  18.848  58.293  1.00  0.00     0.135 C 
ATOM      4  O   UNL     1      13.507  18.481  59.348  1.00  0.00    -0.299 OA
BRANCH   3   5
ATOM      5  C   UNL     1      13.897  19.076  57.100  1.00  0.00     0.072 C 
ATOM      6  C   UNL     1      15.242  19.648  57.529  1.00  0.00     0.012 C 
ENDBRANCH   3   5
ENDBRANCH   1   3
BRANCH   1   7
ATOM      7  C   UNL     1      10.774  18.371  59.362  1.00  0.00     0.038 C 
BRANCH   7   8
ATOM      8  C   UNL     1       9.282  18.574  59.293  1.00  0.00    -0.034 C 
ATOM      9  C   UNL     1       8.506  18.474  60.377  1.00  0.00     0.004 C 
ENDBRANCH   7   8
ENDBRANCH   1   7
TORSDOF 4
ENDMDL
