MODEL 1
REMARK VINA RESULT:     0.772      0.000      0.000
REMARK INTER + INTRA:           1.280
REMARK INTER:                   1.358
REMARK INTRA:                  -0.079
REMARK UNBOUND:                -0.079
REMARK SMILES CCCCCCCCCCCCCCC(=O)[O-]
REMARK SMILES IDX 9 1 10 2 11 3 12 4 13 5 14 6 15 7 16 8 17 9 8 10 7 11 6 12
REMARK SMILES IDX 5 13 4 14 3 15 2 16 1 17
REMARK H PARENT
REMARK Flexibility Score: inf
ROOT
ATOM      1  C   UNL     1      23.598  35.526  19.871  1.00  0.00     0.000 C 
ENDROOT
BRANCH   1   2
ATOM      2  C   UNL     1      22.167  35.046  20.191  1.00  0.00     0.000 C 
BRANCH   2   3
ATOM      3  C   UNL     1      21.099  35.439  19.153  1.00  0.00     0.000 C 
BRANCH   3   4
ATOM      4  C   UNL     1      20.892  36.956  18.979  1.00  0.00     0.000 C 
BRANCH   4   5
ATOM      5  C   UNL     1      20.687  37.390  17.512  1.00  0.00     0.006 C 
BRANCH   5   6
ATOM      6  C   UNL     1      21.883  37.032  16.620  1.00  0.00     0.053 C 
BRANCH   6   7
ATOM      7  C   UNL     1      21.789  35.609  16.168  1.00  0.00     0.041 C 
ATOM      8  O   UNL     1      20.666  35.053  16.051  1.00  0.00    -0.550 OA
ATOM      9  O   UNL     1      22.947  34.880  15.923  1.00  0.00    -0.550 OA
ENDBRANCH   6   7
ENDBRANCH   5   6
ENDBRANCH   4   5
ENDBRANCH   3   4
ENDBRANCH   2   3
ENDBRANCH   1   2
BRANCH   1  10
ATOM     10  C   UNL     1      24.244  34.881  18.632  1.00  0.00     0.000 C 
BRANCH  10  11
ATOM     11  C   UNL     1      25.438  35.683  18.093  1.00  0.00    -0.000 C 
BRANCH  11  12
ATOM     12  C   UNL     1      26.417  36.034  19.219  1.00  0.00    -0.000 C 
BRANCH  12  13
ATOM     13  C   UNL     1      27.458  34.924  19.411  1.00  0.00    -0.000 C 
BRANCH  13  14
ATOM     14  C   UNL     1      28.718  35.467  20.104  1.00  0.00    -0.000 C 
BRANCH  14  15
ATOM     15  C   UNL     1      28.816  35.034  21.576  1.00  0.00    -0.000 C 
BRANCH  15  16
ATOM     16  C   UNL     1      27.448  34.994  22.272  1.00  0.00    -0.003 C 
ATOM     17  C   UNL     1      27.606  34.888  23.787  1.00  0.00     0.004 C 
ENDBRANCH  15  16
ENDBRANCH  14  15
ENDBRANCH  13  14
ENDBRANCH  12  13
ENDBRANCH  11  12
ENDBRANCH  10  11
ENDBRANCH   1  10
TORSDOF 13
ENDMDL
