MODEL 1
REMARK VINA RESULT:    -5.908      0.000      0.000
REMARK INTER + INTRA:         -15.716
REMARK INTER:                 -13.506
REMARK INTRA:                  -2.210
REMARK UNBOUND:                -2.210
REMARK SMILES CCCCCCCCCCCCCCCCCCCCCCCC(=O)[O-]
REMARK SMILES IDX 13 1 14 2 15 3 16 4 17 5 18 6 19 7 20 8 21 9 22 10 23 11
REMARK SMILES IDX 24 12 25 13 26 14 12 15 11 16 10 17 9 18 8 19 7 20 6 21 5 22
REMARK SMILES IDX 4 23 3 24 2 25 1 26
REMARK H PARENT
REMARK Flexibility Score: inf
ROOT
ATOM      1  C   UNL     1      98.563 127.146 125.688  1.00  0.00     0.000 C 
ENDROOT
BRANCH   1   2
ATOM      2  C   UNL     1      99.900 126.630 126.255  1.00  0.00     0.000 C 
BRANCH   2   3
ATOM      3  C   UNL     1     101.040 126.480 125.228  1.00  0.00     0.000 C 
BRANCH   3   4
ATOM      4  C   UNL     1     102.098 127.598 125.256  1.00  0.00     0.000 C 
BRANCH   4   5
ATOM      5  C   UNL     1     101.786 128.742 124.277  1.00  0.00     0.000 C 
BRANCH   5   6
ATOM      6  C   UNL     1     101.329 130.034 124.984  1.00  0.00     0.000 C 
BRANCH   6   7
ATOM      7  C   UNL     1     101.617 130.098 126.496  1.00  0.00     0.000 C 
BRANCH   7   8
ATOM      8  C   UNL     1     100.338 130.114 127.352  1.00  0.00     0.000 C 
BRANCH   8   9
ATOM      9  C   UNL     1     100.522 129.396 128.699  1.00  0.00     0.000 C 
BRANCH   9  10
ATOM     10  C   UNL     1      99.195 128.899 129.300  1.00  0.00     0.006 C 
BRANCH  10  11
ATOM     11  C   UNL     1      98.000 129.753 128.849  1.00  0.00     0.053 C 
BRANCH  11  12
ATOM     12  C   UNL     1      96.698 129.050 129.077  1.00  0.00     0.041 C 
ATOM     13  O   UNL     1      96.562 127.841 128.751  1.00  0.00    -0.550 OA
ATOM     14  O   UNL     1      95.642 129.721 129.685  1.00  0.00    -0.550 OA
ENDBRANCH  11  12
ENDBRANCH  10  11
ENDBRANCH   9  10
ENDBRANCH   8   9
ENDBRANCH   7   8
ENDBRANCH   6   7
ENDBRANCH   5   6
ENDBRANCH   4   5
ENDBRANCH   3   4
ENDBRANCH   2   3
ENDBRANCH   1   2
BRANCH   1  15
ATOM     15  C   UNL     1      97.629 126.062 125.118  1.00  0.00     0.000 C 
BRANCH  15  16
ATOM     16  C   UNL     1      97.497 124.838 126.041  1.00  0.00     0.000 C 
BRANCH  16  17
ATOM     17  C   UNL     1      96.973 123.599 125.299  1.00  0.00     0.000 C 
BRANCH  17  18
ATOM     18  C   UNL     1      96.132 123.959 124.060  1.00  0.00    -0.000 C 
BRANCH  18  19
ATOM     19  C   UNL     1      94.618 123.807 124.317  1.00  0.00    -0.000 C 
BRANCH  19  20
ATOM     20  C   UNL     1      93.971 122.633 123.556  1.00  0.00    -0.000 C 
BRANCH  20  21
ATOM     21  C   UNL     1      94.793 122.086 122.376  1.00  0.00    -0.000 C 
BRANCH  21  22
ATOM     22  C   UNL     1      93.912 121.537 121.242  1.00  0.00    -0.000 C 
BRANCH  22  23
ATOM     23  C   UNL     1      94.733 121.003 120.054  1.00  0.00    -0.000 C 
BRANCH  23  24
ATOM     24  C   UNL     1      94.099 121.226 118.664  1.00  0.00    -0.000 C 
BRANCH  24  25
ATOM     25  C   UNL     1      92.694 121.854 118.684  1.00  0.00    -0.003 C 
ATOM     26  C   UNL     1      92.047 121.910 117.302  1.00  0.00     0.004 C 
ENDBRANCH  24  25
ENDBRANCH  23  24
ENDBRANCH  22  23
ENDBRANCH  21  22
ENDBRANCH  20  21
ENDBRANCH  19  20
ENDBRANCH  18  19
ENDBRANCH  17  18
ENDBRANCH  16  17
ENDBRANCH  15  16
ENDBRANCH   1  15
TORSDOF 22
ENDMDL
MODEL 2
REMARK VINA RESULT:    -5.860      3.968     10.887
REMARK INTER + INTRA:         -15.606
REMARK INTER:                 -13.614
REMARK INTRA:                  -1.991
REMARK UNBOUND:                -2.210
REMARK SMILES CCCCCCCCCCCCCCCCCCCCCCCC(=O)[O-]
REMARK SMILES IDX 13 1 14 2 15 3 16 4 17 5 18 6 19 7 20 8 21 9 22 10 23 11
REMARK SMILES IDX 24 12 25 13 26 14 12 15 11 16 10 17 9 18 8 19 7 20 6 21 5 22
REMARK SMILES IDX 4 23 3 24 2 25 1 26
REMARK H PARENT
REMARK Flexibility Score: inf
ROOT
ATOM      1  C   UNL     1      98.354 124.616 126.967  1.00  0.00     0.000 C 
ENDROOT
BRANCH   1   2
ATOM      2  C   UNL     1      97.256 123.880 126.175  1.00  0.00     0.000 C 
BRANCH   2   3
ATOM      3  C   UNL     1      96.723 124.627 124.935  1.00  0.00     0.000 C 
BRANCH   3   4
ATOM      4  C   UNL     1      95.577 123.922 124.187  1.00  0.00     0.000 C 
BRANCH   4   5
ATOM      5  C   UNL     1      96.077 122.972 123.085  1.00  0.00     0.000 C 
BRANCH   5   6
ATOM      6  C   UNL     1      95.135 121.775 122.848  1.00  0.00     0.000 C 
BRANCH   6   7
ATOM      7  C   UNL     1      93.665 122.135 122.562  1.00  0.00     0.000 C 
BRANCH   7   8
ATOM      8  C   UNL     1      93.176 121.630 121.193  1.00  0.00     0.000 C 
BRANCH   8   9
ATOM      9  C   UNL     1      94.326 121.126 120.307  1.00  0.00     0.000 C 
BRANCH   9  10
ATOM     10  C   UNL     1      93.976 121.135 118.808  1.00  0.00     0.006 C 
BRANCH  10  11
ATOM     11  C   UNL     1      92.618 121.798 118.535  1.00  0.00     0.053 C 
BRANCH  11  12
ATOM     12  C   UNL     1      92.536 122.346 117.144  1.00  0.00     0.041 C 
ATOM     13  O   UNL     1      92.321 121.576 116.170  1.00  0.00    -0.550 OA
ATOM     14  O   UNL     1      92.662 123.712 116.925  1.00  0.00    -0.550 OA
ENDBRANCH  11  12
ENDBRANCH  10  11
ENDBRANCH   9  10
ENDBRANCH   8   9
ENDBRANCH   7   8
ENDBRANCH   6   7
ENDBRANCH   5   6
ENDBRANCH   4   5
ENDBRANCH   3   4
ENDBRANCH   2   3
ENDBRANCH   1   2
BRANCH   1  15
ATOM     15  C   UNL     1      99.009 125.802 126.236  1.00  0.00     0.000 C 
BRANCH  15  16
ATOM     16  C   UNL     1     100.543 125.805 126.353  1.00  0.00     0.000 C 
BRANCH  16  17
ATOM     17  C   UNL     1     101.207 126.729 125.319  1.00  0.00     0.000 C 
BRANCH  17  18
ATOM     18  C   UNL     1     100.365 127.983 125.015  1.00  0.00    -0.000 C 
BRANCH  18  19
ATOM     19  C   UNL     1     101.128 129.288 125.328  1.00  0.00    -0.000 C 
BRANCH  19  20
ATOM     20  C   UNL     1     100.584 130.049 126.554  1.00  0.00    -0.000 C 
BRANCH  20  21
ATOM     21  C   UNL     1     101.298 129.746 127.882  1.00  0.00    -0.000 C 
BRANCH  21  22
ATOM     22  C   UNL     1     100.556 128.699 128.730  1.00  0.00    -0.000 C 
BRANCH  22  23
ATOM     23  C   UNL     1      99.177 129.188 129.209  1.00  0.00    -0.000 C 
BRANCH  23  24
ATOM     24  C   UNL     1      97.968 128.545 128.497  1.00  0.00    -0.000 C 
BRANCH  24  25
ATOM     25  C   UNL     1      96.595 129.094 128.924  1.00  0.00    -0.003 C 
ATOM     26  C   UNL     1      96.695 130.373 129.753  1.00  0.00     0.004 C 
ENDBRANCH  24  25
ENDBRANCH  23  24
ENDBRANCH  22  23
ENDBRANCH  21  22
ENDBRANCH  20  21
ENDBRANCH  19  20
ENDBRANCH  18  19
ENDBRANCH  17  18
ENDBRANCH  16  17
ENDBRANCH  15  16
ENDBRANCH   1  15
TORSDOF 22
ENDMDL
MODEL 3
REMARK VINA RESULT:    -5.744      4.128     10.534
REMARK INTER + INTRA:         -15.341
REMARK INTER:                 -12.724
REMARK INTRA:                  -2.617
REMARK UNBOUND:                -2.210
REMARK SMILES CCCCCCCCCCCCCCCCCCCCCCCC(=O)[O-]
REMARK SMILES IDX 13 1 14 2 15 3 16 4 17 5 18 6 19 7 20 8 21 9 22 10 23 11
REMARK SMILES IDX 24 12 25 13 26 14 12 15 11 16 10 17 9 18 8 19 7 20 6 21 5 22
REMARK SMILES IDX 4 23 3 24 2 25 1 26
REMARK H PARENT
REMARK Flexibility Score: inf
ROOT
ATOM      1  C   UNL     1      97.652 124.240 127.450  1.00  0.00     0.000 C 
ENDROOT
BRANCH   1   2
ATOM      2  C   UNL     1      97.805 124.046 125.929  1.00  0.00     0.000 C 
BRANCH   2   3
ATOM      3  C   UNL     1      96.780 124.800 125.059  1.00  0.00     0.000 C 
BRANCH   3   4
ATOM      4  C   UNL     1      95.798 123.908 124.281  1.00  0.00     0.000 C 
BRANCH   4   5
ATOM      5  C   UNL     1      96.455 122.631 123.730  1.00  0.00     0.000 C 
BRANCH   5   6
ATOM      6  C   UNL     1      95.883 122.197 122.366  1.00  0.00     0.000 C 
BRANCH   6   7
ATOM      7  C   UNL     1      94.363 121.945 122.336  1.00  0.00     0.000 C 
BRANCH   7   8
ATOM      8  C   UNL     1      93.906 121.172 121.086  1.00  0.00     0.000 C 
BRANCH   8   9
ATOM      9  C   UNL     1      94.913 121.273 119.930  1.00  0.00     0.000 C 
BRANCH   9  10
ATOM     10  C   UNL     1      94.272 121.032 118.551  1.00  0.00     0.006 C 
BRANCH  10  11
ATOM     11  C   UNL     1      92.852 121.613 118.466  1.00  0.00     0.053 C 
BRANCH  11  12
ATOM     12  C   UNL     1      92.598 122.268 117.143  1.00  0.00     0.041 C 
ATOM     13  O   UNL     1      92.677 123.519 117.028  1.00  0.00    -0.550 OA
ATOM     14  O   UNL     1      92.310 121.492 116.027  1.00  0.00    -0.550 OA
ENDBRANCH  11  12
ENDBRANCH  10  11
ENDBRANCH   9  10
ENDBRANCH   8   9
ENDBRANCH   7   8
ENDBRANCH   6   7
ENDBRANCH   5   6
ENDBRANCH   4   5
ENDBRANCH   3   4
ENDBRANCH   2   3
ENDBRANCH   1   2
BRANCH   1  15
ATOM     15  C   UNL     1      98.926 123.986 128.277  1.00  0.00     0.000 C 
BRANCH  15  16
ATOM     16  C   UNL     1     100.124 123.553 127.414  1.00  0.00     0.000 C 
BRANCH  16  17
ATOM     17  C   UNL     1     101.311 124.522 127.532  1.00  0.00     0.000 C 
BRANCH  17  18
ATOM     18  C   UNL     1     101.645 125.218 126.199  1.00  0.00    -0.000 C 
BRANCH  18  19
ATOM     19  C   UNL     1     101.237 126.707 126.201  1.00  0.00    -0.000 C 
BRANCH  19  20
ATOM     20  C   UNL     1      99.867 126.979 125.550  1.00  0.00    -0.000 C 
BRANCH  20  21
ATOM     21  C   UNL     1      98.836 127.669 126.459  1.00  0.00    -0.000 C 
BRANCH  21  22
ATOM     22  C   UNL     1      99.301 127.759 127.923  1.00  0.00    -0.000 C 
BRANCH  22  23
ATOM     23  C   UNL     1      98.145 127.596 128.927  1.00  0.00    -0.000 C 
BRANCH  23  24
ATOM     24  C   UNL     1      96.865 128.388 128.588  1.00  0.00    -0.000 C 
BRANCH  24  25
ATOM     25  C   UNL     1      96.164 129.039 129.794  1.00  0.00    -0.003 C 
ATOM     26  C   UNL     1      96.369 130.551 129.859  1.00  0.00     0.004 C 
ENDBRANCH  24  25
ENDBRANCH  23  24
ENDBRANCH  22  23
ENDBRANCH  21  22
ENDBRANCH  20  21
ENDBRANCH  19  20
ENDBRANCH  18  19
ENDBRANCH  17  18
ENDBRANCH  16  17
ENDBRANCH  15  16
ENDBRANCH   1  15
TORSDOF 22
ENDMDL
MODEL 4
REMARK VINA RESULT:    -5.629      1.003      1.586
REMARK INTER + INTRA:         -15.077
REMARK INTER:                 -12.994
REMARK INTRA:                  -2.083
REMARK UNBOUND:                -2.210
REMARK SMILES CCCCCCCCCCCCCCCCCCCCCCCC(=O)[O-]
REMARK SMILES IDX 13 1 14 2 15 3 16 4 17 5 18 6 19 7 20 8 21 9 22 10 23 11
REMARK SMILES IDX 24 12 25 13 26 14 12 15 11 16 10 17 9 18 8 19 7 20 6 21 5 22
REMARK SMILES IDX 4 23 3 24 2 25 1 26
REMARK H PARENT
REMARK Flexibility Score: inf
ROOT
ATOM      1  C   UNL     1      97.928 125.070 127.018  1.00  0.00     0.000 C 
ENDROOT
BRANCH   1   2
ATOM      2  C   UNL     1      99.062 125.786 127.778  1.00  0.00     0.000 C 
BRANCH   2   3
ATOM      3  C   UNL     1     100.343 126.050 126.961  1.00  0.00     0.000 C 
BRANCH   3   4
ATOM      4  C   UNL     1     100.113 126.588 125.538  1.00  0.00     0.000 C 
BRANCH   4   5
ATOM      5  C   UNL     1     101.346 127.306 124.964  1.00  0.00     0.000 C 
BRANCH   5   6
ATOM      6  C   UNL     1     101.019 128.699 124.388  1.00  0.00     0.000 C 
BRANCH   6   7
ATOM      7  C   UNL     1     101.290 129.886 125.331  1.00  0.00     0.000 C 
BRANCH   7   8
ATOM      8  C   UNL     1     101.951 129.464 126.656  1.00  0.00     0.000 C 
BRANCH   8   9
ATOM      9  C   UNL     1     101.371 130.212 127.867  1.00  0.00     0.000 C 
BRANCH   9  10
ATOM     10  C   UNL     1     100.274 129.415 128.595  1.00  0.00     0.006 C 
BRANCH  10  11
ATOM     11  C   UNL     1      98.943 129.432 127.830  1.00  0.00     0.053 C 
BRANCH  11  12
ATOM     12  C   UNL     1      97.769 129.508 128.757  1.00  0.00     0.041 C 
ATOM     13  O   UNL     1      97.124 130.583 128.878  1.00  0.00    -0.550 OA
ATOM     14  O   UNL     1      97.365 128.380 129.462  1.00  0.00    -0.550 OA
ENDBRANCH  11  12
ENDBRANCH  10  11
ENDBRANCH   9  10
ENDBRANCH   8   9
ENDBRANCH   7   8
ENDBRANCH   6   7
ENDBRANCH   5   6
ENDBRANCH   4   5
ENDBRANCH   3   4
ENDBRANCH   2   3
ENDBRANCH   1   2
BRANCH   1  15
ATOM     15  C   UNL     1      98.254 123.640 126.547  1.00  0.00     0.000 C 
BRANCH  15  16
ATOM     16  C   UNL     1      97.256 123.111 125.503  1.00  0.00     0.000 C 
BRANCH  16  17
ATOM     17  C   UNL     1      96.499 124.242 124.789  1.00  0.00     0.000 C 
BRANCH  17  18
ATOM     18  C   UNL     1      95.689 123.743 123.578  1.00  0.00    -0.000 C 
BRANCH  18  19
ATOM     19  C   UNL     1      94.175 123.691 123.871  1.00  0.00    -0.000 C 
BRANCH  19  20
ATOM     20  C   UNL     1      93.497 122.382 123.418  1.00  0.00    -0.000 C 
BRANCH  20  21
ATOM     21  C   UNL     1      94.348 121.489 122.499  1.00  0.00    -0.000 C 
BRANCH  21  22
ATOM     22  C   UNL     1      93.865 121.507 121.038  1.00  0.00    -0.000 C 
BRANCH  22  23
ATOM     23  C   UNL     1      95.000 121.249 120.031  1.00  0.00    -0.000 C 
BRANCH  23  24
ATOM     24  C   UNL     1      94.546 121.042 118.570  1.00  0.00    -0.000 C 
BRANCH  24  25
ATOM     25  C   UNL     1      93.064 121.355 118.299  1.00  0.00    -0.003 C 
ATOM     26  C   UNL     1      92.687 121.225 116.824  1.00  0.00     0.004 C 
ENDBRANCH  24  25
ENDBRANCH  23  24
ENDBRANCH  22  23
ENDBRANCH  21  22
ENDBRANCH  20  21
ENDBRANCH  19  20
ENDBRANCH  18  19
ENDBRANCH  17  18
ENDBRANCH  16  17
ENDBRANCH  15  16
ENDBRANCH   1  15
TORSDOF 22
ENDMDL
MODEL 5
REMARK VINA RESULT:    -5.581      1.327      2.434
REMARK INTER + INTRA:         -14.969
REMARK INTER:                 -12.894
REMARK INTRA:                  -2.075
REMARK UNBOUND:                -2.210
REMARK SMILES CCCCCCCCCCCCCCCCCCCCCCCC(=O)[O-]
REMARK SMILES IDX 13 1 14 2 15 3 16 4 17 5 18 6 19 7 20 8 21 9 22 10 23 11
REMARK SMILES IDX 24 12 25 13 26 14 12 15 11 16 10 17 9 18 8 19 7 20 6 21 5 22
REMARK SMILES IDX 4 23 3 24 2 25 1 26
REMARK H PARENT
REMARK Flexibility Score: inf
ROOT
ATOM      1  C   UNL     1      98.891 127.237 125.511  1.00  0.00     0.000 C 
ENDROOT
BRANCH   1   2
ATOM      2  C   UNL     1     100.393 127.225 125.169  1.00  0.00     0.000 C 
BRANCH   2   3
ATOM      3  C   UNL     1     101.333 127.678 126.304  1.00  0.00     0.000 C 
BRANCH   3   4
ATOM      4  C   UNL     1     100.935 128.991 127.000  1.00  0.00     0.000 C 
BRANCH   4   5
ATOM      5  C   UNL     1     100.500 128.786 128.461  1.00  0.00     0.000 C 
BRANCH   5   6
ATOM      6  C   UNL     1     100.770 127.359 128.978  1.00  0.00     0.000 C 
BRANCH   6   7
ATOM      7  C   UNL     1      99.828 126.869 130.094  1.00  0.00     0.000 C 
BRANCH   7   8
ATOM      8  C   UNL     1      98.694 125.968 129.572  1.00  0.00     0.000 C 
BRANCH   8   9
ATOM      9  C   UNL     1      97.301 126.566 129.829  1.00  0.00     0.000 C 
BRANCH   9  10
ATOM     10  C   UNL     1      96.913 127.646 128.804  1.00  0.00     0.006 C 
BRANCH  10  11
ATOM     11  C   UNL     1      95.960 128.692 129.399  1.00  0.00     0.053 C 
BRANCH  11  12
ATOM     12  C   UNL     1      96.653 129.996 129.650  1.00  0.00     0.041 C 
ATOM     13  O   UNL     1      97.295 130.562 128.726  1.00  0.00    -0.550 OA
ATOM     14  O   UNL     1      96.559 130.606 130.895  1.00  0.00    -0.550 OA
ENDBRANCH  11  12
ENDBRANCH  10  11
ENDBRANCH   9  10
ENDBRANCH   8   9
ENDBRANCH   7   8
ENDBRANCH   6   7
ENDBRANCH   5   6
ENDBRANCH   4   5
ENDBRANCH   3   4
ENDBRANCH   2   3
ENDBRANCH   1   2
BRANCH   1  15
ATOM     15  C   UNL     1      98.302 125.878 125.935  1.00  0.00     0.000 C 
BRANCH  15  16
ATOM     16  C   UNL     1      97.157 125.409 125.021  1.00  0.00     0.000 C 
BRANCH  16  17
ATOM     17  C   UNL     1      96.819 123.923 125.221  1.00  0.00     0.000 C 
BRANCH  17  18
ATOM     18  C   UNL     1      96.059 123.320 124.025  1.00  0.00    -0.000 C 
BRANCH  18  19
ATOM     19  C   UNL     1      94.536 123.549 124.125  1.00  0.00    -0.000 C 
BRANCH  19  20
ATOM     20  C   UNL     1      93.702 122.580 123.264  1.00  0.00    -0.000 C 
BRANCH  20  21
ATOM     21  C   UNL     1      94.519 121.623 122.379  1.00  0.00    -0.000 C 
BRANCH  21  22
ATOM     22  C   UNL     1      93.816 121.296 121.051  1.00  0.00    -0.000 C 
BRANCH  22  23
ATOM     23  C   UNL     1      94.798 121.170 119.872  1.00  0.00    -0.000 C 
BRANCH  23  24
ATOM     24  C   UNL     1      94.146 121.153 118.473  1.00  0.00    -0.000 C 
BRANCH  24  25
ATOM     25  C   UNL     1      92.707 121.697 118.420  1.00  0.00    -0.003 C 
ATOM     26  C   UNL     1      92.430 122.529 117.169  1.00  0.00     0.004 C 
ENDBRANCH  24  25
ENDBRANCH  23  24
ENDBRANCH  22  23
ENDBRANCH  21  22
ENDBRANCH  20  21
ENDBRANCH  19  20
ENDBRANCH  18  19
ENDBRANCH  17  18
ENDBRANCH  16  17
ENDBRANCH  15  16
ENDBRANCH   1  15
TORSDOF 22
ENDMDL
MODEL 6
REMARK VINA RESULT:    -5.563      2.262      3.953
REMARK INTER + INTRA:         -14.928
REMARK INTER:                 -13.314
REMARK INTRA:                  -1.614
REMARK UNBOUND:                -2.210
REMARK SMILES CCCCCCCCCCCCCCCCCCCCCCCC(=O)[O-]
REMARK SMILES IDX 13 1 14 2 15 3 16 4 17 5 18 6 19 7 20 8 21 9 22 10 23 11
REMARK SMILES IDX 24 12 25 13 26 14 12 15 11 16 10 17 9 18 8 19 7 20 6 21 5 22
REMARK SMILES IDX 4 23 3 24 2 25 1 26
REMARK H PARENT
REMARK Flexibility Score: inf
ROOT
ATOM      1  C   UNL     1      98.125 127.186 126.577  1.00  0.00     0.000 C 
ENDROOT
BRANCH   1   2
ATOM      2  C   UNL     1      98.200 126.929 128.095  1.00  0.00     0.000 C 
BRANCH   2   3
ATOM      3  C   UNL     1      96.975 127.397 128.906  1.00  0.00     0.000 C 
BRANCH   3   4
ATOM      4  C   UNL     1      97.239 127.661 130.399  1.00  0.00     0.000 C 
BRANCH   4   5
ATOM      5  C   UNL     1      98.709 128.002 130.696  1.00  0.00     0.000 C 
BRANCH   5   6
ATOM      6  C   UNL     1      99.052 129.480 130.423  1.00  0.00     0.000 C 
BRANCH   6   7
ATOM      7  C   UNL     1     100.556 129.807 130.342  1.00  0.00     0.000 C 
BRANCH   7   8
ATOM      8  C   UNL     1     101.233 129.220 129.091  1.00  0.00     0.000 C 
BRANCH   8   9
ATOM      9  C   UNL     1     101.376 130.251 127.961  1.00  0.00     0.000 C 
BRANCH   9  10
ATOM     10  C   UNL     1     101.946 129.645 126.665  1.00  0.00     0.006 C 
BRANCH  10  11
ATOM     11  C   UNL     1     100.978 129.796 125.483  1.00  0.00     0.053 C 
BRANCH  11  12
ATOM     12  C   UNL     1     101.359 128.910 124.336  1.00  0.00     0.041 C 
ATOM     13  O   UNL     1     101.977 129.383 123.346  1.00  0.00    -0.550 OA
ATOM     14  O   UNL     1     101.062 127.553 124.377  1.00  0.00    -0.550 OA
ENDBRANCH  11  12
ENDBRANCH  10  11
ENDBRANCH   9  10
ENDBRANCH   8   9
ENDBRANCH   7   8
ENDBRANCH   6   7
ENDBRANCH   5   6
ENDBRANCH   4   5
ENDBRANCH   3   4
ENDBRANCH   2   3
ENDBRANCH   1   2
BRANCH   1  15
ATOM     15  C   UNL     1      98.120 125.923 125.697  1.00  0.00     0.000 C 
BRANCH  15  16
ATOM     16  C   UNL     1      97.752 124.649 126.477  1.00  0.00     0.000 C 
BRANCH  16  17
ATOM     17  C   UNL     1      97.063 123.599 125.593  1.00  0.00     0.000 C 
BRANCH  17  18
ATOM     18  C   UNL     1      96.030 124.216 124.631  1.00  0.00    -0.000 C 
BRANCH  18  19
ATOM     19  C   UNL     1      95.968 123.468 123.283  1.00  0.00    -0.000 C 
BRANCH  19  20
ATOM     20  C   UNL     1      94.594 122.837 122.982  1.00  0.00    -0.000 C 
BRANCH  20  21
ATOM     21  C   UNL     1      94.631 121.357 122.565  1.00  0.00    -0.000 C 
BRANCH  21  22
ATOM     22  C   UNL     1      93.857 121.086 121.264  1.00  0.00    -0.000 C 
BRANCH  22  23
ATOM     23  C   UNL     1      94.733 121.236 120.007  1.00  0.00    -0.000 C 
BRANCH  23  24
ATOM     24  C   UNL     1      93.994 121.044 118.665  1.00  0.00    -0.000 C 
BRANCH  24  25
ATOM     25  C   UNL     1      92.668 121.814 118.538  1.00  0.00    -0.003 C 
ATOM     26  C   UNL     1      92.396 122.303 117.116  1.00  0.00     0.004 C 
ENDBRANCH  24  25
ENDBRANCH  23  24
ENDBRANCH  22  23
ENDBRANCH  21  22
ENDBRANCH  20  21
ENDBRANCH  19  20
ENDBRANCH  18  19
ENDBRANCH  17  18
ENDBRANCH  16  17
ENDBRANCH  15  16
ENDBRANCH   1  15
TORSDOF 22
ENDMDL
MODEL 7
REMARK VINA RESULT:    -5.553      1.388      2.391
REMARK INTER + INTRA:         -14.905
REMARK INTER:                 -12.957
REMARK INTRA:                  -1.948
REMARK UNBOUND:                -2.210
REMARK SMILES CCCCCCCCCCCCCCCCCCCCCCCC(=O)[O-]
REMARK SMILES IDX 13 1 14 2 15 3 16 4 17 5 18 6 19 7 20 8 21 9 22 10 23 11
REMARK SMILES IDX 24 12 25 13 26 14 12 15 11 16 10 17 9 18 8 19 7 20 6 21 5 22
REMARK SMILES IDX 4 23 3 24 2 25 1 26
REMARK H PARENT
REMARK Flexibility Score: inf
ROOT
ATOM      1  C   UNL     1      97.252 123.956 126.510  1.00  0.00     0.000 C 
ENDROOT
BRANCH   1   2
ATOM      2  C   UNL     1      98.644 123.648 127.096  1.00  0.00     0.000 C 
BRANCH   2   3
ATOM      3  C   UNL     1      99.497 124.880 127.457  1.00  0.00     0.000 C 
BRANCH   3   4
ATOM      4  C   UNL     1     100.671 125.168 126.504  1.00  0.00     0.000 C 
BRANCH   4   5
ATOM      5  C   UNL     1     101.187 126.613 126.608  1.00  0.00     0.000 C 
BRANCH   5   6
ATOM      6  C   UNL     1     100.548 127.558 125.571  1.00  0.00     0.000 C 
BRANCH   6   7
ATOM      7  C   UNL     1     100.252 128.985 126.069  1.00  0.00     0.000 C 
BRANCH   7   8
ATOM      8  C   UNL     1      99.279 129.017 127.262  1.00  0.00     0.000 C 
BRANCH   8   9
ATOM      9  C   UNL     1      98.016 128.178 127.014  1.00  0.00     0.000 C 
BRANCH   9  10
ATOM     10  C   UNL     1      97.177 127.966 128.288  1.00  0.00     0.006 C 
BRANCH  10  11
ATOM     11  C   UNL     1      96.660 129.291 128.866  1.00  0.00     0.053 C 
BRANCH  11  12
ATOM     12  C   UNL     1      96.440 129.204 130.345  1.00  0.00     0.041 C 
ATOM     13  O   UNL     1      96.245 128.088 130.893  1.00  0.00    -0.550 OA
ATOM     14  O   UNL     1      96.487 130.354 131.124  1.00  0.00    -0.550 OA
ENDBRANCH  11  12
ENDBRANCH  10  11
ENDBRANCH   9  10
ENDBRANCH   8   9
ENDBRANCH   7   8
ENDBRANCH   6   7
ENDBRANCH   5   6
ENDBRANCH   4   5
ENDBRANCH   3   4
ENDBRANCH   2   3
ENDBRANCH   1   2
BRANCH   1  15
ATOM     15  C   UNL     1      97.220 125.063 125.440  1.00  0.00     0.000 C 
BRANCH  15  16
ATOM     16  C   UNL     1      96.471 124.642 124.165  1.00  0.00     0.000 C 
BRANCH  16  17
ATOM     17  C   UNL     1      95.173 123.879 124.473  1.00  0.00     0.000 C 
BRANCH  17  18
ATOM     18  C   UNL     1      94.898 122.745 123.467  1.00  0.00    -0.000 C 
BRANCH  18  19
ATOM     19  C   UNL     1      96.154 122.369 122.654  1.00  0.00    -0.000 C 
BRANCH  19  20
ATOM     20  C   UNL     1      95.857 121.984 121.191  1.00  0.00    -0.000 C 
BRANCH  20  21
ATOM     21  C   UNL     1      94.512 121.276 120.961  1.00  0.00    -0.000 C 
BRANCH  21  22
ATOM     22  C   UNL     1      94.142 121.170 119.471  1.00  0.00    -0.000 C 
BRANCH  22  23
ATOM     23  C   UNL     1      92.781 121.813 119.147  1.00  0.00    -0.000 C 
BRANCH  23  24
ATOM     24  C   UNL     1      92.121 121.328 117.839  1.00  0.00    -0.000 C 
BRANCH  24  25
ATOM     25  C   UNL     1      92.161 122.336 116.678  1.00  0.00    -0.003 C 
ATOM     26  C   UNL     1      92.816 123.662 117.061  1.00  0.00     0.004 C 
ENDBRANCH  24  25
ENDBRANCH  23  24
ENDBRANCH  22  23
ENDBRANCH  21  22
ENDBRANCH  20  21
ENDBRANCH  19  20
ENDBRANCH  18  19
ENDBRANCH  17  18
ENDBRANCH  16  17
ENDBRANCH  15  16
ENDBRANCH   1  15
TORSDOF 22
ENDMDL
MODEL 8
REMARK VINA RESULT:    -5.493      1.465      2.702
REMARK INTER + INTRA:         -14.767
REMARK INTER:                 -13.359
REMARK INTRA:                  -1.408
REMARK UNBOUND:                -2.210
REMARK SMILES CCCCCCCCCCCCCCCCCCCCCCCC(=O)[O-]
REMARK SMILES IDX 13 1 14 2 15 3 16 4 17 5 18 6 19 7 20 8 21 9 22 10 23 11
REMARK SMILES IDX 24 12 25 13 26 14 12 15 11 16 10 17 9 18 8 19 7 20 6 21 5 22
REMARK SMILES IDX 4 23 3 24 2 25 1 26
REMARK H PARENT
REMARK Flexibility Score: inf
ROOT
ATOM      1  C   UNL     1      98.194 124.855 126.306  1.00  0.00     0.000 C 
ENDROOT
BRANCH   1   2
ATOM      2  C   UNL     1      98.570 123.377 126.529  1.00  0.00     0.000 C 
BRANCH   2   3
ATOM      3  C   UNL     1     100.014 123.126 127.005  1.00  0.00     0.000 C 
BRANCH   3   4
ATOM      4  C   UNL     1     100.825 124.392 127.336  1.00  0.00     0.000 C 
BRANCH   4   5
ATOM      5  C   UNL     1     101.826 124.767 126.231  1.00  0.00     0.000 C 
BRANCH   5   6
ATOM      6  C   UNL     1     102.055 126.287 126.114  1.00  0.00     0.000 C 
BRANCH   6   7
ATOM      7  C   UNL     1     101.499 126.945 124.836  1.00  0.00     0.000 C 
BRANCH   7   8
ATOM      8  C   UNL     1     100.128 127.612 125.050  1.00  0.00     0.000 C 
BRANCH   8   9
ATOM      9  C   UNL     1      99.816 127.854 126.536  1.00  0.00     0.000 C 
BRANCH   9  10
ATOM     10  C   UNL     1      99.984 129.326 126.952  1.00  0.00     0.006 C 
BRANCH  10  11
ATOM     11  C   UNL     1      99.405 129.600 128.348  1.00  0.00     0.053 C 
BRANCH  11  12
ATOM     12  C   UNL     1      97.910 129.521 128.355  1.00  0.00     0.041 C 
ATOM     13  O   UNL     1      97.223 130.506 128.735  1.00  0.00    -0.550 OA
ATOM     14  O   UNL     1      97.272 128.370 127.908  1.00  0.00    -0.550 OA
ENDBRANCH  11  12
ENDBRANCH  10  11
ENDBRANCH   9  10
ENDBRANCH   8   9
ENDBRANCH   7   8
ENDBRANCH   6   7
ENDBRANCH   5   6
ENDBRANCH   4   5
ENDBRANCH   3   4
ENDBRANCH   2   3
ENDBRANCH   1   2
BRANCH   1  15
ATOM     15  C   UNL     1      97.022 125.096 125.337  1.00  0.00     0.000 C 
BRANCH  15  16
ATOM     16  C   UNL     1      96.112 123.866 125.180  1.00  0.00     0.000 C 
BRANCH  16  17
ATOM     17  C   UNL     1      95.715 123.615 123.717  1.00  0.00     0.000 C 
BRANCH  17  18
ATOM     18  C   UNL     1      96.410 122.379 123.116  1.00  0.00    -0.000 C 
BRANCH  18  19
ATOM     19  C   UNL     1      95.868 122.028 121.714  1.00  0.00    -0.000 C 
BRANCH  19  20
ATOM     20  C   UNL     1      94.533 121.256 121.737  1.00  0.00    -0.000 C 
BRANCH  20  21
ATOM     21  C   UNL     1      93.291 122.088 121.379  1.00  0.00    -0.000 C 
BRANCH  21  22
ATOM     22  C   UNL     1      92.677 121.688 120.026  1.00  0.00    -0.000 C 
BRANCH  22  23
ATOM     23  C   UNL     1      93.740 121.428 118.943  1.00  0.00    -0.000 C 
BRANCH  23  24
ATOM     24  C   UNL     1      93.182 121.082 117.546  1.00  0.00    -0.000 C 
BRANCH  24  25
ATOM     25  C   UNL     1      92.152 122.082 116.991  1.00  0.00    -0.003 C 
ATOM     26  C   UNL     1      92.668 123.519 116.969  1.00  0.00     0.004 C 
ENDBRANCH  24  25
ENDBRANCH  23  24
ENDBRANCH  22  23
ENDBRANCH  21  22
ENDBRANCH  20  21
ENDBRANCH  19  20
ENDBRANCH  18  19
ENDBRANCH  17  18
ENDBRANCH  16  17
ENDBRANCH  15  16
ENDBRANCH   1  15
TORSDOF 22
ENDMDL
MODEL 9
REMARK VINA RESULT:    -5.485      2.475      3.785
REMARK INTER + INTRA:         -14.748
REMARK INTER:                 -13.060
REMARK INTRA:                  -1.688
REMARK UNBOUND:                -2.210
REMARK SMILES CCCCCCCCCCCCCCCCCCCCCCCC(=O)[O-]
REMARK SMILES IDX 13 1 14 2 15 3 16 4 17 5 18 6 19 7 20 8 21 9 22 10 23 11
REMARK SMILES IDX 24 12 25 13 26 14 12 15 11 16 10 17 9 18 8 19 7 20 6 21 5 22
REMARK SMILES IDX 4 23 3 24 2 25 1 26
REMARK H PARENT
REMARK Flexibility Score: inf
ROOT
ATOM      1  C   UNL     1      98.220 123.690 126.177  1.00  0.00     0.000 C 
ENDROOT
BRANCH   1   2
ATOM      2  C   UNL     1      99.008 124.296 127.354  1.00  0.00     0.000 C 
BRANCH   2   3
ATOM      3  C   UNL     1     100.398 124.862 126.997  1.00  0.00     0.000 C 
BRANCH   3   4
ATOM      4  C   UNL     1     100.858 126.057 127.851  1.00  0.00     0.000 C 
BRANCH   4   5
ATOM      5  C   UNL     1      99.914 126.350 129.029  1.00  0.00     0.000 C 
BRANCH   5   6
ATOM      6  C   UNL     1      99.938 127.827 129.469  1.00  0.00     0.000 C 
BRANCH   6   7
ATOM      7  C   UNL     1      99.000 128.767 128.687  1.00  0.00     0.000 C 
BRANCH   7   8
ATOM      8  C   UNL     1      99.725 129.567 127.590  1.00  0.00     0.000 C 
BRANCH   8   9
ATOM      9  C   UNL     1     101.242 129.645 127.825  1.00  0.00     0.000 C 
BRANCH   9  10
ATOM     10  C   UNL     1     102.061 129.387 126.547  1.00  0.00     0.006 C 
BRANCH  10  11
ATOM     11  C   UNL     1     101.439 130.064 125.316  1.00  0.00     0.053 C 
BRANCH  11  12
ATOM     12  C   UNL     1     101.495 129.180 124.108  1.00  0.00     0.041 C 
ATOM     13  O   UNL     1     101.513 127.927 124.238  1.00  0.00    -0.550 OA
ATOM     14  O   UNL     1     101.492 129.739 122.836  1.00  0.00    -0.550 OA
ENDBRANCH  11  12
ENDBRANCH  10  11
ENDBRANCH   9  10
ENDBRANCH   8   9
ENDBRANCH   7   8
ENDBRANCH   6   7
ENDBRANCH   5   6
ENDBRANCH   4   5
ENDBRANCH   3   4
ENDBRANCH   2   3
ENDBRANCH   1   2
BRANCH   1  15
ATOM     15  C   UNL     1      96.798 124.248 125.981  1.00  0.00     0.000 C 
BRANCH  15  16
ATOM     16  C   UNL     1      96.504 124.641 124.523  1.00  0.00     0.000 C 
BRANCH  16  17
ATOM     17  C   UNL     1      95.474 123.712 123.862  1.00  0.00     0.000 C 
BRANCH  17  18
ATOM     18  C   UNL     1      96.113 122.441 123.271  1.00  0.00    -0.000 C 
BRANCH  18  19
ATOM     19  C   UNL     1      95.062 121.485 122.669  1.00  0.00    -0.000 C 
BRANCH  19  20
ATOM     20  C   UNL     1      93.796 122.196 122.152  1.00  0.00    -0.000 C 
BRANCH  20  21
ATOM     21  C   UNL     1      93.182 121.593 120.877  1.00  0.00    -0.000 C 
BRANCH  21  22
ATOM     22  C   UNL     1      94.244 121.057 119.903  1.00  0.00    -0.000 C 
BRANCH  22  23
ATOM     23  C   UNL     1      93.840 121.229 118.427  1.00  0.00    -0.000 C 
BRANCH  23  24
ATOM     24  C   UNL     1      92.345 121.528 118.186  1.00  0.00    -0.000 C 
BRANCH  24  25
ATOM     25  C   UNL     1      92.042 122.338 116.913  1.00  0.00    -0.003 C 
ATOM     26  C   UNL     1      92.767 123.682 116.873  1.00  0.00     0.004 C 
ENDBRANCH  24  25
ENDBRANCH  23  24
ENDBRANCH  22  23
ENDBRANCH  21  22
ENDBRANCH  20  21
ENDBRANCH  19  20
ENDBRANCH  18  19
ENDBRANCH  17  18
ENDBRANCH  16  17
ENDBRANCH  15  16
ENDBRANCH   1  15
TORSDOF 22
ENDMDL
