MODEL 1
REMARK VINA RESULT:    -4.126      0.000      0.000
REMARK INTER + INTRA:          -6.724
REMARK INTER:                  -6.055
REMARK INTRA:                  -0.669
REMARK UNBOUND:                -0.669
REMARK SMILES O=C([O-])CCCCCCCC(=O)[O-]
REMARK SMILES IDX 7 1 6 2 5 3 4 4 2 5 1 6 3 7 8 8 9 9 10 10 11 11 12 12 13 13
REMARK H PARENT
REMARK Flexibility Score: inf
ROOT
ATOM      1  C   UNL     1      19.700  31.602  43.921  1.00  0.00     0.000 C 
ENDROOT
BRANCH   1   2
ATOM      2  C   UNL     1      19.144  33.023  44.089  1.00  0.00     0.000 C 
BRANCH   2   3
ATOM      3  C   UNL     1      20.251  34.000  44.511  1.00  0.00     0.006 C 
BRANCH   3   4
ATOM      4  C   UNL     1      20.452  34.030  46.033  1.00  0.00     0.053 C 
BRANCH   4   5
ATOM      5  C   UNL     1      19.205  34.446  46.750  1.00  0.00     0.041 C 
ATOM      6  O   UNL     1      18.573  33.618  47.456  1.00  0.00    -0.550 OA
ATOM      7  O   UNL     1      18.721  35.741  46.611  1.00  0.00    -0.550 OA
ENDBRANCH   4   5
ENDBRANCH   3   4
ENDBRANCH   2   3
ENDBRANCH   1   2
BRANCH   1   8
ATOM      8  C   UNL     1      18.597  30.533  43.875  1.00  0.00     0.000 C 
BRANCH   8   9
ATOM      9  C   UNL     1      18.637  29.590  45.090  1.00  0.00     0.006 C 
BRANCH   9  10
ATOM     10  C   UNL     1      18.242  30.306  46.390  1.00  0.00     0.053 C 
BRANCH  10  11
ATOM     11  C   UNL     1      19.286  30.152  47.452  1.00  0.00     0.041 C 
ATOM     12  O   UNL     1      20.437  30.636  47.284  1.00  0.00    -0.550 OA
ATOM     13  O   UNL     1      18.981  29.502  48.640  1.00  0.00    -0.550 OA
ENDBRANCH  10  11
ENDBRANCH   9  10
ENDBRANCH   8   9
ENDBRANCH   1   8
TORSDOF 8
ENDMDL
MODEL 2
REMARK VINA RESULT:    -4.106      1.126      1.702
REMARK INTER + INTRA:          -6.695
REMARK INTER:                  -6.082
REMARK INTRA:                  -0.613
REMARK UNBOUND:                -0.669
REMARK SMILES O=C([O-])CCCCCCCC(=O)[O-]
REMARK SMILES IDX 7 1 6 2 5 3 4 4 2 5 1 6 3 7 8 8 9 9 10 10 11 11 12 12 13 13
REMARK H PARENT
REMARK Flexibility Score: inf
ROOT
ATOM      1  C   UNL     1      18.595  30.545  43.902  1.00  0.00     0.000 C 
ENDROOT
BRANCH   1   2
ATOM      2  C   UNL     1      19.786  31.506  44.019  1.00  0.00     0.000 C 
BRANCH   2   3
ATOM      3  C   UNL     1      19.329  32.967  43.891  1.00  0.00     0.006 C 
BRANCH   3   4
ATOM      4  C   UNL     1      18.188  33.306  44.861  1.00  0.00     0.053 C 
BRANCH   4   5
ATOM      5  C   UNL     1      18.688  34.025  46.076  1.00  0.00     0.041 C 
ATOM      6  O   UNL     1      18.528  33.524  47.219  1.00  0.00    -0.550 OA
ATOM      7  O   UNL     1      19.299  35.266  45.949  1.00  0.00    -0.550 OA
ENDBRANCH   4   5
ENDBRANCH   3   4
ENDBRANCH   2   3
ENDBRANCH   1   2
BRANCH   1   8
ATOM      8  C   UNL     1      18.609  29.446  44.977  1.00  0.00     0.000 C 
BRANCH   8   9
ATOM      9  C   UNL     1      18.370  30.001  46.392  1.00  0.00     0.006 C 
BRANCH   9  10
ATOM     10  C   UNL     1      19.587  29.797  47.306  1.00  0.00     0.053 C 
BRANCH  10  11
ATOM     11  C   UNL     1      19.201  29.768  48.753  1.00  0.00     0.041 C 
ATOM     12  O   UNL     1      19.293  28.698  49.411  1.00  0.00    -0.550 OA
ATOM     13  O   UNL     1      18.769  30.928  49.381  1.00  0.00    -0.550 OA
ENDBRANCH  10  11
ENDBRANCH   9  10
ENDBRANCH   8   9
ENDBRANCH   1   8
TORSDOF 8
ENDMDL
MODEL 3
REMARK VINA RESULT:    -4.010      0.748      4.241
REMARK INTER + INTRA:          -6.554
REMARK INTER:                  -5.919
REMARK INTRA:                  -0.636
REMARK UNBOUND:                -0.669
REMARK SMILES O=C([O-])CCCCCCCC(=O)[O-]
REMARK SMILES IDX 7 1 6 2 5 3 4 4 2 5 1 6 3 7 8 8 9 9 10 10 11 11 12 12 13 13
REMARK H PARENT
REMARK Flexibility Score: inf
ROOT
ATOM      1  C   UNL     1      19.031  31.913  44.108  1.00  0.00     0.000 C 
ENDROOT
BRANCH   1   2
ATOM      2  C   UNL     1      18.626  30.450  43.875  1.00  0.00     0.000 C 
BRANCH   2   3
ATOM      3  C   UNL     1      18.621  29.665  45.195  1.00  0.00     0.006 C 
BRANCH   3   4
ATOM      4  C   UNL     1      18.299  30.558  46.402  1.00  0.00     0.053 C 
BRANCH   4   5
ATOM      5  C   UNL     1      19.245  30.317  47.538  1.00  0.00     0.041 C 
ATOM      6  O   UNL     1      18.872  29.658  48.544  1.00  0.00    -0.550 OA
ATOM      7  O   UNL     1      20.527  30.850  47.502  1.00  0.00    -0.550 OA
ENDBRANCH   4   5
ENDBRANCH   3   4
ENDBRANCH   2   3
ENDBRANCH   1   2
BRANCH   1   8
ATOM      8  C   UNL     1      20.555  32.117  44.095  1.00  0.00     0.000 C 
BRANCH   8   9
ATOM      9  C   UNL     1      21.000  33.298  44.975  1.00  0.00     0.006 C 
BRANCH   9  10
ATOM     10  C   UNL     1      19.970  34.437  44.979  1.00  0.00     0.053 C 
BRANCH  10  11
ATOM     11  C   UNL     1      19.580  34.832  46.371  1.00  0.00     0.041 C 
ATOM     12  O   UNL     1      18.730  35.744  46.555  1.00  0.00    -0.550 OA
ATOM     13  O   UNL     1      20.130  34.174  47.461  1.00  0.00    -0.550 OA
ENDBRANCH  10  11
ENDBRANCH   9  10
ENDBRANCH   8   9
ENDBRANCH   1   8
TORSDOF 8
ENDMDL
MODEL 4
REMARK VINA RESULT:    -4.010      1.187      4.207
REMARK INTER + INTRA:          -6.554
REMARK INTER:                  -5.869
REMARK INTRA:                  -0.685
REMARK UNBOUND:                -0.669
REMARK SMILES O=C([O-])CCCCCCCC(=O)[O-]
REMARK SMILES IDX 7 1 6 2 5 3 4 4 2 5 1 6 3 7 8 8 9 9 10 10 11 11 12 12 13 13
REMARK H PARENT
REMARK Flexibility Score: inf
ROOT
ATOM      1  C   UNL     1      18.641  30.352  43.875  1.00  0.00     0.000 C 
ENDROOT
BRANCH   1   2
ATOM      2  C   UNL     1      18.283  29.484  45.090  1.00  0.00     0.000 C 
BRANCH   2   3
ATOM      3  C   UNL     1      19.098  29.902  46.323  1.00  0.00     0.006 C 
BRANCH   3   4
ATOM      4  C   UNL     1      18.231  30.006  47.585  1.00  0.00     0.053 C 
BRANCH   4   5
ATOM      5  C   UNL     1      19.056  29.929  48.833  1.00  0.00     0.041 C 
ATOM      6  O   UNL     1      19.580  28.839  49.181  1.00  0.00    -0.550 OA
ATOM      7  O   UNL     1      19.218  31.055  49.631  1.00  0.00    -0.550 OA
ENDBRANCH   4   5
ENDBRANCH   3   4
ENDBRANCH   2   3
ENDBRANCH   1   2
BRANCH   1   8
ATOM      8  C   UNL     1      19.673  31.443  44.206  1.00  0.00     0.000 C 
BRANCH   8   9
ATOM      9  C   UNL     1      19.132  32.862  43.962  1.00  0.00     0.006 C 
BRANCH   9  10
ATOM     10  C   UNL     1      18.097  33.276  45.018  1.00  0.00     0.053 C 
BRANCH  10  11
ATOM     11  C   UNL     1      18.723  34.040  46.144  1.00  0.00     0.041 C 
ATOM     12  O   UNL     1      18.715  35.299  46.137  1.00  0.00    -0.550 OA
ATOM     13  O   UNL     1      19.289  33.362  47.216  1.00  0.00    -0.550 OA
ENDBRANCH  10  11
ENDBRANCH   9  10
ENDBRANCH   8   9
ENDBRANCH   1   8
TORSDOF 8
ENDMDL
MODEL 5
REMARK VINA RESULT:    -3.912      1.623      2.476
REMARK INTER + INTRA:          -6.410
REMARK INTER:                  -5.760
REMARK INTRA:                  -0.650
REMARK UNBOUND:                -0.669
REMARK SMILES O=C([O-])CCCCCCCC(=O)[O-]
REMARK SMILES IDX 7 1 6 2 5 3 4 4 2 5 1 6 3 7 8 8 9 9 10 10 11 11 12 12 13 13
REMARK H PARENT
REMARK Flexibility Score: inf
ROOT
ATOM      1  C   UNL     1      20.928  33.755  44.085  1.00  0.00     0.000 C 
ENDROOT
BRANCH   1   2
ATOM      2  C   UNL     1      20.133  34.581  45.106  1.00  0.00     0.000 C 
BRANCH   2   3
ATOM      3  C   UNL     1      20.461  34.144  46.541  1.00  0.00     0.006 C 
BRANCH   3   4
ATOM      4  C   UNL     1      19.283  34.366  47.501  1.00  0.00     0.053 C 
BRANCH   4   5
ATOM      5  C   UNL     1      19.033  33.165  48.360  1.00  0.00     0.041 C 
ATOM      6  O   UNL     1      17.875  32.680  48.449  1.00  0.00    -0.550 OA
ATOM      7  O   UNL     1      20.072  32.603  49.091  1.00  0.00    -0.550 OA
ENDBRANCH   4   5
ENDBRANCH   3   4
ENDBRANCH   2   3
ENDBRANCH   1   2
BRANCH   1   8
ATOM      8  C   UNL     1      20.801  32.240  44.318  1.00  0.00     0.000 C 
BRANCH   8   9
ATOM      9  C   UNL     1      19.436  31.687  43.877  1.00  0.00     0.006 C 
BRANCH   9  10
ATOM     10  C   UNL     1      18.500  31.438  45.068  1.00  0.00     0.053 C 
BRANCH  10  11
ATOM     11  C   UNL     1      18.655  30.055  45.621  1.00  0.00     0.041 C 
ATOM     12  O   UNL     1      18.387  29.053  44.906  1.00  0.00    -0.550 OA
ATOM     13  O   UNL     1      19.124  29.871  46.915  1.00  0.00    -0.550 OA
ENDBRANCH  10  11
ENDBRANCH   9  10
ENDBRANCH   8   9
ENDBRANCH   1   8
TORSDOF 8
ENDMDL
MODEL 6
REMARK VINA RESULT:    -3.903     11.258     13.657
REMARK INTER + INTRA:          -6.397
REMARK INTER:                  -5.716
REMARK INTRA:                  -0.681
REMARK UNBOUND:                -0.669
REMARK SMILES O=C([O-])CCCCCCCC(=O)[O-]
REMARK SMILES IDX 7 1 6 2 5 3 4 4 2 5 1 6 3 7 8 8 9 9 10 10 11 11 12 12 13 13
REMARK H PARENT
REMARK Flexibility Score: inf
ROOT
ATOM      1  C   UNL     1      29.779  40.572  47.027  1.00  0.00     0.000 C 
ENDROOT
BRANCH   1   2
ATOM      2  C   UNL     1      30.782  40.098  45.966  1.00  0.00     0.000 C 
BRANCH   2   3
ATOM      3  C   UNL     1      30.073  39.791  44.639  1.00  0.00     0.006 C 
BRANCH   3   4
ATOM      4  C   UNL     1      28.727  39.083  44.847  1.00  0.00     0.053 C 
BRANCH   4   5
ATOM      5  C   UNL     1      28.899  37.608  45.045  1.00  0.00     0.041 C 
ATOM      6  O   UNL     1      28.592  37.075  46.143  1.00  0.00    -0.550 OA
ATOM      7  O   UNL     1      29.433  36.827  44.027  1.00  0.00    -0.550 OA
ENDBRANCH   4   5
ENDBRANCH   3   4
ENDBRANCH   2   3
ENDBRANCH   1   2
BRANCH   1   8
ATOM      8  C   UNL     1      29.896  42.076  47.326  1.00  0.00     0.000 C 
BRANCH   8   9
ATOM      9  C   UNL     1      28.546  42.711  47.701  1.00  0.00     0.006 C 
BRANCH   9  10
ATOM     10  C   UNL     1      27.385  42.126  46.884  1.00  0.00     0.053 C 
BRANCH  10  11
ATOM     11  C   UNL     1      27.044  42.983  45.704  1.00  0.00     0.041 C 
ATOM     12  O   UNL     1      27.687  42.864  44.628  1.00  0.00    -0.550 OA
ATOM     13  O   UNL     1      25.997  43.892  45.784  1.00  0.00    -0.550 OA
ENDBRANCH  10  11
ENDBRANCH   9  10
ENDBRANCH   8   9
ENDBRANCH   1   8
TORSDOF 8
ENDMDL
MODEL 7
REMARK VINA RESULT:    -3.811      2.095      4.269
REMARK INTER + INTRA:          -6.261
REMARK INTER:                  -5.619
REMARK INTRA:                  -0.642
REMARK UNBOUND:                -0.669
REMARK SMILES O=C([O-])CCCCCCCC(=O)[O-]
REMARK SMILES IDX 7 1 6 2 5 3 4 4 2 5 1 6 3 7 8 8 9 9 10 10 11 11 12 12 13 13
REMARK H PARENT
REMARK Flexibility Score: inf
ROOT
ATOM      1  C   UNL     1      18.975  29.965  46.353  1.00  0.00     0.000 C 
ENDROOT
BRANCH   1   2
ATOM      2  C   UNL     1      17.906  30.233  47.422  1.00  0.00     0.000 C 
BRANCH   2   3
ATOM      3  C   UNL     1      17.932  31.702  47.868  1.00  0.00     0.006 C 
BRANCH   3   4
ATOM      4  C   UNL     1      19.128  32.014  48.777  1.00  0.00     0.053 C 
BRANCH   4   5
ATOM      5  C   UNL     1      18.886  31.568  50.186  1.00  0.00     0.041 C 
ATOM      6  O   UNL     1      18.359  32.352  51.018  1.00  0.00    -0.550 OA
ATOM      7  O   UNL     1      19.276  30.298  50.591  1.00  0.00    -0.550 OA
ENDBRANCH   4   5
ENDBRANCH   3   4
ENDBRANCH   2   3
ENDBRANCH   1   2
BRANCH   1   8
ATOM      8  C   UNL     1      18.376  29.734  44.956  1.00  0.00     0.000 C 
BRANCH   8   9
ATOM      9  C   UNL     1      18.905  30.733  43.913  1.00  0.00     0.006 C 
BRANCH   9  10
ATOM     10  C   UNL     1      19.808  31.803  44.543  1.00  0.00     0.053 C 
BRANCH  10  11
ATOM     11  C   UNL     1      19.156  33.151  44.551  1.00  0.00     0.041 C 
ATOM     12  O   UNL     1      17.911  33.251  44.712  1.00  0.00    -0.550 OA
ATOM     13  O   UNL     1      19.926  34.297  44.411  1.00  0.00    -0.550 OA
ENDBRANCH  10  11
ENDBRANCH   9  10
ENDBRANCH   8   9
ENDBRANCH   1   8
TORSDOF 8
ENDMDL
MODEL 8
REMARK VINA RESULT:    -3.765      1.789      3.802
REMARK INTER + INTRA:          -6.195
REMARK INTER:                  -5.409
REMARK INTRA:                  -0.786
REMARK UNBOUND:                -0.669
REMARK SMILES O=C([O-])CCCCCCCC(=O)[O-]
REMARK SMILES IDX 7 1 6 2 5 3 4 4 2 5 1 6 3 7 8 8 9 9 10 10 11 11 12 12 13 13
REMARK H PARENT
REMARK Flexibility Score: inf
ROOT
ATOM      1  C   UNL     1      20.503  34.384  45.185  1.00  0.00     0.000 C 
ENDROOT
BRANCH   1   2
ATOM      2  C   UNL     1      20.087  33.600  43.932  1.00  0.00     0.000 C 
BRANCH   2   3
ATOM      3  C   UNL     1      18.770  32.846  44.169  1.00  0.00     0.006 C 
BRANCH   3   4
ATOM      4  C   UNL     1      18.991  31.343  44.386  1.00  0.00     0.053 C 
BRANCH   4   5
ATOM      5  C   UNL     1      18.575  30.913  45.760  1.00  0.00     0.041 C 
ATOM      6  O   UNL     1      17.875  31.674  46.477  1.00  0.00    -0.550 OA
ATOM      7  O   UNL     1      18.990  29.686  46.261  1.00  0.00    -0.550 OA
ENDBRANCH   4   5
ENDBRANCH   3   4
ENDBRANCH   2   3
ENDBRANCH   1   2
BRANCH   1   8
ATOM      8  C   UNL     1      19.307  35.006  45.923  1.00  0.00     0.000 C 
BRANCH   8   9
ATOM      9  C   UNL     1      19.365  34.776  47.443  1.00  0.00     0.006 C 
BRANCH   9  10
ATOM     10  C   UNL     1      20.559  33.900  47.850  1.00  0.00     0.053 C 
BRANCH  10  11
ATOM     11  C   UNL     1      20.161  32.828  48.817  1.00  0.00     0.041 C 
ATOM     12  O   UNL     1      20.962  31.896  49.094  1.00  0.00    -0.550 OA
ATOM     13  O   UNL     1      18.919  32.874  49.435  1.00  0.00    -0.550 OA
ENDBRANCH  10  11
ENDBRANCH   9  10
ENDBRANCH   8   9
ENDBRANCH   1   8
TORSDOF 8
ENDMDL
