MODEL 1
REMARK VINA RESULT:    -4.009      0.000      0.000
REMARK INTER + INTRA:          -5.269
REMARK INTER:                  -4.946
REMARK INTRA:                  -0.323
REMARK UNBOUND:                -0.323
REMARK SMILES O=c1c(O)c(-c2cc(O)c(O)c(O)c2)oc2cc(O)cc(O)c12
REMARK SMILES IDX 5 1 3 2 2 3 1 4 23 5 21 6 20 7 18 8 17 9 16 10 15 11 6 12
REMARK SMILES IDX 7 13 8 14 14 15 10 16 12 17 9 18 11 20 13 22 4 24 22 26
REMARK SMILES IDX 19 28
REMARK H PARENT 9 19 11 21 13 23 4 25 22 27 19 29
REMARK Flexibility Score: inf
ROOT
ATOM      1  C   UNL     1     -12.547 -16.505  31.544  1.00  0.00     0.180 A 
ATOM      2  C   UNL     1     -13.193 -17.756  31.585  1.00  0.00     0.208 A 
ATOM      3  C   UNL     1     -13.267 -18.521  30.411  1.00  0.00     0.238 A 
ATOM      4  O   UNL     1     -13.834 -19.646  30.439  1.00  0.00    -0.285 OA
ATOM      5  C   UNL     1     -12.714 -18.017  29.215  1.00  0.00     0.111 A 
ATOM      6  C   UNL     1     -12.749 -18.723  27.989  1.00  0.00     0.134 A 
ATOM      7  C   UNL     1     -12.184 -18.150  26.840  1.00  0.00     0.093 A 
ATOM      8  C   UNL     1     -11.584 -16.887  26.895  1.00  0.00     0.123 A 
ATOM      9  C   UNL     1     -11.547 -16.187  28.102  1.00  0.00     0.094 A 
ATOM     10  C   UNL     1     -12.104 -16.742  29.258  1.00  0.00     0.146 A 
ATOM     11  O   UNL     1     -12.049 -16.056  30.395  1.00  0.00    -0.452 OA
ENDROOT
BRANCH   1  12
ATOM     12  C   UNL     1     -12.411 -15.650  32.744  1.00  0.00     0.029 A 
ATOM     13  C   UNL     1     -11.199 -15.564  33.450  1.00  0.00     0.062 A 
ATOM     14  C   UNL     1     -11.084 -14.730  34.570  1.00  0.00     0.162 A 
ATOM     15  C   UNL     1     -13.498 -14.862  33.156  1.00  0.00     0.062 A 
ATOM     16  C   UNL     1     -12.185 -13.964  34.989  1.00  0.00     0.200 A 
ATOM     17  C   UNL     1     -13.390 -14.029  34.278  1.00  0.00     0.162 A 
BRANCH  14  18
ATOM     18  O   UNL     1      -9.878 -14.657  35.267  1.00  0.00    -0.504 OA
ATOM     19  H   UNL     1      -9.330 -15.485  35.466  1.00  0.00     0.293 HD
ENDBRANCH  14  18
BRANCH  16  20
ATOM     20  O   UNL     1     -12.096 -13.130  36.104  1.00  0.00    -0.502 OA
ATOM     21  H   UNL     1     -11.831 -13.479  37.018  1.00  0.00     0.293 HD
ENDBRANCH  16  20
BRANCH  17  22
ATOM     22  O   UNL     1     -14.477 -13.260  34.691  1.00  0.00    -0.504 OA
ATOM     23  H   UNL     1     -14.406 -12.616  35.469  1.00  0.00     0.293 HD
ENDBRANCH  17  22
ENDBRANCH   1  12
BRANCH   2  24
ATOM     24  O   UNL     1     -13.777 -18.209  32.771  1.00  0.00    -0.502 OA
ATOM     25  H   UNL     1     -14.714 -17.944  33.050  1.00  0.00     0.293 HD
ENDBRANCH   2  24
BRANCH   6  26
ATOM     26  O   UNL     1     -13.339 -19.985  27.902  1.00  0.00    -0.507 OA
ATOM     27  H   UNL     1     -13.718 -20.338  27.031  1.00  0.00     0.293 HD
ENDBRANCH   6  26
BRANCH   8  28
ATOM     28  O   UNL     1     -11.024 -16.317  25.754  1.00  0.00    -0.508 OA
ATOM     29  H   UNL     1     -10.930 -16.840  24.891  1.00  0.00     0.293 HD
ENDBRANCH   8  28
TORSDOF 7
ENDMDL
MODEL 2
REMARK VINA RESULT:    -3.994      0.053      1.750
REMARK INTER + INTRA:          -5.251
REMARK INTER:                  -4.933
REMARK INTRA:                  -0.318
REMARK UNBOUND:                -0.323
REMARK SMILES O=c1c(O)c(-c2cc(O)c(O)c(O)c2)oc2cc(O)cc(O)c12
REMARK SMILES IDX 5 1 3 2 2 3 1 4 23 5 21 6 20 7 18 8 17 9 16 10 15 11 6 12
REMARK SMILES IDX 7 13 8 14 14 15 10 16 12 17 9 18 11 20 13 22 4 24 22 26
REMARK SMILES IDX 19 28
REMARK H PARENT 9 19 11 21 13 23 4 25 22 27 19 29
REMARK Flexibility Score: inf
ROOT
ATOM      1  C   UNL     1     -12.554 -16.441  31.516  1.00  0.00     0.180 A 
ATOM      2  C   UNL     1     -13.191 -17.696  31.572  1.00  0.00     0.208 A 
ATOM      3  C   UNL     1     -13.254 -18.479  30.410  1.00  0.00     0.238 A 
ATOM      4  O   UNL     1     -13.812 -19.608  30.451  1.00  0.00    -0.285 OA
ATOM      5  C   UNL     1     -12.700 -17.988  29.208  1.00  0.00     0.111 A 
ATOM      6  C   UNL     1     -12.725 -18.712  27.992  1.00  0.00     0.134 A 
ATOM      7  C   UNL     1     -12.160 -18.151  26.837  1.00  0.00     0.093 A 
ATOM      8  C   UNL     1     -11.571 -16.882  26.876  1.00  0.00     0.123 A 
ATOM      9  C   UNL     1     -11.544 -16.165  28.074  1.00  0.00     0.094 A 
ATOM     10  C   UNL     1     -12.101 -16.707  29.236  1.00  0.00     0.146 A 
ATOM     11  O   UNL     1     -12.056 -16.005  30.362  1.00  0.00    -0.452 OA
ENDROOT
BRANCH   1  12
ATOM     12  C   UNL     1     -12.430 -15.567  32.704  1.00  0.00     0.029 A 
ATOM     13  C   UNL     1     -13.516 -14.807  33.170  1.00  0.00     0.062 A 
ATOM     14  C   UNL     1     -13.385 -14.003  34.311  1.00  0.00     0.162 A 
ATOM     15  C   UNL     1     -11.220 -15.538  33.416  1.00  0.00     0.062 A 
ATOM     16  C   UNL     1     -12.163 -13.963  35.003  1.00  0.00     0.200 A 
ATOM     17  C   UNL     1     -11.083 -14.734  34.556  1.00  0.00     0.162 A 
BRANCH  14  18
ATOM     18  O   UNL     1     -14.468 -13.247  34.762  1.00  0.00    -0.504 OA
ATOM     19  H   UNL     1     -15.352 -13.679  35.003  1.00  0.00     0.293 HD
ENDBRANCH  14  18
BRANCH  16  20
ATOM     20  O   UNL     1     -12.008 -13.167  36.138  1.00  0.00    -0.502 OA
ATOM     21  H   UNL     1     -12.345 -12.212  36.177  1.00  0.00     0.293 HD
ENDBRANCH  16  20
BRANCH  17  22
ATOM     22  O   UNL     1      -9.876 -14.698  35.250  1.00  0.00    -0.504 OA
ATOM     23  H   UNL     1      -9.756 -15.180  36.133  1.00  0.00     0.293 HD
ENDBRANCH  17  22
ENDBRANCH   1  12
BRANCH   2  24
ATOM     24  O   UNL     1     -13.775 -18.137  32.763  1.00  0.00    -0.502 OA
ATOM     25  H   UNL     1     -14.733 -18.462  32.808  1.00  0.00     0.293 HD
ENDBRANCH   2  24
BRANCH   6  26
ATOM     26  O   UNL     1     -13.305 -19.979  27.922  1.00  0.00    -0.507 OA
ATOM     27  H   UNL     1     -12.744 -20.818  27.822  1.00  0.00     0.293 HD
ENDBRANCH   6  26
BRANCH   8  28
ATOM     28  O   UNL     1     -11.011 -16.325  25.729  1.00  0.00    -0.508 OA
ATOM     29  H   UNL     1     -10.029 -16.442  25.507  1.00  0.00     0.293 HD
ENDBRANCH   8  28
TORSDOF 7
ENDMDL
MODEL 3
REMARK VINA RESULT:    -3.455      1.365      1.365
REMARK INTER + INTRA:          -4.586
REMARK INTER:                  -4.496
REMARK INTRA:                  -0.090
REMARK UNBOUND:                -0.323
REMARK SMILES O=c1c(O)c(-c2cc(O)c(O)c(O)c2)oc2cc(O)cc(O)c12
REMARK SMILES IDX 5 1 3 2 2 3 1 4 23 5 21 6 20 7 18 8 17 9 16 10 15 11 6 12
REMARK SMILES IDX 7 13 8 14 14 15 10 16 12 17 9 18 11 20 13 22 4 24 22 26
REMARK SMILES IDX 19 28
REMARK H PARENT 9 19 11 21 13 23 4 25 22 27 19 29
REMARK Flexibility Score: inf
ROOT
ATOM      1  C   UNL     1     -12.613 -16.189  31.576  1.00  0.00     0.180 A 
ATOM      2  C   UNL     1     -12.301 -17.556  31.458  1.00  0.00     0.208 A 
ATOM      3  C   UNL     1     -12.464 -18.185  30.214  1.00  0.00     0.238 A 
ATOM      4  O   UNL     1     -12.177 -19.407  30.094  1.00  0.00    -0.285 OA
ATOM      5  C   UNL     1     -12.954 -17.445  29.118  1.00  0.00     0.111 A 
ATOM      6  C   UNL     1     -13.151 -18.005  27.833  1.00  0.00     0.134 A 
ATOM      7  C   UNL     1     -13.651 -17.204  26.795  1.00  0.00     0.093 A 
ATOM      8  C   UNL     1     -13.957 -15.857  27.018  1.00  0.00     0.123 A 
ATOM      9  C   UNL     1     -13.764 -15.301  28.285  1.00  0.00     0.094 A 
ATOM     10  C   UNL     1     -13.266 -16.082  29.331  1.00  0.00     0.146 A 
ATOM     11  O   UNL     1     -13.087 -15.526  30.524  1.00  0.00    -0.452 OA
ENDROOT
BRANCH   1  12
ATOM     12  C   UNL     1     -12.449 -15.451  32.849  1.00  0.00     0.029 A 
ATOM     13  C   UNL     1     -11.230 -15.460  33.548  1.00  0.00     0.062 A 
ATOM     14  C   UNL     1     -11.087 -14.736  34.740  1.00  0.00     0.162 A 
ATOM     15  C   UNL     1     -13.513 -14.678  33.340  1.00  0.00     0.062 A 
ATOM     16  C   UNL     1     -12.165 -13.985  35.236  1.00  0.00     0.200 A 
ATOM     17  C   UNL     1     -13.376 -13.954  34.533  1.00  0.00     0.162 A 
BRANCH  14  18
ATOM     18  O   UNL     1      -9.875 -14.757  35.430  1.00  0.00    -0.504 OA
ATOM     19  H   UNL     1      -9.056 -15.215  35.049  1.00  0.00     0.293 HD
ENDBRANCH  14  18
BRANCH  16  20
ATOM     20  O   UNL     1     -12.049 -13.259  36.423  1.00  0.00    -0.502 OA
ATOM     21  H   UNL     1     -12.417 -13.603  37.302  1.00  0.00     0.293 HD
ENDBRANCH  16  20
BRANCH  17  22
ATOM     22  O   UNL     1     -14.441 -13.201  35.024  1.00  0.00    -0.504 OA
ATOM     23  H   UNL     1     -14.373 -12.691  35.896  1.00  0.00     0.293 HD
ENDBRANCH  17  22
ENDBRANCH   1  12
BRANCH   2  24
ATOM     24  O   UNL     1     -11.864 -18.279  32.572  1.00  0.00    -0.502 OA
ATOM     25  H   UNL     1     -12.305 -18.193  33.479  1.00  0.00     0.293 HD
ENDBRANCH   2  24
BRANCH   6  26
ATOM     26  O   UNL     1     -12.855 -19.344  27.579  1.00  0.00    -0.507 OA
ATOM     27  H   UNL     1     -13.584 -20.037  27.452  1.00  0.00     0.293 HD
ENDBRANCH   6  26
BRANCH   8  28
ATOM     28  O   UNL     1     -14.455 -15.062  25.989  1.00  0.00    -0.508 OA
ATOM     29  H   UNL     1     -15.374 -14.638  26.042  1.00  0.00     0.293 HD
ENDBRANCH   8  28
TORSDOF 7
ENDMDL
MODEL 4
REMARK VINA RESULT:    -2.819      1.342      2.785
REMARK INTER + INTRA:          -3.801
REMARK INTER:                  -3.753
REMARK INTRA:                  -0.048
REMARK UNBOUND:                -0.323
REMARK SMILES O=c1c(O)c(-c2cc(O)c(O)c(O)c2)oc2cc(O)cc(O)c12
REMARK SMILES IDX 5 1 3 2 2 3 1 4 23 5 21 6 20 7 18 8 17 9 16 10 15 11 6 12
REMARK SMILES IDX 7 13 8 14 14 15 10 16 12 17 9 18 11 20 13 22 4 24 22 26
REMARK SMILES IDX 19 28
REMARK H PARENT 9 19 11 21 13 23 4 25 22 27 19 29
REMARK Flexibility Score: inf
ROOT
ATOM      1  C   UNL     1     -11.864 -16.090  31.821  1.00  0.00     0.180 A 
ATOM      2  C   UNL     1     -10.855 -15.827  30.875  1.00  0.00     0.208 A 
ATOM      3  C   UNL     1     -10.833 -16.565  29.682  1.00  0.00     0.238 A 
ATOM      4  O   UNL     1      -9.941 -16.331  28.823  1.00  0.00    -0.285 OA
ATOM      5  C   UNL     1     -11.805 -17.565  29.463  1.00  0.00     0.111 A 
ATOM      6  C   UNL     1     -11.851 -18.356  28.290  1.00  0.00     0.134 A 
ATOM      7  C   UNL     1     -12.844 -19.337  28.151  1.00  0.00     0.093 A 
ATOM      8  C   UNL     1     -13.790 -19.541  29.162  1.00  0.00     0.123 A 
ATOM      9  C   UNL     1     -13.748 -18.763  30.320  1.00  0.00     0.094 A 
ATOM     10  C   UNL     1     -12.767 -17.779  30.477  1.00  0.00     0.146 A 
ATOM     11  O   UNL     1     -12.755 -17.050  31.587  1.00  0.00    -0.452 OA
ENDROOT
BRANCH   1  12
ATOM     12  C   UNL     1     -11.965 -15.340  33.093  1.00  0.00     0.029 A 
ATOM     13  C   UNL     1     -10.864 -15.211  33.956  1.00  0.00     0.062 A 
ATOM     14  C   UNL     1     -10.973 -14.477  35.146  1.00  0.00     0.162 A 
ATOM     15  C   UNL     1     -13.169 -14.696  33.420  1.00  0.00     0.062 A 
ATOM     16  C   UNL     1     -12.188 -13.855  35.476  1.00  0.00     0.200 A 
ATOM     17  C   UNL     1     -13.284 -13.963  34.610  1.00  0.00     0.162 A 
BRANCH  14  18
ATOM     18  O   UNL     1      -9.875 -14.360  35.998  1.00  0.00    -0.504 OA
ATOM     19  H   UNL     1      -9.000 -14.832  35.805  1.00  0.00     0.293 HD
ENDBRANCH  14  18
BRANCH  16  20
ATOM     20  O   UNL     1     -12.323 -13.124  36.656  1.00  0.00    -0.502 OA
ATOM     21  H   UNL     1     -12.652 -12.165  36.661  1.00  0.00     0.293 HD
ENDBRANCH  16  20
BRANCH  17  22
ATOM     22  O   UNL     1     -14.486 -13.338  34.936  1.00  0.00    -0.504 OA
ATOM     23  H   UNL     1     -14.533 -12.343  35.121  1.00  0.00     0.293 HD
ENDBRANCH  17  22
ENDBRANCH   1  12
BRANCH   2  24
ATOM     24  O   UNL     1      -9.875 -14.866  31.138  1.00  0.00    -0.502 OA
ATOM     25  H   UNL     1      -9.011 -14.816  30.612  1.00  0.00     0.293 HD
ENDBRANCH   2  24
BRANCH   6  26
ATOM     26  O   UNL     1     -10.921 -18.176  27.265  1.00  0.00    -0.507 OA
ATOM     27  H   UNL     1     -10.737 -18.899  26.578  1.00  0.00     0.293 HD
ENDBRANCH   6  26
BRANCH   8  28
ATOM     28  O   UNL     1     -14.775 -20.516  29.025  1.00  0.00    -0.508 OA
ATOM     29  H   UNL     1     -15.640 -20.330  28.529  1.00  0.00     0.293 HD
ENDBRANCH   8  28
TORSDOF 7
ENDMDL
MODEL 5
REMARK VINA RESULT:    -2.389      1.758      7.102
REMARK INTER + INTRA:          -3.270
REMARK INTER:                  -3.080
REMARK INTRA:                  -0.190
REMARK UNBOUND:                -0.323
REMARK SMILES O=c1c(O)c(-c2cc(O)c(O)c(O)c2)oc2cc(O)cc(O)c12
REMARK SMILES IDX 5 1 3 2 2 3 1 4 23 5 21 6 20 7 18 8 17 9 16 10 15 11 6 12
REMARK SMILES IDX 7 13 8 14 14 15 10 16 12 17 9 18 11 20 13 22 4 24 22 26
REMARK SMILES IDX 19 28
REMARK H PARENT 9 19 11 21 13 23 4 25 22 27 19 29
REMARK Flexibility Score: inf
ROOT
ATOM      1  C   UNL     1     -13.099 -16.335  32.312  1.00  0.00     0.180 A 
ATOM      2  C   UNL     1     -14.297 -15.601  32.406  1.00  0.00     0.208 A 
ATOM      3  C   UNL     1     -14.379 -14.552  33.335  1.00  0.00     0.238 A 
ATOM      4  O   UNL     1     -15.443 -13.881  33.421  1.00  0.00    -0.285 OA
ATOM      5  C   UNL     1     -13.274 -14.268  34.165  1.00  0.00     0.111 A 
ATOM      6  C   UNL     1     -13.276 -13.232  35.129  1.00  0.00     0.134 A 
ATOM      7  C   UNL     1     -12.140 -13.018  35.923  1.00  0.00     0.093 A 
ATOM      8  C   UNL     1     -11.003 -13.820  35.771  1.00  0.00     0.123 A 
ATOM      9  C   UNL     1     -10.997 -14.843  34.821  1.00  0.00     0.094 A 
ATOM     10  C   UNL     1     -12.119 -15.071  34.020  1.00  0.00     0.146 A 
ATOM     11  O   UNL     1     -12.083 -16.048  33.121  1.00  0.00    -0.452 OA
ENDROOT
BRANCH   1  12
ATOM     12  C   UNL     1     -12.929 -17.442  31.343  1.00  0.00     0.029 A 
ATOM     13  C   UNL     1     -12.777 -18.772  31.771  1.00  0.00     0.062 A 
ATOM     14  C   UNL     1     -12.641 -19.809  30.838  1.00  0.00     0.162 A 
ATOM     15  C   UNL     1     -12.978 -17.168  29.967  1.00  0.00     0.062 A 
ATOM     16  C   UNL     1     -12.666 -19.522  29.463  1.00  0.00     0.200 A 
ATOM     17  C   UNL     1     -12.839 -18.201  29.030  1.00  0.00     0.162 A 
BRANCH  14  18
ATOM     18  O   UNL     1     -12.483 -21.125  31.273  1.00  0.00    -0.504 OA
ATOM     19  H   UNL     1     -12.093 -21.340  32.183  1.00  0.00     0.293 HD
ENDBRANCH  14  18
BRANCH  16  20
ATOM     20  O   UNL     1     -12.528 -20.536  28.515  1.00  0.00    -0.502 OA
ATOM     21  H   UNL     1     -13.328 -20.971  28.071  1.00  0.00     0.293 HD
ENDBRANCH  16  20
BRANCH  17  22
ATOM     22  O   UNL     1     -12.873 -17.921  27.665  1.00  0.00    -0.504 OA
ATOM     23  H   UNL     1     -13.521 -17.246  27.278  1.00  0.00     0.293 HD
ENDBRANCH  17  22
ENDBRANCH   1  12
BRANCH   2  24
ATOM     24  O   UNL     1     -15.394 -15.935  31.608  1.00  0.00    -0.502 OA
ATOM     25  H   UNL     1     -15.634 -16.895  31.391  1.00  0.00     0.293 HD
ENDBRANCH   2  24
BRANCH   6  26
ATOM     26  O   UNL     1     -14.395 -12.415  35.304  1.00  0.00    -0.507 OA
ATOM     27  H   UNL     1     -14.346 -11.410  35.181  1.00  0.00     0.293 HD
ENDBRANCH   6  26
BRANCH   8  28
ATOM     28  O   UNL     1      -9.875 -13.608  36.560  1.00  0.00    -0.508 OA
ATOM     29  H   UNL     1      -9.255 -14.368  36.813  1.00  0.00     0.293 HD
ENDBRANCH   8  28
TORSDOF 7
ENDMDL
MODEL 6
REMARK VINA RESULT:    -2.278      1.712      7.169
REMARK INTER + INTRA:          -3.133
REMARK INTER:                  -2.838
REMARK INTRA:                  -0.294
REMARK UNBOUND:                -0.323
REMARK SMILES O=c1c(O)c(-c2cc(O)c(O)c(O)c2)oc2cc(O)cc(O)c12
REMARK SMILES IDX 5 1 3 2 2 3 1 4 23 5 21 6 20 7 18 8 17 9 16 10 15 11 6 12
REMARK SMILES IDX 7 13 8 14 14 15 10 16 12 17 9 18 11 20 13 22 4 24 22 26
REMARK SMILES IDX 19 28
REMARK H PARENT 9 19 11 21 13 23 4 25 22 27 19 29
REMARK Flexibility Score: inf
ROOT
ATOM      1  C   UNL     1     -13.142 -16.269  32.302  1.00  0.00     0.180 A 
ATOM      2  C   UNL     1     -14.348 -15.556  32.438  1.00  0.00     0.208 A 
ATOM      3  C   UNL     1     -14.427 -14.533  33.395  1.00  0.00     0.238 A 
ATOM      4  O   UNL     1     -15.499 -13.881  33.519  1.00  0.00    -0.285 OA
ATOM      5  C   UNL     1     -13.311 -14.253  34.211  1.00  0.00     0.111 A 
ATOM      6  C   UNL     1     -13.309 -13.242  35.200  1.00  0.00     0.134 A 
ATOM      7  C   UNL     1     -12.160 -13.031  35.978  1.00  0.00     0.093 A 
ATOM      8  C   UNL     1     -11.015 -13.811  35.783  1.00  0.00     0.123 A 
ATOM      9  C   UNL     1     -11.013 -14.810  34.808  1.00  0.00     0.094 A 
ATOM     10  C   UNL     1     -12.147 -15.034  34.022  1.00  0.00     0.146 A 
ATOM     11  O   UNL     1     -12.114 -15.988  33.098  1.00  0.00    -0.452 OA
ENDROOT
BRANCH   1  12
ATOM     12  C   UNL     1     -12.974 -17.349  31.302  1.00  0.00     0.029 A 
ATOM     13  C   UNL     1     -12.863 -17.065  29.931  1.00  0.00     0.062 A 
ATOM     14  C   UNL     1     -12.681 -18.100  29.002  1.00  0.00     0.162 A 
ATOM     15  C   UNL     1     -12.868 -18.680  31.736  1.00  0.00     0.062 A 
ATOM     16  C   UNL     1     -12.599 -19.431  29.443  1.00  0.00     0.200 A 
ATOM     17  C   UNL     1     -12.689 -19.718  30.811  1.00  0.00     0.162 A 
BRANCH  14  18
ATOM     18  O   UNL     1     -12.577 -17.808  27.642  1.00  0.00    -0.504 OA
ATOM     19  H   UNL     1     -13.386 -17.544  27.093  1.00  0.00     0.293 HD
ENDBRANCH  14  18
BRANCH  16  20
ATOM     20  O   UNL     1     -12.423 -20.478  28.538  1.00  0.00    -0.502 OA
ATOM     21  H   UNL     1     -11.827 -21.271  28.741  1.00  0.00     0.293 HD
ENDBRANCH  16  20
BRANCH  17  22
ATOM     22  O   UNL     1     -12.599 -21.039  31.246  1.00  0.00    -0.504 OA
ATOM     23  H   UNL     1     -11.717 -21.443  31.537  1.00  0.00     0.293 HD
ENDBRANCH  17  22
ENDBRANCH   1  12
BRANCH   2  24
ATOM     24  O   UNL     1     -15.456 -15.887  31.653  1.00  0.00    -0.502 OA
ATOM     25  H   UNL     1     -15.734 -15.336  30.850  1.00  0.00     0.293 HD
ENDBRANCH   2  24
BRANCH   6  26
ATOM     26  O   UNL     1     -14.436 -12.447  35.418  1.00  0.00    -0.507 OA
ATOM     27  H   UNL     1     -14.812 -12.298  36.347  1.00  0.00     0.293 HD
ENDBRANCH   6  26
BRANCH   8  28
ATOM     28  O   UNL     1      -9.875 -13.602  36.555  1.00  0.00    -0.508 OA
ATOM     29  H   UNL     1      -8.967 -13.452  36.131  1.00  0.00     0.293 HD
ENDBRANCH   8  28
TORSDOF 7
ENDMDL
MODEL 7
REMARK VINA RESULT:    -1.663      2.491      6.375
REMARK INTER + INTRA:          -2.374
REMARK INTER:                  -2.703
REMARK INTRA:                   0.329
REMARK UNBOUND:                -0.323
REMARK SMILES O=c1c(O)c(-c2cc(O)c(O)c(O)c2)oc2cc(O)cc(O)c12
REMARK SMILES IDX 5 1 3 2 2 3 1 4 23 5 21 6 20 7 18 8 17 9 16 10 15 11 6 12
REMARK SMILES IDX 7 13 8 14 14 15 10 16 12 17 9 18 11 20 13 22 4 24 22 26
REMARK SMILES IDX 19 28
REMARK H PARENT 9 19 11 21 13 23 4 25 22 27 19 29
REMARK Flexibility Score: inf
ROOT
ATOM      1  C   UNL     1     -12.233 -16.687  29.970  1.00  0.00     0.180 A 
ATOM      2  C   UNL     1     -11.924 -18.054  30.104  1.00  0.00     0.208 A 
ATOM      3  C   UNL     1     -11.257 -18.490  31.258  1.00  0.00     0.238 A 
ATOM      4  O   UNL     1     -10.985 -19.713  31.393  1.00  0.00    -0.285 OA
ATOM      5  C   UNL     1     -10.893 -17.554  32.249  1.00  0.00     0.111 A 
ATOM      6  C   UNL     1     -10.216 -17.910  33.439  1.00  0.00     0.134 A 
ATOM      7  C   UNL     1      -9.880 -16.917  34.372  1.00  0.00     0.093 A 
ATOM      8  C   UNL     1     -10.209 -15.577  34.137  1.00  0.00     0.123 A 
ATOM      9  C   UNL     1     -10.877 -15.222  32.964  1.00  0.00     0.094 A 
ATOM     10  C   UNL     1     -11.221 -16.196  32.022  1.00  0.00     0.146 A 
ATOM     11  O   UNL     1     -11.861 -15.830  30.918  1.00  0.00    -0.452 OA
ENDROOT
BRANCH   1  12
ATOM     12  C   UNL     1     -12.952 -16.154  28.791  1.00  0.00     0.029 A 
ATOM     13  C   UNL     1     -12.959 -16.841  27.565  1.00  0.00     0.062 A 
ATOM     14  C   UNL     1     -13.665 -16.331  26.467  1.00  0.00     0.162 A 
ATOM     15  C   UNL     1     -13.690 -14.965  28.912  1.00  0.00     0.062 A 
ATOM     16  C   UNL     1     -14.382 -15.129  26.591  1.00  0.00     0.200 A 
ATOM     17  C   UNL     1     -14.396 -14.450  27.816  1.00  0.00     0.162 A 
BRANCH  14  18
ATOM     18  O   UNL     1     -13.661 -17.018  25.253  1.00  0.00    -0.504 OA
ATOM     19  H   UNL     1     -12.982 -17.744  25.057  1.00  0.00     0.293 HD
ENDBRANCH  14  18
BRANCH  16  20
ATOM     20  O   UNL     1     -15.088 -14.600  25.511  1.00  0.00    -0.502 OA
ATOM     21  H   UNL     1     -15.296 -13.611  25.436  1.00  0.00     0.293 HD
ENDBRANCH  16  20
BRANCH  17  22
ATOM     22  O   UNL     1     -15.115 -13.263  27.939  1.00  0.00    -0.504 OA
ATOM     23  H   UNL     1     -15.707 -12.921  27.191  1.00  0.00     0.293 HD
ENDBRANCH  17  22
ENDBRANCH   1  12
BRANCH   2  24
ATOM     24  O   UNL     1     -12.251 -18.954  29.085  1.00  0.00    -0.502 OA
ATOM     25  H   UNL     1     -12.339 -18.668  28.117  1.00  0.00     0.293 HD
ENDBRANCH   2  24
BRANCH   6  26
ATOM     26  O   UNL     1      -9.875 -19.237  33.702  1.00  0.00    -0.507 OA
ATOM     27  H   UNL     1     -10.580 -19.953  33.838  1.00  0.00     0.293 HD
ENDBRANCH   6  26
BRANCH   8  28
ATOM     28  O   UNL     1      -9.875 -14.592  35.062  1.00  0.00    -0.508 OA
ATOM     29  H   UNL     1      -8.913 -14.314  35.218  1.00  0.00     0.293 HD
ENDBRANCH   8  28
TORSDOF 7
ENDMDL
MODEL 8
REMARK VINA RESULT:    -1.519      1.851      2.799
REMARK INTER + INTRA:          -2.197
REMARK INTER:                  -2.518
REMARK INTRA:                   0.321
REMARK UNBOUND:                -0.323
REMARK SMILES O=c1c(O)c(-c2cc(O)c(O)c(O)c2)oc2cc(O)cc(O)c12
REMARK SMILES IDX 5 1 3 2 2 3 1 4 23 5 21 6 20 7 18 8 17 9 16 10 15 11 6 12
REMARK SMILES IDX 7 13 8 14 14 15 10 16 12 17 9 18 11 20 13 22 4 24 22 26
REMARK SMILES IDX 19 28
REMARK H PARENT 9 19 11 21 13 23 4 25 22 27 19 29
REMARK Flexibility Score: inf
ROOT
ATOM      1  C   UNL     1     -12.028 -15.986  30.697  1.00  0.00     0.180 A 
ATOM      2  C   UNL     1     -11.042 -16.918  30.320  1.00  0.00     0.208 A 
ATOM      3  C   UNL     1     -11.006 -17.368  28.991  1.00  0.00     0.238 A 
ATOM      4  O   UNL     1     -10.121 -18.194  28.639  1.00  0.00    -0.285 OA
ATOM      5  C   UNL     1     -11.965 -16.896  28.069  1.00  0.00     0.111 A 
ATOM      6  C   UNL     1     -12.000 -17.302  26.714  1.00  0.00     0.134 A 
ATOM      7  C   UNL     1     -12.992 -16.795  25.862  1.00  0.00     0.093 A 
ATOM      8  C   UNL     1     -13.947 -15.890  26.339  1.00  0.00     0.123 A 
ATOM      9  C   UNL     1     -13.915 -15.487  27.675  1.00  0.00     0.094 A 
ATOM     10  C   UNL     1     -12.934 -15.980  28.540  1.00  0.00     0.146 A 
ATOM     11  O   UNL     1     -12.925 -15.575  29.805  1.00  0.00    -0.452 OA
ENDROOT
BRANCH   1  12
ATOM     12  C   UNL     1     -12.118 -15.450  32.074  1.00  0.00     0.029 A 
ATOM     13  C   UNL     1     -13.345 -15.040  32.621  1.00  0.00     0.062 A 
ATOM     14  C   UNL     1     -13.414 -14.557  33.936  1.00  0.00     0.162 A 
ATOM     15  C   UNL     1     -10.964 -15.403  32.873  1.00  0.00     0.062 A 
ATOM     16  C   UNL     1     -12.250 -14.491  34.719  1.00  0.00     0.200 A 
ATOM     17  C   UNL     1     -11.026 -14.919  34.187  1.00  0.00     0.162 A 
BRANCH  14  18
ATOM     18  O   UNL     1     -14.636 -14.146  34.467  1.00  0.00    -0.504 OA
ATOM     19  H   UNL     1     -15.030 -14.582  35.292  1.00  0.00     0.293 HD
ENDBRANCH  14  18
BRANCH  16  20
ATOM     20  O   UNL     1     -12.291 -14.010  36.028  1.00  0.00    -0.502 OA
ATOM     21  H   UNL     1     -12.886 -14.425  36.736  1.00  0.00     0.293 HD
ENDBRANCH  16  20
BRANCH  17  22
ATOM     22  O   UNL     1      -9.875 -14.861  34.970  1.00  0.00    -0.504 OA
ATOM     23  H   UNL     1      -9.828 -14.287  35.803  1.00  0.00     0.293 HD
ENDBRANCH  17  22
ENDBRANCH   1  12
BRANCH   2  24
ATOM     24  O   UNL     1     -10.135 -17.407  31.264  1.00  0.00    -0.502 OA
ATOM     25  H   UNL     1      -9.140 -17.459  31.083  1.00  0.00     0.293 HD
ENDBRANCH   2  24
BRANCH   6  26
ATOM     26  O   UNL     1     -11.062 -18.203  26.209  1.00  0.00    -0.507 OA
ATOM     27  H   UNL     1     -10.978 -19.146  26.572  1.00  0.00     0.293 HD
ENDBRANCH   6  26
BRANCH   8  28
ATOM     28  O   UNL     1     -14.932 -15.386  25.493  1.00  0.00    -0.508 OA
ATOM     29  H   UNL     1     -15.407 -15.977  24.821  1.00  0.00     0.293 HD
ENDBRANCH   8  28
TORSDOF 7
ENDMDL
