MODEL 1
REMARK VINA RESULT:    -4.117      0.000      0.000
REMARK INTER + INTRA:          -6.142
REMARK INTER:                  -5.562
REMARK INTRA:                  -0.581
REMARK UNBOUND:                -0.581
REMARK SMILES O=C[C@@H](O)[C@H](O)[C@@H](O)CO
REMARK SMILES IDX 7 1 9 2 10 3 5 5 3 6 2 7 1 8 4 9 6 11 8 13
REMARK H PARENT 10 4 4 10 6 12 8 14
REMARK Flexibility Score: inf
ROOT
ATOM      1  C   UNL     1       2.742  26.089  11.263  1.00  0.00     0.171 C 
ENDROOT
BRANCH   1   2
ATOM      2  C   UNL     1       1.722  24.937  11.217  1.00  0.00     0.190 C 
BRANCH   2   3
ATOM      3  O   UNL     1       0.513  25.310  11.818  1.00  0.00    -0.394 OA
ATOM      4  H   UNL     1       0.147  26.047  11.263  1.00  0.00     0.210 HD
ENDBRANCH   2   3
ENDBRANCH   1   2
BRANCH   1   5
ATOM      5  C   UNL     1       2.288  27.254  12.186  1.00  0.00     0.181 C 
BRANCH   5   6
ATOM      6  C   UNL     1       2.837  28.620  11.711  1.00  0.00     0.209 C 
BRANCH   6   7
ATOM      7  C   UNL     1       2.076  29.768  12.320  1.00  0.00     0.258 C 
ATOM      8  O   UNL     1       1.108  29.563  13.037  1.00  0.00    -0.300 OA
ENDBRANCH   6   7
BRANCH   6   9
ATOM      9  O   UNL     1       4.192  28.726  12.063  1.00  0.00    -0.383 OA
ATOM     10  H   UNL     1       4.223  29.081  12.990  1.00  0.00     0.211 HD
ENDBRANCH   6   9
ENDBRANCH   5   6
BRANCH   5  11
ATOM     11  O   UNL     1       2.720  27.010  13.501  1.00  0.00    -0.387 OA
ATOM     12  H   UNL     1       3.544  26.458  13.442  1.00  0.00     0.211 HD
ENDBRANCH   5  11
ENDBRANCH   1   5
BRANCH   1  13
ATOM     13  O   UNL     1       4.021  25.615  11.611  1.00  0.00    -0.388 OA
ATOM     14  H   UNL     1       4.449  25.258  10.792  1.00  0.00     0.211 HD
ENDBRANCH   1  13
TORSDOF 8
ENDMDL
MODEL 2
REMARK VINA RESULT:    -4.085      1.912      4.071
REMARK INTER + INTRA:          -6.098
REMARK INTER:                  -5.467
REMARK INTRA:                  -0.631
REMARK UNBOUND:                -0.581
REMARK SMILES O=C[C@@H](O)[C@H](O)[C@@H](O)CO
REMARK SMILES IDX 7 1 9 2 10 3 5 5 3 6 2 7 1 8 4 9 6 11 8 13
REMARK H PARENT 10 4 4 10 6 12 8 14
REMARK Flexibility Score: inf
ROOT
ATOM      1  C   UNL     1       1.605  29.025  14.132  1.00  0.00     0.171 C 
ENDROOT
BRANCH   1   2
ATOM      2  C   UNL     1       1.262  28.646  15.584  1.00  0.00     0.190 C 
BRANCH   2   3
ATOM      3  O   UNL     1       2.388  28.753  16.412  1.00  0.00    -0.394 OA
ATOM      4  H   UNL     1       3.163  28.477  15.858  1.00  0.00     0.210 HD
ENDBRANCH   2   3
ENDBRANCH   1   2
BRANCH   1   5
ATOM      5  C   UNL     1       2.635  28.056  13.488  1.00  0.00     0.181 C 
BRANCH   5   6
ATOM      6  C   UNL     1       2.226  27.641  12.054  1.00  0.00     0.209 C 
BRANCH   6   7
ATOM      7  C   UNL     1       3.414  27.191  11.245  1.00  0.00     0.258 C 
ATOM      8  O   UNL     1       3.822  26.043  11.323  1.00  0.00    -0.300 OA
ENDBRANCH   6   7
BRANCH   6   9
ATOM      9  O   UNL     1       1.289  26.597  12.120  1.00  0.00    -0.383 OA
ATOM     10  H   UNL     1       0.550  26.833  11.501  1.00  0.00     0.211 HD
ENDBRANCH   6   9
ENDBRANCH   5   6
BRANCH   5  11
ATOM     11  O   UNL     1       2.765  26.906  14.286  1.00  0.00    -0.387 OA
ATOM     12  H   UNL     1       2.482  26.131  13.732  1.00  0.00     0.211 HD
ENDBRANCH   5  11
ENDBRANCH   1   5
BRANCH   1  13
ATOM     13  O   UNL     1       0.439  29.140  13.354  1.00  0.00    -0.388 OA
ATOM     14  H   UNL     1       0.709  29.177  12.400  1.00  0.00     0.211 HD
ENDBRANCH   1  13
TORSDOF 8
ENDMDL
MODEL 3
REMARK VINA RESULT:    -4.001      1.903      2.884
REMARK INTER + INTRA:          -5.984
REMARK INTER:                  -5.661
REMARK INTRA:                  -0.324
REMARK UNBOUND:                -0.581
REMARK SMILES O=C[C@@H](O)[C@H](O)[C@@H](O)CO
REMARK SMILES IDX 7 1 9 2 10 3 5 5 3 6 2 7 1 8 4 9 6 11 8 13
REMARK H PARENT 10 4 4 10 6 12 8 14
REMARK Flexibility Score: inf
ROOT
ATOM      1  C   UNL     1       1.264  24.829  11.285  1.00  0.00     0.171 C 
ENDROOT
BRANCH   1   2
ATOM      2  C   UNL     1       1.227  24.385   9.811  1.00  0.00     0.190 C 
BRANCH   2   3
ATOM      3  O   UNL     1       1.011  23.005   9.706  1.00  0.00    -0.394 OA
ATOM      4  H   UNL     1       0.034  22.889   9.576  1.00  0.00     0.210 HD
ENDBRANCH   2   3
ENDBRANCH   1   2
BRANCH   1   5
ATOM      5  C   UNL     1       2.172  26.069  11.514  1.00  0.00     0.181 C 
BRANCH   5   6
ATOM      6  C   UNL     1       3.459  26.013  10.656  1.00  0.00     0.209 C 
BRANCH   6   7
ATOM      7  C   UNL     1       3.993  27.391  10.364  1.00  0.00     0.258 C 
ATOM      8  O   UNL     1       3.935  28.273  11.207  1.00  0.00    -0.300 OA
ENDBRANCH   6   7
BRANCH   6   9
ATOM      9  O   UNL     1       4.440  25.272  11.335  1.00  0.00    -0.383 OA
ATOM     10  H   UNL     1       4.102  25.120  12.256  1.00  0.00     0.211 HD
ENDBRANCH   6   9
ENDBRANCH   5   6
BRANCH   5  11
ATOM     11  O   UNL     1       2.522  26.153  12.873  1.00  0.00    -0.387 OA
ATOM     12  H   UNL     1       3.037  26.994  12.992  1.00  0.00     0.211 HD
ENDBRANCH   5  11
ENDBRANCH   1   5
BRANCH   1  13
ATOM     13  O   UNL     1      -0.037  25.035  11.780  1.00  0.00    -0.388 OA
ATOM     14  H   UNL     1      -0.178  26.013  11.872  1.00  0.00     0.211 HD
ENDBRANCH   1  13
TORSDOF 8
ENDMDL
MODEL 4
REMARK VINA RESULT:    -3.982      1.304      2.164
REMARK INTER + INTRA:          -5.959
REMARK INTER:                  -5.627
REMARK INTRA:                  -0.332
REMARK UNBOUND:                -0.581
REMARK SMILES O=C[C@@H](O)[C@H](O)[C@@H](O)CO
REMARK SMILES IDX 7 1 9 2 10 3 5 5 3 6 2 7 1 8 4 9 6 11 8 13
REMARK H PARENT 10 4 4 10 6 12 8 14
REMARK Flexibility Score: inf
ROOT
ATOM      1  C   UNL     1       3.524  26.543  10.635  1.00  0.00     0.171 C 
ENDROOT
BRANCH   1   2
ATOM      2  C   UNL     1       3.979  25.089  10.415  1.00  0.00     0.190 C 
BRANCH   2   3
ATOM      3  O   UNL     1       4.949  24.717  11.356  1.00  0.00    -0.394 OA
ATOM      4  H   UNL     1       4.874  23.733  11.454  1.00  0.00     0.210 HD
ENDBRANCH   2   3
ENDBRANCH   1   2
BRANCH   1   5
ATOM      5  C   UNL     1       2.465  26.674  11.764  1.00  0.00     0.181 C 
BRANCH   5   6
ATOM      6  C   UNL     1       2.836  27.778  12.784  1.00  0.00     0.209 C 
BRANCH   6   7
ATOM      7  C   UNL     1       1.981  29.006  12.611  1.00  0.00     0.258 C 
ATOM      8  O   UNL     1       1.095  29.265  13.411  1.00  0.00    -0.300 OA
ENDBRANCH   6   7
BRANCH   6   9
ATOM      9  O   UNL     1       2.674  27.282  14.088  1.00  0.00    -0.383 OA
ATOM     10  H   UNL     1       2.569  26.298  14.012  1.00  0.00     0.211 HD
ENDBRANCH   6   9
ENDBRANCH   5   6
BRANCH   5  11
ATOM     11  O   UNL     1       2.335  25.446  12.436  1.00  0.00    -0.387 OA
ATOM     12  H   UNL     1       3.022  25.429  13.153  1.00  0.00     0.211 HD
ENDBRANCH   5  11
ENDBRANCH   1   5
BRANCH   1  13
ATOM     13  O   UNL     1       4.627  27.388  10.852  1.00  0.00    -0.388 OA
ATOM     14  H   UNL     1       5.393  26.825  11.135  1.00  0.00     0.211 HD
ENDBRANCH   1  13
TORSDOF 8
ENDMDL
MODEL 5
REMARK VINA RESULT:    -3.978      2.478      4.097
REMARK INTER + INTRA:          -5.954
REMARK INTER:                  -5.674
REMARK INTRA:                  -0.280
REMARK UNBOUND:                -0.581
REMARK SMILES O=C[C@@H](O)[C@H](O)[C@@H](O)CO
REMARK SMILES IDX 7 1 9 2 10 3 5 5 3 6 2 7 1 8 4 9 6 11 8 13
REMARK H PARENT 10 4 4 10 6 12 8 14
REMARK Flexibility Score: inf
ROOT
ATOM      1  C   UNL     1       2.536  25.177  11.551  1.00  0.00     0.171 C 
ENDROOT
BRANCH   1   2
ATOM      2  C   UNL     1       1.179  24.910  10.873  1.00  0.00     0.190 C 
BRANCH   2   3
ATOM      3  O   UNL     1       0.119  25.137  11.762  1.00  0.00    -0.394 OA
ATOM      4  H   UNL     1      -0.311  24.255  11.905  1.00  0.00     0.210 HD
ENDBRANCH   2   3
ENDBRANCH   1   2
BRANCH   1   5
ATOM      5  C   UNL     1       3.627  25.638  10.546  1.00  0.00     0.181 C 
BRANCH   5   6
ATOM      6  C   UNL     1       4.701  24.548  10.312  1.00  0.00     0.209 C 
BRANCH   6   7
ATOM      7  C   UNL     1       5.617  24.904   9.172  1.00  0.00     0.258 C 
ATOM      8  O   UNL     1       6.522  25.710   9.328  1.00  0.00    -0.300 OA
ENDBRANCH   6   7
BRANCH   6   9
ATOM      9  O   UNL     1       5.461  24.384  11.482  1.00  0.00    -0.383 OA
ATOM     10  H   UNL     1       5.341  23.443  11.775  1.00  0.00     0.211 HD
ENDBRANCH   6   9
ENDBRANCH   5   6
BRANCH   5  11
ATOM     11  O   UNL     1       4.246  26.806  11.023  1.00  0.00    -0.387 OA
ATOM     12  H   UNL     1       5.221  26.622  11.073  1.00  0.00     0.211 HD
ENDBRANCH   5  11
ENDBRANCH   1   5
BRANCH   1  13
ATOM     13  O   UNL     1       2.395  26.081  12.619  1.00  0.00    -0.388 OA
ATOM     14  H   UNL     1       2.198  25.559  13.439  1.00  0.00     0.211 HD
ENDBRANCH   1  13
TORSDOF 8
ENDMDL
MODEL 6
REMARK VINA RESULT:    -3.974      2.079      3.675
REMARK INTER + INTRA:          -5.948
REMARK INTER:                  -5.544
REMARK INTRA:                  -0.405
REMARK UNBOUND:                -0.581
REMARK SMILES O=C[C@@H](O)[C@H](O)[C@@H](O)CO
REMARK SMILES IDX 7 1 9 2 10 3 5 5 3 6 2 7 1 8 4 9 6 11 8 13
REMARK H PARENT 10 4 4 10 6 12 8 14
REMARK Flexibility Score: inf
ROOT
ATOM      1  C   UNL     1       1.587  29.087  14.190  1.00  0.00     0.171 C 
ENDROOT
BRANCH   1   2
ATOM      2  C   UNL     1       1.146  28.758  15.628  1.00  0.00     0.190 C 
BRANCH   2   3
ATOM      3  O   UNL     1       2.231  28.820  16.513  1.00  0.00    -0.394 OA
ATOM      4  H   UNL     1       2.697  29.674  16.318  1.00  0.00     0.210 HD
ENDBRANCH   2   3
ENDBRANCH   1   2
BRANCH   1   5
ATOM      5  C   UNL     1       2.775  28.206  13.712  1.00  0.00     0.181 C 
BRANCH   5   6
ATOM      6  C   UNL     1       2.763  27.996  12.179  1.00  0.00     0.209 C 
BRANCH   6   7
ATOM      7  C   UNL     1       3.298  29.200  11.448  1.00  0.00     0.258 C 
ATOM      8  O   UNL     1       2.542  30.073  11.049  1.00  0.00    -0.300 OA
ENDBRANCH   6   7
BRANCH   6   9
ATOM      9  O   UNL     1       3.545  26.875  11.855  1.00  0.00    -0.383 OA
ATOM     10  H   UNL     1       4.494  27.149  11.946  1.00  0.00     0.211 HD
ENDBRANCH   6   9
ENDBRANCH   5   6
BRANCH   5  11
ATOM     11  O   UNL     1       2.723  26.955  14.353  1.00  0.00    -0.387 OA
ATOM     12  H   UNL     1       2.654  27.128  15.328  1.00  0.00     0.211 HD
ENDBRANCH   5  11
ENDBRANCH   1   5
BRANCH   1  13
ATOM     13  O   UNL     1       0.497  29.020  13.302  1.00  0.00    -0.388 OA
ATOM     14  H   UNL     1      -0.033  28.213  13.528  1.00  0.00     0.211 HD
ENDBRANCH   1  13
TORSDOF 8
ENDMDL
MODEL 7
REMARK VINA RESULT:    -3.900      3.019      5.146
REMARK INTER + INTRA:          -5.849
REMARK INTER:                  -4.897
REMARK INTRA:                  -0.952
REMARK UNBOUND:                -0.581
REMARK SMILES O=C[C@@H](O)[C@H](O)[C@@H](O)CO
REMARK SMILES IDX 7 1 9 2 10 3 5 5 3 6 2 7 1 8 4 9 6 11 8 13
REMARK H PARENT 10 4 4 10 6 12 8 14
REMARK Flexibility Score: inf
ROOT
ATOM      1  C   UNL     1       3.565  25.465   9.844  1.00  0.00     0.171 C 
ENDROOT
BRANCH   1   2
ATOM      2  C   UNL     1       3.210  26.616  10.804  1.00  0.00     0.190 C 
BRANCH   2   3
ATOM      3  O   UNL     1       3.565  26.299  12.122  1.00  0.00    -0.394 OA
ATOM      4  H   UNL     1       2.725  26.032  12.576  1.00  0.00     0.210 HD
ENDBRANCH   2   3
ENDBRANCH   1   2
BRANCH   1   5
ATOM      5  C   UNL     1       5.080  25.415   9.504  1.00  0.00     0.181 C 
BRANCH   5   6
ATOM      6  C   UNL     1       5.766  24.157  10.089  1.00  0.00     0.209 C 
BRANCH   6   7
ATOM      7  C   UNL     1       7.156  23.974   9.537  1.00  0.00     0.258 C 
ATOM      8  O   UNL     1       7.921  24.922   9.449  1.00  0.00    -0.300 OA
ENDBRANCH   6   7
BRANCH   6   9
ATOM      9  O   UNL     1       5.836  24.271  11.487  1.00  0.00    -0.383 OA
ATOM     10  H   UNL     1       5.886  23.348  11.849  1.00  0.00     0.211 HD
ENDBRANCH   6   9
ENDBRANCH   5   6
BRANCH   5  11
ATOM     11  O   UNL     1       5.715  26.566  10.004  1.00  0.00    -0.387 OA
ATOM     12  H   UNL     1       5.014  27.128  10.426  1.00  0.00     0.211 HD
ENDBRANCH   5  11
ENDBRANCH   1   5
BRANCH   1  13
ATOM     13  O   UNL     1       3.101  24.234  10.342  1.00  0.00    -0.388 OA
ATOM     14  H   UNL     1       3.657  23.514   9.948  1.00  0.00     0.211 HD
ENDBRANCH   1  13
TORSDOF 8
ENDMDL
MODEL 8
REMARK VINA RESULT:    -3.878      2.496      4.253
REMARK INTER + INTRA:          -5.819
REMARK INTER:                  -5.685
REMARK INTRA:                  -0.134
REMARK UNBOUND:                -0.581
REMARK SMILES O=C[C@@H](O)[C@H](O)[C@@H](O)CO
REMARK SMILES IDX 7 1 9 2 10 3 5 5 3 6 2 7 1 8 4 9 6 11 8 13
REMARK H PARENT 10 4 4 10 6 12 8 14
REMARK Flexibility Score: inf
ROOT
ATOM      1  C   UNL     1       3.707  25.591  10.544  1.00  0.00     0.171 C 
ENDROOT
BRANCH   1   2
ATOM      2  C   UNL     1       4.742  24.462  10.391  1.00  0.00     0.190 C 
BRANCH   2   3
ATOM      3  O   UNL     1       5.630  24.444  11.475  1.00  0.00    -0.394 OA
ATOM      4  H   UNL     1       5.157  24.887  12.225  1.00  0.00     0.210 HD
ENDBRANCH   2   3
ENDBRANCH   1   2
BRANCH   1   5
ATOM      5  C   UNL     1       2.558  25.221  11.522  1.00  0.00     0.181 C 
BRANCH   5   6
ATOM      6  C   UNL     1       1.169  25.288  10.841  1.00  0.00     0.209 C 
BRANCH   6   7
ATOM      7  C   UNL     1       1.103  24.404   9.623  1.00  0.00     0.258 C 
ATOM      8  O   UNL     1       0.855  23.213   9.731  1.00  0.00    -0.300 OA
ENDBRANCH   6   7
BRANCH   6   9
ATOM      9  O   UNL     1       0.181  24.890  11.755  1.00  0.00    -0.383 OA
ATOM     10  H   UNL     1       0.641  24.381  12.473  1.00  0.00     0.211 HD
ENDBRANCH   6   9
ENDBRANCH   5   6
BRANCH   5  11
ATOM     11  O   UNL     1       2.577  26.093  12.625  1.00  0.00    -0.387 OA
ATOM     12  H   UNL     1       3.248  26.799  12.429  1.00  0.00     0.211 HD
ENDBRANCH   5  11
ENDBRANCH   1   5
BRANCH   1  13
ATOM     13  O   UNL     1       4.330  26.800  10.904  1.00  0.00    -0.388 OA
ATOM     14  H   UNL     1       4.006  27.055  11.805  1.00  0.00     0.211 HD
ENDBRANCH   1  13
TORSDOF 8
ENDMDL
MODEL 9
REMARK VINA RESULT:    -3.635      1.257      4.294
REMARK INTER + INTRA:          -5.491
REMARK INTER:                  -4.808
REMARK INTRA:                  -0.683
REMARK UNBOUND:                -0.581
REMARK SMILES O=C[C@@H](O)[C@H](O)[C@@H](O)CO
REMARK SMILES IDX 7 1 9 2 10 3 5 5 3 6 2 7 1 8 4 9 6 11 8 13
REMARK H PARENT 10 4 4 10 6 12 8 14
REMARK Flexibility Score: inf
ROOT
ATOM      1  C   UNL     1       2.513  27.375  12.249  1.00  0.00     0.171 C 
ENDROOT
BRANCH   1   2
ATOM      2  C   UNL     1       3.142  28.774  12.115  1.00  0.00     0.190 C 
BRANCH   2   3
ATOM      3  O   UNL     1       4.436  28.695  11.582  1.00  0.00    -0.394 OA
ATOM      4  H   UNL     1       4.904  29.519  11.874  1.00  0.00     0.210 HD
ENDBRANCH   2   3
ENDBRANCH   1   2
BRANCH   1   5
ATOM      5  C   UNL     1       2.996  26.393  11.146  1.00  0.00     0.181 C 
BRANCH   5   6
ATOM      6  C   UNL     1       1.913  25.350  10.780  1.00  0.00     0.209 C 
BRANCH   6   7
ATOM      7  C   UNL     1       2.298  24.551   9.562  1.00  0.00     0.258 C 
ATOM      8  O   UNL     1       3.342  23.917   9.538  1.00  0.00    -0.300 OA
ENDBRANCH   6   7
BRANCH   6   9
ATOM      9  O   UNL     1       1.721  24.477  11.863  1.00  0.00    -0.383 OA
ATOM     10  H   UNL     1       1.497  23.588  11.482  1.00  0.00     0.211 HD
ENDBRANCH   6   9
ENDBRANCH   5   6
BRANCH   5  11
ATOM     11  O   UNL     1       4.155  25.727  11.581  1.00  0.00    -0.387 OA
ATOM     12  H   UNL     1       3.960  25.355  12.481  1.00  0.00     0.211 HD
ENDBRANCH   5  11
ENDBRANCH   1   5
BRANCH   1  13
ATOM     13  O   UNL     1       2.718  26.852  13.539  1.00  0.00    -0.388 OA
ATOM     14  H   UNL     1       3.689  26.682  13.650  1.00  0.00     0.211 HD
ENDBRANCH   1  13
TORSDOF 8
ENDMDL
