MODEL 1
REMARK VINA RESULT:    -4.289      0.000      0.000
REMARK INTER + INTRA:          -5.956
REMARK INTER:                  -6.044
REMARK INTRA:                   0.088
REMARK UNBOUND:                 0.088
REMARK SMILES CC1=CCC(=C(C)C)C(=O)CC(C)=CCC1
REMARK SMILES IDX 12 1 14 2 13 3 15 4 16 5 2 6 1 7 3 8 11 10 9 11 10 12 5 13
REMARK SMILES IDX 6 14 7 15 8 16 4 17
REMARK H PARENT
REMARK Flexibility Score: 60.00
ROOT
ATOM      1  C   UNL     1      -0.546  -0.325   2.070  1.00  0.00    -0.070 C 
ATOM      2  C   UNL     1       0.037  -0.965   1.031  1.00  0.00    -0.027 C 
ATOM      3  C   UNL     1       0.187  -0.302   3.388  1.00  0.00     0.039 C 
ENDROOT
BRANCH   2   4
ATOM      4  C   UNL     1      -0.494  -1.043  -0.381  1.00  0.00     0.032 C 
BRANCH   4   5
ATOM      5  C   UNL     1      -1.516  -2.176  -0.576  1.00  0.00     0.034 C 
BRANCH   5   6
ATOM      6  C   UNL     1      -2.713  -1.748  -1.405  1.00  0.00    -0.077 C 
ATOM      7  C   UNL     1      -2.494  -1.413  -2.858  1.00  0.00     0.039 C 
ATOM      8  C   UNL     1      -3.968  -1.629  -0.912  1.00  0.00    -0.023 CG0
ATOM      9  G   UNL     1      -4.381  -1.861   0.523  1.00  0.00     0.000 G0
ENDBRANCH   5   6
ENDBRANCH   4   5
ENDBRANCH   2   4
BRANCH   1  10
ATOM     10  C   UNL     1      -1.884   0.386   1.980  1.00  0.00     0.111 C 
BRANCH  10  11
ATOM     11  C   UNL     1      -3.043  -0.530   2.292  1.00  0.00     0.163 C 
ATOM     12  O   UNL     1      -3.016  -1.175   3.374  1.00  0.00    -0.294 OA
BRANCH  11  13
ATOM     13  C   UNL     1      -4.245  -0.631   1.409  1.00  0.00    -0.002 C 
ATOM     14  C   UNL     1      -5.241   0.300   1.490  1.00  0.00    -0.069 C 
ATOM     15  C   UNL     1      -5.137   1.484   2.426  1.00  0.00     0.039 C 
ATOM     16  C   UNL     1      -6.514   0.161   0.685  1.00  0.00     0.039 C 
BRANCH  13  17
ATOM     17  C   UNL     1      -4.400  -1.869   0.536  1.00  0.00     0.066 CG0
ATOM     18  G   UNL     1      -3.975  -1.605  -0.890  1.00  0.00     0.000 G0
ENDBRANCH  13  17
ENDBRANCH  11  13
ENDBRANCH  10  11
ENDBRANCH   1  10
TORSDOF 0
ENDMDL
MODEL 2
REMARK VINA RESULT:    -4.123      1.541      4.071
REMARK INTER + INTRA:          -5.722
REMARK INTER:                  -6.073
REMARK INTRA:                   0.351
REMARK UNBOUND:                 0.088
REMARK SMILES CC1=CCC(=C(C)C)C(=O)CC(C)=CCC1
REMARK SMILES IDX 12 1 14 2 13 3 15 4 16 5 2 6 1 7 3 8 11 10 9 11 10 12 5 13
REMARK SMILES IDX 6 14 7 15 8 16 4 17
REMARK H PARENT
REMARK Flexibility Score: 60.00
ROOT
ATOM      1  C   UNL     1      -4.688   0.288   1.576  1.00  0.00    -0.070 C 
ATOM      2  C   UNL     1      -5.386   0.423   0.425  1.00  0.00    -0.027 C 
ATOM      3  C   UNL     1      -4.945   1.284   2.680  1.00  0.00     0.039 C 
ENDROOT
BRANCH   2   4
ATOM      4  C   UNL     1      -5.328  -0.505  -0.767  1.00  0.00     0.032 C 
BRANCH   4   5
ATOM      5  C   UNL     1      -3.973  -0.464  -1.493  1.00  0.00     0.034 C 
BRANCH   5   6
ATOM      6  C   UNL     1      -3.356  -1.841  -1.658  1.00  0.00    -0.077 C 
ATOM      7  C   UNL     1      -4.201  -2.935  -2.260  1.00  0.00     0.039 C 
ATOM      8  C   UNL     1      -2.095  -2.152  -1.278  1.00  0.00    -0.023 CG0
ATOM      9  G   UNL     1      -1.116  -1.218  -0.607  1.00  0.00     0.000 G0
ENDBRANCH   5   6
ENDBRANCH   4   5
ENDBRANCH   2   4
BRANCH   1  10
ATOM     10  C   UNL     1      -3.679  -0.817   1.827  1.00  0.00     0.111 C 
BRANCH  10  11
ATOM     11  C   UNL     1      -2.261  -0.372   1.561  1.00  0.00     0.163 C 
ATOM     12  O   UNL     1      -1.911   0.769   1.965  1.00  0.00    -0.294 OA
BRANCH  11  13
ATOM     13  C   UNL     1      -1.249  -1.262   0.916  1.00  0.00    -0.002 C 
ATOM     14  C   UNL     1      -0.378  -1.984   1.680  1.00  0.00    -0.069 C 
ATOM     15  C   UNL     1      -0.444  -1.953   3.191  1.00  0.00     0.039 C 
ATOM     16  C   UNL     1       0.724  -2.809   1.051  1.00  0.00     0.039 C 
BRANCH  13  17
ATOM     17  C   UNL     1      -1.114  -1.225  -0.601  1.00  0.00     0.066 CG0
ATOM     18  G   UNL     1      -2.100  -2.152  -1.273  1.00  0.00     0.000 G0
ENDBRANCH  13  17
ENDBRANCH  11  13
ENDBRANCH  10  11
ENDBRANCH   1  10
TORSDOF 0
ENDMDL
MODEL 3
REMARK VINA RESULT:    -4.084      1.789      4.785
REMARK INTER + INTRA:          -5.667
REMARK INTER:                  -5.844
REMARK INTRA:                   0.177
REMARK UNBOUND:                 0.088
REMARK SMILES CC1=CCC(=C(C)C)C(=O)CC(C)=CCC1
REMARK SMILES IDX 12 1 14 2 13 3 15 4 16 5 2 6 1 7 3 8 11 10 9 11 10 12 5 13
REMARK SMILES IDX 6 14 7 15 8 16 4 17
REMARK H PARENT
REMARK Flexibility Score: 60.00
ROOT
ATOM      1  C   UNL     1      -5.291   0.221   0.828  1.00  0.00    -0.070 C 
ATOM      2  C   UNL     1      -4.808   0.650   2.016  1.00  0.00    -0.027 C 
ATOM      3  C   UNL     1      -6.767  -0.072   0.727  1.00  0.00     0.039 C 
ENDROOT
BRANCH   2   4
ATOM      4  C   UNL     1      -3.383   1.063   2.304  1.00  0.00     0.032 C 
BRANCH   4   5
ATOM      5  C   UNL     1      -2.446  -0.136   2.529  1.00  0.00     0.034 C 
BRANCH   5   6
ATOM      6  C   UNL     1      -1.107   0.030   1.833  1.00  0.00    -0.077 C 
ATOM      7  C   UNL     1      -0.228   1.185   2.240  1.00  0.00     0.039 C 
ATOM      8  C   UNL     1      -0.661  -0.788   0.852  1.00  0.00    -0.023 CG0
ATOM      9  G   UNL     1      -1.414  -1.959   0.265  1.00  0.00     0.000 G0
ENDBRANCH   5   6
ENDBRANCH   4   5
ENDBRANCH   2   4
BRANCH   1  10
ATOM     10  C   UNL     1      -4.436   0.036  -0.413  1.00  0.00     0.111 C 
BRANCH  10  11
ATOM     11  C   UNL     1      -3.815  -1.339  -0.483  1.00  0.00     0.163 C 
ATOM     12  O   UNL     1      -4.561  -2.337  -0.299  1.00  0.00    -0.294 OA
BRANCH  11  13
ATOM     13  C   UNL     1      -2.380  -1.552  -0.842  1.00  0.00    -0.002 C 
ATOM     14  C   UNL     1      -1.981  -1.512  -2.147  1.00  0.00    -0.069 C 
ATOM     15  C   UNL     1      -2.957  -1.196  -3.258  1.00  0.00     0.039 C 
ATOM     16  C   UNL     1      -0.557  -1.829  -2.544  1.00  0.00     0.039 C 
BRANCH  13  17
ATOM     17  C   UNL     1      -1.413  -1.964   0.260  1.00  0.00     0.066 CG0
ATOM     18  G   UNL     1      -0.672  -0.776   0.828  1.00  0.00     0.000 G0
ENDBRANCH  13  17
ENDBRANCH  11  13
ENDBRANCH  10  11
ENDBRANCH   1  10
TORSDOF 0
ENDMDL
MODEL 4
REMARK VINA RESULT:    -3.981      1.882      3.546
REMARK INTER + INTRA:          -5.522
REMARK INTER:                  -5.993
REMARK INTRA:                   0.472
REMARK UNBOUND:                 0.088
REMARK SMILES CC1=CCC(=C(C)C)C(=O)CC(C)=CCC1
REMARK SMILES IDX 12 1 14 2 13 3 15 4 16 5 2 6 1 7 3 8 11 10 9 11 10 12 5 13
REMARK SMILES IDX 6 14 7 15 8 16 4 17
REMARK H PARENT
REMARK Flexibility Score: 60.00
ROOT
ATOM      1  C   UNL     1      -3.862  -0.184   2.065  1.00  0.00    -0.070 C 
ATOM      2  C   UNL     1      -2.605  -0.577   2.373  1.00  0.00    -0.027 C 
ATOM      3  C   UNL     1      -4.261   1.233   2.395  1.00  0.00     0.039 C 
ENDROOT
BRANCH   2   4
ATOM      4  C   UNL     1      -1.990  -1.923   2.064  1.00  0.00     0.032 C 
BRANCH   4   5
ATOM      5  C   UNL     1      -0.843  -1.836   1.043  1.00  0.00     0.034 C 
BRANCH   5   6
ATOM      6  C   UNL     1      -1.166  -0.919  -0.123  1.00  0.00    -0.077 C 
ATOM      7  C   UNL     1      -0.431   0.394  -0.224  1.00  0.00     0.039 C 
ATOM      8  C   UNL     1      -2.090  -1.201  -1.070  1.00  0.00    -0.023 CG0
ATOM      9  G   UNL     1      -2.968  -2.430  -1.113  1.00  0.00     0.000 G0
ENDBRANCH   5   6
ENDBRANCH   4   5
ENDBRANCH   2   4
BRANCH   1  10
ATOM     10  C   UNL     1      -4.885  -1.079   1.390  1.00  0.00     0.111 C 
BRANCH  10  11
ATOM     11  C   UNL     1      -4.863  -0.943  -0.113  1.00  0.00     0.163 C 
ATOM     12  O   UNL     1      -5.123   0.185  -0.612  1.00  0.00    -0.294 OA
BRANCH  11  13
ATOM     13  C   UNL     1      -4.466  -2.069  -1.014  1.00  0.00    -0.002 C 
ATOM     14  C   UNL     1      -5.419  -2.837  -1.620  1.00  0.00    -0.069 C 
ATOM     15  C   UNL     1      -6.892  -2.543  -1.449  1.00  0.00     0.039 C 
ATOM     16  C   UNL     1      -5.044  -4.045  -2.449  1.00  0.00     0.039 C 
BRANCH  13  17
ATOM     17  C   UNL     1      -2.990  -2.428  -1.114  1.00  0.00     0.066 CG0
ATOM     18  G   UNL     1      -2.110  -1.201  -1.067  1.00  0.00     0.000 G0
ENDBRANCH  13  17
ENDBRANCH  11  13
ENDBRANCH  10  11
ENDBRANCH   1  10
TORSDOF 0
ENDMDL
MODEL 5
REMARK VINA RESULT:    -3.928      2.263      4.214
REMARK INTER + INTRA:          -5.447
REMARK INTER:                  -5.651
REMARK INTRA:                   0.204
REMARK UNBOUND:                 0.088
REMARK SMILES CC1=CCC(=C(C)C)C(=O)CC(C)=CCC1
REMARK SMILES IDX 12 1 14 2 13 3 15 4 16 5 2 6 1 7 3 8 11 10 9 11 10 12 5 13
REMARK SMILES IDX 6 14 7 15 8 16 4 17
REMARK H PARENT
REMARK Flexibility Score: 60.00
ROOT
ATOM      1  C   UNL     1      -0.517  -2.601  -2.025  1.00  0.00    -0.070 C 
ATOM      2  C   UNL     1       0.097  -1.963  -1.002  1.00  0.00    -0.027 C 
ATOM      3  C   UNL     1       0.276  -2.843  -3.286  1.00  0.00     0.039 C 
ENDROOT
BRANCH   2   4
ATOM      4  C   UNL     1      -0.494  -1.689   0.361  1.00  0.00     0.032 C 
BRANCH   4   5
ATOM      5  C   UNL     1      -1.237  -0.344   0.432  1.00  0.00     0.034 C 
BRANCH   5   6
ATOM      6  C   UNL     1      -2.514  -0.424   1.250  1.00  0.00    -0.077 C 
ATOM      7  C   UNL     1      -2.396  -0.561   2.747  1.00  0.00     0.039 C 
ATOM      8  C   UNL     1      -3.755  -0.399   0.713  1.00  0.00    -0.023 CG0
ATOM      9  G   UNL     1      -4.082  -0.325  -0.760  1.00  0.00     0.000 G0
ENDBRANCH   5   6
ENDBRANCH   4   5
ENDBRANCH   2   4
BRANCH   1  10
ATOM     10  C   UNL     1      -1.948  -3.103  -1.970  1.00  0.00     0.111 C 
BRANCH  10  11
ATOM     11  C   UNL     1      -2.947  -2.030  -2.328  1.00  0.00     0.163 C 
ATOM     12  O   UNL     1      -2.838  -1.468  -3.451  1.00  0.00    -0.294 OA
BRANCH  11  13
ATOM     13  C   UNL     1      -4.097  -1.677  -1.440  1.00  0.00    -0.002 C 
ATOM     14  C   UNL     1      -5.184  -2.499  -1.360  1.00  0.00    -0.069 C 
ATOM     15  C   UNL     1      -5.238  -3.810  -2.113  1.00  0.00     0.039 C 
ATOM     16  C   UNL     1      -6.404  -2.113  -0.553  1.00  0.00     0.039 C 
BRANCH  13  17
ATOM     17  C   UNL     1      -4.091  -0.317  -0.756  1.00  0.00     0.066 CG0
ATOM     18  G   UNL     1      -3.770  -0.432   0.716  1.00  0.00     0.000 G0
ENDBRANCH  13  17
ENDBRANCH  11  13
ENDBRANCH  10  11
ENDBRANCH   1  10
TORSDOF 0
ENDMDL
MODEL 6
REMARK VINA RESULT:    -3.916      1.986      5.141
REMARK INTER + INTRA:          -5.430
REMARK INTER:                  -5.729
REMARK INTRA:                   0.299
REMARK UNBOUND:                 0.088
REMARK SMILES CC1=CCC(=C(C)C)C(=O)CC(C)=CCC1
REMARK SMILES IDX 12 1 14 2 13 3 15 4 16 5 2 6 1 7 3 8 11 10 9 11 10 12 5 13
REMARK SMILES IDX 6 14 7 15 8 16 4 17
REMARK H PARENT
REMARK Flexibility Score: 60.00
ROOT
ATOM      1  C   UNL     1      -4.852  -2.576  -1.931  1.00  0.00    -0.070 C 
ATOM      2  C   UNL     1      -5.899  -2.310  -1.116  1.00  0.00    -0.027 C 
ATOM      3  C   UNL     1      -4.873  -3.867  -2.712  1.00  0.00     0.039 C 
ENDROOT
BRANCH   2   4
ATOM      4  C   UNL     1      -6.103  -1.050  -0.308  1.00  0.00     0.032 C 
BRANCH   4   5
ATOM      5  C   UNL     1      -5.672  -1.203   1.161  1.00  0.00     0.034 C 
BRANCH   5   6
ATOM      6  C   UNL     1      -4.720  -0.109   1.609  1.00  0.00    -0.077 C 
ATOM      7  C   UNL     1      -5.302   1.219   2.024  1.00  0.00     0.039 C 
ATOM      8  C   UNL     1      -3.375  -0.246   1.639  1.00  0.00    -0.023 CG0
ATOM      9  G   UNL     1      -2.600  -1.470   1.209  1.00  0.00     0.000 G0
ENDBRANCH   5   6
ENDBRANCH   4   5
ENDBRANCH   2   4
BRANCH   1  10
ATOM     10  C   UNL     1      -3.671  -1.642  -2.119  1.00  0.00     0.111 C 
BRANCH  10  11
ATOM     11  C   UNL     1      -2.466  -2.073  -1.318  1.00  0.00     0.163 C 
ATOM     12  O   UNL     1      -1.846  -3.106  -1.686  1.00  0.00    -0.294 OA
BRANCH  11  13
ATOM     13  C   UNL     1      -1.942  -1.275  -0.167  1.00  0.00    -0.002 C 
ATOM     14  C   UNL     1      -0.832  -0.495  -0.316  1.00  0.00    -0.069 C 
ATOM     15  C   UNL     1      -0.134  -0.366  -1.652  1.00  0.00     0.039 C 
ATOM     16  C   UNL     1      -0.221   0.237   0.858  1.00  0.00     0.039 C 
BRANCH  13  17
ATOM     17  C   UNL     1      -2.581  -1.474   1.201  1.00  0.00     0.066 CG0
ATOM     18  G   UNL     1      -3.362  -0.256   1.636  1.00  0.00     0.000 G0
ENDBRANCH  13  17
ENDBRANCH  11  13
ENDBRANCH  10  11
ENDBRANCH   1  10
TORSDOF 0
ENDMDL
MODEL 7
REMARK VINA RESULT:    -3.846      1.662      4.379
REMARK INTER + INTRA:          -5.332
REMARK INTER:                  -5.844
REMARK INTRA:                   0.512
REMARK UNBOUND:                 0.088
REMARK SMILES CC1=CCC(=C(C)C)C(=O)CC(C)=CCC1
REMARK SMILES IDX 12 1 14 2 13 3 15 4 16 5 2 6 1 7 3 8 11 10 9 11 10 12 5 13
REMARK SMILES IDX 6 14 7 15 8 16 4 17
REMARK H PARENT
REMARK Flexibility Score: 60.00
ROOT
ATOM      1  C   UNL     1      -2.909  -1.816  -1.865  1.00  0.00    -0.070 C 
ATOM      2  C   UNL     1      -4.203  -2.181  -1.717  1.00  0.00    -0.027 C 
ATOM      3  C   UNL     1      -2.531  -1.037  -3.101  1.00  0.00     0.039 C 
ENDROOT
BRANCH   2   4
ATOM      4  C   UNL     1      -4.797  -2.898  -0.526  1.00  0.00     0.032 C 
BRANCH   4   5
ATOM      5  C   UNL     1      -5.798  -2.032   0.257  1.00  0.00     0.034 C 
BRANCH   5   6
ATOM      6  C   UNL     1      -5.316  -0.604   0.442  1.00  0.00    -0.077 C 
ATOM      7  C   UNL     1      -6.041   0.496  -0.292  1.00  0.00     0.039 C 
ATOM      8  C   UNL     1      -4.260  -0.259   1.214  1.00  0.00    -0.023 CG0
ATOM      9  G   UNL     1      -3.373  -1.214   1.979  1.00  0.00     0.000 G0
ENDBRANCH   5   6
ENDBRANCH   4   5
ENDBRANCH   2   4
BRANCH   1  10
ATOM     10  C   UNL     1      -1.823  -2.127  -0.852  1.00  0.00     0.111 C 
BRANCH  10  11
ATOM     11  C   UNL     1      -1.581  -0.982   0.101  1.00  0.00     0.163 C 
ATOM     12  O   UNL     1      -1.169   0.110  -0.375  1.00  0.00    -0.294 OA
BRANCH  11  13
ATOM     13  C   UNL     1      -1.893  -1.074   1.560  1.00  0.00    -0.002 C 
ATOM     14  C   UNL     1      -0.885  -1.169   2.476  1.00  0.00    -0.069 C 
ATOM     15  C   UNL     1       0.567  -1.125   2.056  1.00  0.00     0.039 C 
ATOM     16  C   UNL     1      -1.176  -1.370   3.947  1.00  0.00     0.039 C 
BRANCH  13  17
ATOM     17  C   UNL     1      -3.350  -1.215   1.981  1.00  0.00     0.066 CG0
ATOM     18  G   UNL     1      -4.244  -0.256   1.231  1.00  0.00     0.000 G0
ENDBRANCH  13  17
ENDBRANCH  11  13
ENDBRANCH  10  11
ENDBRANCH   1  10
TORSDOF 0
ENDMDL
MODEL 8
REMARK VINA RESULT:    -3.819      2.028      2.971
REMARK INTER + INTRA:          -5.293
REMARK INTER:                  -5.893
REMARK INTRA:                   0.599
REMARK UNBOUND:                 0.088
REMARK SMILES CC1=CCC(=C(C)C)C(=O)CC(C)=CCC1
REMARK SMILES IDX 12 1 14 2 13 3 15 4 16 5 2 6 1 7 3 8 11 10 9 11 10 12 5 13
REMARK SMILES IDX 6 14 7 15 8 16 4 17
REMARK H PARENT
REMARK Flexibility Score: 60.00
ROOT
ATOM      1  C   UNL     1      -2.403  -1.188   1.266  1.00  0.00    -0.070 C 
ATOM      2  C   UNL     1      -1.122  -1.498   0.961  1.00  0.00    -0.027 C 
ATOM      3  C   UNL     1      -3.176  -2.150   2.135  1.00  0.00     0.039 C 
ENDROOT
BRANCH   2   4
ATOM      4  C   UNL     1      -0.161  -0.640   0.170  1.00  0.00     0.032 C 
BRANCH   4   5
ATOM      5  C   UNL     1      -0.630  -0.390  -1.273  1.00  0.00     0.034 C 
BRANCH   5   6
ATOM      6  C   UNL     1      -1.101  -1.658  -1.963  1.00  0.00    -0.077 C 
ATOM      7  C   UNL     1      -0.095  -2.752  -2.213  1.00  0.00     0.039 C 
ATOM      8  C   UNL     1      -2.371  -1.859  -2.386  1.00  0.00    -0.023 CG0
ATOM      9  G   UNL     1      -3.506  -0.867  -2.283  1.00  0.00     0.000 G0
ENDBRANCH   5   6
ENDBRANCH   4   5
ENDBRANCH   2   4
BRANCH   1  10
ATOM     10  C   UNL     1      -3.099   0.079   0.803  1.00  0.00     0.111 C 
BRANCH  10  11
ATOM     11  C   UNL     1      -4.381  -0.210   0.060  1.00  0.00     0.163 C 
ATOM     12  O   UNL     1      -5.420   0.414   0.404  1.00  0.00    -0.294 OA
BRANCH  11  13
ATOM     13  C   UNL     1      -4.437  -1.137  -1.111  1.00  0.00    -0.002 C 
ATOM     14  C   UNL     1      -5.194  -2.272  -1.057  1.00  0.00    -0.069 C 
ATOM     15  C   UNL     1      -6.039  -2.598   0.154  1.00  0.00     0.039 C 
ATOM     16  C   UNL     1      -5.184  -3.279  -2.186  1.00  0.00     0.039 C 
BRANCH  13  17
ATOM     17  C   UNL     1      -3.517  -0.865  -2.294  1.00  0.00     0.066 CG0
ATOM     18  G   UNL     1      -2.399  -1.878  -2.379  1.00  0.00     0.000 G0
ENDBRANCH  13  17
ENDBRANCH  11  13
ENDBRANCH  10  11
ENDBRANCH   1  10
TORSDOF 0
ENDMDL
MODEL 9
REMARK VINA RESULT:    -3.721      1.633      3.491
REMARK INTER + INTRA:          -5.156
REMARK INTER:                  -5.591
REMARK INTRA:                   0.435
REMARK UNBOUND:                 0.088
REMARK SMILES CC1=CCC(=C(C)C)C(=O)CC(C)=CCC1
REMARK SMILES IDX 12 1 14 2 13 3 15 4 16 5 2 6 1 7 3 8 11 10 9 11 10 12 5 13
REMARK SMILES IDX 6 14 7 15 8 16 4 17
REMARK H PARENT
REMARK Flexibility Score: 60.00
ROOT
ATOM      1  C   UNL     1      -2.185  -1.784  -1.585  1.00  0.00    -0.070 C 
ATOM      2  C   UNL     1      -0.921  -1.412  -1.278  1.00  0.00    -0.027 C 
ATOM      3  C   UNL     1      -2.386  -3.112  -2.271  1.00  0.00     0.039 C 
ENDROOT
BRANCH   2   4
ATOM      4  C   UNL     1      -0.514  -0.163  -0.532  1.00  0.00     0.032 C 
BRANCH   4   5
ATOM      5  C   UNL     1       0.209  -0.464   0.791  1.00  0.00     0.034 C 
BRANCH   5   6
ATOM      6  C   UNL     1      -0.572  -1.412   1.682  1.00  0.00    -0.077 C 
ATOM      7  C   UNL     1       0.052  -2.738   2.037  1.00  0.00     0.039 C 
ATOM      8  C   UNL     1      -1.809  -1.147   2.163  1.00  0.00    -0.023 CG0
ATOM      9  G   UNL     1      -2.624   0.092   1.876  1.00  0.00     0.000 G0
ENDBRANCH   5   6
ENDBRANCH   4   5
ENDBRANCH   2   4
BRANCH   1  10
ATOM     10  C   UNL     1      -3.412  -0.951  -1.260  1.00  0.00     0.111 C 
BRANCH  10  11
ATOM     11  C   UNL     1      -3.974  -1.264   0.105  1.00  0.00     0.163 C 
ATOM     12  O   UNL     1      -4.391  -2.433   0.321  1.00  0.00    -0.294 OA
BRANCH  11  13
ATOM     13  C   UNL     1      -3.974  -0.268   1.220  1.00  0.00    -0.002 C 
ATOM     14  C   UNL     1      -5.117   0.404   1.545  1.00  0.00    -0.069 C 
ATOM     15  C   UNL     1      -6.423   0.126   0.834  1.00  0.00     0.039 C 
ATOM     16  C   UNL     1      -5.118   1.492   2.596  1.00  0.00     0.039 C 
BRANCH  13  17
ATOM     17  C   UNL     1      -2.645   0.085   1.874  1.00  0.00     0.066 CG0
ATOM     18  G   UNL     1      -1.818  -1.146   2.163  1.00  0.00     0.000 G0
ENDBRANCH  13  17
ENDBRANCH  11  13
ENDBRANCH  10  11
ENDBRANCH   1  10
TORSDOF 0
ENDMDL
