MODEL 1
REMARK VINA RESULT:    -2.689      0.000      0.000
REMARK INTER + INTRA:          -2.767
REMARK INTER:                  -2.767
REMARK INTRA:                   0.000
REMARK UNBOUND:                 0.000
REMARK SMILES CC1(C)[C@H]2CC[C@](C)(C2)[C@@H]1O
REMARK SMILES IDX 1 1 2 2 4 3 5 4 6 5 7 6 9 7 10 8 8 9 3 10 11 11
REMARK H PARENT 11 12
REMARK Flexibility Score: inf
ROOT
ATOM      1  C   UNL     1     123.993 120.747 107.971  1.00  0.00     0.014 C 
ATOM      2  C   UNL     1     123.634 119.253 108.183  1.00  0.00    -0.006 C 
ATOM      3  C   UNL     1     122.678 118.769 107.038  1.00  0.00    -0.002 C 
ATOM      4  C   UNL     1     122.519 117.233 107.048  1.00  0.00     0.005 C 
ATOM      5  C   UNL     1     121.721 116.980 108.337  1.00  0.00     0.010 C 
ATOM      6  C   UNL     1     121.441 118.411 108.854  1.00  0.00    -0.006 C 
ATOM      7  C   UNL     1     121.307 119.176 107.554  1.00  0.00     0.013 C 
ATOM      8  C   UNL     1     122.760 118.983 109.457  1.00  0.00     0.126 C 
ATOM      9  C   UNL     1     120.213 118.489 109.771  1.00  0.00     0.014 C 
ATOM     10  C   UNL     1     124.968 118.467 108.245  1.00  0.00     0.014 C 
ENDROOT
BRANCH   8  11
ATOM     11  O   UNL     1     122.562 120.132 110.254  1.00  0.00    -0.392 OA
ATOM     12  H   UNL     1     121.589 120.279 110.371  1.00  0.00     0.211 HD
ENDBRANCH   8  11
TORSDOF 1
ENDMDL
MODEL 2
REMARK VINA RESULT:    -2.668      8.517     10.189
REMARK INTER + INTRA:          -2.746
REMARK INTER:                  -2.746
REMARK INTRA:                   0.000
REMARK UNBOUND:                 0.000
REMARK SMILES CC1(C)[C@H]2CC[C@](C)(C2)[C@@H]1O
REMARK SMILES IDX 1 1 2 2 4 3 5 4 6 5 7 6 9 7 10 8 8 9 3 10 11 11
REMARK H PARENT 11 12
REMARK Flexibility Score: inf
ROOT
ATOM      1  C   UNL     1     111.402 123.879 107.610  1.00  0.00     0.014 C 
ATOM      2  C   UNL     1     112.869 123.516 107.960  1.00  0.00    -0.006 C 
ATOM      3  C   UNL     1     113.412 122.455 106.942  1.00  0.00    -0.002 C 
ATOM      4  C   UNL     1     114.939 122.273 107.078  1.00  0.00     0.005 C 
ATOM      5  C   UNL     1     115.082 121.589 108.447  1.00  0.00     0.010 C 
ATOM      6  C   UNL     1     113.612 121.378 108.880  1.00  0.00    -0.006 C 
ATOM      7  C   UNL     1     112.939 121.142 107.544  1.00  0.00     0.013 C 
ATOM      8  C   UNL     1     113.027 122.754 109.322  1.00  0.00     0.126 C 
ATOM      9  C   UNL     1     113.441 120.238 109.892  1.00  0.00     0.014 C 
ATOM     10  C   UNL     1     113.678 124.838 107.964  1.00  0.00     0.014 C 
ENDROOT
BRANCH   8  11
ATOM     11  O   UNL     1     111.821 122.646 110.047  1.00  0.00    -0.392 OA
ATOM     12  H   UNL     1     111.548 123.547 110.357  1.00  0.00     0.211 HD
ENDBRANCH   8  11
TORSDOF 1
ENDMDL
MODEL 3
REMARK VINA RESULT:    -2.655     12.550     14.450
REMARK INTER + INTRA:          -2.733
REMARK INTER:                  -2.733
REMARK INTRA:                   0.000
REMARK UNBOUND:                 0.000
REMARK SMILES CC1(C)[C@H]2CC[C@](C)(C2)[C@@H]1O
REMARK SMILES IDX 1 1 2 2 4 3 5 4 6 5 7 6 9 7 10 8 8 9 3 10 11 11
REMARK H PARENT 11 12
REMARK Flexibility Score: inf
ROOT
ATOM      1  C   UNL     1     108.103 111.426 107.602  1.00  0.00     0.014 C 
ATOM      2  C   UNL     1     108.476 112.894 107.936  1.00  0.00    -0.006 C 
ATOM      3  C   UNL     1     109.540 113.419 106.911  1.00  0.00    -0.002 C 
ATOM      4  C   UNL     1     109.732 114.946 107.031  1.00  0.00     0.005 C 
ATOM      5  C   UNL     1     110.419 115.099 108.397  1.00  0.00     0.010 C 
ATOM      6  C   UNL     1     110.620 113.632 108.846  1.00  0.00    -0.006 C 
ATOM      7  C   UNL     1     110.850 112.943 107.517  1.00  0.00     0.013 C 
ATOM      8  C   UNL     1     109.240 113.062 109.296  1.00  0.00     0.126 C 
ATOM      9  C   UNL     1     111.760 113.464 109.859  1.00  0.00     0.014 C 
ATOM     10  C   UNL     1     107.160 113.712 107.932  1.00  0.00     0.014 C 
ENDROOT
BRANCH   8  11
ATOM     11  O   UNL     1     109.341 111.862 110.034  1.00  0.00    -0.392 OA
ATOM     12  H   UNL     1     109.670 112.071 110.945  1.00  0.00     0.211 HD
ENDBRANCH   8  11
TORSDOF 1
ENDMDL
MODEL 4
REMARK VINA RESULT:    -2.649      8.633     10.334
REMARK INTER + INTRA:          -2.727
REMARK INTER:                  -2.727
REMARK INTRA:                   0.000
REMARK UNBOUND:                 0.000
REMARK SMILES CC1(C)[C@H]2CC[C@](C)(C2)[C@@H]1O
REMARK SMILES IDX 1 1 2 2 4 3 5 4 6 5 7 6 9 7 10 8 8 9 3 10 11 11
REMARK H PARENT 11 12
REMARK Flexibility Score: inf
ROOT
ATOM      1  C   UNL     1     120.544 108.030 107.664  1.00  0.00     0.014 C 
ATOM      2  C   UNL     1     119.087 108.402 108.041  1.00  0.00    -0.006 C 
ATOM      3  C   UNL     1     118.516 109.432 107.005  1.00  0.00    -0.002 C 
ATOM      4  C   UNL     1     116.992 109.616 107.176  1.00  0.00     0.005 C 
ATOM      5  C   UNL     1     116.884 110.342 108.527  1.00  0.00     0.010 C 
ATOM      6  C   UNL     1     118.365 110.567 108.915  1.00  0.00    -0.006 C 
ATOM      7  C   UNL     1     119.003 110.763 107.555  1.00  0.00     0.013 C 
ATOM      8  C   UNL     1     118.963 109.205 109.383  1.00  0.00     0.126 C 
ATOM      9  C   UNL     1     118.560 111.738 109.887  1.00  0.00     0.014 C 
ATOM     10  C   UNL     1     118.280 107.081 108.106  1.00  0.00     0.014 C 
ENDROOT
BRANCH   8  11
ATOM     11  O   UNL     1     120.188 109.337 110.073  1.00  0.00    -0.392 OA
ATOM     12  H   UNL     1     120.806 108.625 109.770  1.00  0.00     0.211 HD
ENDBRANCH   8  11
TORSDOF 1
ENDMDL
MODEL 5
REMARK VINA RESULT:    -2.637      1.159      3.166
REMARK INTER + INTRA:          -2.714
REMARK INTER:                  -2.714
REMARK INTRA:                   0.000
REMARK UNBOUND:                 0.000
REMARK SMILES CC1(C)[C@H]2CC[C@](C)(C2)[C@@H]1O
REMARK SMILES IDX 1 1 2 2 4 3 5 4 6 5 7 6 9 7 10 8 8 9 3 10 11 11
REMARK H PARENT 11 12
REMARK Flexibility Score: inf
ROOT
ATOM      1  C   UNL     1     121.996 116.799 108.875  1.00  0.00     0.014 C 
ATOM      2  C   UNL     1     122.100 118.119 108.066  1.00  0.00    -0.006 C 
ATOM      3  C   UNL     1     123.394 118.098 107.180  1.00  0.00    -0.002 C 
ATOM      4  C   UNL     1     123.395 119.255 106.158  1.00  0.00     0.005 C 
ATOM      5  C   UNL     1     123.567 120.497 107.046  1.00  0.00     0.010 C 
ATOM      6  C   UNL     1     123.739 119.888 108.458  1.00  0.00    -0.006 C 
ATOM      7  C   UNL     1     124.463 118.596 108.139  1.00  0.00     0.013 C 
ATOM      8  C   UNL     1     122.347 119.390 108.952  1.00  0.00     0.126 C 
ATOM      9  C   UNL     1     124.484 120.815 109.426  1.00  0.00     0.014 C 
ATOM     10  C   UNL     1     120.793 118.256 107.246  1.00  0.00     0.014 C 
ENDROOT
BRANCH   8  11
ATOM     11  O   UNL     1     122.304 119.124 110.338  1.00  0.00    -0.392 OA
ATOM     12  H   UNL     1     122.502 119.959 110.832  1.00  0.00     0.211 HD
ENDBRANCH   8  11
TORSDOF 1
ENDMDL
MODEL 6
REMARK VINA RESULT:    -2.628      8.977     10.574
REMARK INTER + INTRA:          -2.705
REMARK INTER:                  -2.705
REMARK INTRA:                   0.000
REMARK UNBOUND:                 0.000
REMARK SMILES CC1(C)[C@H]2CC[C@](C)(C2)[C@@H]1O
REMARK SMILES IDX 1 1 2 2 4 3 5 4 6 5 7 6 9 7 10 8 8 9 3 10 11 11
REMARK H PARENT 11 12
REMARK Flexibility Score: inf
ROOT
ATOM      1  C   UNL     1     115.226 122.006 108.861  1.00  0.00     0.014 C 
ATOM      2  C   UNL     1     113.903 122.095 108.055  1.00  0.00    -0.006 C 
ATOM      3  C   UNL     1     113.909 123.387 107.166  1.00  0.00    -0.002 C 
ATOM      4  C   UNL     1     112.750 123.374 106.146  1.00  0.00     0.005 C 
ATOM      5  C   UNL     1     111.508 123.536 107.037  1.00  0.00     0.010 C 
ATOM      6  C   UNL     1     112.119 123.717 108.447  1.00  0.00    -0.006 C 
ATOM      7  C   UNL     1     113.402 124.453 108.124  1.00  0.00     0.013 C 
ATOM      8  C   UNL     1     112.632 122.331 108.943  1.00  0.00     0.126 C 
ATOM      9  C   UNL     1     111.186 124.455 109.416  1.00  0.00     0.014 C 
ATOM     10  C   UNL     1     113.778 120.785 107.238  1.00  0.00     0.014 C 
ENDROOT
BRANCH   8  11
ATOM     11  O   UNL     1     112.901 122.294 110.329  1.00  0.00    -0.392 OA
ATOM     12  H   UNL     1     112.649 121.403 110.682  1.00  0.00     0.211 HD
ENDBRANCH   8  11
TORSDOF 1
ENDMDL
MODEL 7
REMARK VINA RESULT:    -2.628      9.055     10.676
REMARK INTER + INTRA:          -2.704
REMARK INTER:                  -2.704
REMARK INTRA:                   0.000
REMARK UNBOUND:                 0.000
REMARK SMILES CC1(C)[C@H]2CC[C@](C)(C2)[C@@H]1O
REMARK SMILES IDX 1 1 2 2 4 3 5 4 6 5 7 6 9 7 10 8 8 9 3 10 11 11
REMARK H PARENT 11 12
REMARK Flexibility Score: inf
ROOT
ATOM      1  C   UNL     1     116.777 110.020 108.863  1.00  0.00     0.014 C 
ATOM      2  C   UNL     1     118.093 109.928 108.046  1.00  0.00    -0.006 C 
ATOM      3  C   UNL     1     118.081 108.633 107.162  1.00  0.00    -0.002 C 
ATOM      4  C   UNL     1     119.232 108.643 106.134  1.00  0.00     0.005 C 
ATOM      5  C   UNL     1     120.481 108.485 107.015  1.00  0.00     0.010 C 
ATOM      6  C   UNL     1     119.882 108.310 108.431  1.00  0.00    -0.006 C 
ATOM      7  C   UNL     1     118.596 107.571 108.120  1.00  0.00     0.013 C 
ATOM      8  C   UNL     1     119.372 109.697 108.925  1.00  0.00     0.126 C 
ATOM      9  C   UNL     1     120.823 107.576 109.395  1.00  0.00     0.014 C 
ATOM     10  C   UNL     1     118.211 111.236 107.223  1.00  0.00     0.014 C 
ENDROOT
BRANCH   8  11
ATOM     11  O   UNL     1     119.114 109.740 110.313  1.00  0.00    -0.392 OA
ATOM     12  H   UNL     1     118.288 109.227 110.502  1.00  0.00     0.211 HD
ENDBRANCH   8  11
TORSDOF 1
ENDMDL
MODEL 8
REMARK VINA RESULT:    -2.627     12.945     14.702
REMARK INTER + INTRA:          -2.704
REMARK INTER:                  -2.704
REMARK INTRA:                   0.000
REMARK UNBOUND:                 0.000
REMARK SMILES CC1(C)[C@H]2CC[C@](C)(C2)[C@@H]1O
REMARK SMILES IDX 1 1 2 2 4 3 5 4 6 5 7 6 9 7 10 8 8 9 3 10 11 11
REMARK H PARENT 11 12
REMARK Flexibility Score: inf
ROOT
ATOM      1  C   UNL     1     109.994 115.227 108.863  1.00  0.00     0.014 C 
ATOM      2  C   UNL     1     109.907 113.906 108.056  1.00  0.00    -0.006 C 
ATOM      3  C   UNL     1     108.616 113.911 107.166  1.00  0.00    -0.002 C 
ATOM      4  C   UNL     1     108.630 112.752 106.146  1.00  0.00     0.005 C 
ATOM      5  C   UNL     1     108.469 111.510 107.036  1.00  0.00     0.010 C 
ATOM      6  C   UNL     1     108.287 112.119 108.446  1.00  0.00    -0.006 C 
ATOM      7  C   UNL     1     107.549 113.402 108.122  1.00  0.00     0.013 C 
ATOM      8  C   UNL     1     109.672 112.633 108.943  1.00  0.00     0.126 C 
ATOM      9  C   UNL     1     107.549 111.185 109.414  1.00  0.00     0.014 C 
ATOM     10  C   UNL     1     111.218 113.782 107.239  1.00  0.00     0.014 C 
ENDROOT
BRANCH   8  11
ATOM     11  O   UNL     1     109.708 112.902 110.329  1.00  0.00    -0.392 OA
ATOM     12  H   UNL     1     109.964 112.074 110.810  1.00  0.00     0.211 HD
ENDBRANCH   8  11
TORSDOF 1
ENDMDL
MODEL 9
REMARK VINA RESULT:    -2.470      1.856      3.588
REMARK INTER + INTRA:          -2.542
REMARK INTER:                  -2.542
REMARK INTRA:                   0.000
REMARK UNBOUND:                 0.000
REMARK SMILES CC1(C)[C@H]2CC[C@](C)(C2)[C@@H]1O
REMARK SMILES IDX 1 1 2 2 4 3 5 4 6 5 7 6 9 7 10 8 8 9 3 10 11 11
REMARK H PARENT 11 12
REMARK Flexibility Score: inf
ROOT
ATOM      1  C   UNL     1     119.535 117.482 107.817  1.00  0.00     0.014 C 
ATOM      2  C   UNL     1     120.872 118.043 108.366  1.00  0.00    -0.006 C 
ATOM      3  C   UNL     1     121.599 118.872 107.251  1.00  0.00    -0.002 C 
ATOM      4  C   UNL     1     122.784 119.675 107.828  1.00  0.00     0.005 C 
ATOM      5  C   UNL     1     123.794 118.578 108.199  1.00  0.00     0.010 C 
ATOM      6  C   UNL     1     123.098 117.289 107.700  1.00  0.00    -0.006 C 
ATOM      7  C   UNL     1     122.358 117.803 106.483  1.00  0.00     0.013 C 
ATOM      8  C   UNL     1     121.941 116.940 108.685  1.00  0.00     0.126 C 
ATOM      9  C   UNL     1     124.082 116.147 107.414  1.00  0.00     0.014 C 
ATOM     10  C   UNL     1     120.534 118.873 109.630  1.00  0.00     0.014 C 
ENDROOT
BRANCH   8  11
ATOM     11  O   UNL     1     121.452 115.625 108.535  1.00  0.00    -0.392 OA
ATOM     12  H   UNL     1     121.953 115.176 107.807  1.00  0.00     0.211 HD
ENDBRANCH   8  11
TORSDOF 1
ENDMDL
