MODEL 1
REMARK VINA RESULT:    58.014      0.000      0.000
REMARK INTER + INTRA:          81.586
REMARK INTER:                  81.755
REMARK INTRA:                  -0.169
REMARK UNBOUND:                -0.169
REMARK SMILES COc1c(O[C@@H]2O[C@H](C(=O)[O-])[C@H](O)[C@@H](O)[C@H]2O)cc(O)c2c(=O)cc(-c3ccccc3)oc12
REMARK SMILES IDX 5 1 6 2 8 3 12 4 7 5 14 6 16 7 9 8 10 9 11 10 13 11 15 13
REMARK SMILES IDX 17 15 4 17 3 18 18 19 33 20 19 21 21 22 32 23 22 24 25 25
REMARK SMILES IDX 24 26 23 27 2 28 1 29 20 30 26 32 27 33 31 34 28 35 30 36
REMARK SMILES IDX 29 37
REMARK H PARENT 13 12 15 14 17 16 20 31
REMARK Flexibility Score: inf
ROOT
ATOM      1  O   UNL     1       9.502  11.235  32.329  1.00  0.00    -0.458 OA
ENDROOT
BRANCH   1   2
ATOM      2  C   UNL     1       8.639  10.095  32.238  1.00  0.00     0.339 C 
ATOM      3  C   UNL     1       6.517   9.306  32.836  1.00  0.00     0.199 C 
ATOM      4  C   UNL     1       7.044   7.867  32.509  1.00  0.00     0.180 C 
ATOM      5  O   UNL     1       7.557  10.230  33.137  1.00  0.00    -0.328 OA
ATOM      6  C   UNL     1       8.460   7.678  33.073  1.00  0.00     0.181 C 
ATOM      7  C   UNL     1       9.412   8.780  32.533  1.00  0.00     0.214 C 
BRANCH   3   8
ATOM      8  C   UNL     1       5.562   9.306  33.996  1.00  0.00     0.073 C 
ATOM      9  O   UNL     1       5.900   8.799  35.099  1.00  0.00    -0.547 OA
ATOM     10  O   UNL     1       4.292   9.855  33.853  1.00  0.00    -0.547 OA
ENDBRANCH   3   8
BRANCH   4  11
ATOM     11  O   UNL     1       6.195   6.864  33.011  1.00  0.00    -0.387 OA
ATOM     12  H   UNL     1       5.971   7.124  33.943  1.00  0.00     0.211 HD
ENDBRANCH   4  11
BRANCH   6  13
ATOM     13  O   UNL     1       8.936   6.397  32.750  1.00  0.00    -0.387 OA
ATOM     14  H   UNL     1       8.676   6.227  31.808  1.00  0.00     0.211 HD
ENDBRANCH   6  13
BRANCH   7  15
ATOM     15  O   UNL     1      10.111   8.355  31.387  1.00  0.00    -0.384 OA
ATOM     16  H   UNL     1      10.269   7.379  31.475  1.00  0.00     0.211 HD
ENDBRANCH   7  15
ENDBRANCH   1   2
BRANCH   1  17
ATOM     17  C   UNL     1      10.474  11.560  31.373  1.00  0.00     0.172 A 
ATOM     18  C   UNL     1      10.140  12.279  30.212  1.00  0.00     0.205 A 
ATOM     19  C   UNL     1      11.784  11.136  31.589  1.00  0.00     0.097 A 
ATOM     20  C   UNL     1      11.166  12.628  29.297  1.00  0.00     0.188 A 
ATOM     21  C   UNL     1      12.802  11.458  30.690  1.00  0.00     0.134 A 
ATOM     22  C   UNL     1      12.504  12.216  29.537  1.00  0.00     0.111 A 
ATOM     23  O   UNL     1      10.882  13.336  28.206  1.00  0.00    -0.452 OA
ATOM     24  C   UNL     1      13.487  12.581  28.594  1.00  0.00     0.197 A 
ATOM     25  C   UNL     1      11.785  13.690  27.294  1.00  0.00     0.138 A 
ATOM     26  C   UNL     1      13.126  13.322  27.472  1.00  0.00     0.100 A 
ATOM     27  O   UNL     1      14.696  12.255  28.742  1.00  0.00    -0.289 OA
BRANCH  18  28
ATOM     28  O   UNL     1       8.781  12.586  30.012  1.00  0.00    -0.490 OA
ATOM     29  C   UNL     1       7.715  11.656  29.861  1.00  0.00     0.278 C 
ENDBRANCH  18  28
BRANCH  21  30
ATOM     30  O   UNL     1      14.104  11.025  30.950  1.00  0.00    -0.507 OA
ATOM     31  H   UNL     1      14.497  11.048  31.883  1.00  0.00     0.293 HD
ENDBRANCH  21  30
BRANCH  25  32
ATOM     32  C   UNL     1      11.346  14.481  26.117  1.00  0.00     0.017 A 
ATOM     33  C   UNL     1      12.241  15.383  25.513  1.00  0.00     0.012 A 
ATOM     34  C   UNL     1      10.041  14.368  25.598  1.00  0.00     0.012 A 
ATOM     35  C   UNL     1      11.846  16.140  24.406  1.00  0.00     0.001 A 
ATOM     36  C   UNL     1       9.652  15.129  24.492  1.00  0.00     0.001 A 
ATOM     37  C   UNL     1      10.554  16.012  23.895  1.00  0.00     0.000 A 
ENDBRANCH  25  32
ENDBRANCH   1  17
TORSDOF 9
ENDMDL
MODEL 2
REMARK VINA RESULT:    58.398      1.528      1.977
REMARK INTER + INTRA:          82.126
REMARK INTER:                  83.354
REMARK INTRA:                  -1.228
REMARK UNBOUND:                -0.169
REMARK SMILES COc1c(O[C@@H]2O[C@H](C(=O)[O-])[C@H](O)[C@@H](O)[C@H]2O)cc(O)c2c(=O)cc(-c3ccccc3)oc12
REMARK SMILES IDX 5 1 6 2 8 3 12 4 7 5 14 6 16 7 9 8 10 9 11 10 13 11 15 13
REMARK SMILES IDX 17 15 4 17 3 18 18 19 33 20 19 21 21 22 32 23 22 24 25 25
REMARK SMILES IDX 24 26 23 27 2 28 1 29 20 30 26 32 27 33 31 34 28 35 30 36
REMARK SMILES IDX 29 37
REMARK H PARENT 13 12 15 14 17 16 20 31
REMARK Flexibility Score: inf
ROOT
ATOM      1  O   UNL     1       8.378  10.246  31.957  1.00  0.00    -0.458 OA
ENDROOT
BRANCH   1   2
ATOM      2  C   UNL     1       8.192   8.834  32.118  1.00  0.00     0.339 C 
ATOM      3  C   UNL     1       6.926   7.018  31.355  1.00  0.00     0.199 C 
ATOM      4  C   UNL     1       7.438   6.232  32.611  1.00  0.00     0.180 C 
ATOM      5  O   UNL     1       6.978   8.430  31.517  1.00  0.00    -0.328 OA
ATOM      6  C   UNL     1       7.388   7.130  33.856  1.00  0.00     0.181 C 
ATOM      7  C   UNL     1       8.199   8.433  33.619  1.00  0.00     0.214 C 
BRANCH   3   8
ATOM      8  C   UNL     1       5.512   6.654  31.001  1.00  0.00     0.073 C 
ATOM      9  O   UNL     1       4.555   7.386  31.370  1.00  0.00    -0.547 OA
ATOM     10  O   UNL     1       5.251   5.498  30.274  1.00  0.00    -0.547 OA
ENDBRANCH   3   8
BRANCH   4  11
ATOM     11  O   UNL     1       6.696   5.059  32.842  1.00  0.00    -0.387 OA
ATOM     12  H   UNL     1       7.112   4.612  33.626  1.00  0.00     0.211 HD
ENDBRANCH   4  11
BRANCH   6  13
ATOM     13  O   UNL     1       7.876   6.429  34.971  1.00  0.00    -0.387 OA
ATOM     14  H   UNL     1       8.569   7.004  35.387  1.00  0.00     0.211 HD
ENDBRANCH   6  13
BRANCH   7  15
ATOM     15  O   UNL     1       9.521   8.324  34.091  1.00  0.00    -0.384 OA
ATOM     16  H   UNL     1       9.599   7.459  34.571  1.00  0.00     0.211 HD
ENDBRANCH   7  15
ENDBRANCH   1   2
BRANCH   1  17
ATOM     17  C   UNL     1       9.488  10.823  31.325  1.00  0.00     0.172 A 
ATOM     18  C   UNL     1       9.356  11.504  30.102  1.00  0.00     0.205 A 
ATOM     19  C   UNL     1      10.737  10.689  31.928  1.00  0.00     0.097 A 
ATOM     20  C   UNL     1      10.498  12.114  29.525  1.00  0.00     0.188 A 
ATOM     21  C   UNL     1      11.874  11.271  31.364  1.00  0.00     0.134 A 
ATOM     22  C   UNL     1      11.764  11.998  30.159  1.00  0.00     0.111 A 
ATOM     23  O   UNL     1      10.395  12.793  28.385  1.00  0.00    -0.452 OA
ATOM     24  C   UNL     1      12.872  12.616  29.542  1.00  0.00     0.197 A 
ATOM     25  C   UNL     1      11.421  13.381  27.774  1.00  0.00     0.138 A 
ATOM     26  C   UNL     1      12.698  13.311  28.349  1.00  0.00     0.100 A 
ATOM     27  O   UNL     1      14.026  12.558  30.049  1.00  0.00    -0.289 OA
BRANCH  18  28
ATOM     28  O   UNL     1       8.082  11.512  29.503  1.00  0.00    -0.490 OA
ATOM     29  C   UNL     1       6.975  12.323  29.877  1.00  0.00     0.278 C 
ENDBRANCH  18  28
BRANCH  21  30
ATOM     30  O   UNL     1      13.105  11.124  32.007  1.00  0.00    -0.507 OA
ATOM     31  H   UNL     1      13.783  10.434  31.709  1.00  0.00     0.293 HD
ENDBRANCH  21  30
BRANCH  25  32
ATOM     32  C   UNL     1      11.181  14.110  26.504  1.00  0.00     0.017 A 
ATOM     33  C   UNL     1      12.187  14.939  25.977  1.00  0.00     0.012 A 
ATOM     34  C   UNL     1       9.954  14.011  25.818  1.00  0.00     0.012 A 
ATOM     35  C   UNL     1      11.978  15.638  24.784  1.00  0.00     0.001 A 
ATOM     36  C   UNL     1       9.751  14.714  24.626  1.00  0.00     0.001 A 
ATOM     37  C   UNL     1      10.763  15.524  24.108  1.00  0.00     0.000 A 
ENDBRANCH  25  32
ENDBRANCH   1  17
TORSDOF 9
ENDMDL
MODEL 3
REMARK VINA RESULT:    59.306      1.487      2.259
REMARK INTER + INTRA:          83.406
REMARK INTER:                  84.909
REMARK INTRA:                  -1.503
REMARK UNBOUND:                -0.169
REMARK SMILES COc1c(O[C@@H]2O[C@H](C(=O)[O-])[C@H](O)[C@@H](O)[C@H]2O)cc(O)c2c(=O)cc(-c3ccccc3)oc12
REMARK SMILES IDX 5 1 6 2 8 3 12 4 7 5 14 6 16 7 9 8 10 9 11 10 13 11 15 13
REMARK SMILES IDX 17 15 4 17 3 18 18 19 33 20 19 21 21 22 32 23 22 24 25 25
REMARK SMILES IDX 24 26 23 27 2 28 1 29 20 30 26 32 27 33 31 34 28 35 30 36
REMARK SMILES IDX 29 37
REMARK H PARENT 13 12 15 14 17 16 20 31
REMARK Flexibility Score: inf
ROOT
ATOM      1  O   UNL     1       8.216  10.833  32.462  1.00  0.00    -0.458 OA
ENDROOT
BRANCH   1   2
ATOM      2  C   UNL     1       7.496   9.595  32.445  1.00  0.00     0.339 C 
ATOM      3  C   UNL     1       7.250   7.562  33.583  1.00  0.00     0.199 C 
ATOM      4  C   UNL     1       6.512   7.026  32.309  1.00  0.00     0.180 C 
ATOM      5  O   UNL     1       8.111   8.662  33.312  1.00  0.00    -0.328 OA
ATOM      6  C   UNL     1       7.257   7.465  31.039  1.00  0.00     0.181 C 
ATOM      7  C   UNL     1       7.417   9.009  31.009  1.00  0.00     0.214 C 
BRANCH   3   8
ATOM      8  C   UNL     1       8.073   6.496  34.248  1.00  0.00     0.073 C 
ATOM      9  O   UNL     1       9.220   6.211  33.810  1.00  0.00    -0.547 OA
ATOM     10  O   UNL     1       7.566   5.805  35.343  1.00  0.00    -0.547 OA
ENDBRANCH   3   8
BRANCH   4  11
ATOM     11  O   UNL     1       6.379   5.626  32.322  1.00  0.00    -0.387 OA
ATOM     12  H   UNL     1       6.034   5.367  31.427  1.00  0.00     0.211 HD
ENDBRANCH   4  11
BRANCH   6  13
ATOM     13  O   UNL     1       6.573   7.006  29.901  1.00  0.00    -0.387 OA
ATOM     14  H   UNL     1       7.031   6.175  29.611  1.00  0.00     0.211 HD
ENDBRANCH   6  13
BRANCH   7  15
ATOM     15  O   UNL     1       6.383   9.631  30.283  1.00  0.00    -0.384 OA
ATOM     16  H   UNL     1       6.397  10.598  30.508  1.00  0.00     0.211 HD
ENDBRANCH   7  15
ENDBRANCH   1   2
BRANCH   1  17
ATOM     17  C   UNL     1       9.346  11.093  31.674  1.00  0.00     0.172 A 
ATOM     18  C   UNL     1       9.247  11.837  30.485  1.00  0.00     0.205 A 
ATOM     19  C   UNL     1      10.574  10.578  32.085  1.00  0.00     0.097 A 
ATOM     20  C   UNL     1      10.425  12.116  29.746  1.00  0.00     0.188 A 
ATOM     21  C   UNL     1      11.739  10.831  31.360  1.00  0.00     0.134 A 
ATOM     22  C   UNL     1      11.678  11.612  30.185  1.00  0.00     0.111 A 
ATOM     23  O   UNL     1      10.365  12.847  28.634  1.00  0.00    -0.452 OA
ATOM     24  C   UNL     1      12.819  11.910  29.412  1.00  0.00     0.197 A 
ATOM     25  C   UNL     1      11.420  13.140  27.879  1.00  0.00     0.138 A 
ATOM     26  C   UNL     1      12.689  12.679  28.259  1.00  0.00     0.100 A 
ATOM     27  O   UNL     1      13.965  11.500  29.742  1.00  0.00    -0.289 OA
BRANCH  18  28
ATOM     28  O   UNL     1       7.961  12.239  30.080  1.00  0.00    -0.490 OA
ATOM     29  C   UNL     1       7.366  13.515  30.289  1.00  0.00     0.278 C 
ENDBRANCH  18  28
BRANCH  21  30
ATOM     30  O   UNL     1      12.952  10.307  31.813  1.00  0.00    -0.507 OA
ATOM     31  H   UNL     1      13.163  10.230  32.801  1.00  0.00     0.293 HD
ENDBRANCH  21  30
BRANCH  25  32
ATOM     32  C   UNL     1      11.227  13.963  26.660  1.00  0.00     0.017 A 
ATOM     33  C   UNL     1      10.031  13.852  25.928  1.00  0.00     0.012 A 
ATOM     34  C   UNL     1      12.226  14.843  26.199  1.00  0.00     0.012 A 
ATOM     35  C   UNL     1       9.831  14.615  24.774  1.00  0.00     0.001 A 
ATOM     36  C   UNL     1      12.021  15.603  25.043  1.00  0.00     0.001 A 
ATOM     37  C   UNL     1      10.823  15.491  24.333  1.00  0.00     0.000 A 
ENDBRANCH  25  32
ENDBRANCH   1  17
TORSDOF 9
ENDMDL
