MODEL 1
REMARK VINA RESULT:    -3.881      0.000      0.000
REMARK INTER + INTRA:          -6.004
REMARK INTER:                  -5.923
REMARK INTRA:                  -0.081
REMARK UNBOUND:                -0.081
REMARK SMILES CC1=CCC[C@H](C)C(=O)C[C@H](C(C)C)C(=O)C1
REMARK SMILES IDX 8 1 9 2 6 3 7 4 5 5 4 6 3 7 2 8 1 9 10 11 11 12 15 13 16 14
REMARK SMILES IDX 17 15 12 17 13 18 14 19
REMARK H PARENT
REMARK Flexibility Score: 70.00
ROOT
ATOM      1  C   UNL     1     -16.354  13.719 -29.886  1.00  0.00     0.136 C 
ATOM      2  O   UNL     1     -16.304  14.933 -29.754  1.00  0.00    -0.299 OA
ENDROOT
BRANCH   1   3
ATOM      3  C   UNL     1     -17.558  12.975 -29.339  1.00  0.00     0.053 C 
ATOM      4  C   UNL     1     -17.637  11.560 -29.928  1.00  0.00     0.016 C 
BRANCH   3   5
ATOM      5  C   UNL     1     -17.548  12.932 -27.799  1.00  0.00     0.015 C 
BRANCH   5   6
ATOM      6  C   UNL     1     -16.637  11.815 -27.259  1.00  0.00     0.028 C 
BRANCH   6   7
ATOM      7  C   UNL     1     -15.382  12.395 -26.661  1.00  0.00    -0.028 C 
ATOM      8  C   UNL     1     -14.129  12.126 -27.096  1.00  0.00    -0.070 CG0
ATOM      9  C   UNL     1     -12.972  12.735 -26.345  1.00  0.00     0.039 C 
ATOM     10  G   UNL     1     -13.845  11.256 -28.312  1.00  0.00     0.000 G0
ENDBRANCH   6   7
ENDBRANCH   5   6
ENDBRANCH   3   5
ENDBRANCH   1   3
BRANCH   1  11
ATOM     11  C   UNL     1     -15.228  13.020 -30.616  1.00  0.00     0.087 C 
BRANCH  11  12
ATOM     12  C   UNL     1     -13.844  13.304 -29.972  1.00  0.00     0.066 C 
BRANCH  12  13
ATOM     13  C   UNL     1     -13.204  12.027 -29.442  1.00  0.00     0.140 C 
ATOM     14  O   UNL     1     -12.138  11.644 -29.903  1.00  0.00    -0.299 OA
BRANCH  13  15
ATOM     15  C   UNL     1     -13.831  11.256 -28.307  1.00  0.00     0.106 CG0
ATOM     16  G   UNL     1     -14.141  12.143 -27.110  1.00  0.00     0.000 G0
ENDBRANCH  13  15
ENDBRANCH  12  13
BRANCH  12  17
ATOM     17  C   UNL     1     -12.901  14.081 -30.942  1.00  0.00    -0.006 C 
ATOM     18  C   UNL     1     -13.696  14.815 -32.034  1.00  0.00     0.008 C 
ATOM     19  C   UNL     1     -11.943  15.058 -30.238  1.00  0.00     0.008 C 
ENDBRANCH  12  17
ENDBRANCH  11  12
ENDBRANCH   1  11
TORSDOF 1
ENDMDL
MODEL 2
REMARK VINA RESULT:    -3.862      1.857      4.016
REMARK INTER + INTRA:          -5.975
REMARK INTER:                  -6.244
REMARK INTRA:                   0.270
REMARK UNBOUND:                -0.081
REMARK SMILES CC1=CCC[C@H](C)C(=O)C[C@H](C(C)C)C(=O)C1
REMARK SMILES IDX 8 1 9 2 6 3 7 4 5 5 4 6 3 7 2 8 1 9 10 11 11 12 15 13 16 14
REMARK SMILES IDX 17 15 12 17 13 18 14 19
REMARK H PARENT
REMARK Flexibility Score: 70.00
ROOT
ATOM      1  C   UNL     1     -17.739  13.470 -28.601  1.00  0.00     0.136 C 
ATOM      2  O   UNL     1     -17.945  14.674 -28.630  1.00  0.00    -0.299 OA
ENDROOT
BRANCH   1   3
ATOM      3  C   UNL     1     -18.317  12.604 -29.705  1.00  0.00     0.053 C 
ATOM      4  C   UNL     1     -19.832  12.440 -29.531  1.00  0.00     0.016 C 
BRANCH   3   5
ATOM      5  C   UNL     1     -17.978  13.163 -31.100  1.00  0.00     0.015 C 
BRANCH   5   6
ATOM      6  C   UNL     1     -16.547  12.799 -31.535  1.00  0.00     0.028 C 
BRANCH   6   7
ATOM      7  C   UNL     1     -15.636  13.992 -31.416  1.00  0.00    -0.028 C 
ATOM      8  C   UNL     1     -14.526  14.037 -30.642  1.00  0.00    -0.070 CG0
ATOM      9  C   UNL     1     -13.758  15.333 -30.580  1.00  0.00     0.039 C 
ATOM     10  G   UNL     1     -14.019  12.838 -29.854  1.00  0.00     0.000 G0
ENDBRANCH   6   7
ENDBRANCH   5   6
ENDBRANCH   3   5
ENDBRANCH   1   3
BRANCH   1  11
ATOM     11  C   UNL     1     -16.893  12.904 -27.481  1.00  0.00     0.087 C 
BRANCH  11  12
ATOM     12  C   UNL     1     -15.739  12.010 -28.010  1.00  0.00     0.066 C 
BRANCH  12  13
ATOM     13  C   UNL     1     -14.531  12.845 -28.416  1.00  0.00     0.140 C 
ATOM     14  O   UNL     1     -13.931  13.498 -27.574  1.00  0.00    -0.299 OA
BRANCH  13  15
ATOM     15  C   UNL     1     -14.014  12.827 -29.834  1.00  0.00     0.106 CG0
ATOM     16  G   UNL     1     -14.495  14.028 -30.636  1.00  0.00     0.000 G0
ENDBRANCH  13  15
ENDBRANCH  12  13
BRANCH  12  17
ATOM     17  C   UNL     1     -15.367  10.883 -26.997  1.00  0.00    -0.006 C 
ATOM     18  C   UNL     1     -13.861  10.877 -26.688  1.00  0.00     0.008 C 
ATOM     19  C   UNL     1     -16.176  10.923 -25.688  1.00  0.00     0.008 C 
ENDBRANCH  12  17
ENDBRANCH  11  12
ENDBRANCH   1  11
TORSDOF 1
ENDMDL
MODEL 3
REMARK VINA RESULT:    -3.826      1.791      4.514
REMARK INTER + INTRA:          -5.919
REMARK INTER:                  -5.671
REMARK INTRA:                  -0.249
REMARK UNBOUND:                -0.081
REMARK SMILES CC1=CCC[C@H](C)C(=O)C[C@H](C(C)C)C(=O)C1
REMARK SMILES IDX 8 1 9 2 6 3 7 4 5 5 4 6 3 7 2 8 1 9 10 11 11 12 15 13 16 14
REMARK SMILES IDX 17 15 12 17 13 18 14 19
REMARK H PARENT
REMARK Flexibility Score: 70.00
ROOT
ATOM      1  C   UNL     1     -13.217  12.828 -30.013  1.00  0.00     0.136 C 
ATOM      2  O   UNL     1     -12.189  12.489 -30.580  1.00  0.00    -0.299 OA
ENDROOT
BRANCH   1   3
ATOM      3  C   UNL     1     -13.849  14.158 -30.380  1.00  0.00     0.053 C 
ATOM      4  C   UNL     1     -12.773  15.234 -30.577  1.00  0.00     0.016 C 
BRANCH   3   5
ATOM      5  C   UNL     1     -14.744  14.036 -31.628  1.00  0.00     0.015 C 
BRANCH   5   6
ATOM      6  C   UNL     1     -15.745  12.873 -31.508  1.00  0.00     0.028 C 
BRANCH   6   7
ATOM      7  C   UNL     1     -17.000  13.323 -30.807  1.00  0.00    -0.028 C 
ATOM      8  C   UNL     1     -17.485  12.768 -29.671  1.00  0.00    -0.070 CG0
ATOM      9  C   UNL     1     -18.792  13.290 -29.131  1.00  0.00     0.039 C 
ATOM     10  G   UNL     1     -16.761  11.662 -28.917  1.00  0.00     0.000 G0
ENDBRANCH   6   7
ENDBRANCH   5   6
ENDBRANCH   3   5
ENDBRANCH   1   3
BRANCH   1  11
ATOM     11  C   UNL     1     -13.827  11.891 -28.993  1.00  0.00     0.087 C 
BRANCH  11  12
ATOM     12  C   UNL     1     -14.563  12.654 -27.859  1.00  0.00     0.066 C 
BRANCH  12  13
ATOM     13  C   UNL     1     -16.003  12.179 -27.712  1.00  0.00     0.140 C 
ATOM     14  O   UNL     1     -16.571  12.279 -26.634  1.00  0.00    -0.299 OA
BRANCH  13  15
ATOM     15  C   UNL     1     -16.771  11.646 -28.897  1.00  0.00     0.106 CG0
ATOM     16  G   UNL     1     -17.471  12.751 -29.674  1.00  0.00     0.000 G0
ENDBRANCH  13  15
ENDBRANCH  12  13
BRANCH  12  17
ATOM     17  C   UNL     1     -13.778  12.589 -26.512  1.00  0.00    -0.006 C 
ATOM     18  C   UNL     1     -12.889  11.338 -26.437  1.00  0.00     0.008 C 
ATOM     19  C   UNL     1     -12.947  13.849 -26.209  1.00  0.00     0.008 C 
ENDBRANCH  12  17
ENDBRANCH  11  12
ENDBRANCH   1  11
TORSDOF 1
ENDMDL
MODEL 4
REMARK VINA RESULT:    -3.622      2.135      4.863
REMARK INTER + INTRA:          -5.608
REMARK INTER:                  -5.902
REMARK INTRA:                   0.294
REMARK UNBOUND:                -0.081
REMARK SMILES CC1=CCC[C@H](C)C(=O)C[C@H](C(C)C)C(=O)C1
REMARK SMILES IDX 8 1 9 2 6 3 7 4 5 5 4 6 3 7 2 8 1 9 10 11 11 12 15 13 16 14
REMARK SMILES IDX 17 15 12 17 13 18 14 19
REMARK H PARENT
REMARK Flexibility Score: 70.00
ROOT
ATOM      1  C   UNL     1     -15.405  12.502 -27.739  1.00  0.00     0.136 C 
ATOM      2  O   UNL     1     -16.026  12.617 -26.693  1.00  0.00    -0.299 OA
ENDROOT
BRANCH   1   3
ATOM      3  C   UNL     1     -13.965  12.979 -27.789  1.00  0.00     0.053 C 
ATOM      4  C   UNL     1     -13.362  13.035 -26.379  1.00  0.00     0.016 C 
BRANCH   3   5
ATOM      5  C   UNL     1     -13.108  12.103 -28.723  1.00  0.00     0.015 C 
BRANCH   5   6
ATOM      6  C   UNL     1     -12.433  12.931 -29.831  1.00  0.00     0.028 C 
BRANCH   6   7
ATOM      7  C   UNL     1     -13.154  14.239 -30.030  1.00  0.00    -0.028 C 
ATOM      8  C   UNL     1     -14.307  14.382 -30.724  1.00  0.00    -0.070 CG0
ATOM      9  C   UNL     1     -14.867  15.772 -30.890  1.00  0.00     0.039 C 
ATOM     10  G   UNL     1     -15.063  13.204 -31.323  1.00  0.00     0.000 G0
ENDBRANCH   6   7
ENDBRANCH   5   6
ENDBRANCH   3   5
ENDBRANCH   1   3
BRANCH   1  11
ATOM     11  C   UNL     1     -16.092  11.863 -28.926  1.00  0.00     0.087 C 
BRANCH  11  12
ATOM     12  C   UNL     1     -17.067  12.839 -29.638  1.00  0.00     0.066 C 
BRANCH  12  13
ATOM     13  C   UNL     1     -16.545  13.243 -31.011  1.00  0.00     0.140 C 
ATOM     14  O   UNL     1     -17.320  13.667 -31.856  1.00  0.00    -0.299 OA
BRANCH  13  15
ATOM     15  C   UNL     1     -15.071  13.193 -31.328  1.00  0.00     0.106 CG0
ATOM     16  G   UNL     1     -14.313  14.371 -30.733  1.00  0.00     0.000 G0
ENDBRANCH  13  15
ENDBRANCH  12  13
BRANCH  12  17
ATOM     17  C   UNL     1     -18.518  12.268 -29.700  1.00  0.00    -0.006 C 
ATOM     18  C   UNL     1     -18.672  11.022 -28.814  1.00  0.00     0.008 C 
ATOM     19  C   UNL     1     -19.612  13.296 -29.362  1.00  0.00     0.008 C 
ENDBRANCH  12  17
ENDBRANCH  11  12
ENDBRANCH   1  11
TORSDOF 1
ENDMDL
MODEL 5
REMARK VINA RESULT:    -3.443      1.813      3.994
REMARK INTER + INTRA:          -5.335
REMARK INTER:                  -5.370
REMARK INTRA:                   0.034
REMARK UNBOUND:                -0.081
REMARK SMILES CC1=CCC[C@H](C)C(=O)C[C@H](C(C)C)C(=O)C1
REMARK SMILES IDX 8 1 9 2 6 3 7 4 5 5 4 6 3 7 2 8 1 9 10 11 11 12 15 13 16 14
REMARK SMILES IDX 17 15 12 17 13 18 14 19
REMARK H PARENT
REMARK Flexibility Score: 70.00
ROOT
ATOM      1  C   UNL     1     -16.269  13.027 -28.847  1.00  0.00     0.136 C 
ATOM      2  O   UNL     1     -17.365  13.482 -28.555  1.00  0.00    -0.299 OA
ENDROOT
BRANCH   1   3
ATOM      3  C   UNL     1     -16.173  12.032 -29.988  1.00  0.00     0.053 C 
ATOM      4  C   UNL     1     -17.257  10.954 -29.863  1.00  0.00     0.016 C 
BRANCH   3   5
ATOM      5  C   UNL     1     -16.246  12.732 -31.359  1.00  0.00     0.015 C 
BRANCH   5   6
ATOM      6  C   UNL     1     -15.714  14.175 -31.298  1.00  0.00     0.028 C 
BRANCH   6   7
ATOM      7  C   UNL     1     -14.383  14.281 -31.995  1.00  0.00    -0.028 C 
ATOM      8  C   UNL     1     -13.200  14.473 -31.365  1.00  0.00    -0.070 CG0
ATOM      9  C   UNL     1     -11.963  14.625 -32.214  1.00  0.00     0.039 C 
ATOM     10  G   UNL     1     -13.068  14.523 -29.850  1.00  0.00     0.000 G0
ENDBRANCH   6   7
ENDBRANCH   5   6
ENDBRANCH   3   5
ENDBRANCH   1   3
BRANCH   1  11
ATOM     11  C   UNL     1     -15.057  13.500 -28.075  1.00  0.00     0.087 C 
BRANCH  11  12
ATOM     12  C   UNL     1     -13.831  12.568 -28.275  1.00  0.00     0.066 C 
BRANCH  12  13
ATOM     13  C   UNL     1     -12.817  13.180 -29.233  1.00  0.00     0.140 C 
ATOM     14  O   UNL     1     -11.826  12.543 -29.559  1.00  0.00    -0.299 OA
BRANCH  13  15
ATOM     15  C   UNL     1     -13.047  14.540 -29.845  1.00  0.00     0.106 CG0
ATOM     16  G   UNL     1     -13.204  14.472 -31.356  1.00  0.00     0.000 G0
ENDBRANCH  13  15
ENDBRANCH  12  13
BRANCH  12  17
ATOM     17  C   UNL     1     -13.187  12.157 -26.914  1.00  0.00    -0.006 C 
ATOM     18  C   UNL     1     -12.793  13.387 -26.082  1.00  0.00     0.008 C 
ATOM     19  C   UNL     1     -14.054  11.204 -26.072  1.00  0.00     0.008 C 
ENDBRANCH  12  17
ENDBRANCH  11  12
ENDBRANCH   1  11
TORSDOF 1
ENDMDL
MODEL 6
REMARK VINA RESULT:    -3.249     11.427     13.755
REMARK INTER + INTRA:          -5.038
REMARK INTER:                  -5.167
REMARK INTRA:                   0.129
REMARK UNBOUND:                -0.081
REMARK SMILES CC1=CCC[C@H](C)C(=O)C[C@H](C(C)C)C(=O)C1
REMARK SMILES IDX 8 1 9 2 6 3 7 4 5 5 4 6 3 7 2 8 1 9 10 11 11 12 15 13 16 14
REMARK SMILES IDX 17 15 12 17 13 18 14 19
REMARK H PARENT
REMARK Flexibility Score: 70.00
ROOT
ATOM      1  C   UNL     1     -29.647  14.328 -30.883  1.00  0.00     0.136 C 
ATOM      2  O   UNL     1     -30.832  14.559 -31.077  1.00  0.00    -0.299 OA
ENDROOT
BRANCH   1   3
ATOM      3  C   UNL     1     -29.263  13.366 -29.774  1.00  0.00     0.053 C 
ATOM      4  C   UNL     1     -30.342  12.293 -29.588  1.00  0.00     0.016 C 
BRANCH   3   5
ATOM      5  C   UNL     1     -27.884  12.727 -30.029  1.00  0.00     0.015 C 
BRANCH   5   6
ATOM      6  C   UNL     1     -26.829  13.208 -29.017  1.00  0.00     0.028 C 
BRANCH   6   7
ATOM      7  C   UNL     1     -25.642  13.802 -29.729  1.00  0.00    -0.028 C 
ATOM      8  C   UNL     1     -25.532  15.103 -30.084  1.00  0.00    -0.070 CG0
ATOM      9  C   UNL     1     -24.307  15.526 -30.854  1.00  0.00     0.039 C 
ATOM     10  G   UNL     1     -26.577  16.149 -29.725  1.00  0.00     0.000 G0
ENDBRANCH   6   7
ENDBRANCH   5   6
ENDBRANCH   3   5
ENDBRANCH   1   3
BRANCH   1  11
ATOM     11  C   UNL     1     -28.623  14.990 -31.779  1.00  0.00     0.087 C 
BRANCH  11  12
ATOM     12  C   UNL     1     -28.505  16.515 -31.512  1.00  0.00     0.066 C 
BRANCH  12  13
ATOM     13  C   UNL     1     -27.137  16.876 -30.946  1.00  0.00     0.140 C 
ATOM     14  O   UNL     1     -26.498  17.795 -31.439  1.00  0.00    -0.299 OA
BRANCH  13  15
ATOM     15  C   UNL     1     -26.581  16.162 -29.739  1.00  0.00     0.106 CG0
ATOM     16  G   UNL     1     -25.533  15.125 -30.115  1.00  0.00     0.000 G0
ENDBRANCH  13  15
ENDBRANCH  12  13
BRANCH  12  17
ATOM     17  C   UNL     1     -28.864  17.355 -32.776  1.00  0.00    -0.006 C 
ATOM     18  C   UNL     1     -29.805  16.585 -33.717  1.00  0.00     0.008 C 
ATOM     19  C   UNL     1     -29.449  18.743 -32.463  1.00  0.00     0.008 C 
ENDBRANCH  12  17
ENDBRANCH  11  12
ENDBRANCH   1  11
TORSDOF 1
ENDMDL
MODEL 7
REMARK VINA RESULT:    -3.240     11.013     13.176
REMARK INTER + INTRA:          -5.025
REMARK INTER:                  -5.573
REMARK INTRA:                   0.548
REMARK UNBOUND:                -0.081
REMARK SMILES CC1=CCC[C@H](C)C(=O)C[C@H](C(C)C)C(=O)C1
REMARK SMILES IDX 8 1 9 2 6 3 7 4 5 5 4 6 3 7 2 8 1 9 10 11 11 12 15 13 16 14
REMARK SMILES IDX 17 15 12 17 13 18 14 19
REMARK H PARENT
REMARK Flexibility Score: 70.00
ROOT
ATOM      1  C   UNL     1     -29.967  13.745 -30.463  1.00  0.00     0.136 C 
ATOM      2  O   UNL     1     -30.765  14.661 -30.605  1.00  0.00    -0.299 OA
ENDROOT
BRANCH   1   3
ATOM      3  C   UNL     1     -30.352  12.571 -29.582  1.00  0.00     0.053 C 
ATOM      4  C   UNL     1     -30.396  11.272 -30.396  1.00  0.00     0.016 C 
BRANCH   3   5
ATOM      5  C   UNL     1     -29.407  12.434 -28.373  1.00  0.00     0.015 C 
BRANCH   5   6
ATOM      6  C   UNL     1     -28.757  11.041 -28.305  1.00  0.00     0.028 C 
BRANCH   6   7
ATOM      7  C   UNL     1     -27.321  11.146 -27.863  1.00  0.00    -0.028 C 
ATOM      8  C   UNL     1     -26.304  11.566 -28.651  1.00  0.00    -0.070 CG0
ATOM      9  C   UNL     1     -24.910  11.549 -28.078  1.00  0.00     0.039 C 
ATOM     10  G   UNL     1     -26.513  12.067 -30.072  1.00  0.00     0.000 G0
ENDBRANCH   6   7
ENDBRANCH   5   6
ENDBRANCH   3   5
ENDBRANCH   1   3
BRANCH   1  11
ATOM     11  C   UNL     1     -28.645  13.814 -31.196  1.00  0.00     0.087 C 
BRANCH  11  12
ATOM     12  C   UNL     1     -27.540  14.505 -30.353  1.00  0.00     0.066 C 
BRANCH  12  13
ATOM     13  C   UNL     1     -26.336  13.592 -30.159  1.00  0.00     0.140 C 
ATOM     14  O   UNL     1     -25.222  14.075 -30.012  1.00  0.00    -0.299 OA
BRANCH  13  15
ATOM     15  C   UNL     1     -26.501  12.094 -30.077  1.00  0.00     0.106 CG0
ATOM     16  G   UNL     1     -26.288  11.568 -28.666  1.00  0.00     0.000 G0
ENDBRANCH  13  15
ENDBRANCH  12  13
BRANCH  12  17
ATOM     17  C   UNL     1     -27.141  15.893 -30.945  1.00  0.00    -0.006 C 
ATOM     18  C   UNL     1     -28.292  16.513 -31.752  1.00  0.00     0.008 C 
ATOM     19  C   UNL     1     -26.626  16.897 -29.898  1.00  0.00     0.008 C 
ENDBRANCH  12  17
ENDBRANCH  11  12
ENDBRANCH   1  11
TORSDOF 1
ENDMDL
MODEL 8
REMARK VINA RESULT:    -3.043     12.121     14.910
REMARK INTER + INTRA:          -4.724
REMARK INTER:                  -5.165
REMARK INTRA:                   0.441
REMARK UNBOUND:                -0.081
REMARK SMILES CC1=CCC[C@H](C)C(=O)C[C@H](C(C)C)C(=O)C1
REMARK SMILES IDX 8 1 9 2 6 3 7 4 5 5 4 6 3 7 2 8 1 9 10 11 11 12 15 13 16 14
REMARK SMILES IDX 17 15 12 17 13 18 14 19
REMARK H PARENT
REMARK Flexibility Score: 70.00
ROOT
ATOM      1  C   UNL     1     -26.653  13.940 -29.867  1.00  0.00     0.136 C 
ATOM      2  O   UNL     1     -26.244  13.012 -29.185  1.00  0.00    -0.299 OA
ENDROOT
BRANCH   1   3
ATOM      3  C   UNL     1     -26.024  15.310 -29.690  1.00  0.00     0.053 C 
ATOM      4  C   UNL     1     -24.730  15.423 -30.507  1.00  0.00     0.016 C 
BRANCH   3   5
ATOM      5  C   UNL     1     -27.008  16.438 -30.054  1.00  0.00     0.015 C 
BRANCH   5   6
ATOM      6  C   UNL     1     -26.721  17.026 -31.448  1.00  0.00     0.028 C 
BRANCH   6   7
ATOM      7  C   UNL     1     -27.941  17.721 -31.993  1.00  0.00    -0.028 C 
ATOM      8  C   UNL     1     -28.987  17.090 -32.576  1.00  0.00    -0.070 CG0
ATOM      9  C   UNL     1     -30.104  17.936 -33.132  1.00  0.00     0.039 C 
ATOM     10  G   UNL     1     -29.088  15.575 -32.674  1.00  0.00     0.000 G0
ENDBRANCH   6   7
ENDBRANCH   5   6
ENDBRANCH   3   5
ENDBRANCH   1   3
BRANCH   1  11
ATOM     11  C   UNL     1     -27.748  13.671 -30.877  1.00  0.00     0.087 C 
BRANCH  11  12
ATOM     12  C   UNL     1     -29.125  14.218 -30.412  1.00  0.00     0.066 C 
BRANCH  12  13
ATOM     13  C   UNL     1     -29.851  14.932 -31.545  1.00  0.00     0.140 C 
ATOM     14  O   UNL     1     -31.068  15.043 -31.513  1.00  0.00    -0.299 OA
BRANCH  13  15
ATOM     15  C   UNL     1     -29.086  15.569 -32.679  1.00  0.00     0.106 CG0
ATOM     16  G   UNL     1     -29.001  17.082 -32.537  1.00  0.00     0.000 G0
ENDBRANCH  13  15
ENDBRANCH  12  13
BRANCH  12  17
ATOM     17  C   UNL     1     -29.999  13.104 -29.756  1.00  0.00    -0.006 C 
ATOM     18  C   UNL     1     -30.014  11.825 -30.608  1.00  0.00     0.008 C 
ATOM     19  C   UNL     1     -29.608  12.770 -28.306  1.00  0.00     0.008 C 
ENDBRANCH  12  17
ENDBRANCH  11  12
ENDBRANCH   1  11
TORSDOF 1
ENDMDL
MODEL 9
REMARK VINA RESULT:    -2.987     11.932     14.449
REMARK INTER + INTRA:          -4.639
REMARK INTER:                  -4.991
REMARK INTRA:                   0.352
REMARK UNBOUND:                -0.081
REMARK SMILES CC1=CCC[C@H](C)C(=O)C[C@H](C(C)C)C(=O)C1
REMARK SMILES IDX 8 1 9 2 6 3 7 4 5 5 4 6 3 7 2 8 1 9 10 11 11 12 15 13 16 14
REMARK SMILES IDX 17 15 12 17 13 18 14 19
REMARK H PARENT
REMARK Flexibility Score: 70.00
ROOT
ATOM      1  C   UNL     1     -26.627  13.417 -30.123  1.00  0.00     0.136 C 
ATOM      2  O   UNL     1     -25.597  13.798 -30.660  1.00  0.00    -0.299 OA
ENDROOT
BRANCH   1   3
ATOM      3  C   UNL     1     -26.727  11.969 -29.680  1.00  0.00     0.053 C 
ATOM      4  C   UNL     1     -25.485  11.180 -30.117  1.00  0.00     0.016 C 
BRANCH   3   5
ATOM      5  C   UNL     1     -26.948  11.854 -28.160  1.00  0.00     0.015 C 
BRANCH   5   6
ATOM      6  C   UNL     1     -28.425  11.597 -27.811  1.00  0.00     0.028 C 
BRANCH   6   7
ATOM      7  C   UNL     1     -29.150  10.987 -28.982  1.00  0.00    -0.028 C 
ATOM      8  C   UNL     1     -30.029  11.649 -29.771  1.00  0.00    -0.070 CG0
ATOM      9  C   UNL     1     -30.722  10.875 -30.863  1.00  0.00     0.039 C 
ATOM     10  G   UNL     1     -30.328  13.132 -29.610  1.00  0.00     0.000 G0
ENDBRANCH   6   7
ENDBRANCH   5   6
ENDBRANCH   3   5
ENDBRANCH   1   3
BRANCH   1  11
ATOM     11  C   UNL     1     -27.742  14.415 -29.899  1.00  0.00     0.087 C 
BRANCH  11  12
ATOM     12  C   UNL     1     -28.675  14.542 -31.133  1.00  0.00     0.066 C 
BRANCH  12  13
ATOM     13  C   UNL     1     -30.042  13.925 -30.861  1.00  0.00     0.140 C 
ATOM     14  O   UNL     1     -30.928  14.017 -31.699  1.00  0.00    -0.299 OA
BRANCH  13  15
ATOM     15  C   UNL     1     -30.304  13.140 -29.600  1.00  0.00     0.106 CG0
ATOM     16  G   UNL     1     -30.027  11.655 -29.778  1.00  0.00     0.000 G0
ENDBRANCH  13  15
ENDBRANCH  12  13
BRANCH  12  17
ATOM     17  C   UNL     1     -28.779  16.016 -31.633  1.00  0.00    -0.006 C 
ATOM     18  C   UNL     1     -27.543  16.836 -31.232  1.00  0.00     0.008 C 
ATOM     19  C   UNL     1     -29.036  16.150 -33.144  1.00  0.00     0.008 C 
ENDBRANCH  12  17
ENDBRANCH  11  12
ENDBRANCH   1  11
TORSDOF 1
ENDMDL
