MODEL 1
REMARK VINA RESULT:    -4.601      0.000      0.000
REMARK INTER + INTRA:          -5.511
REMARK INTER:                  -5.408
REMARK INTRA:                  -0.102
REMARK UNBOUND:                -0.102
REMARK SMILES O=c1c(O)c(-c2ccc(O)cc2)oc2cc(O)cc(O)c12
REMARK SMILES IDX 5 1 3 2 2 3 1 4 21 5 19 6 18 7 16 8 15 9 14 10 13 11 6 12
REMARK SMILES IDX 7 13 8 14 9 15 12 16 11 17 10 18 4 20 20 22 17 24
REMARK H PARENT 10 19 4 21 20 23 17 25
REMARK Flexibility Score: inf
ROOT
ATOM      1  C   UNL     1       5.229  12.166   7.848  1.00  0.00     0.180 A 
ATOM      2  C   UNL     1       6.348  12.474   8.641  1.00  0.00     0.208 A 
ATOM      3  C   UNL     1       7.603  12.612   8.025  1.00  0.00     0.238 A 
ATOM      4  O   UNL     1       8.610  12.833   8.747  1.00  0.00    -0.285 OA
ATOM      5  C   UNL     1       7.720  12.458   6.622  1.00  0.00     0.111 A 
ATOM      6  C   UNL     1       8.933  12.616   5.888  1.00  0.00     0.134 A 
ATOM      7  C   UNL     1       8.958  12.311   4.521  1.00  0.00     0.093 A 
ATOM      8  C   UNL     1       7.801  11.919   3.850  1.00  0.00     0.123 A 
ATOM      9  C   UNL     1       6.596  11.818   4.546  1.00  0.00     0.094 A 
ATOM     10  C   UNL     1       6.547  12.080   5.917  1.00  0.00     0.146 A 
ATOM     11  O   UNL     1       5.383  11.963   6.544  1.00  0.00    -0.452 OA
ENDROOT
BRANCH   1  12
ATOM     12  C   UNL     1       3.871  12.030   8.420  1.00  0.00     0.021 A 
ATOM     13  C   UNL     1       3.155  10.838   8.226  1.00  0.00     0.016 A 
ATOM     14  C   UNL     1       1.862  10.695   8.739  1.00  0.00     0.047 A 
ATOM     15  C   UNL     1       1.263  11.750   9.441  1.00  0.00     0.115 A 
ATOM     16  C   UNL     1       3.255  13.092   9.109  1.00  0.00     0.016 A 
ATOM     17  C   UNL     1       1.962  12.947   9.620  1.00  0.00     0.047 A 
BRANCH  15  18
ATOM     18  O   UNL     1      -0.024  11.620   9.957  1.00  0.00    -0.508 OA
ATOM     19  H   UNL     1      -0.576  10.783   9.800  1.00  0.00     0.293 HD
ENDBRANCH  15  18
ENDBRANCH   1  12
BRANCH   2  20
ATOM     20  O   UNL     1       6.215  12.600  10.026  1.00  0.00    -0.502 OA
ATOM     21  H   UNL     1       6.413  11.839  10.664  1.00  0.00     0.293 HD
ENDBRANCH   2  20
BRANCH   6  22
ATOM     22  O   UNL     1      10.125  13.091   6.443  1.00  0.00    -0.507 OA
ATOM     23  H   UNL     1      10.323  14.062   6.635  1.00  0.00     0.293 HD
ENDBRANCH   6  22
BRANCH   8  24
ATOM     24  O   UNL     1       7.859  11.639   2.486  1.00  0.00    -0.508 OA
ATOM     25  H   UNL     1       7.868  12.378   1.793  1.00  0.00     0.293 HD
ENDBRANCH   8  24
TORSDOF 5
ENDMDL
MODEL 2
REMARK VINA RESULT:    -4.474      1.776      6.785
REMARK INTER + INTRA:          -5.361
REMARK INTER:                  -5.121
REMARK INTRA:                  -0.240
REMARK UNBOUND:                -0.102
REMARK SMILES O=c1c(O)c(-c2ccc(O)cc2)oc2cc(O)cc(O)c12
REMARK SMILES IDX 5 1 3 2 2 3 1 4 21 5 19 6 18 7 16 8 15 9 14 10 13 11 6 12
REMARK SMILES IDX 7 13 8 14 9 15 12 16 11 17 10 18 4 20 20 22 17 24
REMARK H PARENT 10 19 4 21 20 23 17 25
REMARK Flexibility Score: inf
ROOT
ATOM      1  C   UNL     1       5.166  11.489   7.624  1.00  0.00     0.180 A 
ATOM      2  C   UNL     1       5.423  10.405   8.482  1.00  0.00     0.208 A 
ATOM      3  C   UNL     1       4.438  10.020   9.406  1.00  0.00     0.238 A 
ATOM      4  O   UNL     1       4.695   9.085  10.209  1.00  0.00    -0.285 OA
ATOM      5  C   UNL     1       3.203  10.712   9.449  1.00  0.00     0.111 A 
ATOM      6  C   UNL     1       2.119  10.381  10.318  1.00  0.00     0.134 A 
ATOM      7  C   UNL     1       0.995  11.215  10.365  1.00  0.00     0.093 A 
ATOM      8  C   UNL     1       0.886  12.327   9.533  1.00  0.00     0.123 A 
ATOM      9  C   UNL     1       1.914  12.626   8.638  1.00  0.00     0.094 A 
ATOM     10  C   UNL     1       3.064  11.834   8.592  1.00  0.00     0.146 A 
ATOM     11  O   UNL     1       4.024  12.158   7.734  1.00  0.00    -0.452 OA
ENDROOT
BRANCH   1  12
ATOM     12  C   UNL     1       6.143  11.937   6.607  1.00  0.00     0.021 A 
ATOM     13  C   UNL     1       5.969  11.561   5.266  1.00  0.00     0.016 A 
ATOM     14  C   UNL     1       6.892  11.955   4.292  1.00  0.00     0.047 A 
ATOM     15  C   UNL     1       8.011  12.719   4.652  1.00  0.00     0.115 A 
ATOM     16  C   UNL     1       7.280  12.688   6.964  1.00  0.00     0.016 A 
ATOM     17  C   UNL     1       8.202  13.079   5.988  1.00  0.00     0.047 A 
BRANCH  15  18
ATOM     18  O   UNL     1       8.937  13.118   3.691  1.00  0.00    -0.508 OA
ATOM     19  H   UNL     1       9.841  12.665   3.607  1.00  0.00     0.293 HD
ENDBRANCH  15  18
ENDBRANCH   1  12
BRANCH   2  20
ATOM     20  O   UNL     1       6.656   9.750   8.438  1.00  0.00    -0.502 OA
ATOM     21  H   UNL     1       7.480  10.169   8.023  1.00  0.00     0.293 HD
ENDBRANCH   2  20
BRANCH   6  22
ATOM     22  O   UNL     1       2.086   9.241  11.125  1.00  0.00    -0.507 OA
ATOM     23  H   UNL     1       1.770   8.331  10.823  1.00  0.00     0.293 HD
ENDBRANCH   6  22
BRANCH   8  24
ATOM     24  O   UNL     1      -0.254  13.125   9.597  1.00  0.00    -0.508 OA
ATOM     25  H   UNL     1      -0.603  13.482  10.479  1.00  0.00     0.293 HD
ENDBRANCH   8  24
TORSDOF 5
ENDMDL
MODEL 3
REMARK VINA RESULT:    -3.400      1.556      1.905
REMARK INTER + INTRA:          -4.099
REMARK INTER:                  -3.810
REMARK INTRA:                  -0.289
REMARK UNBOUND:                -0.102
REMARK SMILES O=c1c(O)c(-c2ccc(O)cc2)oc2cc(O)cc(O)c12
REMARK SMILES IDX 5 1 3 2 2 3 1 4 21 5 19 6 18 7 16 8 15 9 14 10 13 11 6 12
REMARK SMILES IDX 7 13 8 14 9 15 12 16 11 17 10 18 4 20 20 22 17 24
REMARK H PARENT 10 19 4 21 20 23 17 25
REMARK Flexibility Score: inf
ROOT
ATOM      1  C   UNL     1       4.484  11.562   7.835  1.00  0.00     0.180 A 
ATOM      2  C   UNL     1       5.354  10.713   8.542  1.00  0.00     0.208 A 
ATOM      3  C   UNL     1       6.665  10.537   8.070  1.00  0.00     0.238 A 
ATOM      4  O   UNL     1       7.422   9.733   8.676  1.00  0.00    -0.285 OA
ATOM      5  C   UNL     1       7.096  11.223   6.909  1.00  0.00     0.111 A 
ATOM      6  C   UNL     1       8.414  11.150   6.367  1.00  0.00     0.134 A 
ATOM      7  C   UNL     1       8.691  11.769   5.141  1.00  0.00     0.093 A 
ATOM      8  C   UNL     1       7.719  12.510   4.473  1.00  0.00     0.123 A 
ATOM      9  C   UNL     1       6.443  12.638   5.024  1.00  0.00     0.094 A 
ATOM     10  C   UNL     1       6.126  12.003   6.227  1.00  0.00     0.146 A 
ATOM     11  O   UNL     1       4.898  12.141   6.712  1.00  0.00    -0.452 OA
ENDROOT
BRANCH   1  12
ATOM     12  C   UNL     1       3.097  11.818   8.282  1.00  0.00     0.021 A 
ATOM     13  C   UNL     1       2.840  12.877   9.169  1.00  0.00     0.016 A 
ATOM     14  C   UNL     1       1.540  13.123   9.621  1.00  0.00     0.047 A 
ATOM     15  C   UNL     1       0.482  12.303   9.204  1.00  0.00     0.115 A 
ATOM     16  C   UNL     1       2.032  10.987   7.883  1.00  0.00     0.016 A 
ATOM     17  C   UNL     1       0.734  11.235   8.339  1.00  0.00     0.047 A 
BRANCH  15  18
ATOM     18  O   UNL     1      -0.817  12.539   9.648  1.00  0.00    -0.508 OA
ATOM     19  H   UNL     1      -1.127  12.235  10.565  1.00  0.00     0.293 HD
ENDBRANCH  15  18
ENDBRANCH   1  12
BRANCH   2  20
ATOM     20  O   UNL     1       4.902  10.028   9.673  1.00  0.00    -0.502 OA
ATOM     21  H   UNL     1       5.436   9.286  10.109  1.00  0.00     0.293 HD
ENDBRANCH   2  20
BRANCH   6  22
ATOM     22  O   UNL     1       9.484  10.512   7.000  1.00  0.00    -0.507 OA
ATOM     23  H   UNL     1       9.644  10.509   7.996  1.00  0.00     0.293 HD
ENDBRANCH   6  22
BRANCH   8  24
ATOM     24  O   UNL     1       8.034  13.125   3.263  1.00  0.00    -0.508 OA
ATOM     25  H   UNL     1       7.622  14.012   2.995  1.00  0.00     0.293 HD
ENDBRANCH   8  24
TORSDOF 5
ENDMDL
MODEL 4
REMARK VINA RESULT:    -3.052      1.589      6.496
REMARK INTER + INTRA:          -3.690
REMARK INTER:                  -4.184
REMARK INTRA:                   0.494
REMARK UNBOUND:                -0.102
REMARK SMILES O=c1c(O)c(-c2ccc(O)cc2)oc2cc(O)cc(O)c12
REMARK SMILES IDX 5 1 3 2 2 3 1 4 21 5 19 6 18 7 16 8 15 9 14 10 13 11 6 12
REMARK SMILES IDX 7 13 8 14 9 15 12 16 11 17 10 18 4 20 20 22 17 24
REMARK H PARENT 10 19 4 21 20 23 17 25
REMARK Flexibility Score: inf
ROOT
ATOM      1  C   UNL     1       6.861  11.968   6.205  1.00  0.00     0.180 A 
ATOM      2  C   UNL     1       7.319  12.140   7.523  1.00  0.00     0.208 A 
ATOM      3  C   UNL     1       6.465  11.814   8.589  1.00  0.00     0.238 A 
ATOM      4  O   UNL     1       6.861  12.021   9.766  1.00  0.00    -0.285 OA
ATOM      5  C   UNL     1       5.170  11.304   8.325  1.00  0.00     0.111 A 
ATOM      6  C   UNL     1       4.237  10.903   9.327  1.00  0.00     0.134 A 
ATOM      7  C   UNL     1       2.938  10.537   8.954  1.00  0.00     0.093 A 
ATOM      8  C   UNL     1       2.559  10.495   7.614  1.00  0.00     0.123 A 
ATOM      9  C   UNL     1       3.482  10.828   6.621  1.00  0.00     0.094 A 
ATOM     10  C   UNL     1       4.774  11.232   6.964  1.00  0.00     0.146 A 
ATOM     11  O   UNL     1       5.618  11.550   5.990  1.00  0.00    -0.452 OA
ENDROOT
BRANCH   1  12
ATOM     12  C   UNL     1       7.711  12.266   5.031  1.00  0.00     0.021 A 
ATOM     13  C   UNL     1       7.280  11.882   3.750  1.00  0.00     0.016 A 
ATOM     14  C   UNL     1       8.077  12.134   2.629  1.00  0.00     0.047 A 
ATOM     15  C   UNL     1       9.323  12.759   2.777  1.00  0.00     0.115 A 
ATOM     16  C   UNL     1       8.972  12.876   5.173  1.00  0.00     0.016 A 
ATOM     17  C   UNL     1       9.766  13.125   4.050  1.00  0.00     0.047 A 
BRANCH  15  18
ATOM     18  O   UNL     1      10.125  13.015   1.668  1.00  0.00    -0.508 OA
ATOM     19  H   UNL     1      10.866  13.707   1.699  1.00  0.00     0.293 HD
ENDBRANCH  15  18
ENDBRANCH   1  12
BRANCH   2  20
ATOM     20  O   UNL     1       8.592  12.664   7.762  1.00  0.00    -0.502 OA
ATOM     21  H   UNL     1       9.405  12.386   7.227  1.00  0.00     0.293 HD
ENDBRANCH   2  20
BRANCH   6  22
ATOM     22  O   UNL     1       4.542  10.821  10.689  1.00  0.00    -0.507 OA
ATOM     23  H   UNL     1       5.468  10.918  11.078  1.00  0.00     0.293 HD
ENDBRANCH   6  22
BRANCH   8  24
ATOM     24  O   UNL     1       1.262  10.111   7.278  1.00  0.00    -0.508 OA
ATOM     25  H   UNL     1       0.711  10.634   6.607  1.00  0.00     0.293 HD
ENDBRANCH   8  24
TORSDOF 5
ENDMDL
