MODEL 1
REMARK VINA RESULT:    -3.150      0.000      0.000
REMARK INTER + INTRA:          -7.005
REMARK INTER:                  -4.808
REMARK INTRA:                  -2.197
REMARK UNBOUND:                -2.197
REMARK SMILES COc1cc(C=CCOC(=O)C=Cc2ccc(O)c(OC)c2)ccc1O
REMARK SMILES IDX 9 1 8 2 7 3 6 4 5 5 3 6 25 7 4 8 24 9 23 10 2 11 1 12 26 13
REMARK SMILES IDX 10 15 11 16 12 17 13 18 14 19 22 20 15 21 19 22 16 23 17 24
REMARK SMILES IDX 20 25 21 26 18 27
REMARK H PARENT 26 14 18 28
REMARK Flexibility Score: inf
ROOT
ATOM      1  O   UNL     1      11.987  49.034   7.822  1.00  0.00    -0.458 OA
ENDROOT
BRANCH   1   2
ATOM      2  C   UNL     1      12.441  49.230   9.159  1.00  0.00     0.261 C 
BRANCH   2   3
ATOM      3  C   UNL     1      13.530  50.267   9.194  1.00  0.00     0.015 C 
ATOM      4  C   UNL     1      14.713  50.096   9.801  1.00  0.00     0.007 C 
BRANCH   4   5
ATOM      5  C   UNL     1      15.125  48.862  10.503  1.00  0.00    -0.022 A 
ATOM      6  C   UNL     1      15.003  47.340  12.411  1.00  0.00     0.161 A 
ATOM      7  C   UNL     1      15.907  46.477  11.766  1.00  0.00     0.157 A 
ATOM      8  C   UNL     1      14.609  48.529  11.766  1.00  0.00     0.058 A 
ATOM      9  C   UNL     1      16.398  46.797  10.496  1.00  0.00     0.051 A 
ATOM     10  C   UNL     1      16.002  47.976   9.863  1.00  0.00     0.012 A 
BRANCH   6  11
ATOM     11  O   UNL     1      14.519  46.988  13.681  1.00  0.00    -0.493 OA
ATOM     12  C   UNL     1      13.881  47.888  14.582  1.00  0.00     0.278 C 
ENDBRANCH   6  11
BRANCH   7  13
ATOM     13  O   UNL     1      16.326  45.292  12.370  1.00  0.00    -0.504 OA
ATOM     14  H   UNL     1      16.748  45.276  13.291  1.00  0.00     0.293 HD
ENDBRANCH   7  13
ENDBRANCH   4   5
ENDBRANCH   2   3
ENDBRANCH   1   2
BRANCH   1  15
ATOM     15  C   UNL     1      12.202  47.851   7.101  1.00  0.00     0.331 C 
ATOM     16  O   UNL     1      11.244  47.283   6.511  1.00  0.00    -0.247 OA
BRANCH  15  17
ATOM     17  C   UNL     1      13.534  47.218   7.071  1.00  0.00     0.094 C 
ATOM     18  C   UNL     1      13.854  46.062   7.670  1.00  0.00     0.016 C 
BRANCH  18  19
ATOM     19  C   UNL     1      12.987  45.322   8.609  1.00  0.00    -0.021 A 
ATOM     20  C   UNL     1      12.746  45.850   9.886  1.00  0.00     0.058 A 
ATOM     21  C   UNL     1      12.331  44.145   8.214  1.00  0.00     0.012 A 
ATOM     22  C   UNL     1      11.891  45.184  10.788  1.00  0.00     0.161 A 
ATOM     23  C   UNL     1      11.485  43.479   9.104  1.00  0.00     0.051 A 
ATOM     24  C   UNL     1      11.268  43.992  10.389  1.00  0.00     0.157 A 
BRANCH  22  25
ATOM     25  O   UNL     1      11.636  45.674  12.079  1.00  0.00    -0.493 OA
ATOM     26  C   UNL     1      10.998  46.918  12.356  1.00  0.00     0.278 C 
ENDBRANCH  22  25
BRANCH  24  27
ATOM     27  O   UNL     1      10.429  43.324  11.278  1.00  0.00    -0.504 OA
ATOM     28  H   UNL     1      10.637  42.387  11.604  1.00  0.00     0.293 HD
ENDBRANCH  24  27
ENDBRANCH  18  19
ENDBRANCH  15  17
ENDBRANCH   1  15
TORSDOF 10
ENDMDL
MODEL 2
REMARK VINA RESULT:    -3.004      1.602      5.554
REMARK INTER + INTRA:          -6.782
REMARK INTER:                  -4.728
REMARK INTRA:                  -2.054
REMARK UNBOUND:                -2.197
REMARK SMILES COc1cc(C=CCOC(=O)C=Cc2ccc(O)c(OC)c2)ccc1O
REMARK SMILES IDX 9 1 8 2 7 3 6 4 5 5 3 6 25 7 4 8 24 9 23 10 2 11 1 12 26 13
REMARK SMILES IDX 10 15 11 16 12 17 13 18 14 19 22 20 15 21 19 22 16 23 17 24
REMARK SMILES IDX 20 25 21 26 18 27
REMARK H PARENT 26 14 18 28
REMARK Flexibility Score: inf
ROOT
ATOM      1  O   UNL     1      11.823  49.210   8.866  1.00  0.00    -0.458 OA
ENDROOT
BRANCH   1   2
ATOM      2  C   UNL     1      11.962  47.983   8.152  1.00  0.00     0.261 C 
BRANCH   2   3
ATOM      3  C   UNL     1      13.369  47.465   8.274  1.00  0.00     0.015 C 
ATOM      4  C   UNL     1      13.690  46.281   8.816  1.00  0.00     0.007 C 
BRANCH   4   5
ATOM      5  C   UNL     1      12.713  45.310   9.350  1.00  0.00    -0.022 A 
ATOM      6  C   UNL     1      11.515  43.184   9.221  1.00  0.00     0.161 A 
ATOM      7  C   UNL     1      10.881  43.480  10.442  1.00  0.00     0.157 A 
ATOM      8  C   UNL     1      12.440  44.102   8.687  1.00  0.00     0.058 A 
ATOM      9  C   UNL     1      11.176  44.670  11.114  1.00  0.00     0.051 A 
ATOM     10  C   UNL     1      12.094  45.575  10.578  1.00  0.00     0.012 A 
BRANCH   6  11
ATOM     11  O   UNL     1      11.208  41.977   8.573  1.00  0.00    -0.493 OA
ATOM     12  C   UNL     1      10.467  41.875   7.362  1.00  0.00     0.278 C 
ENDBRANCH   6  11
BRANCH   7  13
ATOM     13  O   UNL     1       9.957  42.600  11.005  1.00  0.00    -0.504 OA
ATOM     14  H   UNL     1       8.981  42.845  11.120  1.00  0.00     0.293 HD
ENDBRANCH   7  13
ENDBRANCH   4   5
ENDBRANCH   2   3
ENDBRANCH   1   2
BRANCH   1  15
ATOM     15  C   UNL     1      11.332  49.287  10.176  1.00  0.00     0.331 C 
ATOM     16  O   UNL     1      10.408  48.517  10.554  1.00  0.00    -0.247 OA
BRANCH  15  17
ATOM     17  C   UNL     1      11.839  50.306  11.113  1.00  0.00     0.094 C 
ATOM     18  C   UNL     1      12.961  50.198  11.840  1.00  0.00     0.016 C 
BRANCH  18  19
ATOM     19  C   UNL     1      13.778  48.974  11.966  1.00  0.00    -0.021 A 
ATOM     20  C   UNL     1      14.988  48.878  11.265  1.00  0.00     0.058 A 
ATOM     21  C   UNL     1      13.405  47.942  12.843  1.00  0.00     0.012 A 
ATOM     22  C   UNL     1      15.806  47.737  11.396  1.00  0.00     0.161 A 
ATOM     23  C   UNL     1      14.209  46.807  12.976  1.00  0.00     0.051 A 
ATOM     24  C   UNL     1      15.404  46.700  12.253  1.00  0.00     0.157 A 
BRANCH  22  25
ATOM     25  O   UNL     1      17.019  47.600  10.701  1.00  0.00    -0.493 OA
ATOM     26  C   UNL     1      17.123  47.428   9.291  1.00  0.00     0.278 C 
ENDBRANCH  22  25
BRANCH  24  27
ATOM     27  O   UNL     1      16.202  45.567  12.382  1.00  0.00    -0.504 OA
ATOM     28  H   UNL     1      16.343  45.115  13.279  1.00  0.00     0.293 HD
ENDBRANCH  24  27
ENDBRANCH  18  19
ENDBRANCH  15  17
ENDBRANCH   1  15
TORSDOF 10
ENDMDL
MODEL 3
REMARK VINA RESULT:    -2.987      1.182      5.000
REMARK INTER + INTRA:          -6.755
REMARK INTER:                  -4.750
REMARK INTRA:                  -2.005
REMARK UNBOUND:                -2.197
REMARK SMILES COc1cc(C=CCOC(=O)C=Cc2ccc(O)c(OC)c2)ccc1O
REMARK SMILES IDX 9 1 8 2 7 3 6 4 5 5 3 6 25 7 4 8 24 9 23 10 2 11 1 12 26 13
REMARK SMILES IDX 10 15 11 16 12 17 13 18 14 19 22 20 15 21 19 22 16 23 17 24
REMARK SMILES IDX 20 25 21 26 18 27
REMARK H PARENT 26 14 18 28
REMARK Flexibility Score: inf
ROOT
ATOM      1  O   UNL     1      13.593  49.488   7.676  1.00  0.00    -0.458 OA
ENDROOT
BRANCH   1   2
ATOM      2  C   UNL     1      12.954  48.230   7.464  1.00  0.00     0.261 C 
BRANCH   2   3
ATOM      3  C   UNL     1      13.980  47.138   7.341  1.00  0.00     0.015 C 
ATOM      4  C   UNL     1      14.009  46.041   8.111  1.00  0.00     0.007 C 
BRANCH   4   5
ATOM      5  C   UNL     1      13.028  45.738   9.174  1.00  0.00    -0.022 A 
ATOM      6  C   UNL     1      11.250  44.351  10.118  1.00  0.00     0.161 A 
ATOM      7  C   UNL     1      11.218  45.183  11.251  1.00  0.00     0.157 A 
ATOM      8  C   UNL     1      12.168  44.631   9.086  1.00  0.00     0.058 A 
ATOM      9  C   UNL     1      12.095  46.268  11.350  1.00  0.00     0.051 A 
ATOM     10  C   UNL     1      13.002  46.538  10.324  1.00  0.00     0.012 A 
BRANCH   6  11
ATOM     11  O   UNL     1      10.366  43.263  10.051  1.00  0.00    -0.493 OA
ATOM     12  C   UNL     1      10.760  41.896  10.096  1.00  0.00     0.278 C 
ENDBRANCH   6  11
BRANCH   7  13
ATOM     13  O   UNL     1      10.324  44.944  12.294  1.00  0.00    -0.504 OA
ATOM     14  H   UNL     1      10.281  44.052  12.774  1.00  0.00     0.293 HD
ENDBRANCH   7  13
ENDBRANCH   4   5
ENDBRANCH   2   3
ENDBRANCH   1   2
BRANCH   1  15
ATOM     15  C   UNL     1      13.832  50.025   8.947  1.00  0.00     0.331 C 
ATOM     16  O   UNL     1      12.973  49.900   9.862  1.00  0.00    -0.247 OA
BRANCH  15  17
ATOM     17  C   UNL     1      15.059  50.795   9.222  1.00  0.00     0.094 C 
ATOM     18  C   UNL     1      16.143  50.323   9.857  1.00  0.00     0.016 C 
BRANCH  18  19
ATOM     19  C   UNL     1      16.224  49.020  10.546  1.00  0.00    -0.021 A 
ATOM     20  C   UNL     1      15.760  48.908  11.865  1.00  0.00     0.058 A 
ATOM     21  C   UNL     1      16.676  47.873   9.875  1.00  0.00     0.012 A 
ATOM     22  C   UNL     1      15.791  47.668  12.534  1.00  0.00     0.161 A 
ATOM     23  C   UNL     1      16.711  46.641  10.532  1.00  0.00     0.051 A 
ATOM     24  C   UNL     1      16.275  46.537  11.859  1.00  0.00     0.157 A 
BRANCH  22  25
ATOM     25  O   UNL     1      15.347  47.519  13.858  1.00  0.00    -0.493 OA
ATOM     26  C   UNL     1      13.980  47.552  14.258  1.00  0.00     0.278 C 
ENDBRANCH  22  25
BRANCH  24  27
ATOM     27  O   UNL     1      16.315  45.309  12.516  1.00  0.00    -0.504 OA
ATOM     28  H   UNL     1      15.728  44.534  12.229  1.00  0.00     0.293 HD
ENDBRANCH  24  27
ENDBRANCH  18  19
ENDBRANCH  15  17
ENDBRANCH   1  15
TORSDOF 10
ENDMDL
MODEL 4
REMARK VINA RESULT:    -2.967      1.301      2.787
REMARK INTER + INTRA:          -6.726
REMARK INTER:                  -4.637
REMARK INTRA:                  -2.089
REMARK UNBOUND:                -2.197
REMARK SMILES COc1cc(C=CCOC(=O)C=Cc2ccc(O)c(OC)c2)ccc1O
REMARK SMILES IDX 9 1 8 2 7 3 6 4 5 5 3 6 25 7 4 8 24 9 23 10 2 11 1 12 26 13
REMARK SMILES IDX 10 15 11 16 12 17 13 18 14 19 22 20 15 21 19 22 16 23 17 24
REMARK SMILES IDX 20 25 21 26 18 27
REMARK H PARENT 26 14 18 28
REMARK Flexibility Score: inf
ROOT
ATOM      1  O   UNL     1      11.637  48.646   7.817  1.00  0.00    -0.458 OA
ENDROOT
BRANCH   1   2
ATOM      2  C   UNL     1      11.335  48.691   9.210  1.00  0.00     0.261 C 
BRANCH   2   3
ATOM      3  C   UNL     1      11.830  49.977   9.810  1.00  0.00     0.015 C 
ATOM      4  C   UNL     1      12.850  50.060  10.677  1.00  0.00     0.007 C 
BRANCH   4   5
ATOM      5  C   UNL     1      13.645  48.908  11.148  1.00  0.00    -0.022 A 
ATOM      6  C   UNL     1      15.568  47.410  10.962  1.00  0.00     0.161 A 
ATOM      7  C   UNL     1      15.144  46.738  12.122  1.00  0.00     0.157 A 
ATOM      8  C   UNL     1      14.816  48.503  10.487  1.00  0.00     0.058 A 
ATOM      9  C   UNL     1      13.993  47.161  12.796  1.00  0.00     0.051 A 
ATOM     10  C   UNL     1      13.254  48.245  12.319  1.00  0.00     0.012 A 
BRANCH   6  11
ATOM     11  O   UNL     1      16.732  46.971  10.312  1.00  0.00    -0.493 OA
ATOM     12  C   UNL     1      17.097  47.321   8.981  1.00  0.00     0.278 C 
ENDBRANCH   6  11
BRANCH   7  13
ATOM     13  O   UNL     1      15.856  45.651  12.626  1.00  0.00    -0.504 OA
ATOM     14  H   UNL     1      16.861  45.571  12.523  1.00  0.00     0.293 HD
ENDBRANCH   7  13
ENDBRANCH   4   5
ENDBRANCH   2   3
ENDBRANCH   1   2
BRANCH   1  15
ATOM     15  C   UNL     1      12.049  47.482   7.155  1.00  0.00     0.331 C 
ATOM     16  O   UNL     1      11.261  46.884   6.372  1.00  0.00    -0.247 OA
BRANCH  15  17
ATOM     17  C   UNL     1      13.380  46.901   7.407  1.00  0.00     0.094 C 
ATOM     18  C   UNL     1      13.618  45.789   8.118  1.00  0.00     0.016 C 
BRANCH  18  19
ATOM     19  C   UNL     1      12.612  45.063   8.920  1.00  0.00    -0.021 A 
ATOM     20  C   UNL     1      12.070  43.868   8.426  1.00  0.00     0.058 A 
ATOM     21  C   UNL     1      12.257  45.502  10.205  1.00  0.00     0.012 A 
ATOM     22  C   UNL     1      11.137  43.134   9.187  1.00  0.00     0.161 A 
ATOM     23  C   UNL     1      11.331  44.782  10.964  1.00  0.00     0.051 A 
ATOM     24  C   UNL     1      10.768  43.603  10.457  1.00  0.00     0.157 A 
BRANCH  22  25
ATOM     25  O   UNL     1      10.563  41.940   8.721  1.00  0.00    -0.493 OA
ATOM     26  C   UNL     1       9.440  41.875   7.846  1.00  0.00     0.278 C 
ENDBRANCH  22  25
BRANCH  24  27
ATOM     27  O   UNL     1       9.841  42.888  11.211  1.00  0.00    -0.504 OA
ATOM     28  H   UNL     1       8.867  42.826  10.938  1.00  0.00     0.293 HD
ENDBRANCH  24  27
ENDBRANCH  18  19
ENDBRANCH  15  17
ENDBRANCH   1  15
TORSDOF 10
ENDMDL
MODEL 5
REMARK VINA RESULT:    -2.952      0.841      4.602
REMARK INTER + INTRA:          -6.702
REMARK INTER:                  -4.646
REMARK INTRA:                  -2.056
REMARK UNBOUND:                -2.197
REMARK SMILES COc1cc(C=CCOC(=O)C=Cc2ccc(O)c(OC)c2)ccc1O
REMARK SMILES IDX 9 1 8 2 7 3 6 4 5 5 3 6 25 7 4 8 24 9 23 10 2 11 1 12 26 13
REMARK SMILES IDX 10 15 11 16 12 17 13 18 14 19 22 20 15 21 19 22 16 23 17 24
REMARK SMILES IDX 20 25 21 26 18 27
REMARK H PARENT 26 14 18 28
REMARK Flexibility Score: inf
ROOT
ATOM      1  O   UNL     1      12.893  49.624   8.070  1.00  0.00    -0.458 OA
ENDROOT
BRANCH   1   2
ATOM      2  C   UNL     1      12.594  48.299   7.635  1.00  0.00     0.261 C 
BRANCH   2   3
ATOM      3  C   UNL     1      13.862  47.510   7.457  1.00  0.00     0.015 C 
ATOM      4  C   UNL     1      14.106  46.332   8.049  1.00  0.00     0.007 C 
BRANCH   4   5
ATOM      5  C   UNL     1      13.160  45.632   8.942  1.00  0.00    -0.022 A 
ATOM      6  C   UNL     1      11.944  45.447  11.054  1.00  0.00     0.161 A 
ATOM      7  C   UNL     1      11.314  44.283  10.577  1.00  0.00     0.157 A 
ATOM      8  C   UNL     1      12.860  46.122  10.224  1.00  0.00     0.058 A 
ATOM      9  C   UNL     1      11.592  43.813   9.289  1.00  0.00     0.051 A 
ATOM     10  C   UNL     1      12.500  44.489   8.473  1.00  0.00     0.012 A 
BRANCH   6  11
ATOM     11  O   UNL     1      11.638  45.901  12.347  1.00  0.00    -0.493 OA
ATOM     12  C   UNL     1      10.926  47.100  12.635  1.00  0.00     0.278 C 
ENDBRANCH   6  11
BRANCH   7  13
ATOM     13  O   UNL     1      10.402  43.583  11.366  1.00  0.00    -0.504 OA
ATOM     14  H   UNL     1      10.683  42.804  11.951  1.00  0.00     0.293 HD
ENDBRANCH   7  13
ENDBRANCH   4   5
ENDBRANCH   2   3
ENDBRANCH   1   2
BRANCH   1  15
ATOM     15  C   UNL     1      13.131  49.960   9.409  1.00  0.00     0.331 C 
ATOM     16  O   UNL     1      12.359  49.544  10.315  1.00  0.00    -0.247 OA
BRANCH  15  17
ATOM     17  C   UNL     1      14.246  50.852   9.777  1.00  0.00     0.094 C 
ATOM     18  C   UNL     1      15.382  50.464  10.376  1.00  0.00     0.016 C 
BRANCH  18  19
ATOM     19  C   UNL     1      15.632  49.119  10.933  1.00  0.00    -0.021 A 
ATOM     20  C   UNL     1      15.068  48.770  12.169  1.00  0.00     0.058 A 
ATOM     21  C   UNL     1      16.352  48.157  10.207  1.00  0.00     0.012 A 
ATOM     22  C   UNL     1      15.259  47.480  12.706  1.00  0.00     0.161 A 
ATOM     23  C   UNL     1      16.548  46.879  10.734  1.00  0.00     0.051 A 
ATOM     24  C   UNL     1      16.008  46.540  11.982  1.00  0.00     0.157 A 
BRANCH  22  25
ATOM     25  O   UNL     1      14.721  47.097  13.945  1.00  0.00    -0.493 OA
ATOM     26  C   UNL     1      13.938  47.946  14.780  1.00  0.00     0.278 C 
ENDBRANCH  22  25
BRANCH  24  27
ATOM     27  O   UNL     1      16.207  45.267  12.509  1.00  0.00    -0.504 OA
ATOM     28  H   UNL     1      16.007  45.056  13.481  1.00  0.00     0.293 HD
ENDBRANCH  24  27
ENDBRANCH  18  19
ENDBRANCH  15  17
ENDBRANCH   1  15
TORSDOF 10
ENDMDL
MODEL 6
REMARK VINA RESULT:    -2.918      1.765      4.965
REMARK INTER + INTRA:          -6.651
REMARK INTER:                  -4.726
REMARK INTRA:                  -1.925
REMARK UNBOUND:                -2.197
REMARK SMILES COc1cc(C=CCOC(=O)C=Cc2ccc(O)c(OC)c2)ccc1O
REMARK SMILES IDX 9 1 8 2 7 3 6 4 5 5 3 6 25 7 4 8 24 9 23 10 2 11 1 12 26 13
REMARK SMILES IDX 10 15 11 16 12 17 13 18 14 19 22 20 15 21 19 22 16 23 17 24
REMARK SMILES IDX 20 25 21 26 18 27
REMARK H PARENT 26 14 18 28
REMARK Flexibility Score: inf
ROOT
ATOM      1  O   UNL     1      13.322  49.374   8.421  1.00  0.00    -0.458 OA
ENDROOT
BRANCH   1   2
ATOM      2  C   UNL     1      12.131  48.901   9.048  1.00  0.00     0.261 C 
BRANCH   2   3
ATOM      3  C   UNL     1      11.087  48.585   8.013  1.00  0.00     0.015 C 
ATOM      4  C   UNL     1      10.483  47.393   7.893  1.00  0.00     0.007 C 
BRANCH   4   5
ATOM      5  C   UNL     1      10.741  46.231   8.768  1.00  0.00    -0.022 A 
ATOM      6  C   UNL     1      11.653  43.996   9.149  1.00  0.00     0.161 A 
ATOM      7  C   UNL     1      11.247  44.071  10.494  1.00  0.00     0.157 A 
ATOM      8  C   UNL     1      11.405  45.088   8.294  1.00  0.00     0.058 A 
ATOM      9  C   UNL     1      10.611  45.223  10.970  1.00  0.00     0.051 A 
ATOM     10  C   UNL     1      10.369  46.300  10.117  1.00  0.00     0.012 A 
BRANCH   6  11
ATOM     11  O   UNL     1      12.298  42.832   8.701  1.00  0.00    -0.493 OA
ATOM     12  C   UNL     1      11.837  42.013   7.631  1.00  0.00     0.278 C 
ENDBRANCH   6  11
BRANCH   7  13
ATOM     13  O   UNL     1      11.471  43.013  11.374  1.00  0.00    -0.504 OA
ATOM     14  H   UNL     1      10.741  42.650  11.976  1.00  0.00     0.293 HD
ENDBRANCH   7  13
ENDBRANCH   4   5
ENDBRANCH   2   3
ENDBRANCH   1   2
BRANCH   1  15
ATOM     15  C   UNL     1      14.496  48.615   8.327  1.00  0.00     0.331 C 
ATOM     16  O   UNL     1      15.622  49.178   8.392  1.00  0.00    -0.247 OA
BRANCH  15  17
ATOM     17  C   UNL     1      14.438  47.161   8.090  1.00  0.00     0.094 C 
ATOM     18  C   UNL     1      14.554  46.218   9.036  1.00  0.00     0.016 C 
BRANCH  18  19
ATOM     19  C   UNL     1      14.941  46.465  10.440  1.00  0.00    -0.021 A 
ATOM     20  C   UNL     1      13.946  46.737  11.391  1.00  0.00     0.058 A 
ATOM     21  C   UNL     1      16.277  46.346  10.854  1.00  0.00     0.012 A 
ATOM     22  C   UNL     1      14.284  46.940  12.745  1.00  0.00     0.161 A 
ATOM     23  C   UNL     1      16.619  46.548  12.194  1.00  0.00     0.051 A 
ATOM     24  C   UNL     1      15.628  46.849  13.137  1.00  0.00     0.157 A 
BRANCH  22  25
ATOM     25  O   UNL     1      13.318  47.227  13.723  1.00  0.00    -0.493 OA
ATOM     26  C   UNL     1      12.347  46.296  14.193  1.00  0.00     0.278 C 
ENDBRANCH  22  25
BRANCH  24  27
ATOM     27  O   UNL     1      15.970  47.055  14.471  1.00  0.00    -0.504 OA
ATOM     28  H   UNL     1      16.264  47.964  14.811  1.00  0.00     0.293 HD
ENDBRANCH  24  27
ENDBRANCH  18  19
ENDBRANCH  15  17
ENDBRANCH   1  15
TORSDOF 10
ENDMDL
MODEL 7
REMARK VINA RESULT:    -2.886      1.516      5.058
REMARK INTER + INTRA:          -6.601
REMARK INTER:                  -4.543
REMARK INTRA:                  -2.058
REMARK UNBOUND:                -2.197
REMARK SMILES COc1cc(C=CCOC(=O)C=Cc2ccc(O)c(OC)c2)ccc1O
REMARK SMILES IDX 9 1 8 2 7 3 6 4 5 5 3 6 25 7 4 8 24 9 23 10 2 11 1 12 26 13
REMARK SMILES IDX 10 15 11 16 12 17 13 18 14 19 22 20 15 21 19 22 16 23 17 24
REMARK SMILES IDX 20 25 21 26 18 27
REMARK H PARENT 26 14 18 28
REMARK Flexibility Score: inf
ROOT
ATOM      1  O   UNL     1      11.298  48.394   7.420  1.00  0.00    -0.458 OA
ENDROOT
BRANCH   1   2
ATOM      2  C   UNL     1      11.462  47.056   6.953  1.00  0.00     0.261 C 
BRANCH   2   3
ATOM      3  C   UNL     1      12.920  46.685   6.936  1.00  0.00     0.015 C 
ATOM      4  C   UNL     1      13.445  45.666   7.631  1.00  0.00     0.007 C 
BRANCH   4   5
ATOM      5  C   UNL     1      12.670  44.752   8.494  1.00  0.00    -0.022 A 
ATOM      6  C   UNL     1      11.273  44.323  10.453  1.00  0.00     0.161 A 
ATOM      7  C   UNL     1      11.167  42.974  10.069  1.00  0.00     0.157 A 
ATOM      8  C   UNL     1      12.020  45.209   9.652  1.00  0.00     0.058 A 
ATOM      9  C   UNL     1      11.791  42.527   8.900  1.00  0.00     0.051 A 
ATOM     10  C   UNL     1      12.529  43.412   8.111  1.00  0.00     0.012 A 
BRANCH   6  11
ATOM     11  O   UNL     1      10.627  44.746  11.626  1.00  0.00    -0.493 OA
ATOM     12  C   UNL     1       9.329  45.330  11.669  1.00  0.00     0.278 C 
ENDBRANCH   6  11
BRANCH   7  13
ATOM     13  O   UNL     1      10.439  42.063  10.834  1.00  0.00    -0.504 OA
ATOM     14  H   UNL     1      10.632  41.069  10.813  1.00  0.00     0.293 HD
ENDBRANCH   7  13
ENDBRANCH   4   5
ENDBRANCH   2   3
ENDBRANCH   1   2
BRANCH   1  15
ATOM     15  C   UNL     1      10.927  48.710   8.734  1.00  0.00     0.331 C 
ATOM     16  O   UNL     1      10.108  47.981   9.356  1.00  0.00    -0.247 OA
BRANCH  15  17
ATOM     17  C   UNL     1      11.438  49.928   9.390  1.00  0.00     0.094 C 
ATOM     18  C   UNL     1      12.606  50.023  10.043  1.00  0.00     0.016 C 
BRANCH  18  19
ATOM     19  C   UNL     1      13.489  48.887  10.374  1.00  0.00    -0.021 A 
ATOM     20  C   UNL     1      14.616  48.636   9.577  1.00  0.00     0.058 A 
ATOM     21  C   UNL     1      13.269  48.110  11.523  1.00  0.00     0.012 A 
ATOM     22  C   UNL     1      15.497  47.581   9.893  1.00  0.00     0.161 A 
ATOM     23  C   UNL     1      14.137  47.062  11.840  1.00  0.00     0.051 A 
ATOM     24  C   UNL     1      15.246  46.794  11.027  1.00  0.00     0.157 A 
BRANCH  22  25
ATOM     25  O   UNL     1      16.628  47.290   9.112  1.00  0.00    -0.493 OA
ATOM     26  C   UNL     1      16.738  47.569   7.720  1.00  0.00     0.278 C 
ENDBRANCH  22  25
BRANCH  24  27
ATOM     27  O   UNL     1      16.108  45.746  11.341  1.00  0.00    -0.504 OA
ATOM     28  H   UNL     1      16.937  45.891  11.905  1.00  0.00     0.293 HD
ENDBRANCH  24  27
ENDBRANCH  18  19
ENDBRANCH  15  17
ENDBRANCH   1  15
TORSDOF 10
ENDMDL
MODEL 8
REMARK VINA RESULT:    -2.868      2.093      3.326
REMARK INTER + INTRA:          -6.574
REMARK INTER:                  -5.689
REMARK INTRA:                  -0.885
REMARK UNBOUND:                -2.197
REMARK SMILES COc1cc(C=CCOC(=O)C=Cc2ccc(O)c(OC)c2)ccc1O
REMARK SMILES IDX 9 1 8 2 7 3 6 4 5 5 3 6 25 7 4 8 24 9 23 10 2 11 1 12 26 13
REMARK SMILES IDX 10 15 11 16 12 17 13 18 14 19 22 20 15 21 19 22 16 23 17 24
REMARK SMILES IDX 20 25 21 26 18 27
REMARK H PARENT 26 14 18 28
REMARK Flexibility Score: inf
ROOT
ATOM      1  O   UNL     1      13.379  45.474   6.197  1.00  0.00    -0.458 OA
ENDROOT
BRANCH   1   2
ATOM      2  C   UNL     1      13.622  45.984   7.506  1.00  0.00     0.261 C 
BRANCH   2   3
ATOM      3  C   UNL     1      13.901  47.461   7.447  1.00  0.00     0.015 C 
ATOM      4  C   UNL     1      14.520  48.149   8.418  1.00  0.00     0.007 C 
BRANCH   4   5
ATOM      5  C   UNL     1      15.032  47.556   9.670  1.00  0.00    -0.022 A 
ATOM      6  C   UNL     1      14.714  46.816  11.978  1.00  0.00     0.161 A 
ATOM      7  C   UNL     1      16.050  46.375  12.009  1.00  0.00     0.157 A 
ATOM      8  C   UNL     1      14.210  47.397  10.798  1.00  0.00     0.058 A 
ATOM      9  C   UNL     1      16.858  46.508  10.875  1.00  0.00     0.051 A 
ATOM     10  C   UNL     1      16.351  47.085   9.710  1.00  0.00     0.012 A 
BRANCH   6  11
ATOM     11  O   UNL     1      13.923  46.660  13.127  1.00  0.00    -0.493 OA
ATOM     12  C   UNL     1      12.758  45.845  13.202  1.00  0.00     0.278 C 
ENDBRANCH   6  11
BRANCH   7  13
ATOM     13  O   UNL     1      16.590  45.796  13.156  1.00  0.00    -0.504 OA
ATOM     14  H   UNL     1      16.580  46.267  14.053  1.00  0.00     0.293 HD
ENDBRANCH   7  13
ENDBRANCH   4   5
ENDBRANCH   2   3
ENDBRANCH   1   2
BRANCH   1  15
ATOM     15  C   UNL     1      12.459  44.452   5.927  1.00  0.00     0.331 C 
ATOM     16  O   UNL     1      11.230  44.714   5.828  1.00  0.00    -0.247 OA
BRANCH  15  17
ATOM     17  C   UNL     1      12.900  43.050   5.817  1.00  0.00     0.094 C 
ATOM     18  C   UNL     1      12.453  42.036   6.573  1.00  0.00     0.016 C 
BRANCH  18  19
ATOM     19  C   UNL     1      11.586  42.180   7.760  1.00  0.00    -0.021 A 
ATOM     20  C   UNL     1      10.205  41.973   7.634  1.00  0.00     0.058 A 
ATOM     21  C   UNL     1      12.132  42.434   9.029  1.00  0.00     0.012 A 
ATOM     22  C   UNL     1       9.359  42.066   8.758  1.00  0.00     0.161 A 
ATOM     23  C   UNL     1      11.300  42.531  10.146  1.00  0.00     0.051 A 
ATOM     24  C   UNL     1       9.917  42.352  10.014  1.00  0.00     0.157 A 
BRANCH  22  25
ATOM     25  O   UNL     1       7.970  41.877   8.669  1.00  0.00    -0.493 OA
ATOM     26  C   UNL     1       7.089  42.720   7.932  1.00  0.00     0.278 C 
ENDBRANCH  22  25
BRANCH  24  27
ATOM     27  O   UNL     1       9.087  42.453  11.127  1.00  0.00    -0.504 OA
ATOM     28  H   UNL     1       9.440  42.760  12.027  1.00  0.00     0.293 HD
ENDBRANCH  24  27
ENDBRANCH  18  19
ENDBRANCH  15  17
ENDBRANCH   1  15
TORSDOF 10
ENDMDL
MODEL 9
REMARK VINA RESULT:    -2.838      2.023      4.013
REMARK INTER + INTRA:          -6.529
REMARK INTER:                  -4.287
REMARK INTRA:                  -2.242
REMARK UNBOUND:                -2.197
REMARK SMILES COc1cc(C=CCOC(=O)C=Cc2ccc(O)c(OC)c2)ccc1O
REMARK SMILES IDX 9 1 8 2 7 3 6 4 5 5 3 6 25 7 4 8 24 9 23 10 2 11 1 12 26 13
REMARK SMILES IDX 10 15 11 16 12 17 13 18 14 19 22 20 15 21 19 22 16 23 17 24
REMARK SMILES IDX 20 25 21 26 18 27
REMARK H PARENT 26 14 18 28
REMARK Flexibility Score: inf
ROOT
ATOM      1  O   UNL     1      16.635  47.119  10.168  1.00  0.00    -0.458 OA
ENDROOT
BRANCH   1   2
ATOM      2  C   UNL     1      16.133  46.017  10.921  1.00  0.00     0.261 C 
BRANCH   2   3
ATOM      3  C   UNL     1      16.446  46.197  12.381  1.00  0.00     0.015 C 
ATOM      4  C   UNL     1      15.650  46.841  13.248  1.00  0.00     0.007 C 
BRANCH   4   5
ATOM      5  C   UNL     1      14.347  47.445  12.900  1.00  0.00    -0.022 A 
ATOM      6  C   UNL     1      11.934  47.281  12.551  1.00  0.00     0.161 A 
ATOM      7  C   UNL     1      11.890  48.661  12.280  1.00  0.00     0.157 A 
ATOM      8  C   UNL     1      13.168  46.682  12.871  1.00  0.00     0.058 A 
ATOM      9  C   UNL     1      13.061  49.424  12.338  1.00  0.00     0.051 A 
ATOM     10  C   UNL     1      14.280  48.823  12.656  1.00  0.00     0.012 A 
BRANCH   6  11
ATOM     11  O   UNL     1      10.741  46.542  12.496  1.00  0.00    -0.493 OA
ATOM     12  C   UNL     1       9.873  46.324  13.604  1.00  0.00     0.278 C 
ENDBRANCH   6  11
BRANCH   7  13
ATOM     13  O   UNL     1      10.690  49.293  11.957  1.00  0.00    -0.504 OA
ATOM     14  H   UNL     1      10.044  48.908  11.278  1.00  0.00     0.293 HD
ENDBRANCH   7  13
ENDBRANCH   4   5
ENDBRANCH   2   3
ENDBRANCH   1   2
BRANCH   1  15
ATOM     15  C   UNL     1      16.007  47.617   9.019  1.00  0.00     0.331 C 
ATOM     16  O   UNL     1      16.538  47.461   7.886  1.00  0.00    -0.247 OA
BRANCH  15  17
ATOM     17  C   UNL     1      14.750  48.381   9.117  1.00  0.00     0.094 C 
ATOM     18  C   UNL     1      13.520  47.873   8.950  1.00  0.00     0.016 C 
BRANCH  18  19
ATOM     19  C   UNL     1      13.222  46.511   8.462  1.00  0.00    -0.021 A 
ATOM     20  C   UNL     1      12.723  45.553   9.356  1.00  0.00     0.058 A 
ATOM     21  C   UNL     1      13.348  46.186   7.102  1.00  0.00     0.012 A 
ATOM     22  C   UNL     1      12.394  44.257   8.909  1.00  0.00     0.161 A 
ATOM     23  C   UNL     1      13.027  44.903   6.652  1.00  0.00     0.051 A 
ATOM     24  C   UNL     1      12.555  43.938   7.552  1.00  0.00     0.157 A 
BRANCH  22  25
ATOM     25  O   UNL     1      11.903  43.267   9.776  1.00  0.00    -0.493 OA
ATOM     26  C   UNL     1      10.818  43.454  10.679  1.00  0.00     0.278 C 
ENDBRANCH  22  25
BRANCH  24  27
ATOM     27  O   UNL     1      12.240  42.658   7.104  1.00  0.00    -0.504 OA
ATOM     28  H   UNL     1      12.895  41.889   7.187  1.00  0.00     0.293 HD
ENDBRANCH  24  27
ENDBRANCH  18  19
ENDBRANCH  15  17
ENDBRANCH   1  15
TORSDOF 10
ENDMDL
