MODEL 1
REMARK VINA RESULT:    -6.777      0.000      0.000
REMARK INTER + INTRA:          -6.777
REMARK INTER:                  -6.777
REMARK INTRA:                   0.000
REMARK UNBOUND:                 0.000
REMARK SMILES Cc1cccc2ccccc12
REMARK SMILES IDX 1 1 2 2 3 3 4 4 5 5 6 6 7 7 8 8 9 9 10 10 11 11
REMARK H PARENT
REMARK Flexibility Score: inf
ROOT
ATOM      1  C   UNL     1      43.759  54.137  88.556  1.00  0.00     0.045 C 
ATOM      2  C   UNL     1      43.605  54.146  87.056  1.00  0.00    -0.043 A 
ATOM      3  C   UNL     1      42.870  55.184  86.457  1.00  0.00     0.004 A 
ATOM      4  C   UNL     1      42.702  55.233  85.073  1.00  0.00     0.001 A 
ATOM      5  C   UNL     1      43.262  54.248  84.261  1.00  0.00     0.009 A 
ATOM      6  C   UNL     1      43.999  53.201  84.828  1.00  0.00    -0.018 A 
ATOM      7  C   UNL     1      44.561  52.212  84.004  1.00  0.00     0.009 A 
ATOM      8  C   UNL     1      45.296  51.166  84.562  1.00  0.00     0.001 A 
ATOM      9  C   UNL     1      45.479  51.096  85.943  1.00  0.00     0.001 A 
ATOM     10  C   UNL     1      44.926  52.071  86.777  1.00  0.00     0.009 A 
ATOM     11  C   UNL     1      44.179  53.139  86.237  1.00  0.00    -0.015 A 
ENDROOT
TORSDOF 0
ENDMDL
MODEL 2
REMARK VINA RESULT:    -6.753     11.896     13.318
REMARK INTER + INTRA:          -6.753
REMARK INTER:                  -6.753
REMARK INTRA:                   0.000
REMARK UNBOUND:                 0.000
REMARK SMILES Cc1cccc2ccccc12
REMARK SMILES IDX 1 1 2 2 3 3 4 4 5 5 6 6 7 7 8 8 9 9 10 10 11 11
REMARK H PARENT
REMARK Flexibility Score: inf
ROOT
ATOM      1  C   UNL     1      52.283  59.263  74.534  1.00  0.00     0.045 C 
ATOM      2  C   UNL     1      51.800  59.625  75.916  1.00  0.00    -0.043 A 
ATOM      3  C   UNL     1      52.735  60.075  76.865  1.00  0.00     0.004 A 
ATOM      4  C   UNL     1      52.333  60.421  78.155  1.00  0.00     0.001 A 
ATOM      5  C   UNL     1      50.993  60.324  78.524  1.00  0.00     0.009 A 
ATOM      6  C   UNL     1      50.037  59.879  77.602  1.00  0.00    -0.018 A 
ATOM      7  C   UNL     1      48.688  59.784  77.981  1.00  0.00     0.009 A 
ATOM      8  C   UNL     1      47.731  59.341  77.067  1.00  0.00     0.001 A 
ATOM      9  C   UNL     1      48.108  58.990  75.771  1.00  0.00     0.001 A 
ATOM     10  C   UNL     1      49.446  59.078  75.378  1.00  0.00     0.009 A 
ATOM     11  C   UNL     1      50.433  59.524  76.283  1.00  0.00    -0.015 A 
ENDROOT
TORSDOF 0
ENDMDL
MODEL 3
REMARK VINA RESULT:    -6.736      0.463      3.381
REMARK INTER + INTRA:          -6.736
REMARK INTER:                  -6.736
REMARK INTRA:                   0.000
REMARK UNBOUND:                 0.000
REMARK SMILES Cc1cccc2ccccc12
REMARK SMILES IDX 1 1 2 2 3 3 4 4 5 5 6 6 7 7 8 8 9 9 10 10 11 11
REMARK H PARENT
REMARK Flexibility Score: inf
ROOT
ATOM      1  C   UNL     1      45.223  51.942  88.274  1.00  0.00     0.045 C 
ATOM      2  C   UNL     1      44.971  52.062  86.792  1.00  0.00    -0.043 A 
ATOM      3  C   UNL     1      45.504  51.086  85.933  1.00  0.00     0.004 A 
ATOM      4  C   UNL     1      45.297  51.157  84.556  1.00  0.00     0.001 A 
ATOM      5  C   UNL     1      44.555  52.202  84.009  1.00  0.00     0.009 A 
ATOM      6  C   UNL     1      44.010  53.191  84.839  1.00  0.00    -0.018 A 
ATOM      7  C   UNL     1      43.264  54.242  84.281  1.00  0.00     0.009 A 
ATOM      8  C   UNL     1      42.719  55.230  85.102  1.00  0.00     0.001 A 
ATOM      9  C   UNL     1      42.913  55.180  86.482  1.00  0.00     0.001 A 
ATOM     10  C   UNL     1      43.653  54.142  87.053  1.00  0.00     0.009 A 
ATOM     11  C   UNL     1      44.214  53.131  86.245  1.00  0.00    -0.015 A 
ENDROOT
TORSDOF 0
ENDMDL
MODEL 4
REMARK VINA RESULT:    -6.711     13.735     14.028
REMARK INTER + INTRA:          -6.711
REMARK INTER:                  -6.711
REMARK INTRA:                   0.000
REMARK UNBOUND:                 0.000
REMARK SMILES Cc1cccc2ccccc12
REMARK SMILES IDX 1 1 2 2 3 3 4 4 5 5 6 6 7 7 8 8 9 9 10 10 11 11
REMARK H PARENT
REMARK Flexibility Score: inf
ROOT
ATOM      1  C   UNL     1      56.388  58.846  88.986  1.00  0.00     0.045 C 
ATOM      2  C   UNL     1      56.539  58.798  87.487  1.00  0.00    -0.043 A 
ATOM      3  C   UNL     1      55.893  59.775  86.709  1.00  0.00     0.004 A 
ATOM      4  C   UNL     1      56.006  59.770  85.319  1.00  0.00     0.001 A 
ATOM      5  C   UNL     1      56.764  58.792  84.678  1.00  0.00     0.009 A 
ATOM      6  C   UNL     1      57.420  57.805  85.425  1.00  0.00    -0.018 A 
ATOM      7  C   UNL     1      58.181  56.822  84.773  1.00  0.00     0.009 A 
ATOM      8  C   UNL     1      58.837  55.836  85.510  1.00  0.00     0.001 A 
ATOM      9  C   UNL     1      58.739  55.820  86.902  1.00  0.00     0.001 A 
ATOM     10  C   UNL     1      57.985  56.790  87.566  1.00  0.00     0.009 A 
ATOM     11  C   UNL     1      57.313  57.798  86.843  1.00  0.00    -0.015 A 
ENDROOT
TORSDOF 0
ENDMDL
MODEL 5
REMARK VINA RESULT:    -6.695      0.802      4.184
REMARK INTER + INTRA:          -6.695
REMARK INTER:                  -6.695
REMARK INTRA:                   0.000
REMARK UNBOUND:                 0.000
REMARK SMILES Cc1cccc2ccccc12
REMARK SMILES IDX 1 1 2 2 3 3 4 4 5 5 6 6 7 7 8 8 9 9 10 10 11 11
REMARK H PARENT
REMARK Flexibility Score: inf
ROOT
ATOM      1  C   UNL     1      45.046  51.499  83.540  1.00  0.00     0.045 C 
ATOM      2  C   UNL     1      44.855  51.935  84.971  1.00  0.00    -0.043 A 
ATOM      3  C   UNL     1      45.424  51.162  85.997  1.00  0.00     0.004 A 
ATOM      4  C   UNL     1      45.273  51.528  87.335  1.00  0.00     0.001 A 
ATOM      5  C   UNL     1      44.552  52.671  87.674  1.00  0.00     0.009 A 
ATOM      6  C   UNL     1      43.973  53.463  86.674  1.00  0.00    -0.018 A 
ATOM      7  C   UNL     1      43.247  54.613  87.023  1.00  0.00     0.009 A 
ATOM      8  C   UNL     1      42.667  55.406  86.032  1.00  0.00     0.001 A 
ATOM      9  C   UNL     1      42.805  55.061  84.687  1.00  0.00     0.001 A 
ATOM     10  C   UNL     1      43.523  53.919  84.323  1.00  0.00     0.009 A 
ATOM     11  C   UNL     1      44.119  53.101  85.306  1.00  0.00    -0.015 A 
ENDROOT
TORSDOF 0
ENDMDL
MODEL 6
REMARK VINA RESULT:    -6.682     13.791     14.342
REMARK INTER + INTRA:          -6.682
REMARK INTER:                  -6.682
REMARK INTRA:                   0.000
REMARK UNBOUND:                 0.000
REMARK SMILES Cc1cccc2ccccc12
REMARK SMILES IDX 1 1 2 2 3 3 4 4 5 5 6 6 7 7 8 8 9 9 10 10 11 11
REMARK H PARENT
REMARK Flexibility Score: inf
ROOT
ATOM      1  C   UNL     1      56.202  59.660  84.725  1.00  0.00     0.045 C 
ATOM      2  C   UNL     1      56.604  58.961  85.999  1.00  0.00    -0.043 A 
ATOM      3  C   UNL     1      56.177  59.494  87.228  1.00  0.00     0.004 A 
ATOM      4  C   UNL     1      56.524  58.880  88.431  1.00  0.00     0.001 A 
ATOM      5  C   UNL     1      57.303  57.725  88.433  1.00  0.00     0.009 A 
ATOM      6  C   UNL     1      57.745  57.170  87.225  1.00  0.00    -0.018 A 
ATOM      7  C   UNL     1      58.530  56.005  87.233  1.00  0.00     0.009 A 
ATOM      8  C   UNL     1      58.973  55.447  86.034  1.00  0.00     0.001 A 
ATOM      9  C   UNL     1      58.639  56.042  84.818  1.00  0.00     0.001 A 
ATOM     10  C   UNL     1      57.859  57.201  84.791  1.00  0.00     0.009 A 
ATOM     11  C   UNL     1      57.398  57.785  85.990  1.00  0.00    -0.015 A 
ENDROOT
TORSDOF 0
ENDMDL
MODEL 7
REMARK VINA RESULT:    -6.662     13.760     14.481
REMARK INTER + INTRA:          -6.662
REMARK INTER:                  -6.662
REMARK INTRA:                   0.000
REMARK UNBOUND:                 0.000
REMARK SMILES Cc1cccc2ccccc12
REMARK SMILES IDX 1 1 2 2 3 3 4 4 5 5 6 6 7 7 8 8 9 9 10 10 11 11
REMARK H PARENT
REMARK Flexibility Score: inf
ROOT
ATOM      1  C   UNL     1      58.134  56.301  88.890  1.00  0.00     0.045 C 
ATOM      2  C   UNL     1      58.080  56.578  87.409  1.00  0.00    -0.043 A 
ATOM      3  C   UNL     1      58.766  55.719  86.533  1.00  0.00     0.004 A 
ATOM      4  C   UNL     1      58.743  55.936  85.155  1.00  0.00     0.001 A 
ATOM      5  C   UNL     1      58.037  57.015  84.625  1.00  0.00     0.009 A 
ATOM      6  C   UNL     1      57.344  57.890  85.472  1.00  0.00    -0.018 A 
ATOM      7  C   UNL     1      56.636  58.975  84.931  1.00  0.00     0.009 A 
ATOM      8  C   UNL     1      55.944  59.850  85.768  1.00  0.00     0.001 A 
ATOM      9  C   UNL     1      55.951  59.653  87.149  1.00  0.00     0.001 A 
ATOM     10  C   UNL     1      56.651  58.579  87.704  1.00  0.00     0.009 A 
ATOM     11  C   UNL     1      57.359  57.679  86.878  1.00  0.00    -0.015 A 
ENDROOT
TORSDOF 0
ENDMDL
MODEL 8
REMARK VINA RESULT:    -6.602     13.731     14.623
REMARK INTER + INTRA:          -6.602
REMARK INTER:                  -6.602
REMARK INTRA:                   0.000
REMARK UNBOUND:                 0.000
REMARK SMILES Cc1cccc2ccccc12
REMARK SMILES IDX 1 1 2 2 3 3 4 4 5 5 6 6 7 7 8 8 9 9 10 10 11 11
REMARK H PARENT
REMARK Flexibility Score: inf
ROOT
ATOM      1  C   UNL     1      58.253  56.420  84.257  1.00  0.00     0.045 C 
ATOM      2  C   UNL     1      58.017  56.796  85.698  1.00  0.00    -0.043 A 
ATOM      3  C   UNL     1      58.585  56.000  86.708  1.00  0.00     0.004 A 
ATOM      4  C   UNL     1      58.393  56.311  88.054  1.00  0.00     0.001 A 
ATOM      5  C   UNL     1      57.632  57.419  88.419  1.00  0.00     0.009 A 
ATOM      6  C   UNL     1      57.053  58.233  87.436  1.00  0.00    -0.018 A 
ATOM      7  C   UNL     1      56.287  59.349  87.811  1.00  0.00     0.009 A 
ATOM      8  C   UNL     1      55.708  60.162  86.837  1.00  0.00     0.001 A 
ATOM      9  C   UNL     1      55.886  59.873  85.484  1.00  0.00     0.001 A 
ATOM     10  C   UNL     1      56.644  58.766  85.094  1.00  0.00     0.009 A 
ATOM     11  C   UNL     1      57.241  57.928  86.060  1.00  0.00    -0.015 A 
ENDROOT
TORSDOF 0
ENDMDL
MODEL 9
REMARK VINA RESULT:    -6.598     11.818     12.843
REMARK INTER + INTRA:          -6.598
REMARK INTER:                  -6.598
REMARK INTRA:                   0.000
REMARK UNBOUND:                 0.000
REMARK SMILES Cc1cccc2ccccc12
REMARK SMILES IDX 1 1 2 2 3 3 4 4 5 5 6 6 7 7 8 8 9 9 10 10 11 11
REMARK H PARENT
REMARK Flexibility Score: inf
ROOT
ATOM      1  C   UNL     1      49.105  60.002  79.432  1.00  0.00     0.045 C 
ATOM      2  C   UNL     1      49.232  59.701  77.960  1.00  0.00    -0.043 A 
ATOM      3  C   UNL     1      48.083  59.328  77.243  1.00  0.00     0.004 A 
ATOM      4  C   UNL     1      48.153  59.041  75.880  1.00  0.00     0.001 A 
ATOM      5  C   UNL     1      49.371  59.119  75.206  1.00  0.00     0.009 A 
ATOM      6  C   UNL     1      50.535  59.489  75.893  1.00  0.00    -0.018 A 
ATOM      7  C   UNL     1      51.758  59.566  75.209  1.00  0.00     0.009 A 
ATOM      8  C   UNL     1      52.921  59.933  75.887  1.00  0.00     0.001 A 
ATOM      9  C   UNL     1      52.876  60.225  77.250  1.00  0.00     0.001 A 
ATOM     10  C   UNL     1      51.667  60.153  77.946  1.00  0.00     0.009 A 
ATOM     11  C   UNL     1      50.477  59.785  77.283  1.00  0.00    -0.015 A 
ENDROOT
TORSDOF 0
ENDMDL
