MODEL 1
REMARK VINA RESULT:    -5.629      0.000      0.000
REMARK INTER + INTRA:          -6.858
REMARK INTER:                  -6.616
REMARK INTRA:                  -0.242
REMARK UNBOUND:                -0.242
REMARK SMILES O=C([O-])C=Cc1ccc(O)c(O)c1
REMARK SMILES IDX 6 1 13 2 7 3 11 4 8 5 9 6 5 7 4 8 2 9 1 10 3 11 12 12 10 14
REMARK H PARENT 12 13 10 15
REMARK Flexibility Score: inf
ROOT
ATOM      1  C   UNL     1      80.784  61.225   6.777  1.00  0.00    -0.022 A 
ATOM      2  C   UNL     1      82.117  61.630   6.927  1.00  0.00     0.058 A 
ATOM      3  C   UNL     1      79.926  61.267   7.886  1.00  0.00     0.012 A 
ATOM      4  C   UNL     1      82.585  62.125   8.152  1.00  0.00     0.157 A 
ATOM      5  C   UNL     1      80.382  61.760   9.110  1.00  0.00     0.051 A 
ATOM      6  C   UNL     1      81.703  62.196   9.258  1.00  0.00     0.157 A 
ENDROOT
BRANCH   1   7
ATOM      7  C   UNL     1      80.341  60.659   5.486  1.00  0.00     0.010 C 
ATOM      8  C   UNL     1      79.496  61.250   4.627  1.00  0.00     0.025 C 
BRANCH   8   9
ATOM      9  C   UNL     1      78.998  62.636   4.723  1.00  0.00     0.064 C 
ATOM     10  O   UNL     1      79.604  63.594   4.175  1.00  0.00    -0.545 OA
ATOM     11  O   UNL     1      77.798  62.879   5.378  1.00  0.00    -0.545 OA
ENDBRANCH   8   9
ENDBRANCH   1   7
BRANCH   4  12
ATOM     12  O   UNL     1      83.920  62.528   8.226  1.00  0.00    -0.504 OA
ATOM     13  H   UNL     1      84.685  62.029   7.798  1.00  0.00     0.293 HD
ENDBRANCH   4  12
BRANCH   6  14
ATOM     14  O   UNL     1      82.095  62.684  10.505  1.00  0.00    -0.504 OA
ATOM     15  H   UNL     1      82.297  62.099  11.302  1.00  0.00     0.293 HD
ENDBRANCH   6  14
TORSDOF 4
ENDMDL
MODEL 2
REMARK VINA RESULT:    -5.383      1.494      4.107
REMARK INTER + INTRA:          -6.570
REMARK INTER:                  -6.463
REMARK INTRA:                  -0.106
REMARK UNBOUND:                -0.242
REMARK SMILES O=C([O-])C=Cc1ccc(O)c(O)c1
REMARK SMILES IDX 6 1 13 2 7 3 11 4 8 5 9 6 5 7 4 8 2 9 1 10 3 11 12 12 10 14
REMARK H PARENT 12 13 10 15
REMARK Flexibility Score: inf
ROOT
ATOM      1  C   UNL     1      80.920  60.997   6.920  1.00  0.00    -0.022 A 
ATOM      2  C   UNL     1      80.398  61.885   5.969  1.00  0.00     0.058 A 
ATOM      3  C   UNL     1      80.370  60.972   8.209  1.00  0.00     0.012 A 
ATOM      4  C   UNL     1      79.304  62.705   6.276  1.00  0.00     0.157 A 
ATOM      5  C   UNL     1      79.279  61.785   8.525  1.00  0.00     0.051 A 
ATOM      6  C   UNL     1      78.733  62.650   7.571  1.00  0.00     0.157 A 
ENDROOT
BRANCH   1   7
ATOM      7  C   UNL     1      82.107  60.185   6.577  1.00  0.00     0.010 C 
ATOM      8  C   UNL     1      83.375  60.626   6.573  1.00  0.00     0.025 C 
BRANCH   8   9
ATOM      9  C   UNL     1      83.835  61.933   7.079  1.00  0.00     0.064 C 
ATOM     10  O   UNL     1      84.473  62.735   6.350  1.00  0.00    -0.545 OA
ATOM     11  O   UNL     1      83.495  62.315   8.371  1.00  0.00    -0.545 OA
ENDBRANCH   8   9
ENDBRANCH   1   7
BRANCH   4  12
ATOM     12  O   UNL     1      78.825  63.554   5.276  1.00  0.00    -0.504 OA
ATOM     13  H   UNL     1      77.925  64.010   5.307  1.00  0.00     0.293 HD
ENDBRANCH   4  12
BRANCH   6  14
ATOM     14  O   UNL     1      77.640  63.432   7.946  1.00  0.00    -0.504 OA
ATOM     15  H   UNL     1      76.716  63.065   8.121  1.00  0.00     0.293 HD
ENDBRANCH   6  14
TORSDOF 4
ENDMDL
MODEL 3
REMARK VINA RESULT:    -5.362      0.846      1.865
REMARK INTER + INTRA:          -6.544
REMARK INTER:                  -6.334
REMARK INTRA:                  -0.210
REMARK UNBOUND:                -0.242
REMARK SMILES O=C([O-])C=Cc1ccc(O)c(O)c1
REMARK SMILES IDX 6 1 13 2 7 3 11 4 8 5 9 6 5 7 4 8 2 9 1 10 3 11 12 12 10 14
REMARK H PARENT 12 13 10 15
REMARK Flexibility Score: inf
ROOT
ATOM      1  C   UNL     1      81.112  61.043   6.438  1.00  0.00    -0.022 A 
ATOM      2  C   UNL     1      80.380  61.312   7.602  1.00  0.00     0.058 A 
ATOM      3  C   UNL     1      82.476  61.364   6.397  1.00  0.00     0.012 A 
ATOM      4  C   UNL     1      81.005  61.845   8.738  1.00  0.00     0.157 A 
ATOM      5  C   UNL     1      83.109  61.893   7.523  1.00  0.00     0.051 A 
ATOM      6  C   UNL     1      82.390  62.134   8.700  1.00  0.00     0.157 A 
ENDROOT
BRANCH   1   7
ATOM      7  C   UNL     1      80.408  60.532   5.243  1.00  0.00     0.010 C 
ATOM      8  C   UNL     1      79.575  61.243   4.467  1.00  0.00     0.025 C 
BRANCH   8   9
ATOM      9  C   UNL     1      79.348  62.698   4.554  1.00  0.00     0.064 C 
ATOM     10  O   UNL     1      80.027  63.513   3.877  1.00  0.00    -0.545 OA
ATOM     11  O   UNL     1      78.315  63.175   5.350  1.00  0.00    -0.545 OA
ENDBRANCH   8   9
ENDBRANCH   1   7
BRANCH   4  12
ATOM     12  O   UNL     1      80.219  62.071   9.870  1.00  0.00    -0.504 OA
ATOM     13  H   UNL     1      80.077  61.393  10.603  1.00  0.00     0.293 HD
ENDBRANCH   4  12
BRANCH   6  14
ATOM     14  O   UNL     1      83.082  62.658   9.792  1.00  0.00    -0.504 OA
ATOM     15  H   UNL     1      82.773  63.457  10.327  1.00  0.00     0.293 HD
ENDBRANCH   6  14
TORSDOF 4
ENDMDL
MODEL 4
REMARK VINA RESULT:    -5.325      1.886      4.289
REMARK INTER + INTRA:          -6.501
REMARK INTER:                  -6.302
REMARK INTRA:                  -0.199
REMARK UNBOUND:                -0.242
REMARK SMILES O=C([O-])C=Cc1ccc(O)c(O)c1
REMARK SMILES IDX 6 1 13 2 7 3 11 4 8 5 9 6 5 7 4 8 2 9 1 10 3 11 12 12 10 14
REMARK H PARENT 12 13 10 15
REMARK Flexibility Score: inf
ROOT
ATOM      1  C   UNL     1      80.819  61.104   6.923  1.00  0.00    -0.022 A 
ATOM      2  C   UNL     1      80.290  61.153   8.220  1.00  0.00     0.058 A 
ATOM      3  C   UNL     1      80.174  61.801   5.892  1.00  0.00     0.012 A 
ATOM      4  C   UNL     1      79.159  61.931   8.505  1.00  0.00     0.157 A 
ATOM      5  C   UNL     1      79.049  62.580   6.166  1.00  0.00     0.051 A 
ATOM      6  C   UNL     1      78.534  62.660   7.465  1.00  0.00     0.157 A 
ENDROOT
BRANCH   1   7
ATOM      7  C   UNL     1      81.980  60.231   6.649  1.00  0.00     0.010 C 
ATOM      8  C   UNL     1      83.265  60.619   6.665  1.00  0.00     0.025 C 
BRANCH   8   9
ATOM      9  C   UNL     1      83.765  61.927   7.129  1.00  0.00     0.064 C 
ATOM     10  O   UNL     1      83.612  62.307   8.319  1.00  0.00    -0.545 OA
ATOM     11  O   UNL     1      84.482  62.728   6.250  1.00  0.00    -0.545 OA
ENDBRANCH   8   9
ENDBRANCH   1   7
BRANCH   4  12
ATOM     12  O   UNL     1      78.695  61.949   9.822  1.00  0.00    -0.504 OA
ATOM     13  H   UNL     1      78.018  61.298  10.191  1.00  0.00     0.293 HD
ENDBRANCH   4  12
BRANCH   6  14
ATOM     14  O   UNL     1      77.410  63.461   7.675  1.00  0.00    -0.504 OA
ATOM     15  H   UNL     1      76.483  63.100   7.845  1.00  0.00     0.293 HD
ENDBRANCH   6  14
TORSDOF 4
ENDMDL
MODEL 5
REMARK VINA RESULT:    -5.304      1.131      1.524
REMARK INTER + INTRA:          -6.476
REMARK INTER:                  -6.268
REMARK INTRA:                  -0.208
REMARK UNBOUND:                -0.242
REMARK SMILES O=C([O-])C=Cc1ccc(O)c(O)c1
REMARK SMILES IDX 6 1 13 2 7 3 11 4 8 5 9 6 5 7 4 8 2 9 1 10 3 11 12 12 10 14
REMARK H PARENT 12 13 10 15
REMARK Flexibility Score: inf
ROOT
ATOM      1  C   UNL     1      79.898  61.272   7.352  1.00  0.00    -0.022 A 
ATOM      2  C   UNL     1      81.063  61.643   8.035  1.00  0.00     0.058 A 
ATOM      3  C   UNL     1      78.656  61.409   7.989  1.00  0.00     0.012 A 
ATOM      4  C   UNL     1      80.997  62.197   9.321  1.00  0.00     0.157 A 
ATOM      5  C   UNL     1      78.579  61.962   9.269  1.00  0.00     0.051 A 
ATOM      6  C   UNL     1      79.737  62.364   9.944  1.00  0.00     0.157 A 
ENDROOT
BRANCH   1   7
ATOM      7  C   UNL     1      80.010  60.642   6.019  1.00  0.00     0.010 C 
ATOM      8  C   UNL     1      79.602  61.189   4.863  1.00  0.00     0.025 C 
BRANCH   8   9
ATOM      9  C   UNL     1      79.139  62.579   4.684  1.00  0.00     0.064 C 
ATOM     10  O   UNL     1      79.902  63.477   4.242  1.00  0.00    -0.545 OA
ATOM     11  O   UNL     1      77.810  62.887   4.946  1.00  0.00    -0.545 OA
ENDBRANCH   8   9
ENDBRANCH   1   7
BRANCH   4  12
ATOM     12  O   UNL     1      82.196  62.561   9.937  1.00  0.00    -0.504 OA
ATOM     13  H   UNL     1      82.800  63.298   9.605  1.00  0.00     0.293 HD
ENDBRANCH   4  12
BRANCH   6  14
ATOM     14  O   UNL     1      79.592  62.915  11.218  1.00  0.00    -0.504 OA
ATOM     15  H   UNL     1      79.496  63.903  11.399  1.00  0.00     0.293 HD
ENDBRANCH   6  14
TORSDOF 4
ENDMDL
MODEL 6
REMARK VINA RESULT:    -5.289      1.617      2.507
REMARK INTER + INTRA:          -6.459
REMARK INTER:                  -6.253
REMARK INTRA:                  -0.206
REMARK UNBOUND:                -0.242
REMARK SMILES O=C([O-])C=Cc1ccc(O)c(O)c1
REMARK SMILES IDX 6 1 13 2 7 3 11 4 8 5 9 6 5 7 4 8 2 9 1 10 3 11 12 12 10 14
REMARK H PARENT 12 13 10 15
REMARK Flexibility Score: inf
ROOT
ATOM      1  C   UNL     1      80.088  61.131   7.214  1.00  0.00    -0.022 A 
ATOM      2  C   UNL     1      78.881  61.225   7.920  1.00  0.00     0.058 A 
ATOM      3  C   UNL     1      81.248  61.700   7.760  1.00  0.00     0.012 A 
ATOM      4  C   UNL     1      78.832  61.832   9.182  1.00  0.00     0.157 A 
ATOM      5  C   UNL     1      81.210  62.305   9.017  1.00  0.00     0.051 A 
ATOM      6  C   UNL     1      80.015  62.375   9.741  1.00  0.00     0.157 A 
ENDROOT
BRANCH   1   7
ATOM      7  C   UNL     1      80.091  60.531   5.863  1.00  0.00     0.010 C 
ATOM      8  C   UNL     1      79.605  61.112   4.754  1.00  0.00     0.025 C 
BRANCH   8   9
ATOM      9  C   UNL     1      79.149  62.510   4.642  1.00  0.00     0.064 C 
ATOM     10  O   UNL     1      79.893  63.412   4.175  1.00  0.00    -0.545 OA
ATOM     11  O   UNL     1      77.844  62.826   4.998  1.00  0.00    -0.545 OA
ENDBRANCH   8   9
ENDBRANCH   1   7
BRANCH   4  12
ATOM     12  O   UNL     1      77.600  61.877   9.838  1.00  0.00    -0.504 OA
ATOM     13  H   UNL     1      76.843  62.491   9.577  1.00  0.00     0.293 HD
ENDBRANCH   4  12
BRANCH   6  14
ATOM     14  O   UNL     1      80.044  62.987  10.995  1.00  0.00    -0.504 OA
ATOM     15  H   UNL     1      80.814  62.911  11.643  1.00  0.00     0.293 HD
ENDBRANCH   6  14
TORSDOF 4
ENDMDL
MODEL 7
REMARK VINA RESULT:    -5.259      1.861      3.078
REMARK INTER + INTRA:          -6.423
REMARK INTER:                  -6.265
REMARK INTRA:                  -0.158
REMARK UNBOUND:                -0.242
REMARK SMILES O=C([O-])C=Cc1ccc(O)c(O)c1
REMARK SMILES IDX 6 1 13 2 7 3 11 4 8 5 9 6 5 7 4 8 2 9 1 10 3 11 12 12 10 14
REMARK H PARENT 12 13 10 15
REMARK Flexibility Score: inf
ROOT
ATOM      1  C   UNL     1      79.488  61.796   5.427  1.00  0.00    -0.022 A 
ATOM      2  C   UNL     1      78.471  62.371   6.202  1.00  0.00     0.058 A 
ATOM      3  C   UNL     1      80.747  61.576   6.004  1.00  0.00     0.012 A 
ATOM      4  C   UNL     1      78.682  62.677   7.553  1.00  0.00     0.157 A 
ATOM      5  C   UNL     1      80.967  61.876   7.349  1.00  0.00     0.051 A 
ATOM      6  C   UNL     1      79.947  62.420   8.136  1.00  0.00     0.157 A 
ENDROOT
BRANCH   1   7
ATOM      7  C   UNL     1      79.246  61.536   3.993  1.00  0.00     0.010 C 
ATOM      8  C   UNL     1      79.169  62.474   3.035  1.00  0.00     0.025 C 
BRANCH   8   9
ATOM      9  C   UNL     1      79.488  63.905   3.202  1.00  0.00     0.064 C 
ATOM     10  O   UNL     1      78.672  64.706   3.728  1.00  0.00    -0.545 OA
ATOM     11  O   UNL     1      80.745  64.365   2.832  1.00  0.00    -0.545 OA
ENDBRANCH   8   9
ENDBRANCH   1   7
BRANCH   4  12
ATOM     12  O   UNL     1      77.620  63.231   8.270  1.00  0.00    -0.504 OA
ATOM     13  H   UNL     1      77.226  62.821   9.103  1.00  0.00     0.293 HD
ENDBRANCH   4  12
BRANCH   6  14
ATOM     14  O   UNL     1      80.228  62.691   9.476  1.00  0.00    -0.504 OA
ATOM     15  H   UNL     1      80.596  63.570   9.809  1.00  0.00     0.293 HD
ENDBRANCH   6  14
TORSDOF 4
ENDMDL
MODEL 8
REMARK VINA RESULT:    -5.241      1.585      5.240
REMARK INTER + INTRA:          -6.402
REMARK INTER:                  -6.123
REMARK INTRA:                  -0.279
REMARK UNBOUND:                -0.242
REMARK SMILES O=C([O-])C=Cc1ccc(O)c(O)c1
REMARK SMILES IDX 6 1 13 2 7 3 11 4 8 5 9 6 5 7 4 8 2 9 1 10 3 11 12 12 10 14
REMARK H PARENT 12 13 10 15
REMARK Flexibility Score: inf
ROOT
ATOM      1  C   UNL     1      79.170  61.657   6.042  1.00  0.00    -0.022 A 
ATOM      2  C   UNL     1      77.982  62.311   6.394  1.00  0.00     0.058 A 
ATOM      3  C   UNL     1      79.827  62.018   4.857  1.00  0.00     0.012 A 
ATOM      4  C   UNL     1      77.474  63.353   5.606  1.00  0.00     0.157 A 
ATOM      5  C   UNL     1      79.330  63.055   4.066  1.00  0.00     0.051 A 
ATOM      6  C   UNL     1      78.162  63.734   4.428  1.00  0.00     0.157 A 
ENDROOT
BRANCH   1   7
ATOM      7  C   UNL     1      79.646  60.528   6.869  1.00  0.00     0.010 C 
ATOM      8  C   UNL     1      80.555  60.614   7.853  1.00  0.00     0.025 C 
BRANCH   8   9
ATOM      9  C   UNL     1      81.107  61.864   8.409  1.00  0.00     0.064 C 
ATOM     10  O   UNL     1      80.453  62.572   9.219  1.00  0.00    -0.545 OA
ATOM     11  O   UNL     1      82.406  62.232   8.084  1.00  0.00    -0.545 OA
ENDBRANCH   8   9
ENDBRANCH   1   7
BRANCH   4  12
ATOM     12  O   UNL     1      76.295  63.973   6.024  1.00  0.00    -0.504 OA
ATOM     13  H   UNL     1      76.098  64.223   6.982  1.00  0.00     0.293 HD
ENDBRANCH   4  12
BRANCH   6  14
ATOM     14  O   UNL     1      77.721  64.766   3.598  1.00  0.00    -0.504 OA
ATOM     15  H   UNL     1      78.037  65.722   3.668  1.00  0.00     0.293 HD
ENDBRANCH   6  14
TORSDOF 4
ENDMDL
MODEL 9
REMARK VINA RESULT:    -5.238      3.379      4.943
REMARK INTER + INTRA:          -6.398
REMARK INTER:                  -6.502
REMARK INTRA:                   0.104
REMARK UNBOUND:                -0.242
REMARK SMILES O=C([O-])C=Cc1ccc(O)c(O)c1
REMARK SMILES IDX 6 1 13 2 7 3 11 4 8 5 9 6 5 7 4 8 2 9 1 10 3 11 12 12 10 14
REMARK H PARENT 12 13 10 15
REMARK Flexibility Score: inf
ROOT
ATOM      1  C   UNL     1      80.475  62.226  10.933  1.00  0.00    -0.022 A 
ATOM      2  C   UNL     1      79.158  62.610  10.643  1.00  0.00     0.058 A 
ATOM      3  C   UNL     1      80.760  61.639  12.174  1.00  0.00     0.012 A 
ATOM      4  C   UNL     1      78.122  62.366  11.554  1.00  0.00     0.157 A 
ATOM      5  C   UNL     1      79.735  61.391  13.088  1.00  0.00     0.051 A 
ATOM      6  C   UNL     1      78.413  61.743  12.791  1.00  0.00     0.157 A 
ENDROOT
BRANCH   1   7
ATOM      7  C   UNL     1      81.550  62.547   9.971  1.00  0.00     0.010 C 
ATOM      8  C   UNL     1      81.565  62.196   8.675  1.00  0.00     0.025 C 
BRANCH   8   9
ATOM      9  C   UNL     1      80.442  61.590   7.934  1.00  0.00     0.064 C 
ATOM     10  O   UNL     1      80.220  60.351   7.969  1.00  0.00    -0.545 OA
ATOM     11  O   UNL     1      79.570  62.415   7.236  1.00  0.00    -0.545 OA
ENDBRANCH   8   9
ENDBRANCH   1   7
BRANCH   4  12
ATOM     12  O   UNL     1      76.831  62.759  11.194  1.00  0.00    -0.504 OA
ATOM     13  H   UNL     1      76.091  62.943  11.855  1.00  0.00     0.293 HD
ENDBRANCH   4  12
BRANCH   6  14
ATOM     14  O   UNL     1      77.432  61.462  13.744  1.00  0.00    -0.504 OA
ATOM     15  H   UNL     1      77.630  61.156  14.685  1.00  0.00     0.293 HD
ENDBRANCH   6  14
TORSDOF 4
ENDMDL
