MODEL 1
REMARK VINA RESULT:    -3.288      0.000      0.000
REMARK INTER + INTRA:          -5.224
REMARK INTER:                  -5.018
REMARK INTRA:                  -0.206
REMARK UNBOUND:                -0.206
REMARK SMILES CC1=CCC[C@@H](C)C(=O)C[C@@H](C(C)C)C(=O)C1
REMARK SMILES IDX 8 1 9 2 6 3 7 4 5 5 4 6 3 7 2 8 1 9 10 11 11 12 15 13 16 14
REMARK SMILES IDX 17 15 12 17 13 18 14 19
REMARK H PARENT
REMARK Flexibility Score: 70.00
ROOT
ATOM      1  C   UNL     1      14.869  53.502  35.511  1.00  0.00     0.136 C 
ATOM      2  O   UNL     1      14.983  54.712  35.649  1.00  0.00    -0.299 OA
ENDROOT
BRANCH   1   3
ATOM      3  C   UNL     1      15.694  52.558  36.373  1.00  0.00     0.053 C 
ATOM      4  C   UNL     1      15.237  52.620  37.838  1.00  0.00     0.016 C 
BRANCH   3   5
ATOM      5  C   UNL     1      17.203  52.885  36.253  1.00  0.00     0.015 C 
BRANCH   5   6
ATOM      6  C   UNL     1      17.882  52.114  35.101  1.00  0.00     0.028 C 
BRANCH   6   7
ATOM      7  C   UNL     1      18.361  53.050  34.020  1.00  0.00    -0.028 C 
ATOM      8  C   UNL     1      17.888  53.066  32.751  1.00  0.00    -0.070 CG0
ATOM      9  C   UNL     1      18.438  54.102  31.803  1.00  0.00     0.039 C 
ATOM     10  G   UNL     1      16.834  52.089  32.247  1.00  0.00     0.000 G0
ENDBRANCH   6   7
ENDBRANCH   5   6
ENDBRANCH   3   5
ENDBRANCH   1   3
BRANCH   1  11
ATOM     11  C   UNL     1      13.916  52.966  34.467  1.00  0.00     0.087 C 
BRANCH  11  12
ATOM     12  C   UNL     1      14.543  51.901  33.521  1.00  0.00     0.066 C 
BRANCH  12  13
ATOM     13  C   UNL     1      15.413  52.571  32.466  1.00  0.00     0.140 C 
ATOM     14  O   UNL     1      14.950  53.474  31.782  1.00  0.00    -0.299 OA
BRANCH  13  15
ATOM     15  C   UNL     1      16.820  52.093  32.210  1.00  0.00     0.106 CG0
ATOM     16  G   UNL     1      17.864  53.056  32.758  1.00  0.00     0.000 G0
ENDBRANCH  13  15
ENDBRANCH  12  13
BRANCH  12  17
ATOM     17  C   UNL     1      13.512  50.917  32.871  1.00  0.00    -0.006 C 
ATOM     18  C   UNL     1      13.008  49.892  33.904  1.00  0.00     0.008 C 
ATOM     19  C   UNL     1      12.298  51.644  32.263  1.00  0.00     0.008 C 
ENDBRANCH  12  17
ENDBRANCH  11  12
ENDBRANCH   1  11
TORSDOF 1
ENDMDL
MODEL 2
REMARK VINA RESULT:    -3.259      2.681      3.884
REMARK INTER + INTRA:          -5.179
REMARK INTER:                  -4.865
REMARK INTRA:                  -0.314
REMARK UNBOUND:                -0.206
REMARK SMILES CC1=CCC[C@@H](C)C(=O)C[C@@H](C(C)C)C(=O)C1
REMARK SMILES IDX 8 1 9 2 6 3 7 4 5 5 4 6 3 7 2 8 1 9 10 11 11 12 15 13 16 14
REMARK SMILES IDX 17 15 12 17 13 18 14 19
REMARK H PARENT
REMARK Flexibility Score: 70.00
ROOT
ATOM      1  C   UNL     1      15.621  55.758  34.730  1.00  0.00     0.136 C 
ATOM      2  O   UNL     1      14.413  55.842  34.904  1.00  0.00    -0.299 OA
ENDROOT
BRANCH   1   3
ATOM      3  C   UNL     1      16.516  56.950  35.036  1.00  0.00     0.053 C 
ATOM      4  C   UNL     1      15.679  58.222  35.235  1.00  0.00     0.016 C 
BRANCH   3   5
ATOM      5  C   UNL     1      17.565  57.149  33.915  1.00  0.00     0.015 C 
BRANCH   5   6
ATOM      6  C   UNL     1      18.992  56.778  34.370  1.00  0.00     0.028 C 
BRANCH   6   7
ATOM      7  C   UNL     1      19.665  55.863  33.377  1.00  0.00    -0.028 C 
ATOM      8  C   UNL     1      19.870  54.538  33.568  1.00  0.00    -0.070 CG0
ATOM      9  C   UNL     1      20.513  53.754  32.452  1.00  0.00     0.039 C 
ATOM     10  G   UNL     1      19.481  53.815  34.851  1.00  0.00     0.000 G0
ENDBRANCH   6   7
ENDBRANCH   5   6
ENDBRANCH   3   5
ENDBRANCH   1   3
BRANCH   1  11
ATOM     11  C   UNL     1      16.201  54.469  34.194  1.00  0.00     0.087 C 
BRANCH  11  12
ATOM     12  C   UNL     1      16.890  53.585  35.273  1.00  0.00     0.066 C 
BRANCH  12  13
ATOM     13  C   UNL     1      18.196  53.012  34.740  1.00  0.00     0.140 C 
ATOM     14  O   UNL     1      18.212  51.890  34.251  1.00  0.00    -0.299 OA
BRANCH  13  15
ATOM     15  C   UNL     1      19.485  53.785  34.863  1.00  0.00     0.106 CG0
ATOM     16  G   UNL     1      19.841  54.519  33.577  1.00  0.00     0.000 G0
ENDBRANCH  13  15
ENDBRANCH  12  13
BRANCH  12  17
ATOM     17  C   UNL     1      15.979  52.463  35.877  1.00  0.00    -0.006 C 
ATOM     18  C   UNL     1      15.450  52.875  37.264  1.00  0.00     0.008 C 
ATOM     19  C   UNL     1      14.781  52.119  34.973  1.00  0.00     0.008 C 
ENDBRANCH  12  17
ENDBRANCH  11  12
ENDBRANCH   1  11
TORSDOF 1
ENDMDL
MODEL 3
REMARK VINA RESULT:    -3.230     13.053     15.182
REMARK INTER + INTRA:          -5.134
REMARK INTER:                  -4.895
REMARK INTRA:                  -0.240
REMARK UNBOUND:                -0.206
REMARK SMILES CC1=CCC[C@@H](C)C(=O)C[C@@H](C(C)C)C(=O)C1
REMARK SMILES IDX 8 1 9 2 6 3 7 4 5 5 4 6 3 7 2 8 1 9 10 11 11 12 15 13 16 14
REMARK SMILES IDX 17 15 12 17 13 18 14 19
REMARK H PARENT
REMARK Flexibility Score: 70.00
ROOT
ATOM      1  C   UNL     1      12.664  61.770  22.358  1.00  0.00     0.136 C 
ATOM      2  O   UNL     1      12.238  60.676  22.014  1.00  0.00    -0.299 OA
ENDROOT
BRANCH   1   3
ATOM      3  C   UNL     1      13.457  62.619  21.375  1.00  0.00     0.053 C 
ATOM      4  C   UNL     1      12.578  63.044  20.190  1.00  0.00     0.016 C 
BRANCH   3   5
ATOM      5  C   UNL     1      14.714  61.859  20.885  1.00  0.00     0.015 C 
BRANCH   5   6
ATOM      6  C   UNL     1      16.025  62.516  21.365  1.00  0.00     0.028 C 
BRANCH   6   7
ATOM      7  C   UNL     1      16.688  61.696  22.443  1.00  0.00    -0.028 C 
ATOM      8  C   UNL     1      16.640  61.980  23.767  1.00  0.00    -0.070 CG0
ATOM      9  C   UNL     1      17.316  61.027  24.720  1.00  0.00     0.039 C 
ATOM     10  G   UNL     1      15.939  63.211  24.324  1.00  0.00     0.000 G0
ENDBRANCH   6   7
ENDBRANCH   5   6
ENDBRANCH   3   5
ENDBRANCH   1   3
BRANCH   1  11
ATOM     11  C   UNL     1      12.406  62.251  23.768  1.00  0.00     0.087 C 
BRANCH  11  12
ATOM     12  C   UNL     1      13.311  63.437  24.210  1.00  0.00     0.066 C 
BRANCH  12  13
ATOM     13  C   UNL     1      14.568  62.921  24.899  1.00  0.00     0.140 C 
ATOM     14  O   UNL     1      14.472  62.298  25.948  1.00  0.00    -0.299 OA
BRANCH  13  15
ATOM     15  C   UNL     1      15.934  63.223  24.338  1.00  0.00     0.106 CG0
ATOM     16  G   UNL     1      16.612  61.982  23.773  1.00  0.00     0.000 G0
ENDBRANCH  13  15
ENDBRANCH  12  13
BRANCH  12  17
ATOM     17  C   UNL     1      12.588  64.522  25.078  1.00  0.00    -0.006 C 
ATOM     18  C   UNL     1      13.530  65.704  25.373  1.00  0.00     0.008 C 
ATOM     19  C   UNL     1      11.311  65.063  24.410  1.00  0.00     0.008 C 
ENDBRANCH  12  17
ENDBRANCH  11  12
ENDBRANCH   1  11
TORSDOF 1
ENDMDL
MODEL 4
REMARK VINA RESULT:    -3.200      2.592      4.203
REMARK INTER + INTRA:          -5.090
REMARK INTER:                  -4.647
REMARK INTRA:                  -0.443
REMARK UNBOUND:                -0.206
REMARK SMILES CC1=CCC[C@@H](C)C(=O)C[C@@H](C(C)C)C(=O)C1
REMARK SMILES IDX 8 1 9 2 6 3 7 4 5 5 4 6 3 7 2 8 1 9 10 11 11 12 15 13 16 14
REMARK SMILES IDX 17 15 12 17 13 18 14 19
REMARK H PARENT
REMARK Flexibility Score: 70.00
ROOT
ATOM      1  C   UNL     1      18.449  53.520  35.425  1.00  0.00     0.136 C 
ATOM      2  O   UNL     1      19.497  53.333  36.027  1.00  0.00    -0.299 OA
ENDROOT
BRANCH   1   3
ATOM      3  C   UNL     1      18.435  53.500  33.903  1.00  0.00     0.053 C 
ATOM      4  C   UNL     1      18.821  52.111  33.374  1.00  0.00     0.016 C 
BRANCH   3   5
ATOM      5  C   UNL     1      19.376  54.588  33.332  1.00  0.00     0.015 C 
BRANCH   5   6
ATOM      6  C   UNL     1      18.882  56.017  33.644  1.00  0.00     0.028 C 
BRANCH   6   7
ATOM      7  C   UNL     1      17.620  56.341  32.884  1.00  0.00    -0.028 C 
ATOM      8  C   UNL     1      16.404  56.518  33.452  1.00  0.00    -0.070 CG0
ATOM      9  C   UNL     1      15.251  56.889  32.554  1.00  0.00     0.039 C 
ATOM     10  G   UNL     1      16.156  56.358  34.946  1.00  0.00     0.000 G0
ENDBRANCH   6   7
ENDBRANCH   5   6
ENDBRANCH   3   5
ENDBRANCH   1   3
BRANCH   1  11
ATOM     11  C   UNL     1      17.186  53.788  36.209  1.00  0.00     0.087 C 
BRANCH  11  12
ATOM     12  C   UNL     1      15.886  53.751  35.354  1.00  0.00     0.066 C 
BRANCH  12  13
ATOM     13  C   UNL     1      15.274  55.142  35.254  1.00  0.00     0.140 C 
ATOM     14  O   UNL     1      14.062  55.279  35.356  1.00  0.00    -0.299 OA
BRANCH  13  15
ATOM     15  C   UNL     1      16.135  56.345  34.967  1.00  0.00     0.106 CG0
ATOM     16  G   UNL     1      16.402  56.520  33.478  1.00  0.00     0.000 G0
ENDBRANCH  13  15
ENDBRANCH  12  13
BRANCH  12  17
ATOM     17  C   UNL     1      14.829  52.693  35.819  1.00  0.00    -0.006 C 
ATOM     18  C   UNL     1      14.509  51.704  34.682  1.00  0.00     0.008 C 
ATOM     19  C   UNL     1      15.287  51.896  37.053  1.00  0.00     0.008 C 
ENDBRANCH  12  17
ENDBRANCH  11  12
ENDBRANCH   1  11
TORSDOF 1
ENDMDL
MODEL 5
REMARK VINA RESULT:    -3.149     12.837     14.530
REMARK INTER + INTRA:          -5.011
REMARK INTER:                  -4.798
REMARK INTRA:                  -0.214
REMARK UNBOUND:                -0.206
REMARK SMILES CC1=CCC[C@@H](C)C(=O)C[C@@H](C(C)C)C(=O)C1
REMARK SMILES IDX 8 1 9 2 6 3 7 4 5 5 4 6 3 7 2 8 1 9 10 11 11 12 15 13 16 14
REMARK SMILES IDX 17 15 12 17 13 18 14 19
REMARK H PARENT
REMARK Flexibility Score: 70.00
ROOT
ATOM      1  C   UNL     1      15.153  62.682  23.912  1.00  0.00     0.136 C 
ATOM      2  O   UNL     1      14.113  62.426  24.504  1.00  0.00    -0.299 OA
ENDROOT
BRANCH   1   3
ATOM      3  C   UNL     1      16.454  62.817  24.689  1.00  0.00     0.053 C 
ATOM      4  C   UNL     1      17.560  63.403  23.800  1.00  0.00     0.016 C 
BRANCH   3   5
ATOM      5  C   UNL     1      16.885  61.451  25.276  1.00  0.00     0.015 C 
BRANCH   5   6
ATOM      6  C   UNL     1      17.979  60.765  24.431  1.00  0.00     0.028 C 
BRANCH   6   7
ATOM      7  C   UNL     1      17.432  59.577  23.681  1.00  0.00    -0.028 C 
ATOM      8  C   UNL     1      17.174  59.558  22.351  1.00  0.00    -0.070 CG0
ATOM      9  C   UNL     1      16.675  58.270  21.746  1.00  0.00     0.039 C 
ATOM     10  G   UNL     1      17.364  60.773  21.453  1.00  0.00     0.000 G0
ENDBRANCH   6   7
ENDBRANCH   5   6
ENDBRANCH   3   5
ENDBRANCH   1   3
BRANCH   1  11
ATOM     11  C   UNL     1      15.119  62.878  22.414  1.00  0.00     0.087 C 
BRANCH  11  12
ATOM     12  C   UNL     1      14.851  61.575  21.607  1.00  0.00     0.066 C 
BRANCH  12  13
ATOM     13  C   UNL     1      16.074  61.195  20.784  1.00  0.00     0.140 C 
ATOM     14  O   UNL     1      16.006  61.192  19.562  1.00  0.00    -0.299 OA
BRANCH  13  15
ATOM     15  C   UNL     1      17.352  60.762  21.456  1.00  0.00     0.106 CG0
ATOM     16  G   UNL     1      17.146  59.558  22.365  1.00  0.00     0.000 G0
ENDBRANCH  13  15
ENDBRANCH  12  13
BRANCH  12  17
ATOM     17  C   UNL     1      13.557  61.608  20.726  1.00  0.00    -0.006 C 
ATOM     18  C   UNL     1      12.452  60.729  21.343  1.00  0.00     0.008 C 
ATOM     19  C   UNL     1      13.005  63.032  20.532  1.00  0.00     0.008 C 
ENDBRANCH  12  17
ENDBRANCH  11  12
ENDBRANCH   1  11
TORSDOF 1
ENDMDL
MODEL 6
REMARK VINA RESULT:    -2.971      2.745      4.985
REMARK INTER + INTRA:          -4.740
REMARK INTER:                  -4.226
REMARK INTRA:                  -0.514
REMARK UNBOUND:                -0.206
REMARK SMILES CC1=CCC[C@@H](C)C(=O)C[C@@H](C(C)C)C(=O)C1
REMARK SMILES IDX 8 1 9 2 6 3 7 4 5 5 4 6 3 7 2 8 1 9 10 11 11 12 15 13 16 14
REMARK SMILES IDX 17 15 12 17 13 18 14 19
REMARK H PARENT
REMARK Flexibility Score: 70.00
ROOT
ATOM      1  C   UNL     1      17.960  53.804  33.215  1.00  0.00     0.136 C 
ATOM      2  O   UNL     1      18.351  52.965  32.416  1.00  0.00    -0.299 OA
ENDROOT
BRANCH   1   3
ATOM      3  C   UNL     1      18.270  53.645  34.696  1.00  0.00     0.053 C 
ATOM      4  C   UNL     1      19.786  53.614  34.934  1.00  0.00     0.016 C 
BRANCH   3   5
ATOM      5  C   UNL     1      17.597  52.370  35.262  1.00  0.00     0.015 C 
BRANCH   5   6
ATOM      6  C   UNL     1      16.253  52.673  35.958  1.00  0.00     0.028 C 
BRANCH   6   7
ATOM      7  C   UNL     1      15.085  52.391  35.047  1.00  0.00    -0.028 C 
ATOM      8  C   UNL     1      14.241  53.334  34.563  1.00  0.00    -0.070 CG0
ATOM      9  C   UNL     1      13.152  52.890  33.620  1.00  0.00     0.039 C 
ATOM     10  G   UNL     1      14.346  54.808  34.931  1.00  0.00     0.000 G0
ENDBRANCH   6   7
ENDBRANCH   5   6
ENDBRANCH   3   5
ENDBRANCH   1   3
BRANCH   1  11
ATOM     11  C   UNL     1      17.155  54.981  32.713  1.00  0.00     0.087 C 
BRANCH  11  12
ATOM     12  C   UNL     1      16.518  55.843  33.841  1.00  0.00     0.066 C 
BRANCH  12  13
ATOM     13  C   UNL     1      15.006  55.658  33.866  1.00  0.00     0.140 C 
ATOM     14  O   UNL     1      14.310  56.237  33.043  1.00  0.00    -0.299 OA
BRANCH  13  15
ATOM     15  C   UNL     1      14.351  54.817  34.932  1.00  0.00     0.106 CG0
ATOM     16  G   UNL     1      14.254  53.351  34.530  1.00  0.00     0.000 G0
ENDBRANCH  13  15
ENDBRANCH  12  13
BRANCH  12  17
ATOM     17  C   UNL     1      16.907  57.360  33.801  1.00  0.00    -0.006 C 
ATOM     18  C   UNL     1      16.639  58.029  35.162  1.00  0.00     0.008 C 
ATOM     19  C   UNL     1      18.381  57.587  33.420  1.00  0.00     0.008 C 
ENDBRANCH  12  17
ENDBRANCH  11  12
ENDBRANCH   1  11
TORSDOF 1
ENDMDL
MODEL 7
REMARK VINA RESULT:    -2.959     12.898     14.838
REMARK INTER + INTRA:          -4.721
REMARK INTER:                  -4.333
REMARK INTRA:                  -0.388
REMARK UNBOUND:                -0.206
REMARK SMILES CC1=CCC[C@@H](C)C(=O)C[C@@H](C(C)C)C(=O)C1
REMARK SMILES IDX 8 1 9 2 6 3 7 4 5 5 4 6 3 7 2 8 1 9 10 11 11 12 15 13 16 14
REMARK SMILES IDX 17 15 12 17 13 18 14 19
REMARK H PARENT
REMARK Flexibility Score: 70.00
ROOT
ATOM      1  C   UNL     1      13.725  62.828  22.206  1.00  0.00     0.136 C 
ATOM      2  O   UNL     1      12.872  63.301  21.468  1.00  0.00    -0.299 OA
ENDROOT
BRANCH   1   3
ATOM      3  C   UNL     1      13.310  62.103  23.478  1.00  0.00     0.053 C 
ATOM      4  C   UNL     1      12.170  61.115  23.193  1.00  0.00     0.016 C 
BRANCH   3   5
ATOM      5  C   UNL     1      12.902  63.114  24.577  1.00  0.00     0.015 C 
BRANCH   5   6
ATOM      6  C   UNL     1      14.088  63.983  25.048  1.00  0.00     0.028 C 
BRANCH   6   7
ATOM      7  C   UNL     1      15.070  63.179  25.863  1.00  0.00    -0.028 C 
ATOM      8  C   UNL     1      16.367  62.980  25.527  1.00  0.00    -0.070 CG0
ATOM      9  C   UNL     1      17.231  62.193  26.480  1.00  0.00     0.039 C 
ATOM     10  G   UNL     1      16.982  63.514  24.241  1.00  0.00     0.000 G0
ENDBRANCH   6   7
ENDBRANCH   5   6
ENDBRANCH   3   5
ENDBRANCH   1   3
BRANCH   1  11
ATOM     11  C   UNL     1      15.184  62.993  21.847  1.00  0.00     0.087 C 
BRANCH  11  12
ATOM     12  C   UNL     1      16.102  61.854  22.377  1.00  0.00     0.066 C 
BRANCH  12  13
ATOM     13  C   UNL     1      17.240  62.429  23.211  1.00  0.00     0.140 C 
ATOM     14  O   UNL     1      18.369  61.974  23.089  1.00  0.00    -0.299 OA
BRANCH  13  15
ATOM     15  C   UNL     1      16.980  63.509  24.229  1.00  0.00     0.106 CG0
ATOM     16  G   UNL     1      16.383  62.956  25.516  1.00  0.00     0.000 G0
ENDBRANCH  13  15
ENDBRANCH  12  13
BRANCH  12  17
ATOM     17  C   UNL     1      16.637  60.880  21.273  1.00  0.00    -0.006 C 
ATOM     18  C   UNL     1      16.122  59.448  21.510  1.00  0.00     0.008 C 
ATOM     19  C   UNL     1      16.243  61.319  19.851  1.00  0.00     0.008 C 
ENDBRANCH  12  17
ENDBRANCH  11  12
ENDBRANCH   1  11
TORSDOF 1
ENDMDL
MODEL 8
REMARK VINA RESULT:    -2.851     12.703     14.789
REMARK INTER + INTRA:          -4.556
REMARK INTER:                  -4.516
REMARK INTRA:                  -0.040
REMARK UNBOUND:                -0.206
REMARK SMILES CC1=CCC[C@@H](C)C(=O)C[C@@H](C(C)C)C(=O)C1
REMARK SMILES IDX 8 1 9 2 6 3 7 4 5 5 4 6 3 7 2 8 1 9 10 11 11 12 15 13 16 14
REMARK SMILES IDX 17 15 12 17 13 18 14 19
REMARK H PARENT
REMARK Flexibility Score: 70.00
ROOT
ATOM      1  C   UNL     1      13.364  62.749  22.432  1.00  0.00     0.136 C 
ATOM      2  O   UNL     1      12.524  63.564  22.790  1.00  0.00    -0.299 OA
ENDROOT
BRANCH   1   3
ATOM      3  C   UNL     1      13.765  62.666  20.967  1.00  0.00     0.053 C 
ATOM      4  C   UNL     1      12.528  62.723  20.060  1.00  0.00     0.016 C 
BRANCH   3   5
ATOM      5  C   UNL     1      14.589  61.383  20.697  1.00  0.00     0.015 C 
BRANCH   5   6
ATOM      6  C   UNL     1      16.094  61.674  20.527  1.00  0.00     0.028 C 
BRANCH   6   7
ATOM      7  C   UNL     1      16.935  60.703  21.317  1.00  0.00    -0.028 C 
ATOM      8  C   UNL     1      17.384  60.922  22.576  1.00  0.00    -0.070 CG0
ATOM      9  C   UNL     1      18.172  59.824  23.246  1.00  0.00     0.039 C 
ATOM     10  G   UNL     1      17.128  62.217  23.334  1.00  0.00     0.000 G0
ENDBRANCH   6   7
ENDBRANCH   5   6
ENDBRANCH   3   5
ENDBRANCH   1   3
BRANCH   1  11
ATOM     11  C   UNL     1      13.974  61.822  23.459  1.00  0.00     0.087 C 
BRANCH  11  12
ATOM     12  C   UNL     1      14.819  62.546  24.546  1.00  0.00     0.066 C 
BRANCH  12  13
ATOM     13  C   UNL     1      16.250  62.024  24.547  1.00  0.00     0.140 C 
ATOM     14  O   UNL     1      16.698  61.485  25.550  1.00  0.00    -0.299 OA
BRANCH  13  15
ATOM     15  C   UNL     1      17.142  62.218  23.347  1.00  0.00     0.106 CG0
ATOM     16  G   UNL     1      17.378  60.919  22.589  1.00  0.00     0.000 G0
ENDBRANCH  13  15
ENDBRANCH  12  13
BRANCH  12  17
ATOM     17  C   UNL     1      14.198  62.513  25.984  1.00  0.00    -0.006 C 
ATOM     18  C   UNL     1      13.933  63.940  26.498  1.00  0.00     0.008 C 
ATOM     19  C   UNL     1      12.885  61.712  26.047  1.00  0.00     0.008 C 
ENDBRANCH  12  17
ENDBRANCH  11  12
ENDBRANCH   1  11
TORSDOF 1
ENDMDL
MODEL 9
REMARK VINA RESULT:    -2.758      2.366      4.911
REMARK INTER + INTRA:          -4.414
REMARK INTER:                  -4.066
REMARK INTRA:                  -0.349
REMARK UNBOUND:                -0.206
REMARK SMILES CC1=CCC[C@@H](C)C(=O)C[C@@H](C(C)C)C(=O)C1
REMARK SMILES IDX 8 1 9 2 6 3 7 4 5 5 4 6 3 7 2 8 1 9 10 11 11 12 15 13 16 14
REMARK SMILES IDX 17 15 12 17 13 18 14 19
REMARK H PARENT
REMARK Flexibility Score: 70.00
ROOT
ATOM      1  C   UNL     1      15.005  51.732  32.641  1.00  0.00     0.136 C 
ATOM      2  O   UNL     1      15.457  50.895  31.871  1.00  0.00    -0.299 OA
ENDROOT
BRANCH   1   3
ATOM      3  C   UNL     1      13.532  51.696  33.021  1.00  0.00     0.053 C 
ATOM      4  C   UNL     1      13.093  50.264  33.361  1.00  0.00     0.016 C 
BRANCH   3   5
ATOM      5  C   UNL     1      12.659  52.285  31.887  1.00  0.00     0.015 C 
BRANCH   5   6
ATOM      6  C   UNL     1      13.049  53.737  31.538  1.00  0.00     0.028 C 
BRANCH   6   7
ATOM      7  C   UNL     1      12.488  54.714  32.541  1.00  0.00    -0.028 C 
ATOM      8  C   UNL     1      13.235  55.548  33.303  1.00  0.00    -0.070 CG0
ATOM      9  C   UNL     1      12.515  56.502  34.222  1.00  0.00     0.039 C 
ATOM     10  G   UNL     1      14.758  55.561  33.270  1.00  0.00     0.000 G0
ENDBRANCH   6   7
ENDBRANCH   5   6
ENDBRANCH   3   5
ENDBRANCH   1   3
BRANCH   1  11
ATOM     11  C   UNL     1      15.922  52.802  33.188  1.00  0.00     0.087 C 
BRANCH  11  12
ATOM     12  C   UNL     1      15.468  53.391  34.555  1.00  0.00     0.066 C 
BRANCH  12  13
ATOM     13  C   UNL     1      15.368  54.909  34.476  1.00  0.00     0.140 C 
ATOM     14  O   UNL     1      15.743  55.591  35.420  1.00  0.00    -0.299 OA
BRANCH  13  15
ATOM     15  C   UNL     1      14.757  55.580  33.273  1.00  0.00     0.106 CG0
ATOM     16  G   UNL     1      13.235  55.555  33.311  1.00  0.00     0.000 G0
ENDBRANCH  13  15
ENDBRANCH  12  13
BRANCH  12  17
ATOM     17  C   UNL     1      16.331  52.938  35.780  1.00  0.00    -0.006 C 
ATOM     18  C   UNL     1      15.497  52.079  36.750  1.00  0.00     0.008 C 
ATOM     19  C   UNL     1      17.581  52.141  35.365  1.00  0.00     0.008 C 
ENDBRANCH  12  17
ENDBRANCH  11  12
ENDBRANCH   1  11
TORSDOF 1
ENDMDL
