MODEL 1
REMARK VINA RESULT:    -6.307      0.000      0.000
REMARK INTER + INTRA:          -7.582
REMARK INTER:                  -7.598
REMARK INTRA:                   0.016
REMARK UNBOUND:                 0.016
REMARK SMILES O=c1c(O)c(-c2ccc(O)c(O)c2)oc2cc(O)cc(O)c12
REMARK SMILES IDX 5 1 3 2 2 3 1 4 22 5 20 6 19 7 17 8 16 9 15 10 14 11 6 12
REMARK SMILES IDX 7 13 8 14 9 15 13 16 11 17 10 18 12 20 4 22 21 24 18 26
REMARK H PARENT 10 19 12 21 4 23 21 25 18 27
REMARK Flexibility Score: inf
ROOT
ATOM      1  C   UNL     1     141.385 153.558 120.503  1.00  0.00     0.180 A 
ATOM      2  C   UNL     1     142.470 152.709 120.209  1.00  0.00     0.208 A 
ATOM      3  C   UNL     1     142.215 151.361 119.914  1.00  0.00     0.238 A 
ATOM      4  O   UNL     1     143.177 150.594 119.639  1.00  0.00    -0.285 OA
ATOM      5  C   UNL     1     140.890 150.881 119.935  1.00  0.00     0.111 A 
ATOM      6  C   UNL     1     140.548 149.536 119.654  1.00  0.00     0.134 A 
ATOM      7  C   UNL     1     139.206 149.133 119.705  1.00  0.00     0.093 A 
ATOM      8  C   UNL     1     138.201 150.045 120.033  1.00  0.00     0.123 A 
ATOM      9  C   UNL     1     138.532 151.375 120.312  1.00  0.00     0.094 A 
ATOM     10  C   UNL     1     139.864 151.797 120.265  1.00  0.00     0.146 A 
ATOM     11  O   UNL     1     140.149 153.067 120.528  1.00  0.00    -0.452 OA
ENDROOT
BRANCH   1  12
ATOM     12  C   UNL     1     141.570 154.996 120.805  1.00  0.00     0.025 A 
ATOM     13  C   UNL     1     140.834 155.951 120.092  1.00  0.00     0.016 A 
ATOM     14  C   UNL     1     141.007 157.312 120.347  1.00  0.00     0.051 A 
ATOM     15  C   UNL     1     141.929 157.747 121.306  1.00  0.00     0.157 A 
ATOM     16  C   UNL     1     142.513 155.429 121.753  1.00  0.00     0.062 A 
ATOM     17  C   UNL     1     142.697 156.794 122.014  1.00  0.00     0.158 A 
BRANCH  15  18
ATOM     18  O   UNL     1     142.049 159.122 121.519  1.00  0.00    -0.504 OA
ATOM     19  H   UNL     1     142.046 159.810 120.780  1.00  0.00     0.293 HD
ENDBRANCH  15  18
BRANCH  17  20
ATOM     20  O   UNL     1     143.649 157.151 122.971  1.00  0.00    -0.504 OA
ATOM     21  H   UNL     1     144.146 156.487 123.547  1.00  0.00     0.293 HD
ENDBRANCH  17  20
ENDBRANCH   1  12
BRANCH   2  22
ATOM     22  O   UNL     1     143.778 153.199 120.242  1.00  0.00    -0.502 OA
ATOM     23  H   UNL     1     143.986 154.180 120.385  1.00  0.00     0.293 HD
ENDBRANCH   2  22
BRANCH   6  24
ATOM     24  O   UNL     1     141.530 148.599 119.324  1.00  0.00    -0.507 OA
ATOM     25  H   UNL     1     142.372 148.492 119.876  1.00  0.00     0.293 HD
ENDBRANCH   6  24
BRANCH   8  26
ATOM     26  O   UNL     1     136.875 149.620 120.079  1.00  0.00    -0.508 OA
ATOM     27  H   UNL     1     136.631 148.637 120.039  1.00  0.00     0.293 HD
ENDBRANCH   8  26
TORSDOF 6
ENDMDL
MODEL 2
REMARK VINA RESULT:    -5.981      3.367      8.436
REMARK INTER + INTRA:          -7.189
REMARK INTER:                  -6.910
REMARK INTRA:                  -0.279
REMARK UNBOUND:                 0.016
REMARK SMILES O=c1c(O)c(-c2ccc(O)c(O)c2)oc2cc(O)cc(O)c12
REMARK SMILES IDX 5 1 3 2 2 3 1 4 22 5 20 6 19 7 17 8 16 9 15 10 14 11 6 12
REMARK SMILES IDX 7 13 8 14 9 15 13 16 11 17 10 18 12 20 4 22 21 24 18 26
REMARK H PARENT 10 19 12 21 4 23 21 25 18 27
REMARK Flexibility Score: inf
ROOT
ATOM      1  C   UNL     1     138.763 148.113 120.366  1.00  0.00     0.180 A 
ATOM      2  C   UNL     1     139.910 148.517 119.655  1.00  0.00     0.208 A 
ATOM      3  C   UNL     1     140.282 149.871 119.680  1.00  0.00     0.238 A 
ATOM      4  O   UNL     1     141.312 150.243 119.056  1.00  0.00    -0.285 OA
ATOM      5  C   UNL     1     139.496 150.796 120.396  1.00  0.00     0.111 A 
ATOM      6  C   UNL     1     139.799 152.177 120.469  1.00  0.00     0.134 A 
ATOM      7  C   UNL     1     138.961 153.037 121.196  1.00  0.00     0.093 A 
ATOM      8  C   UNL     1     137.829 152.545 121.847  1.00  0.00     0.123 A 
ATOM      9  C   UNL     1     137.524 151.181 121.779  1.00  0.00     0.094 A 
ATOM     10  C   UNL     1     138.347 150.308 121.062  1.00  0.00     0.146 A 
ATOM     11  O   UNL     1     138.037 149.017 121.019  1.00  0.00    -0.452 OA
ENDROOT
BRANCH   1  12
ATOM     12  C   UNL     1     138.317 146.702 120.403  1.00  0.00     0.025 A 
ATOM     13  C   UNL     1     137.627 146.168 119.306  1.00  0.00     0.016 A 
ATOM     14  C   UNL     1     137.181 144.846 119.327  1.00  0.00     0.051 A 
ATOM     15  C   UNL     1     137.398 144.037 120.448  1.00  0.00     0.157 A 
ATOM     16  C   UNL     1     138.517 145.900 121.539  1.00  0.00     0.062 A 
ATOM     17  C   UNL     1     138.069 144.573 121.571  1.00  0.00     0.158 A 
BRANCH  15  18
ATOM     18  O   UNL     1     136.933 142.721 120.403  1.00  0.00    -0.504 OA
ATOM     19  H   UNL     1     136.035 142.427 120.760  1.00  0.00     0.293 HD
ENDBRANCH  15  18
BRANCH  17  20
ATOM     20  O   UNL     1     138.305 143.834 122.733  1.00  0.00    -0.504 OA
ATOM     21  H   UNL     1     137.698 143.100 123.067  1.00  0.00     0.293 HD
ENDBRANCH  17  20
ENDBRANCH   1  12
BRANCH   2  22
ATOM     22  O   UNL     1     140.643 147.588 118.912  1.00  0.00    -0.502 OA
ATOM     23  H   UNL     1     141.009 146.736 119.319  1.00  0.00     0.293 HD
ENDBRANCH   2  22
BRANCH   6  24
ATOM     24  O   UNL     1     140.923 152.701 119.828  1.00  0.00    -0.507 OA
ATOM     25  H   UNL     1     141.361 153.561 120.136  1.00  0.00     0.293 HD
ENDBRANCH   6  24
BRANCH   8  26
ATOM     26  O   UNL     1     137.012 153.419 122.561  1.00  0.00    -0.508 OA
ATOM     27  H   UNL     1     137.388 154.039 123.268  1.00  0.00     0.293 HD
ENDBRANCH   8  26
TORSDOF 6
ENDMDL
MODEL 3
REMARK VINA RESULT:    -5.967      1.583      6.752
REMARK INTER + INTRA:          -7.172
REMARK INTER:                  -6.971
REMARK INTRA:                  -0.201
REMARK UNBOUND:                 0.016
REMARK SMILES O=c1c(O)c(-c2ccc(O)c(O)c2)oc2cc(O)cc(O)c12
REMARK SMILES IDX 5 1 3 2 2 3 1 4 22 5 20 6 19 7 17 8 16 9 15 10 14 11 6 12
REMARK SMILES IDX 7 13 8 14 9 15 13 16 11 17 10 18 12 20 4 22 21 24 18 26
REMARK H PARENT 10 19 12 21 4 23 21 25 18 27
REMARK Flexibility Score: inf
ROOT
ATOM      1  C   UNL     1     140.937 153.192 120.373  1.00  0.00     0.180 A 
ATOM      2  C   UNL     1     141.941 153.694 121.224  1.00  0.00     0.208 A 
ATOM      3  C   UNL     1     141.996 155.075 121.467  1.00  0.00     0.238 A 
ATOM      4  O   UNL     1     142.884 155.535 122.236  1.00  0.00    -0.285 OA
ATOM      5  C   UNL     1     141.064 155.930 120.845  1.00  0.00     0.111 A 
ATOM      6  C   UNL     1     141.053 157.333 121.034  1.00  0.00     0.134 A 
ATOM      7  C   UNL     1     140.098 158.118 120.371  1.00  0.00     0.093 A 
ATOM      8  C   UNL     1     139.157 157.529 119.523  1.00  0.00     0.123 A 
ATOM      9  C   UNL     1     139.162 156.144 119.333  1.00  0.00     0.094 A 
ATOM     10  C   UNL     1     140.105 155.344 119.986  1.00  0.00     0.146 A 
ATOM     11  O   UNL     1     140.084 154.031 119.791  1.00  0.00    -0.452 OA
ENDROOT
BRANCH   1  12
ATOM     12  C   UNL     1     140.802 151.747 120.082  1.00  0.00     0.025 A 
ATOM     13  C   UNL     1     141.767 151.109 119.290  1.00  0.00     0.016 A 
ATOM     14  C   UNL     1     141.649 149.752 118.987  1.00  0.00     0.051 A 
ATOM     15  C   UNL     1     140.560 149.008 119.455  1.00  0.00     0.157 A 
ATOM     16  C   UNL     1     139.695 151.009 120.535  1.00  0.00     0.062 A 
ATOM     17  C   UNL     1     139.566 149.646 120.234  1.00  0.00     0.158 A 
BRANCH  15  18
ATOM     18  O   UNL     1     140.504 147.653 119.123  1.00  0.00    -0.504 OA
ATOM     19  H   UNL     1     141.185 147.186 118.542  1.00  0.00     0.293 HD
ENDBRANCH  15  18
BRANCH  17  20
ATOM     20  O   UNL     1     138.442 148.976 120.719  1.00  0.00    -0.504 OA
ATOM     21  H   UNL     1     137.588 149.436 120.999  1.00  0.00     0.293 HD
ENDBRANCH  17  20
ENDBRANCH   1  12
BRANCH   2  22
ATOM     22  O   UNL     1     142.883 152.830 121.790  1.00  0.00    -0.502 OA
ATOM     23  H   UNL     1     142.765 152.427 122.711  1.00  0.00     0.293 HD
ENDBRANCH   2  22
BRANCH   6  24
ATOM     24  O   UNL     1     141.981 157.952 121.873  1.00  0.00    -0.507 OA
ATOM     25  H   UNL     1     141.754 158.792 122.393  1.00  0.00     0.293 HD
ENDBRANCH   6  24
BRANCH   8  26
ATOM     26  O   UNL     1     138.220 158.331 118.875  1.00  0.00    -0.508 OA
ATOM     27  H   UNL     1     138.331 159.336 118.817  1.00  0.00     0.293 HD
ENDBRANCH   8  26
TORSDOF 6
ENDMDL
MODEL 4
REMARK VINA RESULT:    -5.937      2.252      7.734
REMARK INTER + INTRA:          -7.136
REMARK INTER:                  -7.075
REMARK INTRA:                  -0.060
REMARK UNBOUND:                 0.016
REMARK SMILES O=c1c(O)c(-c2ccc(O)c(O)c2)oc2cc(O)cc(O)c12
REMARK SMILES IDX 5 1 3 2 2 3 1 4 22 5 20 6 19 7 17 8 16 9 15 10 14 11 6 12
REMARK SMILES IDX 7 13 8 14 9 15 13 16 11 17 10 18 12 20 4 22 21 24 18 26
REMARK H PARENT 10 19 12 21 4 23 21 25 18 27
REMARK Flexibility Score: inf
ROOT
ATOM      1  C   UNL     1     139.266 150.430 120.028  1.00  0.00     0.180 A 
ATOM      2  C   UNL     1     138.307 151.402 119.682  1.00  0.00     0.208 A 
ATOM      3  C   UNL     1     138.716 152.737 119.536  1.00  0.00     0.238 A 
ATOM      4  O   UNL     1     137.868 153.614 119.217  1.00  0.00    -0.285 OA
ATOM      5  C   UNL     1     140.066 153.079 119.755  1.00  0.00     0.111 A 
ATOM      6  C   UNL     1     140.559 154.401 119.632  1.00  0.00     0.134 A 
ATOM      7  C   UNL     1     141.915 154.663 119.875  1.00  0.00     0.093 A 
ATOM      8  C   UNL     1     142.786 153.634 120.240  1.00  0.00     0.123 A 
ATOM      9  C   UNL     1     142.304 152.327 120.363  1.00  0.00     0.094 A 
ATOM     10  C   UNL     1     140.956 152.044 120.123  1.00  0.00     0.146 A 
ATOM     11  O   UNL     1     140.528 150.793 120.241  1.00  0.00    -0.452 OA
ENDROOT
BRANCH   1  12
ATOM     12  C   UNL     1     138.916 148.999 120.182  1.00  0.00     0.025 A 
ATOM     13  C   UNL     1     137.935 148.625 121.111  1.00  0.00     0.016 A 
ATOM     14  C   UNL     1     137.603 147.281 121.287  1.00  0.00     0.051 A 
ATOM     15  C   UNL     1     138.254 146.283 120.552  1.00  0.00     0.157 A 
ATOM     16  C   UNL     1     139.587 147.999 119.458  1.00  0.00     0.062 A 
ATOM     17  C   UNL     1     139.263 146.646 119.630  1.00  0.00     0.158 A 
BRANCH  15  18
ATOM     18  O   UNL     1     137.871 144.958 120.769  1.00  0.00    -0.504 OA
ATOM     19  H   UNL     1     138.517 144.183 120.812  1.00  0.00     0.293 HD
ENDBRANCH  15  18
BRANCH  17  20
ATOM     20  O   UNL     1     139.970 145.707 118.876  1.00  0.00    -0.504 OA
ATOM     21  H   UNL     1     140.692 145.945 118.211  1.00  0.00     0.293 HD
ENDBRANCH  17  20
ENDBRANCH   1  12
BRANCH   2  22
ATOM     22  O   UNL     1     136.966 151.043 119.520  1.00  0.00    -0.502 OA
ATOM     23  H   UNL     1     136.453 150.527 120.225  1.00  0.00     0.293 HD
ENDBRANCH   2  22
BRANCH   6  24
ATOM     24  O   UNL     1     139.714 155.452 119.271  1.00  0.00    -0.507 OA
ATOM     25  H   UNL     1     139.957 156.102 118.533  1.00  0.00     0.293 HD
ENDBRANCH   6  24
BRANCH   8  26
ATOM     26  O   UNL     1     144.128 153.921 120.478  1.00  0.00    -0.508 OA
ATOM     27  H   UNL     1     144.411 154.578 121.195  1.00  0.00     0.293 HD
ENDBRANCH   8  26
TORSDOF 6
ENDMDL
MODEL 5
REMARK VINA RESULT:    -5.720      1.423      1.640
REMARK INTER + INTRA:          -6.874
REMARK INTER:                  -6.811
REMARK INTRA:                  -0.063
REMARK UNBOUND:                 0.016
REMARK SMILES O=c1c(O)c(-c2ccc(O)c(O)c2)oc2cc(O)cc(O)c12
REMARK SMILES IDX 5 1 3 2 2 3 1 4 22 5 20 6 19 7 17 8 16 9 15 10 14 11 6 12
REMARK SMILES IDX 7 13 8 14 9 15 13 16 11 17 10 18 12 20 4 22 21 24 18 26
REMARK H PARENT 10 19 12 21 4 23 21 25 18 27
REMARK Flexibility Score: inf
ROOT
ATOM      1  C   UNL     1     140.664 153.361 120.406  1.00  0.00     0.180 A 
ATOM      2  C   UNL     1     141.926 152.736 120.390  1.00  0.00     0.208 A 
ATOM      3  C   UNL     1     142.005 151.378 120.041  1.00  0.00     0.238 A 
ATOM      4  O   UNL     1     143.131 150.810 120.013  1.00  0.00    -0.285 OA
ATOM      5  C   UNL     1     140.828 150.668 119.733  1.00  0.00     0.111 A 
ATOM      6  C   UNL     1     140.820 149.298 119.375  1.00  0.00     0.134 A 
ATOM      7  C   UNL     1     139.604 148.659 119.091  1.00  0.00     0.093 A 
ATOM      8  C   UNL     1     138.399 149.359 119.160  1.00  0.00     0.123 A 
ATOM      9  C   UNL     1     138.399 150.713 119.513  1.00  0.00     0.094 A 
ATOM     10  C   UNL     1     139.600 151.369 119.798  1.00  0.00     0.146 A 
ATOM     11  O   UNL     1     139.573 152.656 120.124  1.00  0.00    -0.452 OA
ENDROOT
BRANCH   1  12
ATOM     12  C   UNL     1     140.500 154.793 120.746  1.00  0.00     0.025 A 
ATOM     13  C   UNL     1     141.213 155.760 120.023  1.00  0.00     0.016 A 
ATOM     14  C   UNL     1     141.088 157.113 120.338  1.00  0.00     0.051 A 
ATOM     15  C   UNL     1     140.265 157.528 121.391  1.00  0.00     0.157 A 
ATOM     16  C   UNL     1     139.690 155.203 121.818  1.00  0.00     0.062 A 
ATOM     17  C   UNL     1     139.562 156.560 122.146  1.00  0.00     0.158 A 
BRANCH  15  18
ATOM     18  O   UNL     1     140.179 158.897 121.652  1.00  0.00    -0.504 OA
ATOM     19  H   UNL     1     140.287 159.306 122.569  1.00  0.00     0.293 HD
ENDBRANCH  15  18
BRANCH  17  20
ATOM     20  O   UNL     1     138.737 156.895 123.222  1.00  0.00    -0.504 OA
ATOM     21  H   UNL     1     139.022 156.838 124.189  1.00  0.00     0.293 HD
ENDBRANCH  17  20
ENDBRANCH   1  12
BRANCH   2  22
ATOM     22  O   UNL     1     143.072 153.450 120.748  1.00  0.00    -0.502 OA
ATOM     23  H   UNL     1     143.112 154.462 120.719  1.00  0.00     0.293 HD
ENDBRANCH   2  22
BRANCH   6  24
ATOM     24  O   UNL     1     142.008 148.569 119.299  1.00  0.00    -0.507 OA
ATOM     25  H   UNL     1     142.573 148.381 120.118  1.00  0.00     0.293 HD
ENDBRANCH   6  24
BRANCH   8  26
ATOM     26  O   UNL     1     137.204 148.701 118.875  1.00  0.00    -0.508 OA
ATOM     27  H   UNL     1     136.510 149.105 118.257  1.00  0.00     0.293 HD
ENDBRANCH   8  26
TORSDOF 6
ENDMDL
MODEL 6
REMARK VINA RESULT:    -5.659      2.226      7.726
REMARK INTER + INTRA:          -6.800
REMARK INTER:                  -6.691
REMARK INTRA:                  -0.109
REMARK UNBOUND:                 0.016
REMARK SMILES O=c1c(O)c(-c2ccc(O)c(O)c2)oc2cc(O)cc(O)c12
REMARK SMILES IDX 5 1 3 2 2 3 1 4 22 5 20 6 19 7 17 8 16 9 15 10 14 11 6 12
REMARK SMILES IDX 7 13 8 14 9 15 13 16 11 17 10 18 12 20 4 22 21 24 18 26
REMARK H PARENT 10 19 12 21 4 23 21 25 18 27
REMARK Flexibility Score: inf
ROOT
ATOM      1  C   UNL     1     139.326 150.417 120.095  1.00  0.00     0.180 A 
ATOM      2  C   UNL     1     138.353 151.410 119.875  1.00  0.00     0.208 A 
ATOM      3  C   UNL     1     138.762 152.749 119.770  1.00  0.00     0.238 A 
ATOM      4  O   UNL     1     137.900 153.646 119.563  1.00  0.00    -0.285 OA
ATOM      5  C   UNL     1     140.127 153.074 119.905  1.00  0.00     0.111 A 
ATOM      6  C   UNL     1     140.621 154.397 119.816  1.00  0.00     0.134 A 
ATOM      7  C   UNL     1     141.994 154.640 119.970  1.00  0.00     0.093 A 
ATOM      8  C   UNL     1     142.880 153.589 120.213  1.00  0.00     0.123 A 
ATOM      9  C   UNL     1     142.398 152.279 120.301  1.00  0.00     0.094 A 
ATOM     10  C   UNL     1     141.034 152.015 120.149  1.00  0.00     0.146 A 
ATOM     11  O   UNL     1     140.604 150.762 120.232  1.00  0.00    -0.452 OA
ENDROOT
BRANCH   1  12
ATOM     12  C   UNL     1     138.977 148.982 120.199  1.00  0.00     0.025 A 
ATOM     13  C   UNL     1     139.486 148.078 119.256  1.00  0.00     0.016 A 
ATOM     14  C   UNL     1     139.154 146.724 119.324  1.00  0.00     0.051 A 
ATOM     15  C   UNL     1     138.295 146.248 120.321  1.00  0.00     0.157 A 
ATOM     16  C   UNL     1     138.096 148.512 121.188  1.00  0.00     0.062 A 
ATOM     17  C   UNL     1     137.754 147.155 121.261  1.00  0.00     0.158 A 
BRANCH  15  18
ATOM     18  O   UNL     1     138.008 144.882 120.337  1.00  0.00    -0.504 OA
ATOM     19  H   UNL     1     137.483 144.424 121.068  1.00  0.00     0.293 HD
ENDBRANCH  15  18
BRANCH  17  20
ATOM     20  O   UNL     1     136.875 146.759 122.272  1.00  0.00    -0.504 OA
ATOM     21  H   UNL     1     136.866 145.836 122.681  1.00  0.00     0.293 HD
ENDBRANCH  17  20
ENDBRANCH   1  12
BRANCH   2  22
ATOM     22  O   UNL     1     137.000 151.067 119.795  1.00  0.00    -0.502 OA
ATOM     23  H   UNL     1     136.572 150.402 120.427  1.00  0.00     0.293 HD
ENDBRANCH   2  22
BRANCH   6  24
ATOM     24  O   UNL     1     139.761 155.471 119.576  1.00  0.00    -0.507 OA
ATOM     25  H   UNL     1     138.826 155.334 119.210  1.00  0.00     0.293 HD
ENDBRANCH   6  24
BRANCH   8  26
ATOM     26  O   UNL     1     144.239 153.856 120.364  1.00  0.00    -0.508 OA
ATOM     27  H   UNL     1     144.882 153.154 120.709  1.00  0.00     0.293 HD
ENDBRANCH   8  26
TORSDOF 6
ENDMDL
MODEL 7
REMARK VINA RESULT:    -5.594      1.820      7.045
REMARK INTER + INTRA:          -6.722
REMARK INTER:                  -7.186
REMARK INTRA:                   0.464
REMARK UNBOUND:                 0.016
REMARK SMILES O=c1c(O)c(-c2ccc(O)c(O)c2)oc2cc(O)cc(O)c12
REMARK SMILES IDX 5 1 3 2 2 3 1 4 22 5 20 6 19 7 17 8 16 9 15 10 14 11 6 12
REMARK SMILES IDX 7 13 8 14 9 15 13 16 11 17 10 18 12 20 4 22 21 24 18 26
REMARK H PARENT 10 19 12 21 4 23 21 25 18 27
REMARK Flexibility Score: inf
ROOT
ATOM      1  C   UNL     1     140.256 150.785 120.272  1.00  0.00     0.180 A 
ATOM      2  C   UNL     1     141.595 150.853 119.842  1.00  0.00     0.208 A 
ATOM      3  C   UNL     1     142.296 152.060 119.997  1.00  0.00     0.238 A 
ATOM      4  O   UNL     1     143.500 152.130 119.626  1.00  0.00    -0.285 OA
ATOM      5  C   UNL     1     141.646 153.177 120.558  1.00  0.00     0.111 A 
ATOM      6  C   UNL     1     142.279 154.430 120.744  1.00  0.00     0.134 A 
ATOM      7  C   UNL     1     141.560 155.498 121.301  1.00  0.00     0.093 A 
ATOM      8  C   UNL     1     140.223 155.339 121.673  1.00  0.00     0.123 A 
ATOM      9  C   UNL     1     139.592 154.105 121.491  1.00  0.00     0.094 A 
ATOM     10  C   UNL     1     140.291 153.027 120.939  1.00  0.00     0.146 A 
ATOM     11  O   UNL     1     139.670 151.864 120.783  1.00  0.00    -0.452 OA
ENDROOT
BRANCH   1  12
ATOM     12  C   UNL     1     139.456 149.544 120.160  1.00  0.00     0.025 A 
ATOM     13  C   UNL     1     138.168 149.501 120.711  1.00  0.00     0.016 A 
ATOM     14  C   UNL     1     137.404 148.336 120.634  1.00  0.00     0.051 A 
ATOM     15  C   UNL     1     137.915 147.187 120.021  1.00  0.00     0.157 A 
ATOM     16  C   UNL     1     139.981 148.386 119.563  1.00  0.00     0.062 A 
ATOM     17  C   UNL     1     139.223 147.209 119.484  1.00  0.00     0.158 A 
BRANCH  15  18
ATOM     18  O   UNL     1     137.098 146.056 119.971  1.00  0.00    -0.504 OA
ATOM     19  H   UNL     1     137.348 145.199 119.499  1.00  0.00     0.293 HD
ENDBRANCH  15  18
BRANCH  17  20
ATOM     20  O   UNL     1     139.809 146.097 118.875  1.00  0.00    -0.504 OA
ATOM     21  H   UNL     1     140.253 146.119 117.968  1.00  0.00     0.293 HD
ENDBRANCH  17  20
ENDBRANCH   1  12
BRANCH   2  22
ATOM     22  O   UNL     1     142.202 149.745 119.244  1.00  0.00    -0.502 OA
ATOM     23  H   UNL     1     141.680 148.919 118.979  1.00  0.00     0.293 HD
ENDBRANCH   2  22
BRANCH   6  24
ATOM     24  O   UNL     1     143.614 154.621 120.382  1.00  0.00    -0.507 OA
ATOM     25  H   UNL     1     143.873 154.977 119.471  1.00  0.00     0.293 HD
ENDBRANCH   6  24
BRANCH   8  26
ATOM     26  O   UNL     1     139.531 156.416 122.222  1.00  0.00    -0.508 OA
ATOM     27  H   UNL     1     139.950 157.335 122.294  1.00  0.00     0.293 HD
ENDBRANCH   8  26
TORSDOF 6
ENDMDL
MODEL 8
REMARK VINA RESULT:    -5.368      2.022      3.453
REMARK INTER + INTRA:          -6.450
REMARK INTER:                  -6.140
REMARK INTRA:                  -0.310
REMARK UNBOUND:                 0.016
REMARK SMILES O=c1c(O)c(-c2ccc(O)c(O)c2)oc2cc(O)cc(O)c12
REMARK SMILES IDX 5 1 3 2 2 3 1 4 22 5 20 6 19 7 17 8 16 9 15 10 14 11 6 12
REMARK SMILES IDX 7 13 8 14 9 15 13 16 11 17 10 18 12 20 4 22 21 24 18 26
REMARK H PARENT 10 19 12 21 4 23 21 25 18 27
REMARK Flexibility Score: inf
ROOT
ATOM      1  C   UNL     1     139.315 152.631 120.705  1.00  0.00     0.180 A 
ATOM      2  C   UNL     1     138.285 152.424 121.643  1.00  0.00     0.208 A 
ATOM      3  C   UNL     1     137.830 151.116 121.874  1.00  0.00     0.238 A 
ATOM      4  O   UNL     1     136.916 150.918 122.720  1.00  0.00    -0.285 OA
ATOM      5  C   UNL     1     138.396 150.044 121.154  1.00  0.00     0.111 A 
ATOM      6  C   UNL     1     137.992 148.698 121.325  1.00  0.00     0.134 A 
ATOM      7  C   UNL     1     138.597 147.688 120.563  1.00  0.00     0.093 A 
ATOM      8  C   UNL     1     139.595 147.996 119.636  1.00  0.00     0.123 A 
ATOM      9  C   UNL     1     139.998 149.323 119.463  1.00  0.00     0.094 A 
ATOM     10  C   UNL     1     139.408 150.345 120.213  1.00  0.00     0.146 A 
ATOM     11  O   UNL     1     139.815 151.596 120.033  1.00  0.00    -0.452 OA
ENDROOT
BRANCH   1  12
ATOM     12  C   UNL     1     139.861 153.977 120.419  1.00  0.00     0.025 A 
ATOM     13  C   UNL     1     139.480 154.641 119.245  1.00  0.00     0.016 A 
ATOM     14  C   UNL     1     139.997 155.903 118.947  1.00  0.00     0.051 A 
ATOM     15  C   UNL     1     140.917 156.518 119.804  1.00  0.00     0.157 A 
ATOM     16  C   UNL     1     140.800 154.581 121.272  1.00  0.00     0.062 A 
ATOM     17  C   UNL     1     141.329 155.846 120.979  1.00  0.00     0.158 A 
BRANCH  15  18
ATOM     18  O   UNL     1     141.391 157.784 119.452  1.00  0.00    -0.504 OA
ATOM     19  H   UNL     1     140.905 158.645 119.655  1.00  0.00     0.293 HD
ENDBRANCH  15  18
BRANCH  17  20
ATOM     20  O   UNL     1     142.256 156.387 121.872  1.00  0.00    -0.504 OA
ATOM     21  H   UNL     1     143.053 156.940 121.591  1.00  0.00     0.293 HD
ENDBRANCH  17  20
ENDBRANCH   1  12
BRANCH   2  22
ATOM     22  O   UNL     1     137.708 153.510 122.307  1.00  0.00    -0.502 OA
ATOM     23  H   UNL     1     138.021 154.462 122.163  1.00  0.00     0.293 HD
ENDBRANCH   2  22
BRANCH   6  24
ATOM     24  O   UNL     1     136.996 148.357 122.242  1.00  0.00    -0.507 OA
ATOM     25  H   UNL     1     137.027 147.491 122.766  1.00  0.00     0.293 HD
ENDBRANCH   6  24
BRANCH   8  26
ATOM     26  O   UNL     1     140.179 146.974 118.890  1.00  0.00    -0.508 OA
ATOM     27  H   UNL     1     141.144 147.024 118.587  1.00  0.00     0.293 HD
ENDBRANCH   8  26
TORSDOF 6
ENDMDL
