MODEL 1
REMARK VINA RESULT:    -3.324      0.000      0.000
REMARK INTER + INTRA:          -8.948
REMARK INTER:                  -7.599
REMARK INTRA:                  -1.349
REMARK UNBOUND:                -1.349
REMARK SMILES CCCCCCCCCCCCCCCCCCCCCCCC(=O)[O-]
REMARK SMILES IDX 13 1 14 2 15 3 16 4 17 5 18 6 19 7 20 8 21 9 22 10 23 11
REMARK SMILES IDX 24 12 25 13 26 14 12 15 11 16 10 17 9 18 8 19 7 20 6 21 5 22
REMARK SMILES IDX 4 23 3 24 2 25 1 26
REMARK H PARENT
REMARK Flexibility Score: inf
ROOT
ATOM      1  C   UNL     1     108.844 104.898 110.661  1.00  0.00     0.000 C 
ENDROOT
BRANCH   1   2
ATOM      2  C   UNL     1     110.111 104.144 111.106  1.00  0.00     0.000 C 
BRANCH   2   3
ATOM      3  C   UNL     1     110.174 102.712 110.552  1.00  0.00     0.000 C 
BRANCH   3   4
ATOM      4  C   UNL     1     111.374 101.922 111.105  1.00  0.00     0.000 C 
BRANCH   4   5
ATOM      5  C   UNL     1     112.039 102.618 112.303  1.00  0.00     0.000 C 
BRANCH   5   6
ATOM      6  C   UNL     1     113.508 102.204 112.488  1.00  0.00     0.000 C 
BRANCH   6   7
ATOM      7  C   UNL     1     114.377 102.736 111.337  1.00  0.00     0.000 C 
BRANCH   7   8
ATOM      8  C   UNL     1     114.620 104.251 111.427  1.00  0.00     0.000 C 
BRANCH   8   9
ATOM      9  C   UNL     1     114.766 104.744 112.878  1.00  0.00     0.000 C 
BRANCH   9  10
ATOM     10  C   UNL     1     116.176 104.514 113.443  1.00  0.00     0.006 C 
BRANCH  10  11
ATOM     11  C   UNL     1     117.272 104.677 112.381  1.00  0.00     0.053 C 
BRANCH  11  12
ATOM     12  C   UNL     1     118.530 105.199 113.004  1.00  0.00     0.041 C 
ATOM     13  O   UNL     1     119.095 106.221 112.530  1.00  0.00    -0.550 OA
ATOM     14  O   UNL     1     119.057 104.580 114.132  1.00  0.00    -0.550 OA
ENDBRANCH  11  12
ENDBRANCH  10  11
ENDBRANCH   9  10
ENDBRANCH   8   9
ENDBRANCH   7   8
ENDBRANCH   6   7
ENDBRANCH   5   6
ENDBRANCH   4   5
ENDBRANCH   3   4
ENDBRANCH   2   3
ENDBRANCH   1   2
BRANCH   1  15
ATOM     15  C   UNL     1     108.998 106.425 110.756  1.00  0.00     0.000 C 
BRANCH  15  16
ATOM     16  C   UNL     1     107.906 107.072 111.624  1.00  0.00     0.000 C 
BRANCH  16  17
ATOM     17  C   UNL     1     107.747 106.386 112.990  1.00  0.00     0.000 C 
BRANCH  17  18
ATOM     18  C   UNL     1     106.274 106.130 113.354  1.00  0.00    -0.000 C 
BRANCH  18  19
ATOM     19  C   UNL     1     105.503 107.432 113.637  1.00  0.00    -0.000 C 
BRANCH  19  20
ATOM     20  C   UNL     1     104.121 107.452 112.965  1.00  0.00    -0.000 C 
BRANCH  20  21
ATOM     21  C   UNL     1     103.381 106.124 113.188  1.00  0.00    -0.000 C 
BRANCH  21  22
ATOM     22  C   UNL     1     101.853 106.273 113.099  1.00  0.00    -0.000 C 
BRANCH  22  23
ATOM     23  C   UNL     1     101.393 106.867 111.755  1.00  0.00    -0.000 C 
BRANCH  23  24
ATOM     24  C   UNL     1     100.059 106.274 111.274  1.00  0.00    -0.000 C 
BRANCH  24  25
ATOM     25  C   UNL     1     100.059 105.964 109.769  1.00  0.00    -0.003 C 
ATOM     26  C   UNL     1      99.911 104.466 109.517  1.00  0.00     0.004 C 
ENDBRANCH  24  25
ENDBRANCH  23  24
ENDBRANCH  22  23
ENDBRANCH  21  22
ENDBRANCH  20  21
ENDBRANCH  19  20
ENDBRANCH  18  19
ENDBRANCH  17  18
ENDBRANCH  16  17
ENDBRANCH  15  16
ENDBRANCH   1  15
TORSDOF 22
ENDMDL
MODEL 2
REMARK VINA RESULT:    -3.114      2.520      3.998
REMARK INTER + INTRA:          -8.468
REMARK INTER:                  -6.878
REMARK INTRA:                  -1.591
REMARK UNBOUND:                -1.349
REMARK SMILES CCCCCCCCCCCCCCCCCCCCCCCC(=O)[O-]
REMARK SMILES IDX 13 1 14 2 15 3 16 4 17 5 18 6 19 7 20 8 21 9 22 10 23 11
REMARK SMILES IDX 24 12 25 13 26 14 12 15 11 16 10 17 9 18 8 19 7 20 6 21 5 22
REMARK SMILES IDX 4 23 3 24 2 25 1 26
REMARK H PARENT
REMARK Flexibility Score: inf
ROOT
ATOM      1  C   UNL     1     110.080 102.866 110.831  1.00  0.00     0.000 C 
ENDROOT
BRANCH   1   2
ATOM      2  C   UNL     1     111.467 102.257 111.102  1.00  0.00     0.000 C 
BRANCH   2   3
ATOM      3  C   UNL     1     111.827 102.242 112.596  1.00  0.00     0.000 C 
BRANCH   3   4
ATOM      4  C   UNL     1     113.330 102.461 112.840  1.00  0.00     0.000 C 
BRANCH   4   5
ATOM      5  C   UNL     1     114.103 102.762 111.545  1.00  0.00     0.000 C 
BRANCH   5   6
ATOM      6  C   UNL     1     114.896 104.076 111.620  1.00  0.00     0.000 C 
BRANCH   6   7
ATOM      7  C   UNL     1     114.879 104.648 113.046  1.00  0.00     0.000 C 
BRANCH   7   8
ATOM      8  C   UNL     1     116.266 105.120 113.513  1.00  0.00     0.000 C 
BRANCH   8   9
ATOM      9  C   UNL     1     117.352 104.923 112.441  1.00  0.00     0.000 C 
BRANCH   9  10
ATOM     10  C   UNL     1     118.601 104.214 112.986  1.00  0.00     0.006 C 
BRANCH  10  11
ATOM     11  C   UNL     1     119.302 105.018 114.090  1.00  0.00     0.053 C 
BRANCH  11  12
ATOM     12  C   UNL     1     119.367 104.220 115.356  1.00  0.00     0.041 C 
ATOM     13  O   UNL     1     119.142 102.979 115.336  1.00  0.00    -0.550 OA
ATOM     14  O   UNL     1     119.714 104.839 116.552  1.00  0.00    -0.550 OA
ENDBRANCH  11  12
ENDBRANCH  10  11
ENDBRANCH   9  10
ENDBRANCH   8   9
ENDBRANCH   7   8
ENDBRANCH   6   7
ENDBRANCH   5   6
ENDBRANCH   4   5
ENDBRANCH   3   4
ENDBRANCH   2   3
ENDBRANCH   1   2
BRANCH   1  15
ATOM     15  C   UNL     1     110.082 104.402 110.909  1.00  0.00     0.000 C 
BRANCH  15  16
ATOM     16  C   UNL     1     108.706 105.008 110.585  1.00  0.00     0.000 C 
BRANCH  16  17
ATOM     17  C   UNL     1     108.683 106.539 110.715  1.00  0.00     0.000 C 
BRANCH  17  18
ATOM     18  C   UNL     1     108.352 107.005 112.144  1.00  0.00    -0.000 C 
BRANCH  18  19
ATOM     19  C   UNL     1     107.256 106.148 112.803  1.00  0.00    -0.000 C 
BRANCH  19  20
ATOM     20  C   UNL     1     106.182 107.002 113.495  1.00  0.00    -0.000 C 
BRANCH  20  21
ATOM     21  C   UNL     1     105.073 106.119 114.088  1.00  0.00    -0.000 C 
BRANCH  21  22
ATOM     22  C   UNL     1     103.860 106.932 114.569  1.00  0.00    -0.000 C 
BRANCH  22  23
ATOM     23  C   UNL     1     103.436 106.572 116.004  1.00  0.00    -0.000 C 
BRANCH  23  24
ATOM     24  C   UNL     1     104.270 107.305 117.067  1.00  0.00    -0.000 C 
BRANCH  24  25
ATOM     25  C   UNL     1     104.798 108.660 116.572  1.00  0.00    -0.003 C 
ATOM     26  C   UNL     1     106.193 108.941 117.124  1.00  0.00     0.004 C 
ENDBRANCH  24  25
ENDBRANCH  23  24
ENDBRANCH  22  23
ENDBRANCH  21  22
ENDBRANCH  20  21
ENDBRANCH  19  20
ENDBRANCH  18  19
ENDBRANCH  17  18
ENDBRANCH  16  17
ENDBRANCH  15  16
ENDBRANCH   1  15
TORSDOF 22
ENDMDL
MODEL 3
REMARK VINA RESULT:    -3.077      1.018      2.323
REMARK INTER + INTRA:          -8.382
REMARK INTER:                  -7.294
REMARK INTRA:                  -1.089
REMARK UNBOUND:                -1.349
REMARK SMILES CCCCCCCCCCCCCCCCCCCCCCCC(=O)[O-]
REMARK SMILES IDX 13 1 14 2 15 3 16 4 17 5 18 6 19 7 20 8 21 9 22 10 23 11
REMARK SMILES IDX 24 12 25 13 26 14 12 15 11 16 10 17 9 18 8 19 7 20 6 21 5 22
REMARK SMILES IDX 4 23 3 24 2 25 1 26
REMARK H PARENT
REMARK Flexibility Score: inf
ROOT
ATOM      1  C   UNL     1     110.149 103.153 111.538  1.00  0.00     0.000 C 
ENDROOT
BRANCH   1   2
ATOM      2  C   UNL     1     111.403 102.360 111.129  1.00  0.00     0.000 C 
BRANCH   2   3
ATOM      3  C   UNL     1     112.163 101.787 112.336  1.00  0.00     0.000 C 
BRANCH   3   4
ATOM      4  C   UNL     1     113.688 101.947 112.199  1.00  0.00     0.000 C 
BRANCH   4   5
ATOM      5  C   UNL     1     114.081 103.022 111.172  1.00  0.00     0.000 C 
BRANCH   5   6
ATOM      6  C   UNL     1     114.394 104.378 111.824  1.00  0.00     0.000 C 
BRANCH   6   7
ATOM      7  C   UNL     1     115.198 104.192 113.120  1.00  0.00     0.000 C 
BRANCH   7   8
ATOM      8  C   UNL     1     115.706 105.522 113.700  1.00  0.00     0.000 C 
BRANCH   8   9
ATOM      9  C   UNL     1     117.156 105.833 113.291  1.00  0.00     0.000 C 
BRANCH   9  10
ATOM     10  C   UNL     1     117.854 104.638 112.624  1.00  0.00     0.006 C 
BRANCH  10  11
ATOM     11  C   UNL     1     118.720 103.837 113.605  1.00  0.00     0.053 C 
BRANCH  11  12
ATOM     12  C   UNL     1     119.421 104.759 114.556  1.00  0.00     0.041 C 
ATOM     13  O   UNL     1     120.072 105.746 114.117  1.00  0.00    -0.550 OA
ATOM     14  O   UNL     1     119.323 104.552 115.927  1.00  0.00    -0.550 OA
ENDBRANCH  11  12
ENDBRANCH  10  11
ENDBRANCH   9  10
ENDBRANCH   8   9
ENDBRANCH   7   8
ENDBRANCH   6   7
ENDBRANCH   5   6
ENDBRANCH   4   5
ENDBRANCH   3   4
ENDBRANCH   2   3
ENDBRANCH   1   2
BRANCH   1  15
ATOM     15  C   UNL     1     109.860 104.332 110.594  1.00  0.00     0.000 C 
BRANCH  15  16
ATOM     16  C   UNL     1     108.471 104.948 110.834  1.00  0.00     0.000 C 
BRANCH  16  17
ATOM     17  C   UNL     1     108.447 106.468 110.607  1.00  0.00     0.000 C 
BRANCH  17  18
ATOM     18  C   UNL     1     108.441 107.263 111.925  1.00  0.00    -0.000 C 
BRANCH  18  19
ATOM     19  C   UNL     1     107.502 106.648 112.978  1.00  0.00    -0.000 C 
BRANCH  19  20
ATOM     20  C   UNL     1     106.095 107.265 112.939  1.00  0.00    -0.000 C 
BRANCH  20  21
ATOM     21  C   UNL     1     105.190 106.642 114.012  1.00  0.00    -0.000 C 
BRANCH  21  22
ATOM     22  C   UNL     1     104.136 105.690 113.422  1.00  0.00    -0.000 C 
BRANCH  22  23
ATOM     23  C   UNL     1     102.707 106.254 113.522  1.00  0.00    -0.000 C 
BRANCH  23  24
ATOM     24  C   UNL     1     102.174 106.753 112.169  1.00  0.00    -0.000 C 
BRANCH  24  25
ATOM     25  C   UNL     1     100.686 106.432 111.964  1.00  0.00    -0.003 C 
ATOM     26  C   UNL     1     100.332 106.388 110.481  1.00  0.00     0.004 C 
ENDBRANCH  24  25
ENDBRANCH  23  24
ENDBRANCH  22  23
ENDBRANCH  21  22
ENDBRANCH  20  21
ENDBRANCH  19  20
ENDBRANCH  18  19
ENDBRANCH  17  18
ENDBRANCH  16  17
ENDBRANCH  15  16
ENDBRANCH   1  15
TORSDOF 22
ENDMDL
MODEL 4
REMARK VINA RESULT:    -2.763      5.275     12.491
REMARK INTER + INTRA:          -7.666
REMARK INTER:                  -6.395
REMARK INTRA:                  -1.272
REMARK UNBOUND:                -1.349
REMARK SMILES CCCCCCCCCCCCCCCCCCCCCCCC(=O)[O-]
REMARK SMILES IDX 13 1 14 2 15 3 16 4 17 5 18 6 19 7 20 8 21 9 22 10 23 11
REMARK SMILES IDX 24 12 25 13 26 14 12 15 11 16 10 17 9 18 8 19 7 20 6 21 5 22
REMARK SMILES IDX 4 23 3 24 2 25 1 26
REMARK H PARENT
REMARK Flexibility Score: inf
ROOT
ATOM      1  C   UNL     1     110.021 104.125 111.141  1.00  0.00     0.000 C 
ENDROOT
BRANCH   1   2
ATOM      2  C   UNL     1     108.849 104.976 110.619  1.00  0.00     0.000 C 
BRANCH   2   3
ATOM      3  C   UNL     1     109.054 106.480 110.862  1.00  0.00     0.000 C 
BRANCH   3   4
ATOM      4  C   UNL     1     107.873 107.119 111.615  1.00  0.00     0.000 C 
BRANCH   4   5
ATOM      5  C   UNL     1     107.629 106.475 112.989  1.00  0.00     0.000 C 
BRANCH   5   6
ATOM      6  C   UNL     1     106.181 105.992 113.170  1.00  0.00     0.000 C 
BRANCH   6   7
ATOM      7  C   UNL     1     105.289 107.121 113.709  1.00  0.00     0.000 C 
BRANCH   7   8
ATOM      8  C   UNL     1     103.998 106.598 114.359  1.00  0.00     0.000 C 
BRANCH   8   9
ATOM      9  C   UNL     1     103.090 105.854 113.363  1.00  0.00     0.000 C 
BRANCH   9  10
ATOM     10  C   UNL     1     102.453 106.791 112.327  1.00  0.00     0.006 C 
BRANCH  10  11
ATOM     11  C   UNL     1     100.949 106.542 112.150  1.00  0.00     0.053 C 
BRANCH  11  12
ATOM     12  C   UNL     1     100.585 106.551 110.697  1.00  0.00     0.041 C 
ATOM     13  O   UNL     1      99.875 105.627 110.216  1.00  0.00    -0.550 OA
ATOM     14  O   UNL     1     100.997 107.601 109.883  1.00  0.00    -0.550 OA
ENDBRANCH  11  12
ENDBRANCH  10  11
ENDBRANCH   9  10
ENDBRANCH   8   9
ENDBRANCH   7   8
ENDBRANCH   6   7
ENDBRANCH   5   6
ENDBRANCH   4   5
ENDBRANCH   3   4
ENDBRANCH   2   3
ENDBRANCH   1   2
BRANCH   1  15
ATOM     15  C   UNL     1     110.109 102.753 110.453  1.00  0.00     0.000 C 
BRANCH  15  16
ATOM     16  C   UNL     1     111.224 101.872 111.043  1.00  0.00     0.000 C 
BRANCH  16  17
ATOM     17  C   UNL     1     111.902 102.510 112.266  1.00  0.00     0.000 C 
BRANCH  17  18
ATOM     18  C   UNL     1     113.276 101.887 112.571  1.00  0.00    -0.000 C 
BRANCH  18  19
ATOM     19  C   UNL     1     114.406 102.522 111.742  1.00  0.00    -0.000 C 
BRANCH  19  20
ATOM     20  C   UNL     1     114.032 103.916 111.212  1.00  0.00    -0.000 C 
BRANCH  20  21
ATOM     21  C   UNL     1     114.535 105.018 112.156  1.00  0.00    -0.000 C 
BRANCH  21  22
ATOM     22  C   UNL     1     115.269 104.457 113.386  1.00  0.00    -0.000 C 
BRANCH  22  23
ATOM     23  C   UNL     1     116.562 105.227 113.707  1.00  0.00    -0.000 C 
BRANCH  23  24
ATOM     24  C   UNL     1     117.784 104.661 112.966  1.00  0.00    -0.000 C 
BRANCH  24  25
ATOM     25  C   UNL     1     119.024 105.559 113.096  1.00  0.00    -0.003 C 
ATOM     26  C   UNL     1     119.391 106.188 111.755  1.00  0.00     0.004 C 
ENDBRANCH  24  25
ENDBRANCH  23  24
ENDBRANCH  22  23
ENDBRANCH  21  22
ENDBRANCH  20  21
ENDBRANCH  19  20
ENDBRANCH  18  19
ENDBRANCH  17  18
ENDBRANCH  16  17
ENDBRANCH  15  16
ENDBRANCH   1  15
TORSDOF 22
ENDMDL
MODEL 5
REMARK VINA RESULT:    -2.230      1.125      1.812
REMARK INTER + INTRA:          -6.448
REMARK INTER:                  -5.318
REMARK INTRA:                  -1.129
REMARK UNBOUND:                -1.349
REMARK SMILES CCCCCCCCCCCCCCCCCCCCCCCC(=O)[O-]
REMARK SMILES IDX 13 1 14 2 15 3 16 4 17 5 18 6 19 7 20 8 21 9 22 10 23 11
REMARK SMILES IDX 24 12 25 13 26 14 12 15 11 16 10 17 9 18 8 19 7 20 6 21 5 22
REMARK SMILES IDX 4 23 3 24 2 25 1 26
REMARK H PARENT
REMARK Flexibility Score: inf
ROOT
ATOM      1  C   UNL     1     109.013 106.479 110.787  1.00  0.00     0.000 C 
ENDROOT
BRANCH   1   2
ATOM      2  C   UNL     1     108.685 105.004 111.079  1.00  0.00     0.000 C 
BRANCH   2   3
ATOM      3  C   UNL     1     109.771 104.043 110.569  1.00  0.00     0.000 C 
BRANCH   3   4
ATOM      4  C   UNL     1     110.517 103.338 111.716  1.00  0.00     0.000 C 
BRANCH   4   5
ATOM      5  C   UNL     1     110.865 101.877 111.387  1.00  0.00     0.000 C 
BRANCH   5   6
ATOM      6  C   UNL     1     112.369 101.663 111.158  1.00  0.00     0.000 C 
BRANCH   6   7
ATOM      7  C   UNL     1     113.198 102.432 112.199  1.00  0.00     0.000 C 
BRANCH   7   8
ATOM      8  C   UNL     1     114.093 103.511 111.567  1.00  0.00     0.000 C 
BRANCH   8   9
ATOM      9  C   UNL     1     114.804 104.382 112.616  1.00  0.00     0.000 C 
BRANCH   9  10
ATOM     10  C   UNL     1     116.335 104.289 112.525  1.00  0.00     0.006 C 
BRANCH  10  11
ATOM     11  C   UNL     1     117.043 105.329 113.404  1.00  0.00     0.053 C 
BRANCH  11  12
ATOM     12  C   UNL     1     118.523 105.100 113.394  1.00  0.00     0.041 C 
ATOM     13  O   UNL     1     119.295 105.961 112.891  1.00  0.00    -0.550 OA
ATOM     14  O   UNL     1     119.054 103.955 113.976  1.00  0.00    -0.550 OA
ENDBRANCH  11  12
ENDBRANCH  10  11
ENDBRANCH   9  10
ENDBRANCH   8   9
ENDBRANCH   7   8
ENDBRANCH   6   7
ENDBRANCH   5   6
ENDBRANCH   4   5
ENDBRANCH   3   4
ENDBRANCH   2   3
ENDBRANCH   1   2
BRANCH   1  15
ATOM     15  C   UNL     1     108.060 107.451 111.503  1.00  0.00     0.000 C 
BRANCH  15  16
ATOM     16  C   UNL     1     107.269 106.772 112.634  1.00  0.00     0.000 C 
BRANCH  16  17
ATOM     17  C   UNL     1     105.856 107.352 112.804  1.00  0.00     0.000 C 
BRANCH  17  18
ATOM     18  C   UNL     1     105.112 106.751 114.009  1.00  0.00    -0.000 C 
BRANCH  18  19
ATOM     19  C   UNL     1     103.875 105.938 113.590  1.00  0.00    -0.000 C 
BRANCH  19  20
ATOM     20  C   UNL     1     102.924 106.740 112.687  1.00  0.00    -0.000 C 
BRANCH  20  21
ATOM     21  C   UNL     1     101.583 106.010 112.512  1.00  0.00    -0.000 C 
BRANCH  21  22
ATOM     22  C   UNL     1     100.514 106.886 111.838  1.00  0.00    -0.000 C 
BRANCH  22  23
ATOM     23  C   UNL     1      99.930 106.238 110.570  1.00  0.00    -0.000 C 
BRANCH  23  24
ATOM     24  C   UNL     1     100.643 106.701 109.290  1.00  0.00    -0.000 C 
BRANCH  24  25
ATOM     25  C   UNL     1     101.366 108.045 109.468  1.00  0.00    -0.003 C 
ATOM     26  C   UNL     1     101.803 108.617 108.123  1.00  0.00     0.004 C 
ENDBRANCH  24  25
ENDBRANCH  23  24
ENDBRANCH  22  23
ENDBRANCH  21  22
ENDBRANCH  20  21
ENDBRANCH  19  20
ENDBRANCH  18  19
ENDBRANCH  17  18
ENDBRANCH  16  17
ENDBRANCH  15  16
ENDBRANCH   1  15
TORSDOF 22
ENDMDL
MODEL 6
REMARK VINA RESULT:    -2.110      4.730     11.549
REMARK INTER + INTRA:          -6.172
REMARK INTER:                  -5.618
REMARK INTRA:                  -0.553
REMARK UNBOUND:                -1.349
REMARK SMILES CCCCCCCCCCCCCCCCCCCCCCCC(=O)[O-]
REMARK SMILES IDX 13 1 14 2 15 3 16 4 17 5 18 6 19 7 20 8 21 9 22 10 23 11
REMARK SMILES IDX 24 12 25 13 26 14 12 15 11 16 10 17 9 18 8 19 7 20 6 21 5 22
REMARK SMILES IDX 4 23 3 24 2 25 1 26
REMARK H PARENT
REMARK Flexibility Score: inf
ROOT
ATOM      1  C   UNL     1     110.327 102.219 111.167  1.00  0.00     0.000 C 
ENDROOT
BRANCH   1   2
ATOM      2  C   UNL     1     109.909 103.664 111.493  1.00  0.00     0.000 C 
BRANCH   2   3
ATOM      3  C   UNL     1     108.649 104.104 110.730  1.00  0.00     0.000 C 
BRANCH   3   4
ATOM      4  C   UNL     1     108.839 105.453 110.013  1.00  0.00     0.000 C 
BRANCH   4   5
ATOM      5  C   UNL     1     109.681 106.445 110.832  1.00  0.00     0.000 C 
BRANCH   5   6
ATOM      6  C   UNL     1     108.837 107.572 111.447  1.00  0.00     0.000 C 
BRANCH   6   7
ATOM      7  C   UNL     1     107.336 107.280 111.297  1.00  0.00     0.000 C 
BRANCH   7   8
ATOM      8  C   UNL     1     106.528 107.669 112.545  1.00  0.00     0.000 C 
BRANCH   8   9
ATOM      9  C   UNL     1     106.089 106.448 113.373  1.00  0.00     0.000 C 
BRANCH   9  10
ATOM     10  C   UNL     1     104.916 106.761 114.314  1.00  0.00     0.006 C 
BRANCH  10  11
ATOM     11  C   UNL     1     105.022 108.155 114.947  1.00  0.00     0.053 C 
BRANCH  11  12
ATOM     12  C   UNL     1     105.132 108.045 116.437  1.00  0.00     0.041 C 
ATOM     13  O   UNL     1     105.893 108.821 117.075  1.00  0.00    -0.550 OA
ATOM     14  O   UNL     1     104.365 107.111 117.125  1.00  0.00    -0.550 OA
ENDBRANCH  11  12
ENDBRANCH  10  11
ENDBRANCH   9  10
ENDBRANCH   8   9
ENDBRANCH   7   8
ENDBRANCH   6   7
ENDBRANCH   5   6
ENDBRANCH   4   5
ENDBRANCH   3   4
ENDBRANCH   2   3
ENDBRANCH   1   2
BRANCH   1  15
ATOM     15  C   UNL     1     111.853 102.042 111.107  1.00  0.00     0.000 C 
BRANCH  15  16
ATOM     16  C   UNL     1     112.482 101.897 112.502  1.00  0.00     0.000 C 
BRANCH  16  17
ATOM     17  C   UNL     1     113.974 102.266 112.524  1.00  0.00     0.000 C 
BRANCH  17  18
ATOM     18  C   UNL     1     114.526 102.578 111.121  1.00  0.00    -0.000 C 
BRANCH  18  19
ATOM     19  C   UNL     1     115.071 104.013 111.010  1.00  0.00    -0.000 C 
BRANCH  19  20
ATOM     20  C   UNL     1     114.399 104.974 112.005  1.00  0.00    -0.000 C 
BRANCH  20  21
ATOM     21  C   UNL     1     115.000 104.820 113.411  1.00  0.00    -0.000 C 
BRANCH  21  22
ATOM     22  C   UNL     1     116.456 105.307 113.491  1.00  0.00    -0.000 C 
BRANCH  22  23
ATOM     23  C   UNL     1     117.462 104.252 112.996  1.00  0.00    -0.000 C 
BRANCH  23  24
ATOM     24  C   UNL     1     118.823 104.358 113.702  1.00  0.00    -0.000 C 
BRANCH  24  25
ATOM     25  C   UNL     1     119.453 105.753 113.567  1.00  0.00    -0.003 C 
ATOM     26  C   UNL     1     119.356 106.263 112.132  1.00  0.00     0.004 C 
ENDBRANCH  24  25
ENDBRANCH  23  24
ENDBRANCH  22  23
ENDBRANCH  21  22
ENDBRANCH  20  21
ENDBRANCH  19  20
ENDBRANCH  18  19
ENDBRANCH  17  18
ENDBRANCH  16  17
ENDBRANCH  15  16
ENDBRANCH   1  15
TORSDOF 22
ENDMDL
MODEL 7
REMARK VINA RESULT:    -1.745      3.782      6.737
REMARK INTER + INTRA:          -5.338
REMARK INTER:                  -3.416
REMARK INTRA:                  -1.922
REMARK UNBOUND:                -1.349
REMARK SMILES CCCCCCCCCCCCCCCCCCCCCCCC(=O)[O-]
REMARK SMILES IDX 13 1 14 2 15 3 16 4 17 5 18 6 19 7 20 8 21 9 22 10 23 11
REMARK SMILES IDX 24 12 25 13 26 14 12 15 11 16 10 17 9 18 8 19 7 20 6 21 5 22
REMARK SMILES IDX 4 23 3 24 2 25 1 26
REMARK H PARENT
REMARK Flexibility Score: inf
ROOT
ATOM      1  C   UNL     1     109.907 103.831 110.719  1.00  0.00     0.000 C 
ENDROOT
BRANCH   1   2
ATOM      2  C   UNL     1     110.430 103.672 112.157  1.00  0.00     0.000 C 
BRANCH   2   3
ATOM      3  C   UNL     1     111.256 102.389 112.350  1.00  0.00     0.000 C 
BRANCH   3   4
ATOM      4  C   UNL     1     112.261 102.162 111.207  1.00  0.00     0.000 C 
BRANCH   4   5
ATOM      5  C   UNL     1     113.716 102.097 111.702  1.00  0.00     0.000 C 
BRANCH   5   6
ATOM      6  C   UNL     1     114.592 103.215 111.116  1.00  0.00     0.000 C 
BRANCH   6   7
ATOM      7  C   UNL     1     114.440 104.513 111.925  1.00  0.00     0.000 C 
BRANCH   7   8
ATOM      8  C   UNL     1     114.955 104.377 113.367  1.00  0.00     0.000 C 
BRANCH   8   9
ATOM      9  C   UNL     1     115.892 105.527 113.774  1.00  0.00     0.000 C 
BRANCH   9  10
ATOM     10  C   UNL     1     117.174 105.575 112.928  1.00  0.00     0.006 C 
BRANCH  10  11
ATOM     11  C   UNL     1     118.015 104.298 113.057  1.00  0.00     0.053 C 
BRANCH  11  12
ATOM     12  C   UNL     1     118.989 104.426 114.187  1.00  0.00     0.041 C 
ATOM     13  O   UNL     1     119.038 103.543 115.086  1.00  0.00    -0.550 OA
ATOM     14  O   UNL     1     119.870 105.501 114.228  1.00  0.00    -0.550 OA
ENDBRANCH  11  12
ENDBRANCH  10  11
ENDBRANCH   9  10
ENDBRANCH   8   9
ENDBRANCH   7   8
ENDBRANCH   6   7
ENDBRANCH   5   6
ENDBRANCH   4   5
ENDBRANCH   3   4
ENDBRANCH   2   3
ENDBRANCH   1   2
BRANCH   1  15
ATOM     15  C   UNL     1     108.740 104.826 110.618  1.00  0.00     0.000 C 
BRANCH  15  16
ATOM     16  C   UNL     1     108.250 105.296 111.998  1.00  0.00     0.000 C 
BRANCH  16  17
ATOM     17  C   UNL     1     108.113 106.824 112.092  1.00  0.00     0.000 C 
BRANCH  17  18
ATOM     18  C   UNL     1     108.700 107.547 110.867  1.00  0.00    -0.000 C 
BRANCH  18  19
ATOM     19  C   UNL     1     110.215 107.783 110.993  1.00  0.00    -0.000 C 
BRANCH  19  20
ATOM     20  C   UNL     1     110.890 108.000 109.630  1.00  0.00    -0.000 C 
BRANCH  20  21
ATOM     21  C   UNL     1     112.358 107.549 109.664  1.00  0.00    -0.000 C 
BRANCH  21  22
ATOM     22  C   UNL     1     113.180 108.112 108.492  1.00  0.00    -0.000 C 
BRANCH  22  23
ATOM     23  C   UNL     1     112.437 108.013 107.147  1.00  0.00    -0.000 C 
BRANCH  23  24
ATOM     24  C   UNL     1     113.394 108.004 105.944  1.00  0.00    -0.000 C 
BRANCH  24  25
ATOM     25  C   UNL     1     112.851 107.189 104.761  1.00  0.00    -0.003 C 
ATOM     26  C   UNL     1     113.983 106.520 103.987  1.00  0.00     0.004 C 
ENDBRANCH  24  25
ENDBRANCH  23  24
ENDBRANCH  22  23
ENDBRANCH  21  22
ENDBRANCH  20  21
ENDBRANCH  19  20
ENDBRANCH  18  19
ENDBRANCH  17  18
ENDBRANCH  16  17
ENDBRANCH  15  16
ENDBRANCH   1  15
TORSDOF 22
ENDMDL
MODEL 8
REMARK VINA RESULT:    -1.719      4.692     10.147
REMARK INTER + INTRA:          -5.279
REMARK INTER:                  -3.536
REMARK INTRA:                  -1.743
REMARK UNBOUND:                -1.349
REMARK SMILES CCCCCCCCCCCCCCCCCCCCCCCC(=O)[O-]
REMARK SMILES IDX 13 1 14 2 15 3 16 4 17 5 18 6 19 7 20 8 21 9 22 10 23 11
REMARK SMILES IDX 24 12 25 13 26 14 12 15 11 16 10 17 9 18 8 19 7 20 6 21 5 22
REMARK SMILES IDX 4 23 3 24 2 25 1 26
REMARK H PARENT
REMARK Flexibility Score: inf
ROOT
ATOM      1  C   UNL     1     108.874 104.730 110.719  1.00  0.00     0.000 C 
ENDROOT
BRANCH   1   2
ATOM      2  C   UNL     1     108.317 105.032 112.121  1.00  0.00     0.000 C 
BRANCH   2   3
ATOM      3  C   UNL     1     108.081 106.532 112.356  1.00  0.00     0.000 C 
BRANCH   3   4
ATOM      4  C   UNL     1     108.326 107.370 111.088  1.00  0.00     0.000 C 
BRANCH   4   5
ATOM      5  C   UNL     1     109.712 108.036 111.078  1.00  0.00     0.000 C 
BRANCH   5   6
ATOM      6  C   UNL     1     110.532 107.680 109.828  1.00  0.00     0.000 C 
BRANCH   6   7
ATOM      7  C   UNL     1     112.038 107.717 110.130  1.00  0.00     0.000 C 
BRANCH   7   8
ATOM      8  C   UNL     1     112.899 107.385 108.900  1.00  0.00     0.000 C 
BRANCH   8   9
ATOM      9  C   UNL     1     112.821 108.469 107.811  1.00  0.00     0.000 C 
BRANCH   9  10
ATOM     10  C   UNL     1     113.614 108.099 106.549  1.00  0.00     0.006 C 
BRANCH  10  11
ATOM     11  C   UNL     1     112.760 107.362 105.509  1.00  0.00     0.053 C 
BRANCH  11  12
ATOM     12  C   UNL     1     113.579 107.030 104.300  1.00  0.00     0.041 C 
ATOM     13  O   UNL     1     114.780 107.408 104.224  1.00  0.00    -0.550 OA
ATOM     14  O   UNL     1     113.030 106.269 103.274  1.00  0.00    -0.550 OA
ENDBRANCH  11  12
ENDBRANCH  10  11
ENDBRANCH   9  10
ENDBRANCH   8   9
ENDBRANCH   7   8
ENDBRANCH   6   7
ENDBRANCH   5   6
ENDBRANCH   4   5
ENDBRANCH   3   4
ENDBRANCH   2   3
ENDBRANCH   1   2
BRANCH   1  15
ATOM     15  C   UNL     1     110.269 104.084 110.761  1.00  0.00     0.000 C 
BRANCH  15  16
ATOM     16  C   UNL     1     110.228 102.633 111.267  1.00  0.00     0.000 C 
BRANCH  16  17
ATOM     17  C   UNL     1     111.593 101.931 111.175  1.00  0.00     0.000 C 
BRANCH  17  18
ATOM     18  C   UNL     1     112.497 102.237 112.381  1.00  0.00    -0.000 C 
BRANCH  18  19
ATOM     19  C   UNL     1     113.993 102.176 112.026  1.00  0.00    -0.000 C 
BRANCH  19  20
ATOM     20  C   UNL     1     114.429 103.340 111.122  1.00  0.00    -0.000 C 
BRANCH  20  21
ATOM     21  C   UNL     1     114.490 104.657 111.912  1.00  0.00    -0.000 C 
BRANCH  21  22
ATOM     22  C   UNL     1     114.961 104.459 113.362  1.00  0.00    -0.000 C 
BRANCH  22  23
ATOM     23  C   UNL     1     116.288 105.179 113.658  1.00  0.00    -0.000 C 
BRANCH  23  24
ATOM     24  C   UNL     1     117.484 104.527 112.945  1.00  0.00    -0.000 C 
BRANCH  24  25
ATOM     25  C   UNL     1     118.825 105.168 113.333  1.00  0.00    -0.003 C 
ATOM     26  C   UNL     1     119.186 106.306 112.383  1.00  0.00     0.004 C 
ENDBRANCH  24  25
ENDBRANCH  23  24
ENDBRANCH  22  23
ENDBRANCH  21  22
ENDBRANCH  20  21
ENDBRANCH  19  20
ENDBRANCH  18  19
ENDBRANCH  17  18
ENDBRANCH  16  17
ENDBRANCH  15  16
ENDBRANCH   1  15
TORSDOF 22
ENDMDL
MODEL 9
REMARK VINA RESULT:    -1.668      5.057     12.728
REMARK INTER + INTRA:          -5.162
REMARK INTER:                  -4.071
REMARK INTRA:                  -1.091
REMARK UNBOUND:                -1.349
REMARK SMILES CCCCCCCCCCCCCCCCCCCCCCCC(=O)[O-]
REMARK SMILES IDX 13 1 14 2 15 3 16 4 17 5 18 6 19 7 20 8 21 9 22 10 23 11
REMARK SMILES IDX 24 12 25 13 26 14 12 15 11 16 10 17 9 18 8 19 7 20 6 21 5 22
REMARK SMILES IDX 4 23 3 24 2 25 1 26
REMARK H PARENT
REMARK Flexibility Score: inf
ROOT
ATOM      1  C   UNL     1     108.665 106.188 111.124  1.00  0.00     0.000 C 
ENDROOT
BRANCH   1   2
ATOM      2  C   UNL     1     108.110 106.385 112.546  1.00  0.00     0.000 C 
BRANCH   2   3
ATOM      3  C   UNL     1     106.654 106.879 112.551  1.00  0.00     0.000 C 
BRANCH   3   4
ATOM      4  C   UNL     1     105.723 105.951 113.351  1.00  0.00     0.000 C 
BRANCH   4   5
ATOM      5  C   UNL     1     104.633 106.720 114.115  1.00  0.00     0.000 C 
BRANCH   5   6
ATOM      6  C   UNL     1     103.230 106.129 113.903  1.00  0.00     0.000 C 
BRANCH   6   7
ATOM      7  C   UNL     1     102.667 106.530 112.531  1.00  0.00     0.000 C 
BRANCH   7   8
ATOM      8  C   UNL     1     101.132 106.473 112.480  1.00  0.00     0.000 C 
BRANCH   8   9
ATOM      9  C   UNL     1     100.576 106.691 111.061  1.00  0.00     0.000 C 
BRANCH   9  10
ATOM     10  C   UNL     1     101.382 107.726 110.261  1.00  0.00     0.006 C 
BRANCH  10  11
ATOM     11  C   UNL     1     101.175 107.593 108.747  1.00  0.00     0.053 C 
BRANCH  11  12
ATOM     12  C   UNL     1     101.993 108.613 108.016  1.00  0.00     0.041 C 
ATOM     13  O   UNL     1     103.183 108.355 107.687  1.00  0.00    -0.550 OA
ATOM     14  O   UNL     1     101.430 109.835 107.664  1.00  0.00    -0.550 OA
ENDBRANCH  11  12
ENDBRANCH  10  11
ENDBRANCH   9  10
ENDBRANCH   8   9
ENDBRANCH   7   8
ENDBRANCH   6   7
ENDBRANCH   5   6
ENDBRANCH   4   5
ENDBRANCH   3   4
ENDBRANCH   2   3
ENDBRANCH   1   2
BRANCH   1  15
ATOM     15  C   UNL     1     109.011 104.721 110.820  1.00  0.00     0.000 C 
BRANCH  15  16
ATOM     16  C   UNL     1     110.478 104.386 111.140  1.00  0.00     0.000 C 
BRANCH  16  17
ATOM     17  C   UNL     1     110.744 102.873 111.195  1.00  0.00     0.000 C 
BRANCH  17  18
ATOM     18  C   UNL     1     111.650 102.475 112.373  1.00  0.00    -0.000 C 
BRANCH  18  19
ATOM     19  C   UNL     1     113.050 102.030 111.915  1.00  0.00    -0.000 C 
BRANCH  19  20
ATOM     20  C   UNL     1     113.793 103.134 111.146  1.00  0.00    -0.000 C 
BRANCH  20  21
ATOM     21  C   UNL     1     115.090 103.531 111.868  1.00  0.00    -0.000 C 
BRANCH  21  22
ATOM     22  C   UNL     1     114.872 104.634 112.917  1.00  0.00    -0.000 C 
BRANCH  22  23
ATOM     23  C   UNL     1     116.192 105.264 113.396  1.00  0.00    -0.000 C 
BRANCH  23  24
ATOM     24  C   UNL     1     117.355 104.258 113.411  1.00  0.00    -0.000 C 
BRANCH  24  25
ATOM     25  C   UNL     1     118.724 104.939 113.553  1.00  0.00    -0.003 C 
ATOM     26  C   UNL     1     118.832 106.154 112.635  1.00  0.00     0.004 C 
ENDBRANCH  24  25
ENDBRANCH  23  24
ENDBRANCH  22  23
ENDBRANCH  21  22
ENDBRANCH  20  21
ENDBRANCH  19  20
ENDBRANCH  18  19
ENDBRANCH  17  18
ENDBRANCH  16  17
ENDBRANCH  15  16
ENDBRANCH   1  15
TORSDOF 22
ENDMDL
