MODEL 1
REMARK VINA RESULT:    -5.668      0.000      0.000
REMARK INTER + INTRA:          -5.668
REMARK INTER:                  -5.668
REMARK INTRA:                   0.000
REMARK UNBOUND:                 0.000
REMARK SMILES C=C1CCC[C@@]2(C)CC(=O)C(=C(C)C)C[C@H]12
REMARK SMILES IDX 13 1 12 2 11 3 15 4 16 5 2 6 1 7 3 8 4 9 5 10 6 11 8 12 9 13
REMARK SMILES IDX 10 14 7 15 14 16
REMARK H PARENT
REMARK Flexibility Score: inf
ROOT
ATOM      1  C   UNL     1      15.067  30.280  29.882  1.00  0.00     0.039 C 
ATOM      2  C   UNL     1      16.215  31.261  29.829  1.00  0.00    -0.070 C 
ATOM      3  C   UNL     1      17.452  30.867  29.410  1.00  0.00    -0.006 C 
ATOM      4  C   UNL     1      17.693  29.409  29.031  1.00  0.00     0.047 C 
ATOM      5  C   UNL     1      19.162  29.104  28.655  1.00  0.00     0.025 C 
ATOM      6  C   UNL     1      19.427  27.612  28.467  1.00  0.00    -0.073 C 
ATOM      7  C   UNL     1      18.673  26.897  27.615  1.00  0.00     0.008 C 
ATOM      8  C   UNL     1      20.562  26.909  29.190  1.00  0.00     0.031 C 
ATOM      9  C   UNL     1      21.779  27.802  29.528  1.00  0.00     0.005 C 
ATOM     10  C   UNL     1      21.573  29.311  29.316  1.00  0.00     0.008 C 
ATOM     11  C   UNL     1      20.140  29.778  29.659  1.00  0.00    -0.018 C 
ATOM     12  C   UNL     1      20.041  31.313  29.459  1.00  0.00     0.088 C 
ATOM     13  C   UNL     1      18.615  31.808  29.361  1.00  0.00     0.159 C 
ATOM     14  O   UNL     1      18.441  33.040  29.159  1.00  0.00    -0.295 OA
ATOM     15  C   UNL     1      19.823  29.451  31.149  1.00  0.00     0.012 C 
ATOM     16  C   UNL     1      15.950  32.658  30.334  1.00  0.00     0.039 C 
ENDROOT
TORSDOF 0
ENDMDL
MODEL 2
REMARK VINA RESULT:    -5.657      2.589      5.139
REMARK INTER + INTRA:          -5.657
REMARK INTER:                  -5.657
REMARK INTRA:                   0.000
REMARK UNBOUND:                 0.000
REMARK SMILES C=C1CCC[C@@]2(C)CC(=O)C(=C(C)C)C[C@H]12
REMARK SMILES IDX 13 1 12 2 11 3 15 4 16 5 2 6 1 7 3 8 4 9 5 10 6 11 8 12 9 13
REMARK SMILES IDX 10 14 7 15 14 16
REMARK H PARENT
REMARK Flexibility Score: inf
ROOT
ATOM      1  C   UNL     1      24.303  28.095  27.726  1.00  0.00     0.039 C 
ATOM      2  C   UNL     1      23.777  28.670  29.022  1.00  0.00    -0.070 C 
ATOM      3  C   UNL     1      22.512  28.387  29.448  1.00  0.00    -0.006 C 
ATOM      4  C   UNL     1      21.602  27.514  28.590  1.00  0.00     0.047 C 
ATOM      5  C   UNL     1      20.177  27.351  29.169  1.00  0.00     0.025 C 
ATOM      6  C   UNL     1      19.225  26.642  28.209  1.00  0.00    -0.073 C 
ATOM      7  C   UNL     1      19.555  25.443  27.700  1.00  0.00     0.008 C 
ATOM      8  C   UNL     1      17.878  27.237  27.842  1.00  0.00     0.031 C 
ATOM      9  C   UNL     1      17.240  28.140  28.924  1.00  0.00     0.005 C 
ATOM     10  C   UNL     1      18.157  28.510  30.102  1.00  0.00     0.008 C 
ATOM     11  C   UNL     1      19.630  28.715  29.678  1.00  0.00    -0.018 C 
ATOM     12  C   UNL     1      20.465  29.128  30.919  1.00  0.00     0.088 C 
ATOM     13  C   UNL     1      21.954  28.952  30.717  1.00  0.00     0.159 C 
ATOM     14  O   UNL     1      22.708  29.227  31.688  1.00  0.00    -0.295 OA
ATOM     15  C   UNL     1      19.718  29.855  28.619  1.00  0.00     0.012 C 
ATOM     16  C   UNL     1      24.676  29.625  29.766  1.00  0.00     0.039 C 
ENDROOT
TORSDOF 0
ENDMDL
MODEL 3
REMARK VINA RESULT:    -5.577      1.840      5.355
REMARK INTER + INTRA:          -5.577
REMARK INTER:                  -5.577
REMARK INTRA:                   0.000
REMARK UNBOUND:                 0.000
REMARK SMILES C=C1CCC[C@@]2(C)CC(=O)C(=C(C)C)C[C@H]12
REMARK SMILES IDX 13 1 12 2 11 3 15 4 16 5 2 6 1 7 3 8 4 9 5 10 6 11 8 12 9 13
REMARK SMILES IDX 10 14 7 15 14 16
REMARK H PARENT
REMARK Flexibility Score: inf
ROOT
ATOM      1  C   UNL     1      22.069  29.630  29.661  1.00  0.00     0.039 C 
ATOM      2  C   UNL     1      20.963  28.685  29.252  1.00  0.00    -0.070 C 
ATOM      3  C   UNL     1      19.691  29.142  29.057  1.00  0.00    -0.006 C 
ATOM      4  C   UNL     1      19.372  30.614  29.295  1.00  0.00     0.047 C 
ATOM      5  C   UNL     1      17.875  30.959  29.110  1.00  0.00     0.025 C 
ATOM      6  C   UNL     1      17.539  32.385  29.538  1.00  0.00    -0.073 C 
ATOM      7  C   UNL     1      18.222  33.421  29.020  1.00  0.00     0.008 C 
ATOM      8  C   UNL     1      16.410  32.678  30.510  1.00  0.00     0.031 C 
ATOM      9  C   UNL     1      15.249  31.656  30.497  1.00  0.00     0.005 C 
ATOM     10  C   UNL     1      15.508  30.369  29.696  1.00  0.00     0.008 C 
ATOM     11  C   UNL     1      16.975  29.887  29.788  1.00  0.00    -0.018 C 
ATOM     12  C   UNL     1      17.129  28.565  28.992  1.00  0.00     0.088 C 
ATOM     13  C   UNL     1      18.568  28.231  28.668  1.00  0.00     0.159 C 
ATOM     14  O   UNL     1      18.785  27.193  27.989  1.00  0.00    -0.295 OA
ATOM     15  C   UNL     1      17.346  29.615  31.277  1.00  0.00     0.012 C 
ATOM     16  C   UNL     1      21.309  27.220  29.153  1.00  0.00     0.039 C 
ENDROOT
TORSDOF 0
ENDMDL
MODEL 4
REMARK VINA RESULT:    -5.491      3.321      4.736
REMARK INTER + INTRA:          -5.491
REMARK INTER:                  -5.491
REMARK INTRA:                   0.000
REMARK UNBOUND:                 0.000
REMARK SMILES C=C1CCC[C@@]2(C)CC(=O)C(=C(C)C)C[C@H]12
REMARK SMILES IDX 13 1 12 2 11 3 15 4 16 5 2 6 1 7 3 8 4 9 5 10 6 11 8 12 9 13
REMARK SMILES IDX 10 14 7 15 14 16
REMARK H PARENT
REMARK Flexibility Score: inf
ROOT
ATOM      1  C   UNL     1      20.334  29.698  31.915  1.00  0.00     0.039 C 
ATOM      2  C   UNL     1      21.605  29.298  31.201  1.00  0.00    -0.070 C 
ATOM      3  C   UNL     1      21.559  28.568  30.049  1.00  0.00    -0.006 C 
ATOM      4  C   UNL     1      20.213  28.114  29.495  1.00  0.00     0.047 C 
ATOM      5  C   UNL     1      20.331  27.231  28.230  1.00  0.00     0.025 C 
ATOM      6  C   UNL     1      18.996  26.628  27.802  1.00  0.00    -0.073 C 
ATOM      7  C   UNL     1      17.934  27.425  27.596  1.00  0.00     0.008 C 
ATOM      8  C   UNL     1      18.840  25.138  27.554  1.00  0.00     0.031 C 
ATOM      9  C   UNL     1      20.122  24.412  27.085  1.00  0.00     0.005 C 
ATOM     10  C   UNL     1      21.419  25.233  27.174  1.00  0.00     0.008 C 
ATOM     11  C   UNL     1      21.456  26.170  28.403  1.00  0.00    -0.018 C 
ATOM     12  C   UNL     1      22.814  26.920  28.433  1.00  0.00     0.088 C 
ATOM     13  C   UNL     1      22.798  28.140  29.326  1.00  0.00     0.159 C 
ATOM     14  O   UNL     1      23.850  28.833  29.381  1.00  0.00    -0.295 OA
ATOM     15  C   UNL     1      21.323  25.331  29.709  1.00  0.00     0.012 C 
ATOM     16  C   UNL     1      22.911  29.666  31.861  1.00  0.00     0.039 C 
ENDROOT
TORSDOF 0
ENDMDL
MODEL 5
REMARK VINA RESULT:    -5.438      1.676      3.230
REMARK INTER + INTRA:          -5.438
REMARK INTER:                  -5.438
REMARK INTRA:                   0.000
REMARK UNBOUND:                 0.000
REMARK SMILES C=C1CCC[C@@]2(C)CC(=O)C(=C(C)C)C[C@H]12
REMARK SMILES IDX 13 1 12 2 11 3 15 4 16 5 2 6 1 7 3 8 4 9 5 10 6 11 8 12 9 13
REMARK SMILES IDX 10 14 7 15 14 16
REMARK H PARENT
REMARK Flexibility Score: inf
ROOT
ATOM      1  C   UNL     1      18.545  32.415  29.390  1.00  0.00     0.039 C 
ATOM      2  C   UNL     1      17.450  31.378  29.497  1.00  0.00    -0.070 C 
ATOM      3  C   UNL     1      17.752  30.052  29.599  1.00  0.00    -0.006 C 
ATOM      4  C   UNL     1      19.209  29.603  29.563  1.00  0.00     0.047 C 
ATOM      5  C   UNL     1      19.384  28.067  29.610  1.00  0.00     0.025 C 
ATOM      6  C   UNL     1      20.827  27.627  29.378  1.00  0.00    -0.073 C 
ATOM      7  C   UNL     1      21.814  28.133  30.139  1.00  0.00     0.008 C 
ATOM      8  C   UNL     1      21.184  26.588  28.331  1.00  0.00     0.031 C 
ATOM      9  C   UNL     1      20.077  25.550  28.031  1.00  0.00     0.005 C 
ATOM     10  C   UNL     1      18.698  25.857  28.639  1.00  0.00     0.008 C 
ATOM     11  C   UNL     1      18.371  27.368  28.658  1.00  0.00    -0.018 C 
ATOM     12  C   UNL     1      16.949  27.575  29.245  1.00  0.00     0.088 C 
ATOM     13  C   UNL     1      16.693  28.998  29.690  1.00  0.00     0.159 C 
ATOM     14  O   UNL     1      15.575  29.248  30.215  1.00  0.00    -0.295 OA
ATOM     15  C   UNL     1      18.394  27.929  27.205  1.00  0.00     0.012 C 
ATOM     16  C   UNL     1      16.026  31.868  29.401  1.00  0.00     0.039 C 
ENDROOT
TORSDOF 0
ENDMDL
MODEL 6
REMARK VINA RESULT:    -5.296      1.243      1.653
REMARK INTER + INTRA:          -5.296
REMARK INTER:                  -5.296
REMARK INTRA:                   0.000
REMARK UNBOUND:                 0.000
REMARK SMILES C=C1CCC[C@@]2(C)CC(=O)C(=C(C)C)C[C@H]12
REMARK SMILES IDX 13 1 12 2 11 3 15 4 16 5 2 6 1 7 3 8 4 9 5 10 6 11 8 12 9 13
REMARK SMILES IDX 10 14 7 15 14 16
REMARK H PARENT
REMARK Flexibility Score: inf
ROOT
ATOM      1  C   UNL     1      15.813  30.446  29.531  1.00  0.00     0.039 C 
ATOM      2  C   UNL     1      16.697  31.671  29.582  1.00  0.00    -0.070 C 
ATOM      3  C   UNL     1      18.054  31.557  29.489  1.00  0.00    -0.006 C 
ATOM      4  C   UNL     1      18.691  30.175  29.376  1.00  0.00     0.047 C 
ATOM      5  C   UNL     1      20.237  30.208  29.360  1.00  0.00     0.025 C 
ATOM      6  C   UNL     1      20.859  28.816  29.442  1.00  0.00    -0.073 C 
ATOM      7  C   UNL     1      20.502  27.867  28.559  1.00  0.00     0.008 C 
ATOM      8  C   UNL     1      21.918  28.478  30.476  1.00  0.00     0.031 C 
ATOM      9  C   UNL     1      22.795  29.668  30.932  1.00  0.00     0.005 C 
ATOM     10  C   UNL     1      22.319  31.056  30.473  1.00  0.00     0.008 C 
ATOM     11  C   UNL     1      20.779  31.185  30.442  1.00  0.00    -0.018 C 
ATOM     12  C   UNL     1      20.396  32.626  30.013  1.00  0.00     0.088 C 
ATOM     13  C   UNL     1      18.960  32.747  29.553  1.00  0.00     0.159 C 
ATOM     14  O   UNL     1      18.573  33.876  29.149  1.00  0.00    -0.295 OA
ATOM     15  C   UNL     1      20.200  30.921  31.864  1.00  0.00     0.012 C 
ATOM     16  C   UNL     1      16.022  32.999  29.821  1.00  0.00     0.039 C 
ENDROOT
TORSDOF 0
ENDMDL
MODEL 7
REMARK VINA RESULT:    -5.106      3.066      5.073
REMARK INTER + INTRA:          -5.106
REMARK INTER:                  -5.106
REMARK INTRA:                   0.000
REMARK UNBOUND:                 0.000
REMARK SMILES C=C1CCC[C@@]2(C)CC(=O)C(=C(C)C)C[C@H]12
REMARK SMILES IDX 13 1 12 2 11 3 15 4 16 5 2 6 1 7 3 8 4 9 5 10 6 11 8 12 9 13
REMARK SMILES IDX 10 14 7 15 14 16
REMARK H PARENT
REMARK Flexibility Score: inf
ROOT
ATOM      1  C   UNL     1      21.167  24.973  28.367  1.00  0.00     0.039 C 
ATOM      2  C   UNL     1      20.395  26.270  28.452  1.00  0.00    -0.070 C 
ATOM      3  C   UNL     1      21.044  27.459  28.618  1.00  0.00    -0.006 C 
ATOM      4  C   UNL     1      22.562  27.479  28.762  1.00  0.00     0.047 C 
ATOM      5  C   UNL     1      23.139  28.890  29.023  1.00  0.00     0.025 C 
ATOM      6  C   UNL     1      24.629  28.868  29.357  1.00  0.00    -0.073 C 
ATOM      7  C   UNL     1      25.495  28.264  28.525  1.00  0.00     0.008 C 
ATOM      8  C   UNL     1      25.176  29.556  30.595  1.00  0.00     0.031 C 
ATOM      9  C   UNL     1      24.366  30.781  31.079  1.00  0.00     0.005 C 
ATOM     10  C   UNL     1      22.999  30.981  30.403  1.00  0.00     0.008 C 
ATOM     11  C   UNL     1      22.285  29.648  30.081  1.00  0.00    -0.018 C 
ATOM     12  C   UNL     1      20.903  29.949  29.445  1.00  0.00     0.088 C 
ATOM     13  C   UNL     1      20.309  28.760  28.723  1.00  0.00     0.159 C 
ATOM     14  O   UNL     1      19.203  28.926  28.144  1.00  0.00    -0.295 OA
ATOM     15  C   UNL     1      22.063  28.840  31.394  1.00  0.00     0.012 C 
ATOM     16  C   UNL     1      18.889  26.178  28.429  1.00  0.00     0.039 C 
ENDROOT
TORSDOF 0
ENDMDL
MODEL 8
REMARK VINA RESULT:    -5.079      5.954      8.387
REMARK INTER + INTRA:          -5.079
REMARK INTER:                  -5.079
REMARK INTRA:                   0.000
REMARK UNBOUND:                 0.000
REMARK SMILES C=C1CCC[C@@]2(C)CC(=O)C(=C(C)C)C[C@H]12
REMARK SMILES IDX 13 1 12 2 11 3 15 4 16 5 2 6 1 7 3 8 4 9 5 10 6 11 8 12 9 13
REMARK SMILES IDX 10 14 7 15 14 16
REMARK H PARENT
REMARK Flexibility Score: inf
ROOT
ATOM      1  C   UNL     1      24.760  27.764  28.827  1.00  0.00     0.039 C 
ATOM      2  C   UNL     1      24.231  28.971  29.567  1.00  0.00    -0.070 C 
ATOM      3  C   UNL     1      25.030  30.052  29.801  1.00  0.00    -0.006 C 
ATOM      4  C   UNL     1      26.486  30.028  29.349  1.00  0.00     0.047 C 
ATOM      5  C   UNL     1      27.280  31.292  29.756  1.00  0.00     0.025 C 
ATOM      6  C   UNL     1      28.775  31.170  29.469  1.00  0.00    -0.073 C 
ATOM      7  C   UNL     1      29.198  30.852  28.234  1.00  0.00     0.008 C 
ATOM      8  C   UNL     1      29.815  31.445  30.541  1.00  0.00     0.031 C 
ATOM      9  C   UNL     1      29.389  32.461  31.626  1.00  0.00     0.005 C 
ATOM     10  C   UNL     1      27.903  32.857  31.615  1.00  0.00     0.008 C 
ATOM     11  C   UNL     1      26.969  31.687  31.228  1.00  0.00    -0.018 C 
ATOM     12  C   UNL     1      25.496  32.167  31.289  1.00  0.00     0.088 C 
ATOM     13  C   UNL     1      24.543  31.257  30.546  1.00  0.00     0.159 C 
ATOM     14  O   UNL     1      23.329  31.591  30.510  1.00  0.00    -0.295 OA
ATOM     15  C   UNL     1      27.151  30.514  32.238  1.00  0.00     0.012 C 
ATOM     16  C   UNL     1      22.822  28.889  30.101  1.00  0.00     0.039 C 
ENDROOT
TORSDOF 0
ENDMDL
MODEL 9
REMARK VINA RESULT:    -5.011      2.362      4.827
REMARK INTER + INTRA:          -5.011
REMARK INTER:                  -5.011
REMARK INTRA:                   0.000
REMARK UNBOUND:                 0.000
REMARK SMILES C=C1CCC[C@@]2(C)CC(=O)C(=C(C)C)C[C@H]12
REMARK SMILES IDX 13 1 12 2 11 3 15 4 16 5 2 6 1 7 3 8 4 9 5 10 6 11 8 12 9 13
REMARK SMILES IDX 10 14 7 15 14 16
REMARK H PARENT
REMARK Flexibility Score: inf
ROOT
ATOM      1  C   UNL     1      21.059  25.120  29.001  1.00  0.00     0.039 C 
ATOM      2  C   UNL     1      20.012  26.065  28.457  1.00  0.00    -0.070 C 
ATOM      3  C   UNL     1      20.161  27.416  28.576  1.00  0.00    -0.006 C 
ATOM      4  C   UNL     1      21.377  27.981  29.303  1.00  0.00     0.047 C 
ATOM      5  C   UNL     1      21.362  29.523  29.424  1.00  0.00     0.025 C 
ATOM      6  C   UNL     1      22.479  30.058  30.318  1.00  0.00    -0.073 C 
ATOM      7  C   UNL     1      23.756  29.720  30.072  1.00  0.00     0.008 C 
ATOM      8  C   UNL     1      22.191  31.009  31.465  1.00  0.00     0.031 C 
ATOM      9  C   UNL     1      20.950  31.912  31.276  1.00  0.00     0.005 C 
ATOM     10  C   UNL     1      20.045  31.553  30.086  1.00  0.00     0.008 C 
ATOM     11  C   UNL     1      19.951  30.030  29.838  1.00  0.00    -0.018 C 
ATOM     12  C   UNL     1      18.986  29.764  28.652  1.00  0.00     0.088 C 
ATOM     13  C   UNL     1      19.136  28.379  28.063  1.00  0.00     0.159 C 
ATOM     14  O   UNL     1      18.417  28.090  27.070  1.00  0.00    -0.295 OA
ATOM     15  C   UNL     1      19.384  29.325  31.106  1.00  0.00     0.012 C 
ATOM     16  C   UNL     1      18.771  25.448  27.860  1.00  0.00     0.039 C 
ENDROOT
TORSDOF 0
ENDMDL
