MODEL 1
REMARK VINA RESULT:    -3.305      0.000      0.000
REMARK INTER + INTRA:          -4.125
REMARK INTER:                  -4.078
REMARK INTRA:                  -0.046
REMARK UNBOUND:                -0.046
REMARK SMILES CCCCCC(=O)[O-]
REMARK SMILES IDX 4 1 5 2 6 3 7 4 8 5 3 6 2 7 1 8
REMARK H PARENT
REMARK Flexibility Score: inf
ROOT
ATOM      1  C   UNL     1      14.135  16.798  16.488  1.00  0.00     0.006 C 
ENDROOT
BRANCH   1   2
ATOM      2  C   UNL     1      15.387  16.179  15.860  1.00  0.00     0.053 C 
BRANCH   2   3
ATOM      3  C   UNL     1      16.416  17.234  15.595  1.00  0.00     0.041 C 
ATOM      4  O   UNL     1      16.758  17.504  14.414  1.00  0.00    -0.550 OA
ATOM      5  O   UNL     1      17.033  17.885  16.656  1.00  0.00    -0.550 OA
ENDBRANCH   2   3
ENDBRANCH   1   2
BRANCH   1   6
ATOM      6  C   UNL     1      12.861  16.205  15.869  1.00  0.00     0.000 C 
BRANCH   6   7
ATOM      7  C   UNL     1      11.961  15.521  16.910  1.00  0.00    -0.003 C 
ATOM      8  C   UNL     1      10.480  15.849  16.720  1.00  0.00     0.004 C 
ENDBRANCH   6   7
ENDBRANCH   1   6
TORSDOF 4
ENDMDL
MODEL 2
REMARK VINA RESULT:    -3.213      3.303      4.864
REMARK INTER + INTRA:          -4.011
REMARK INTER:                  -3.901
REMARK INTRA:                  -0.110
REMARK UNBOUND:                -0.046
REMARK SMILES CCCCCC(=O)[O-]
REMARK SMILES IDX 4 1 5 2 6 3 7 4 8 5 3 6 2 7 1 8
REMARK H PARENT
REMARK Flexibility Score: inf
ROOT
ATOM      1  C   UNL     1      13.772  16.225  17.212  1.00  0.00     0.006 C 
ENDROOT
BRANCH   1   2
ATOM      2  C   UNL     1      12.652  16.186  16.169  1.00  0.00     0.053 C 
BRANCH   2   3
ATOM      3  C   UNL     1      11.376  16.709  16.751  1.00  0.00     0.041 C 
ATOM      4  O   UNL     1      11.317  17.887  17.194  1.00  0.00    -0.550 OA
ATOM      5  O   UNL     1      10.265  15.882  16.847  1.00  0.00    -0.550 OA
ENDBRANCH   2   3
ENDBRANCH   1   2
BRANCH   1   6
ATOM      6  C   UNL     1      14.905  17.161  16.767  1.00  0.00     0.000 C 
BRANCH   6   7
ATOM      7  C   UNL     1      15.877  16.487  15.785  1.00  0.00    -0.003 C 
ATOM      8  C   UNL     1      16.538  17.482  14.831  1.00  0.00     0.004 C 
ENDBRANCH   6   7
ENDBRANCH   1   6
TORSDOF 4
ENDMDL
MODEL 3
REMARK VINA RESULT:    -3.206      1.772      2.005
REMARK INTER + INTRA:          -4.002
REMARK INTER:                  -3.739
REMARK INTRA:                  -0.264
REMARK UNBOUND:                -0.046
REMARK SMILES CCCCCC(=O)[O-]
REMARK SMILES IDX 4 1 5 2 6 3 7 4 8 5 3 6 2 7 1 8
REMARK H PARENT
REMARK Flexibility Score: inf
ROOT
ATOM      1  C   UNL     1      12.884  18.193  15.571  1.00  0.00     0.006 C 
ENDROOT
BRANCH   1   2
ATOM      2  C   UNL     1      14.398  17.999  15.449  1.00  0.00     0.053 C 
BRANCH   2   3
ATOM      3  C   UNL     1      14.857  16.886  16.338  1.00  0.00     0.041 C 
ATOM      4  O   UNL     1      15.524  15.929  15.863  1.00  0.00    -0.550 OA
ATOM      5  O   UNL     1      14.507  16.881  17.682  1.00  0.00    -0.550 OA
ENDBRANCH   2   3
ENDBRANCH   1   2
BRANCH   1   6
ATOM      6  C   UNL     1      12.129  16.965  15.042  1.00  0.00     0.000 C 
BRANCH   6   7
ATOM      7  C   UNL     1      11.011  16.505  15.991  1.00  0.00    -0.003 C 
ATOM      8  C   UNL     1      11.418  15.307  16.848  1.00  0.00     0.004 C 
ENDBRANCH   6   7
ENDBRANCH   1   6
TORSDOF 4
ENDMDL
MODEL 4
REMARK VINA RESULT:    -3.198      2.007      3.041
REMARK INTER + INTRA:          -3.992
REMARK INTER:                  -3.718
REMARK INTRA:                  -0.274
REMARK UNBOUND:                -0.046
REMARK SMILES CCCCCC(=O)[O-]
REMARK SMILES IDX 4 1 5 2 6 3 7 4 8 5 3 6 2 7 1 8
REMARK H PARENT
REMARK Flexibility Score: inf
ROOT
ATOM      1  C   UNL     1      11.948  15.454  16.585  1.00  0.00     0.006 C 
ENDROOT
BRANCH   1   2
ATOM      2  C   UNL     1      12.980  15.702  17.688  1.00  0.00     0.053 C 
BRANCH   2   3
ATOM      3  C   UNL     1      14.084  16.578  17.184  1.00  0.00     0.041 C 
ATOM      4  O   UNL     1      14.342  17.668  17.760  1.00  0.00    -0.550 OA
ATOM      5  O   UNL     1      14.798  16.214  16.050  1.00  0.00    -0.550 OA
ENDBRANCH   2   3
ENDBRANCH   1   2
BRANCH   1   6
ATOM      6  C   UNL     1      11.125  16.720  16.308  1.00  0.00     0.000 C 
BRANCH   6   7
ATOM      7  C   UNL     1      11.191  17.158  14.837  1.00  0.00    -0.003 C 
ATOM      8  C   UNL     1      12.152  18.325  14.609  1.00  0.00     0.004 C 
ENDBRANCH   6   7
ENDBRANCH   1   6
TORSDOF 4
ENDMDL
MODEL 5
REMARK VINA RESULT:    -3.121      2.169      2.693
REMARK INTER + INTRA:          -3.898
REMARK INTER:                  -3.687
REMARK INTRA:                  -0.210
REMARK UNBOUND:                -0.046
REMARK SMILES CCCCCC(=O)[O-]
REMARK SMILES IDX 4 1 5 2 6 3 7 4 8 5 3 6 2 7 1 8
REMARK H PARENT
REMARK Flexibility Score: inf
ROOT
ATOM      1  C   UNL     1      13.338  16.272  16.527  1.00  0.00     0.006 C 
ENDROOT
BRANCH   1   2
ATOM      2  C   UNL     1      14.185  16.935  17.617  1.00  0.00     0.053 C 
BRANCH   2   3
ATOM      3  C   UNL     1      14.011  18.421  17.583  1.00  0.00     0.041 C 
ATOM      4  O   UNL     1      12.857  18.924  17.526  1.00  0.00    -0.550 OA
ATOM      5  O   UNL     1      15.124  19.251  17.566  1.00  0.00    -0.550 OA
ENDBRANCH   2   3
ENDBRANCH   1   2
BRANCH   1   6
ATOM      6  C   UNL     1      12.139  15.531  17.138  1.00  0.00     0.000 C 
BRANCH   6   7
ATOM      7  C   UNL     1      10.812  15.890  16.452  1.00  0.00    -0.003 C 
ATOM      8  C   UNL     1      10.990  16.872  15.295  1.00  0.00     0.004 C 
ENDBRANCH   6   7
ENDBRANCH   1   6
TORSDOF 4
ENDMDL
MODEL 6
REMARK VINA RESULT:    -3.109      2.593      3.043
REMARK INTER + INTRA:          -3.882
REMARK INTER:                  -3.609
REMARK INTRA:                  -0.274
REMARK UNBOUND:                -0.046
REMARK SMILES CCCCCC(=O)[O-]
REMARK SMILES IDX 4 1 5 2 6 3 7 4 8 5 3 6 2 7 1 8
REMARK H PARENT
REMARK Flexibility Score: inf
ROOT
ATOM      1  C   UNL     1      13.901  16.313  16.133  1.00  0.00     0.006 C 
ENDROOT
BRANCH   1   2
ATOM      2  C   UNL     1      14.194  17.801  15.927  1.00  0.00     0.053 C 
BRANCH   2   3
ATOM      3  C   UNL     1      12.939  18.539  15.579  1.00  0.00     0.041 C 
ATOM      4  O   UNL     1      12.564  19.517  16.278  1.00  0.00    -0.550 OA
ATOM      5  O   UNL     1      12.158  18.117  14.511  1.00  0.00    -0.550 OA
ENDBRANCH   2   3
ENDBRANCH   1   2
BRANCH   1   6
ATOM      6  C   UNL     1      12.928  16.102  17.303  1.00  0.00     0.000 C 
BRANCH   6   7
ATOM      7  C   UNL     1      11.706  15.257  16.912  1.00  0.00    -0.003 C 
ATOM      8  C   UNL     1      10.409  16.066  16.890  1.00  0.00     0.004 C 
ENDBRANCH   6   7
ENDBRANCH   1   6
TORSDOF 4
ENDMDL
MODEL 7
REMARK VINA RESULT:    -3.100      3.980      4.731
REMARK INTER + INTRA:          -3.872
REMARK INTER:                  -3.777
REMARK INTRA:                  -0.095
REMARK UNBOUND:                -0.046
REMARK SMILES CCCCCC(=O)[O-]
REMARK SMILES IDX 4 1 5 2 6 3 7 4 8 5 3 6 2 7 1 8
REMARK H PARENT
REMARK Flexibility Score: inf
ROOT
ATOM      1  C   UNL     1      11.095  17.012  14.796  1.00  0.00     0.006 C 
ENDROOT
BRANCH   1   2
ATOM      2  C   UNL     1      12.361  16.634  15.570  1.00  0.00     0.053 C 
BRANCH   2   3
ATOM      3  C   UNL     1      12.016  15.794  16.759  1.00  0.00     0.041 C 
ATOM      4  O   UNL     1      12.881  15.563  17.645  1.00  0.00    -0.550 OA
ATOM      5  O   UNL     1      10.754  15.224  16.866  1.00  0.00    -0.550 OA
ENDBRANCH   2   3
ENDBRANCH   1   2
BRANCH   1   6
ATOM      6  C   UNL     1      11.314  18.293  13.977  1.00  0.00     0.000 C 
BRANCH   6   7
ATOM      7  C   UNL     1      10.593  18.258  12.621  1.00  0.00    -0.003 C 
ATOM      8  C   UNL     1       9.991  16.888  12.305  1.00  0.00     0.004 C 
ENDBRANCH   6   7
ENDBRANCH   1   6
TORSDOF 4
ENDMDL
MODEL 8
REMARK VINA RESULT:    -3.099      3.649      4.152
REMARK INTER + INTRA:          -3.870
REMARK INTER:                  -3.635
REMARK INTRA:                  -0.235
REMARK UNBOUND:                -0.046
REMARK SMILES CCCCCC(=O)[O-]
REMARK SMILES IDX 4 1 5 2 6 3 7 4 8 5 3 6 2 7 1 8
REMARK H PARENT
REMARK Flexibility Score: inf
ROOT
ATOM      1  C   UNL     1      12.024  18.033  16.596  1.00  0.00     0.006 C 
ENDROOT
BRANCH   1   2
ATOM      2  C   UNL     1      12.416  18.449  15.175  1.00  0.00     0.053 C 
BRANCH   2   3
ATOM      3  C   UNL     1      11.253  18.298  14.246  1.00  0.00     0.041 C 
ATOM      4  O   UNL     1      11.067  17.214  13.633  1.00  0.00    -0.550 OA
ATOM      5  O   UNL     1      10.400  19.371  14.019  1.00  0.00    -0.550 OA
ENDBRANCH   2   3
ENDBRANCH   1   2
BRANCH   1   6
ATOM      6  C   UNL     1      12.739  16.738  17.006  1.00  0.00     0.000 C 
BRANCH   6   7
ATOM      7  C   UNL     1      11.858  15.493  16.825  1.00  0.00    -0.003 C 
ATOM      8  C   UNL     1      10.364  15.818  16.835  1.00  0.00     0.004 C 
ENDBRANCH   6   7
ENDBRANCH   1   6
TORSDOF 4
ENDMDL
MODEL 9
REMARK VINA RESULT:    -3.092      2.886      4.232
REMARK INTER + INTRA:          -3.861
REMARK INTER:                  -3.621
REMARK INTRA:                  -0.241
REMARK UNBOUND:                -0.046
REMARK SMILES CCCCCC(=O)[O-]
REMARK SMILES IDX 4 1 5 2 6 3 7 4 8 5 3 6 2 7 1 8
REMARK H PARENT
REMARK Flexibility Score: inf
ROOT
ATOM      1  C   UNL     1      12.108  15.609  16.413  1.00  0.00     0.006 C 
ENDROOT
BRANCH   1   2
ATOM      2  C   UNL     1      11.119  16.765  16.246  1.00  0.00     0.053 C 
BRANCH   2   3
ATOM      3  C   UNL     1      11.365  17.483  14.956  1.00  0.00     0.041 C 
ATOM      4  O   UNL     1      10.750  17.140  13.912  1.00  0.00    -0.550 OA
ATOM      5  O   UNL     1      12.309  18.500  14.895  1.00  0.00    -0.550 OA
ENDBRANCH   2   3
ENDBRANCH   1   2
BRANCH   1   6
ATOM      6  C   UNL     1      13.015  15.835  17.632  1.00  0.00     0.000 C 
BRANCH   6   7
ATOM      7  C   UNL     1      14.194  16.771  17.326  1.00  0.00    -0.003 C 
ATOM      8  C   UNL     1      14.963  16.364  16.069  1.00  0.00     0.004 C 
ENDBRANCH   6   7
ENDBRANCH   1   6
TORSDOF 4
ENDMDL
