MODEL 1
REMARK VINA RESULT:    -3.853      0.000      0.000
REMARK INTER + INTRA:          -8.179
REMARK INTER:                  -7.007
REMARK INTRA:                  -1.172
REMARK UNBOUND:                -1.172
REMARK SMILES CCCCCCCCCCCCCCCC(=O)[O-]
REMARK SMILES IDX 9 1 10 2 11 3 12 4 13 5 14 6 15 7 16 8 17 9 18 10 8 11 7 12
REMARK SMILES IDX 6 13 5 14 4 15 3 16 2 17 1 18
REMARK H PARENT
REMARK Flexibility Score: inf
ROOT
ATOM      1  C   UNL     1      -8.288  -9.039  -6.233  1.00  0.00     0.000 C 
ENDROOT
BRANCH   1   2
ATOM      2  C   UNL     1      -9.569  -9.658  -6.829  1.00  0.00     0.000 C 
BRANCH   2   3
ATOM      3  C   UNL     1     -10.758  -9.768  -5.856  1.00  0.00     0.000 C 
BRANCH   3   4
ATOM      4  C   UNL     1     -12.110  -9.474  -6.528  1.00  0.00     0.000 C 
BRANCH   4   5
ATOM      5  C   UNL     1     -12.107  -8.160  -7.332  1.00  0.00     0.000 C 
BRANCH   5   6
ATOM      6  C   UNL     1     -13.297  -7.223  -7.062  1.00  0.00     0.006 C 
BRANCH   6   7
ATOM      7  C   UNL     1     -14.462  -7.922  -6.350  1.00  0.00     0.053 C 
BRANCH   7   8
ATOM      8  C   UNL     1     -15.768  -7.495  -6.940  1.00  0.00     0.041 C 
ATOM      9  O   UNL     1     -15.855  -7.242  -8.172  1.00  0.00    -0.550 OA
ATOM     10  O   UNL     1     -16.879  -7.327  -6.124  1.00  0.00    -0.550 OA
ENDBRANCH   7   8
ENDBRANCH   6   7
ENDBRANCH   5   6
ENDBRANCH   4   5
ENDBRANCH   3   4
ENDBRANCH   2   3
ENDBRANCH   1   2
BRANCH   1  11
ATOM     11  C   UNL     1      -8.327  -7.510  -6.047  1.00  0.00     0.000 C 
BRANCH  11  12
ATOM     12  C   UNL     1      -7.165  -6.922  -5.221  1.00  0.00    -0.000 C 
BRANCH  12  13
ATOM     13  C   UNL     1      -5.961  -7.860  -5.021  1.00  0.00    -0.000 C 
BRANCH  13  14
ATOM     14  C   UNL     1      -4.683  -7.347  -5.705  1.00  0.00    -0.000 C 
BRANCH  14  15
ATOM     15  C   UNL     1      -4.120  -8.334  -6.744  1.00  0.00    -0.000 C 
BRANCH  15  16
ATOM     16  C   UNL     1      -5.025  -8.590  -7.963  1.00  0.00    -0.000 C 
BRANCH  16  17
ATOM     17  C   UNL     1      -5.109 -10.074  -8.348  1.00  0.00    -0.003 C 
ATOM     18  C   UNL     1      -3.955 -10.470  -9.265  1.00  0.00     0.004 C 
ENDBRANCH  16  17
ENDBRANCH  15  16
ENDBRANCH  14  15
ENDBRANCH  13  14
ENDBRANCH  12  13
ENDBRANCH  11  12
ENDBRANCH   1  11
TORSDOF 14
ENDMDL
MODEL 2
REMARK VINA RESULT:    -3.704      2.102      4.004
REMARK INTER + INTRA:          -7.907
REMARK INTER:                  -5.966
REMARK INTRA:                  -1.941
REMARK UNBOUND:                -1.172
REMARK SMILES CCCCCCCCCCCCCCCC(=O)[O-]
REMARK SMILES IDX 9 1 10 2 11 3 12 4 13 5 14 6 15 7 16 8 17 9 18 10 8 11 7 12
REMARK SMILES IDX 6 13 5 14 4 15 3 16 2 17 1 18
REMARK H PARENT
REMARK Flexibility Score: inf
ROOT
ATOM      1  C   UNL     1      -7.513 -10.659  -7.070  1.00  0.00     0.000 C 
ENDROOT
BRANCH   1   2
ATOM      2  C   UNL     1      -7.272 -10.550  -5.550  1.00  0.00     0.000 C 
BRANCH   2   3
ATOM      3  C   UNL     1      -7.073  -9.118  -5.019  1.00  0.00     0.000 C 
BRANCH   3   4
ATOM      4  C   UNL     1      -7.441  -8.040  -6.051  1.00  0.00     0.000 C 
BRANCH   4   5
ATOM      5  C   UNL     1      -8.584  -7.123  -5.579  1.00  0.00     0.000 C 
BRANCH   5   6
ATOM      6  C   UNL     1      -9.977  -7.776  -5.546  1.00  0.00     0.006 C 
BRANCH   6   7
ATOM      7  C   UNL     1     -10.370  -8.422  -6.880  1.00  0.00     0.053 C 
BRANCH   7   8
ATOM      8  C   UNL     1     -11.843  -8.676  -6.925  1.00  0.00     0.041 C 
ATOM      9  O   UNL     1     -12.640  -7.736  -7.188  1.00  0.00    -0.550 OA
ATOM     10  O   UNL     1     -12.342  -9.938  -6.629  1.00  0.00    -0.550 OA
ENDBRANCH   7   8
ENDBRANCH   6   7
ENDBRANCH   5   6
ENDBRANCH   4   5
ENDBRANCH   3   4
ENDBRANCH   2   3
ENDBRANCH   1   2
BRANCH   1  11
ATOM     11  C   UNL     1      -6.279 -11.064  -7.899  1.00  0.00     0.000 C 
BRANCH  11  12
ATOM     12  C   UNL     1      -5.310  -9.912  -8.234  1.00  0.00    -0.000 C 
BRANCH  12  13
ATOM     13  C   UNL     1      -3.836 -10.323  -8.405  1.00  0.00    -0.000 C 
BRANCH  13  14
ATOM     14  C   UNL     1      -3.234 -10.933  -7.128  1.00  0.00    -0.000 C 
BRANCH  14  15
ATOM     15  C   UNL     1      -3.548 -10.112  -5.863  1.00  0.00    -0.000 C 
BRANCH  15  16
ATOM     16  C   UNL     1      -2.776  -8.787  -5.734  1.00  0.00    -0.000 C 
BRANCH  16  17
ATOM     17  C   UNL     1      -3.689  -7.587  -5.443  1.00  0.00    -0.003 C 
ATOM     18  C   UNL     1      -3.586  -6.537  -6.546  1.00  0.00     0.004 C 
ENDBRANCH  16  17
ENDBRANCH  15  16
ENDBRANCH  14  15
ENDBRANCH  13  14
ENDBRANCH  12  13
ENDBRANCH  11  12
ENDBRANCH   1  11
TORSDOF 14
ENDMDL
MODEL 3
REMARK VINA RESULT:    -3.601      1.537      2.340
REMARK INTER + INTRA:          -7.720
REMARK INTER:                  -7.073
REMARK INTRA:                  -0.646
REMARK UNBOUND:                -1.172
REMARK SMILES CCCCCCCCCCCCCCCC(=O)[O-]
REMARK SMILES IDX 9 1 10 2 11 3 12 4 13 5 14 6 15 7 16 8 17 9 18 10 8 11 7 12
REMARK SMILES IDX 6 13 5 14 4 15 3 16 2 17 1 18
REMARK H PARENT
REMARK Flexibility Score: inf
ROOT
ATOM      1  C   UNL     1      -9.537  -8.192  -5.906  1.00  0.00     0.000 C 
ENDROOT
BRANCH   1   2
ATOM      2  C   UNL     1     -10.557  -8.354  -7.051  1.00  0.00     0.000 C 
BRANCH   2   3
ATOM      3  C   UNL     1     -11.971  -8.781  -6.614  1.00  0.00     0.000 C 
BRANCH   3   4
ATOM      4  C   UNL     1     -12.932  -7.591  -6.450  1.00  0.00     0.000 C 
BRANCH   4   5
ATOM      5  C   UNL     1     -13.708  -7.627  -5.120  1.00  0.00     0.000 C 
BRANCH   5   6
ATOM      6  C   UNL     1     -15.122  -8.230  -5.202  1.00  0.00     0.006 C 
BRANCH   6   7
ATOM      7  C   UNL     1     -16.120  -7.322  -5.931  1.00  0.00     0.053 C 
BRANCH   7   8
ATOM      8  C   UNL     1     -16.398  -7.847  -7.304  1.00  0.00     0.041 C 
ATOM      9  O   UNL     1     -16.743  -9.049  -7.465  1.00  0.00    -0.550 OA
ATOM     10  O   UNL     1     -16.229  -7.026  -8.412  1.00  0.00    -0.550 OA
ENDBRANCH   7   8
ENDBRANCH   6   7
ENDBRANCH   5   6
ENDBRANCH   4   5
ENDBRANCH   3   4
ENDBRANCH   2   3
ENDBRANCH   1   2
BRANCH   1  11
ATOM     11  C   UNL     1      -8.339  -9.161  -5.957  1.00  0.00     0.000 C 
BRANCH  11  12
ATOM     12  C   UNL     1      -8.472 -10.310  -6.977  1.00  0.00    -0.000 C 
BRANCH  12  13
ATOM     13  C   UNL     1      -7.160 -10.733  -7.664  1.00  0.00    -0.000 C 
BRANCH  13  14
ATOM     14  C   UNL     1      -5.944 -10.664  -6.725  1.00  0.00    -0.000 C 
BRANCH  14  15
ATOM     15  C   UNL     1      -4.956  -9.544  -7.104  1.00  0.00    -0.000 C 
BRANCH  15  16
ATOM     16  C   UNL     1      -4.736  -9.348  -8.615  1.00  0.00    -0.000 C 
BRANCH  16  17
ATOM     17  C   UNL     1      -4.223 -10.615  -9.316  1.00  0.00    -0.003 C 
ATOM     18  C   UNL     1      -2.851 -11.020  -8.784  1.00  0.00     0.004 C 
ENDBRANCH  16  17
ENDBRANCH  15  16
ENDBRANCH  14  15
ENDBRANCH  13  14
ENDBRANCH  12  13
ENDBRANCH  11  12
ENDBRANCH   1  11
TORSDOF 14
ENDMDL
MODEL 4
REMARK VINA RESULT:    -3.426      4.718      9.112
REMARK INTER + INTRA:          -7.402
REMARK INTER:                  -6.531
REMARK INTRA:                  -0.871
REMARK UNBOUND:                -1.172
REMARK SMILES CCCCCCCCCCCCCCCC(=O)[O-]
REMARK SMILES IDX 9 1 10 2 11 3 12 4 13 5 14 6 15 7 16 8 17 9 18 10 8 11 7 12
REMARK SMILES IDX 6 13 5 14 4 15 3 16 2 17 1 18
REMARK H PARENT
REMARK Flexibility Score: inf
ROOT
ATOM      1  C   UNL     1     -10.066  -8.597  -7.027  1.00  0.00     0.000 C 
ENDROOT
BRANCH   1   2
ATOM      2  C   UNL     1      -9.502  -9.985  -6.657  1.00  0.00     0.000 C 
BRANCH   2   3
ATOM      3  C   UNL     1      -7.979 -10.139  -6.822  1.00  0.00     0.000 C 
BRANCH   3   4
ATOM      4  C   UNL     1      -7.212  -8.835  -6.547  1.00  0.00     0.000 C 
BRANCH   4   5
ATOM      5  C   UNL     1      -5.735  -9.075  -6.181  1.00  0.00     0.000 C 
BRANCH   5   6
ATOM      6  C   UNL     1      -4.712  -8.564  -7.211  1.00  0.00     0.006 C 
BRANCH   6   7
ATOM      7  C   UNL     1      -4.792  -9.303  -8.553  1.00  0.00     0.053 C 
BRANCH   7   8
ATOM      8  C   UNL     1      -3.794 -10.417  -8.596  1.00  0.00     0.041 C 
ATOM      9  O   UNL     1      -3.156 -10.737  -7.557  1.00  0.00    -0.550 OA
ATOM     10  O   UNL     1      -3.531 -11.069  -9.794  1.00  0.00    -0.550 OA
ENDBRANCH   7   8
ENDBRANCH   6   7
ENDBRANCH   5   6
ENDBRANCH   4   5
ENDBRANCH   3   4
ENDBRANCH   2   3
ENDBRANCH   1   2
BRANCH   1  11
ATOM     11  C   UNL     1     -10.792  -7.862  -5.884  1.00  0.00     0.000 C 
BRANCH  11  12
ATOM     12  C   UNL     1     -11.761  -8.733  -5.059  1.00  0.00    -0.000 C 
BRANCH  12  13
ATOM     13  C   UNL     1     -13.124  -9.007  -5.721  1.00  0.00    -0.000 C 
BRANCH  13  14
ATOM     14  C   UNL     1     -14.022  -7.760  -5.779  1.00  0.00    -0.000 C 
BRANCH  14  15
ATOM     15  C   UNL     1     -14.283  -7.274  -7.217  1.00  0.00    -0.000 C 
BRANCH  15  16
ATOM     16  C   UNL     1     -15.747  -7.364  -7.684  1.00  0.00    -0.000 C 
BRANCH  16  17
ATOM     17  C   UNL     1     -16.614  -8.246  -6.774  1.00  0.00    -0.003 C 
ATOM     18  C   UNL     1     -16.994  -9.549  -7.471  1.00  0.00     0.004 C 
ENDBRANCH  16  17
ENDBRANCH  15  16
ENDBRANCH  14  15
ENDBRANCH  13  14
ENDBRANCH  12  13
ENDBRANCH  11  12
ENDBRANCH   1  11
TORSDOF 14
ENDMDL
MODEL 5
REMARK VINA RESULT:    -3.403      4.236      8.957
REMARK INTER + INTRA:          -7.360
REMARK INTER:                  -5.895
REMARK INTRA:                  -1.464
REMARK UNBOUND:                -1.172
REMARK SMILES CCCCCCCCCCCCCCCC(=O)[O-]
REMARK SMILES IDX 9 1 10 2 11 3 12 4 13 5 14 6 15 7 16 8 17 9 18 10 8 11 7 12
REMARK SMILES IDX 6 13 5 14 4 15 3 16 2 17 1 18
REMARK H PARENT
REMARK Flexibility Score: inf
ROOT
ATOM      1  C   UNL     1     -12.627  -7.948  -6.913  1.00  0.00     0.000 C 
ENDROOT
BRANCH   1   2
ATOM      2  C   UNL     1     -11.315  -8.467  -7.538  1.00  0.00     0.000 C 
BRANCH   2   3
ATOM      3  C   UNL     1     -10.117  -8.547  -6.574  1.00  0.00     0.000 C 
BRANCH   3   4
ATOM      4  C   UNL     1      -9.617  -9.986  -6.358  1.00  0.00     0.000 C 
BRANCH   4   5
ATOM      5  C   UNL     1      -8.220 -10.231  -6.959  1.00  0.00     0.000 C 
BRANCH   5   6
ATOM      6  C   UNL     1      -7.192  -9.115  -6.706  1.00  0.00     0.006 C 
BRANCH   6   7
ATOM      7  C   UNL     1      -5.745  -9.623  -6.695  1.00  0.00     0.053 C 
BRANCH   7   8
ATOM      8  C   UNL     1      -5.103  -9.400  -8.028  1.00  0.00     0.041 C 
ATOM      9  O   UNL     1      -4.742  -8.243  -8.372  1.00  0.00    -0.550 OA
ATOM     10  O   UNL     1      -4.947 -10.460  -8.911  1.00  0.00    -0.550 OA
ENDBRANCH   7   8
ENDBRANCH   6   7
ENDBRANCH   5   6
ENDBRANCH   4   5
ENDBRANCH   3   4
ENDBRANCH   2   3
ENDBRANCH   1   2
BRANCH   1  11
ATOM     11  C   UNL     1     -12.746  -8.143  -5.389  1.00  0.00     0.000 C 
BRANCH  11  12
ATOM     12  C   UNL     1     -13.328  -9.502  -4.948  1.00  0.00    -0.000 C 
BRANCH  12  13
ATOM     13  C   UNL     1     -13.920 -10.362  -6.080  1.00  0.00    -0.000 C 
BRANCH  13  14
ATOM     14  C   UNL     1     -15.272 -10.991  -5.707  1.00  0.00    -0.000 C 
BRANCH  14  15
ATOM     15  C   UNL     1     -16.440  -9.989  -5.771  1.00  0.00    -0.000 C 
BRANCH  15  16
ATOM     16  C   UNL     1     -16.679  -9.349  -7.151  1.00  0.00    -0.000 C 
BRANCH  16  17
ATOM     17  C   UNL     1     -16.321  -7.856  -7.190  1.00  0.00    -0.003 C 
ATOM     18  C   UNL     1     -16.561  -7.197  -5.834  1.00  0.00     0.004 C 
ENDBRANCH  16  17
ENDBRANCH  15  16
ENDBRANCH  14  15
ENDBRANCH  13  14
ENDBRANCH  12  13
ENDBRANCH  11  12
ENDBRANCH   1  11
TORSDOF 14
ENDMDL
MODEL 6
REMARK VINA RESULT:    -3.248      1.385      2.729
REMARK INTER + INTRA:          -7.079
REMARK INTER:                  -6.444
REMARK INTRA:                  -0.636
REMARK UNBOUND:                -1.172
REMARK SMILES CCCCCCCCCCCCCCCC(=O)[O-]
REMARK SMILES IDX 9 1 10 2 11 3 12 4 13 5 14 6 15 7 16 8 17 9 18 10 8 11 7 12
REMARK SMILES IDX 6 13 5 14 4 15 3 16 2 17 1 18
REMARK H PARENT
REMARK Flexibility Score: inf
ROOT
ATOM      1  C   UNL     1      -8.667  -9.368  -6.748  1.00  0.00     0.000 C 
ENDROOT
BRANCH   1   2
ATOM      2  C   UNL     1     -10.024  -9.650  -6.072  1.00  0.00     0.000 C 
BRANCH   2   3
ATOM      3  C   UNL     1     -10.980  -8.445  -5.993  1.00  0.00     0.000 C 
BRANCH   3   4
ATOM      4  C   UNL     1     -11.836  -8.277  -7.260  1.00  0.00     0.000 C 
BRANCH   4   5
ATOM      5  C   UNL     1     -13.121  -7.464  -7.012  1.00  0.00     0.000 C 
BRANCH   5   6
ATOM      6  C   UNL     1     -13.985  -7.947  -5.834  1.00  0.00     0.006 C 
BRANCH   6   7
ATOM      7  C   UNL     1     -15.308  -8.581  -6.282  1.00  0.00     0.053 C 
BRANCH   7   8
ATOM      8  C   UNL     1     -16.245  -7.533  -6.792  1.00  0.00     0.041 C 
ATOM      9  O   UNL     1     -16.986  -6.901  -5.992  1.00  0.00    -0.550 OA
ATOM     10  O   UNL     1     -16.337  -7.286  -8.156  1.00  0.00    -0.550 OA
ENDBRANCH   7   8
ENDBRANCH   6   7
ENDBRANCH   5   6
ENDBRANCH   4   5
ENDBRANCH   3   4
ENDBRANCH   2   3
ENDBRANCH   1   2
BRANCH   1  11
ATOM     11  C   UNL     1      -7.916 -10.617  -7.250  1.00  0.00     0.000 C 
BRANCH  11  12
ATOM     12  C   UNL     1      -6.416 -10.666  -6.891  1.00  0.00    -0.000 C 
BRANCH  12  13
ATOM     13  C   UNL     1      -5.451 -10.453  -8.072  1.00  0.00    -0.000 C 
BRANCH  13  14
ATOM     14  C   UNL     1      -4.244  -9.573  -7.707  1.00  0.00    -0.000 C 
BRANCH  14  15
ATOM     15  C   UNL     1      -4.220  -9.174  -6.219  1.00  0.00    -0.000 C 
BRANCH  15  16
ATOM     16  C   UNL     1      -2.987  -8.365  -5.778  1.00  0.00    -0.000 C 
BRANCH  16  17
ATOM     17  C   UNL     1      -3.323  -6.912  -5.411  1.00  0.00    -0.003 C 
ATOM     18  C   UNL     1      -3.361  -6.026  -6.653  1.00  0.00     0.004 C 
ENDBRANCH  16  17
ENDBRANCH  15  16
ENDBRANCH  14  15
ENDBRANCH  13  14
ENDBRANCH  12  13
ENDBRANCH  11  12
ENDBRANCH   1  11
TORSDOF 14
ENDMDL
MODEL 7
REMARK VINA RESULT:    -3.237      1.925      3.263
REMARK INTER + INTRA:          -7.058
REMARK INTER:                  -6.237
REMARK INTRA:                  -0.821
REMARK UNBOUND:                -1.172
REMARK SMILES CCCCCCCCCCCCCCCC(=O)[O-]
REMARK SMILES IDX 9 1 10 2 11 3 12 4 13 5 14 6 15 7 16 8 17 9 18 10 8 11 7 12
REMARK SMILES IDX 6 13 5 14 4 15 3 16 2 17 1 18
REMARK H PARENT
REMARK Flexibility Score: inf
ROOT
ATOM      1  C   UNL     1     -11.566  -8.439  -7.146  1.00  0.00     0.000 C 
ENDROOT
BRANCH   1   2
ATOM      2  C   UNL     1     -12.340  -8.361  -5.814  1.00  0.00     0.000 C 
BRANCH   2   3
ATOM      3  C   UNL     1     -13.386  -7.234  -5.729  1.00  0.00     0.000 C 
BRANCH   3   4
ATOM      4  C   UNL     1     -14.548  -7.418  -6.719  1.00  0.00     0.000 C 
BRANCH   4   5
ATOM      5  C   UNL     1     -15.925  -7.445  -6.031  1.00  0.00     0.000 C 
BRANCH   5   6
ATOM      6  C   UNL     1     -16.276  -8.763  -5.317  1.00  0.00     0.006 C 
BRANCH   6   7
ATOM      7  C   UNL     1     -17.418  -9.528  -5.996  1.00  0.00     0.053 C 
BRANCH   7   8
ATOM      8  C   UNL     1     -16.918 -10.244  -7.212  1.00  0.00     0.041 C 
ATOM      9  O   UNL     1     -16.023 -11.124  -7.105  1.00  0.00    -0.550 OA
ATOM     10  O   UNL     1     -17.404  -9.905  -8.468  1.00  0.00    -0.550 OA
ENDBRANCH   7   8
ENDBRANCH   6   7
ENDBRANCH   5   6
ENDBRANCH   4   5
ENDBRANCH   3   4
ENDBRANCH   2   3
ENDBRANCH   1   2
BRANCH   1  11
ATOM     11  C   UNL     1     -10.069  -8.777  -7.012  1.00  0.00     0.000 C 
BRANCH  11  12
ATOM     12  C   UNL     1      -9.762 -10.122  -6.323  1.00  0.00    -0.000 C 
BRANCH  12  13
ATOM     13  C   UNL     1      -8.382 -10.725  -6.643  1.00  0.00    -0.000 C 
BRANCH  13  14
ATOM     14  C   UNL     1      -7.309 -10.343  -5.610  1.00  0.00    -0.000 C 
BRANCH  14  15
ATOM     15  C   UNL     1      -6.080  -9.663  -6.243  1.00  0.00    -0.000 C 
BRANCH  15  16
ATOM     16  C   UNL     1      -6.214  -9.329  -7.740  1.00  0.00    -0.000 C 
BRANCH  16  17
ATOM     17  C   UNL     1      -4.870  -8.996  -8.403  1.00  0.00    -0.003 C 
ATOM     18  C   UNL     1      -4.207 -10.250  -8.964  1.00  0.00     0.004 C 
ENDBRANCH  16  17
ENDBRANCH  15  16
ENDBRANCH  14  15
ENDBRANCH  13  14
ENDBRANCH  12  13
ENDBRANCH  11  12
ENDBRANCH   1  11
TORSDOF 14
ENDMDL
MODEL 8
REMARK VINA RESULT:    -2.858      3.661      8.749
REMARK INTER + INTRA:          -6.369
REMARK INTER:                  -4.985
REMARK INTRA:                  -1.383
REMARK UNBOUND:                -1.172
REMARK SMILES CCCCCCCCCCCCCCCC(=O)[O-]
REMARK SMILES IDX 9 1 10 2 11 3 12 4 13 5 14 6 15 7 16 8 17 9 18 10 8 11 7 12
REMARK SMILES IDX 6 13 5 14 4 15 3 16 2 17 1 18
REMARK H PARENT
REMARK Flexibility Score: inf
ROOT
ATOM      1  C   UNL     1     -13.617  -6.927  -6.791  1.00  0.00     0.000 C 
ENDROOT
BRANCH   1   2
ATOM      2  C   UNL     1     -12.915  -7.180  -5.441  1.00  0.00     0.000 C 
BRANCH   2   3
ATOM      3  C   UNL     1     -11.493  -7.761  -5.540  1.00  0.00     0.000 C 
BRANCH   3   4
ATOM      4  C   UNL     1     -11.240  -8.502  -6.864  1.00  0.00     0.000 C 
BRANCH   4   5
ATOM      5  C   UNL     1     -10.151  -9.585  -6.747  1.00  0.00     0.000 C 
BRANCH   5   6
ATOM      6  C   UNL     1      -9.167  -9.401  -5.578  1.00  0.00     0.006 C 
BRANCH   6   7
ATOM      7  C   UNL     1      -7.737  -9.095  -6.041  1.00  0.00     0.053 C 
BRANCH   7   8
ATOM      8  C   UNL     1      -7.339  -7.713  -5.630  1.00  0.00     0.041 C 
ATOM      9  O   UNL     1      -6.272  -7.526  -4.985  1.00  0.00    -0.550 OA
ATOM     10  O   UNL     1      -8.168  -6.636  -5.914  1.00  0.00    -0.550 OA
ENDBRANCH   7   8
ENDBRANCH   6   7
ENDBRANCH   5   6
ENDBRANCH   4   5
ENDBRANCH   3   4
ENDBRANCH   2   3
ENDBRANCH   1   2
BRANCH   1  11
ATOM     11  C   UNL     1     -14.866  -7.792  -7.050  1.00  0.00     0.000 C 
BRANCH  11  12
ATOM     12  C   UNL     1     -16.125  -7.373  -6.264  1.00  0.00    -0.000 C 
BRANCH  12  13
ATOM     13  C   UNL     1     -16.422  -8.207  -5.004  1.00  0.00    -0.000 C 
BRANCH  13  14
ATOM     14  C   UNL     1     -15.512  -9.439  -4.875  1.00  0.00    -0.000 C 
BRANCH  14  15
ATOM     15  C   UNL     1     -16.247 -10.762  -5.163  1.00  0.00    -0.000 C 
BRANCH  15  16
ATOM     16  C   UNL     1     -17.349 -10.679  -6.234  1.00  0.00    -0.000 C 
BRANCH  16  17
ATOM     17  C   UNL     1     -16.858 -11.077  -7.634  1.00  0.00    -0.003 C 
ATOM     18  C   UNL     1     -17.328 -10.078  -8.687  1.00  0.00     0.004 C 
ENDBRANCH  16  17
ENDBRANCH  15  16
ENDBRANCH  14  15
ENDBRANCH  13  14
ENDBRANCH  12  13
ENDBRANCH  11  12
ENDBRANCH   1  11
TORSDOF 14
ENDMDL
