MODEL 1
REMARK VINA RESULT:    -3.462      0.000      0.000
REMARK INTER + INTRA:          -4.185
REMARK INTER:                  -4.069
REMARK INTRA:                  -0.116
REMARK UNBOUND:                -0.116
REMARK SMILES O=C([O-])CCC(=O)[O-]
REMARK SMILES IDX 4 1 2 2 1 3 3 4 5 5 6 6 7 7 8 8
REMARK H PARENT
REMARK Flexibility Score: inf
ROOT
ATOM      1  C   UNL     1      39.517 -10.794  27.611  1.00  0.00     0.059 C 
ENDROOT
BRANCH   1   2
ATOM      2  C   UNL     1      39.893 -10.114  26.330  1.00  0.00     0.042 C 
ATOM      3  O   UNL     1      41.002 -10.358  25.786  1.00  0.00    -0.550 OA
ATOM      4  O   UNL     1      39.037  -9.180  25.760  1.00  0.00    -0.550 OA
ENDBRANCH   1   2
BRANCH   1   5
ATOM      5  C   UNL     1      38.461 -11.881  27.385  1.00  0.00     0.059 C 
BRANCH   5   6
ATOM      6  C   UNL     1      37.079 -11.373  27.657  1.00  0.00     0.042 C 
ATOM      7  O   UNL     1      36.661 -11.274  28.841  1.00  0.00    -0.550 OA
ATOM      8  O   UNL     1      36.266 -10.971  26.605  1.00  0.00    -0.550 OA
ENDBRANCH   5   6
ENDBRANCH   1   5
TORSDOF 3
ENDMDL
MODEL 2
REMARK VINA RESULT:    -3.458      0.089      3.741
REMARK INTER + INTRA:          -4.180
REMARK INTER:                  -4.067
REMARK INTRA:                  -0.113
REMARK UNBOUND:                -0.116
REMARK SMILES O=C([O-])CCC(=O)[O-]
REMARK SMILES IDX 4 1 2 2 1 3 3 4 5 5 6 6 7 7 8 8
REMARK H PARENT
REMARK Flexibility Score: inf
ROOT
ATOM      1  C   UNL     1      38.397 -11.845  27.287  1.00  0.00     0.059 C 
ENDROOT
BRANCH   1   2
ATOM      2  C   UNL     1      37.031 -11.328  27.622  1.00  0.00     0.042 C 
ATOM      3  O   UNL     1      36.264 -10.929  26.708  1.00  0.00    -0.550 OA
ATOM      4  O   UNL     1      36.624 -11.247  28.947  1.00  0.00    -0.550 OA
ENDBRANCH   1   2
BRANCH   1   5
ATOM      5  C   UNL     1      39.480 -10.792  27.546  1.00  0.00     0.059 C 
BRANCH   5   6
ATOM      6  C   UNL     1      39.874 -10.086  26.286  1.00  0.00     0.042 C 
ATOM      7  O   UNL     1      40.978 -10.339  25.736  1.00  0.00    -0.550 OA
ATOM      8  O   UNL     1      39.006  -9.176  25.697  1.00  0.00    -0.550 OA
ENDBRANCH   5   6
ENDBRANCH   1   5
TORSDOF 3
ENDMDL
MODEL 3
REMARK VINA RESULT:    -3.450      0.102      1.622
REMARK INTER + INTRA:          -4.171
REMARK INTER:                  -4.064
REMARK INTRA:                  -0.107
REMARK UNBOUND:                -0.116
REMARK SMILES O=C([O-])CCC(=O)[O-]
REMARK SMILES IDX 4 1 2 2 1 3 3 4 5 5 6 6 7 7 8 8
REMARK H PARENT
REMARK Flexibility Score: inf
ROOT
ATOM      1  C   UNL     1      39.495 -10.754  27.609  1.00  0.00     0.059 C 
ENDROOT
BRANCH   1   2
ATOM      2  C   UNL     1      39.878 -10.057  26.340  1.00  0.00     0.042 C 
ATOM      3  O   UNL     1      39.096  -9.220  25.817  1.00  0.00    -0.550 OA
ATOM      4  O   UNL     1      41.078 -10.363  25.713  1.00  0.00    -0.550 OA
ENDBRANCH   1   2
BRANCH   1   5
ATOM      5  C   UNL     1      38.430 -11.829  27.365  1.00  0.00     0.059 C 
BRANCH   5   6
ATOM      6  C   UNL     1      37.056 -11.325  27.684  1.00  0.00     0.042 C 
ATOM      7  O   UNL     1      36.274 -10.987  26.757  1.00  0.00    -0.550 OA
ATOM      8  O   UNL     1      36.625 -11.265  29.003  1.00  0.00    -0.550 OA
ENDBRANCH   5   6
ENDBRANCH   1   5
TORSDOF 3
ENDMDL
MODEL 4
REMARK VINA RESULT:    -3.434      0.329      3.747
REMARK INTER + INTRA:          -4.153
REMARK INTER:                  -4.036
REMARK INTRA:                  -0.117
REMARK UNBOUND:                -0.116
REMARK SMILES O=C([O-])CCC(=O)[O-]
REMARK SMILES IDX 4 1 2 2 1 3 3 4 5 5 6 6 7 7 8 8
REMARK H PARENT
REMARK Flexibility Score: inf
ROOT
ATOM      1  C   UNL     1      38.567 -11.630  27.302  1.00  0.00     0.059 C 
ENDROOT
BRANCH   1   2
ATOM      2  C   UNL     1      37.149 -11.290  27.647  1.00  0.00     0.042 C 
ATOM      3  O   UNL     1      36.754 -11.361  28.840  1.00  0.00    -0.550 OA
ATOM      4  O   UNL     1      36.255 -10.936  26.646  1.00  0.00    -0.550 OA
ENDBRANCH   1   2
BRANCH   1   5
ATOM      5  C   UNL     1      39.487 -10.410  27.425  1.00  0.00     0.059 C 
BRANCH   5   6
ATOM      6  C   UNL     1      39.731  -9.768  26.094  1.00  0.00     0.042 C 
ATOM      7  O   UNL     1      38.860  -9.015  25.584  1.00  0.00    -0.550 OA
ATOM      8  O   UNL     1      40.936  -9.971  25.434  1.00  0.00    -0.550 OA
ENDBRANCH   5   6
ENDBRANCH   1   5
TORSDOF 3
ENDMDL
MODEL 5
REMARK VINA RESULT:    -3.270      2.094      2.772
REMARK INTER + INTRA:          -3.960
REMARK INTER:                  -3.839
REMARK INTRA:                  -0.121
REMARK UNBOUND:                -0.116
REMARK SMILES O=C([O-])CCC(=O)[O-]
REMARK SMILES IDX 4 1 2 2 1 3 3 4 5 5 6 6 7 7 8 8
REMARK H PARENT
REMARK Flexibility Score: inf
ROOT
ATOM      1  C   UNL     1      36.212  -9.641  26.106  1.00  0.00     0.059 C 
ENDROOT
BRANCH   1   2
ATOM      2  C   UNL     1      37.098  -9.231  24.970  1.00  0.00     0.042 C 
ATOM      3  O   UNL     1      38.315  -8.980  25.175  1.00  0.00    -0.550 OA
ATOM      4  O   UNL     1      36.571  -9.087  23.694  1.00  0.00    -0.550 OA
ENDBRANCH   1   2
BRANCH   1   5
ATOM      5  C   UNL     1      36.386 -11.123  26.453  1.00  0.00     0.059 C 
BRANCH   5   6
ATOM      6  C   UNL     1      37.260 -11.309  27.655  1.00  0.00     0.042 C 
ATOM      7  O   UNL     1      38.511 -11.378  27.524  1.00  0.00    -0.550 OA
ATOM      8  O   UNL     1      36.697 -11.367  28.923  1.00  0.00    -0.550 OA
ENDBRANCH   5   6
ENDBRANCH   1   5
TORSDOF 3
ENDMDL
MODEL 6
REMARK VINA RESULT:    -3.162      1.719      2.125
REMARK INTER + INTRA:          -3.832
REMARK INTER:                  -3.783
REMARK INTRA:                  -0.050
REMARK UNBOUND:                -0.116
REMARK SMILES O=C([O-])CCC(=O)[O-]
REMARK SMILES IDX 4 1 2 2 1 3 3 4 5 5 6 6 7 7 8 8
REMARK H PARENT
REMARK Flexibility Score: inf
ROOT
ATOM      1  C   UNL     1      39.571 -11.466  27.522  1.00  0.00     0.059 C 
ENDROOT
BRANCH   1   2
ATOM      2  C   UNL     1      40.614 -12.416  27.019  1.00  0.00     0.042 C 
ATOM      3  O   UNL     1      41.792 -12.017  26.822  1.00  0.00    -0.550 OA
ATOM      4  O   UNL     1      40.275 -13.731  26.728  1.00  0.00    -0.550 OA
ENDBRANCH   1   2
BRANCH   1   5
ATOM      5  C   UNL     1      38.487 -12.190  28.328  1.00  0.00     0.059 C 
BRANCH   5   6
ATOM      6  C   UNL     1      37.142 -11.564  28.129  1.00  0.00     0.042 C 
ATOM      7  O   UNL     1      36.469 -11.178  29.121  1.00  0.00    -0.550 OA
ATOM      8  O   UNL     1      36.646 -11.373  26.847  1.00  0.00    -0.550 OA
ENDBRANCH   5   6
ENDBRANCH   1   5
TORSDOF 3
ENDMDL
MODEL 7
REMARK VINA RESULT:    -3.152     16.007     17.728
REMARK INTER + INTRA:          -3.821
REMARK INTER:                  -3.706
REMARK INTRA:                  -0.115
REMARK UNBOUND:                -0.116
REMARK SMILES O=C([O-])CCC(=O)[O-]
REMARK SMILES IDX 4 1 2 2 1 3 3 4 5 5 6 6 7 7 8 8
REMARK H PARENT
REMARK Flexibility Score: inf
ROOT
ATOM      1  C   UNL     1      50.005  -0.006  20.121  1.00  0.00     0.059 C 
ENDROOT
BRANCH   1   2
ATOM      2  C   UNL     1      49.385  -0.120  21.480  1.00  0.00     0.042 C 
ATOM      3  O   UNL     1      50.021  -0.664  22.422  1.00  0.00    -0.550 OA
ATOM      4  O   UNL     1      48.092   0.336  21.696  1.00  0.00    -0.550 OA
ENDBRANCH   1   2
BRANCH   1   5
ATOM      5  C   UNL     1      50.936  -1.186  19.823  1.00  0.00     0.059 C 
BRANCH   5   6
ATOM      6  C   UNL     1      52.351  -0.736  19.628  1.00  0.00     0.042 C 
ATOM      7  O   UNL     1      53.090  -0.518  20.624  1.00  0.00    -0.550 OA
ATOM      8  O   UNL     1      52.865  -0.593  18.346  1.00  0.00    -0.550 OA
ENDBRANCH   5   6
ENDBRANCH   1   5
TORSDOF 3
ENDMDL
MODEL 8
REMARK VINA RESULT:    -3.082     11.725     12.552
REMARK INTER + INTRA:          -3.739
REMARK INTER:                  -3.687
REMARK INTRA:                  -0.052
REMARK UNBOUND:                -0.116
REMARK SMILES O=C([O-])CCC(=O)[O-]
REMARK SMILES IDX 4 1 2 2 1 3 3 4 5 5 6 6 7 7 8 8
REMARK H PARENT
REMARK Flexibility Score: inf
ROOT
ATOM      1  C   UNL     1      42.119   0.213  20.902  1.00  0.00     0.059 C 
ENDROOT
BRANCH   1   2
ATOM      2  C   UNL     1      41.422  -0.602  19.856  1.00  0.00     0.042 C 
ATOM      3  O   UNL     1      41.482  -0.263  18.645  1.00  0.00    -0.550 OA
ATOM      4  O   UNL     1      40.671  -1.711  20.224  1.00  0.00    -0.550 OA
ENDBRANCH   1   2
BRANCH   1   5
ATOM      5  C   UNL     1      43.059  -0.646  21.755  1.00  0.00     0.059 C 
BRANCH   5   6
ATOM      6  C   UNL     1      42.918  -0.336  23.213  1.00  0.00     0.042 C 
ATOM      7  O   UNL     1      43.409  -1.110  24.076  1.00  0.00    -0.550 OA
ATOM      8  O   UNL     1      42.278   0.828  23.618  1.00  0.00    -0.550 OA
ENDBRANCH   5   6
ENDBRANCH   1   5
TORSDOF 3
ENDMDL
MODEL 9
REMARK VINA RESULT:    -3.076     11.769     12.585
REMARK INTER + INTRA:          -3.732
REMARK INTER:                  -3.681
REMARK INTRA:                  -0.051
REMARK UNBOUND:                -0.116
REMARK SMILES O=C([O-])CCC(=O)[O-]
REMARK SMILES IDX 4 1 2 2 1 3 3 4 5 5 6 6 7 7 8 8
REMARK H PARENT
REMARK Flexibility Score: inf
ROOT
ATOM      1  C   UNL     1      43.058  -0.646  21.746  1.00  0.00     0.059 C 
ENDROOT
BRANCH   1   2
ATOM      2  C   UNL     1      42.981  -0.320  23.206  1.00  0.00     0.042 C 
ATOM      3  O   UNL     1      43.513  -1.083  24.054  1.00  0.00    -0.550 OA
ATOM      4  O   UNL     1      42.285   0.804  23.633  1.00  0.00    -0.550 OA
ENDBRANCH   1   2
BRANCH   1   5
ATOM      5  C   UNL     1      42.103   0.224  20.921  1.00  0.00     0.059 C 
BRANCH   5   6
ATOM      6  C   UNL     1      41.398  -0.577  19.870  1.00  0.00     0.042 C 
ATOM      7  O   UNL     1      41.471  -0.238  18.660  1.00  0.00    -0.550 OA
ATOM      8  O   UNL     1      40.692  -1.720  20.223  1.00  0.00    -0.550 OA
ENDBRANCH   5   6
ENDBRANCH   1   5
TORSDOF 3
ENDMDL
