MODEL 1
REMARK VINA RESULT:    -3.353      0.000      0.000
REMARK INTER + INTRA:          -3.549
REMARK INTER:                  -3.549
REMARK INTRA:                   0.000
REMARK UNBOUND:                 0.000
REMARK SMILES O=c1ccc2cc(O)c(O)cc2o1
REMARK SMILES IDX 4 1 3 2 2 3 1 4 13 5 12 6 11 7 9 8 7 9 6 10 5 11 8 12 10 14
REMARK H PARENT 8 13 10 15
REMARK Flexibility Score: inf
ROOT
ATOM      1  C   UNL     1      11.879  -1.110  11.007  1.00  0.00     0.019 A 
ATOM      2  C   UNL     1      10.876  -1.870  10.404  1.00  0.00     0.094 A 
ATOM      3  C   UNL     1      10.970  -3.266  10.440  1.00  0.00     0.336 A 
ATOM      4  O   UNL     1      10.076  -3.970   9.903  1.00  0.00    -0.246 OA
ATOM      5  O   UNL     1      12.001  -3.857  11.041  1.00  0.00    -0.423 OA
ATOM      6  C   UNL     1      12.977  -3.169  11.627  1.00  0.00     0.142 A 
ATOM      7  C   UNL     1      14.036  -3.843  12.242  1.00  0.00     0.098 A 
ATOM      8  C   UNL     1      15.068  -3.123  12.862  1.00  0.00     0.161 A 
ATOM      9  C   UNL     1      15.041  -1.721  12.865  1.00  0.00     0.158 A 
ATOM     10  C   UNL     1      13.982  -1.038  12.249  1.00  0.00     0.062 A 
ATOM     11  C   UNL     1      12.950  -1.757  11.631  1.00  0.00     0.022 A 
ENDROOT
BRANCH   9  12
ATOM     12  O   UNL     1      16.071  -1.013  13.483  1.00  0.00    -0.504 OA
ATOM     13  H   UNL     1      16.477  -1.325  14.357  1.00  0.00     0.293 HD
ENDBRANCH   9  12
BRANCH   8  14
ATOM     14  O   UNL     1      16.125  -3.793  13.476  1.00  0.00    -0.504 OA
ATOM     15  H   UNL     1      17.083  -3.670  13.167  1.00  0.00     0.293 HD
ENDBRANCH   8  14
TORSDOF 2
ENDMDL
MODEL 2
REMARK VINA RESULT:    -3.030      1.409      5.033
REMARK INTER + INTRA:          -3.207
REMARK INTER:                  -3.207
REMARK INTRA:                   0.000
REMARK UNBOUND:                 0.000
REMARK SMILES O=c1ccc2cc(O)c(O)cc2o1
REMARK SMILES IDX 4 1 3 2 2 3 1 4 13 5 12 6 11 7 9 8 7 9 6 10 5 11 8 12 10 14
REMARK H PARENT 8 13 10 15
REMARK Flexibility Score: inf
ROOT
ATOM      1  C   UNL     1      14.990  -2.994  12.215  1.00  0.00     0.019 A 
ATOM      2  C   UNL     1      15.834  -2.013  12.738  1.00  0.00     0.094 A 
ATOM      3  C   UNL     1      15.380  -0.691  12.799  1.00  0.00     0.336 A 
ATOM      4  O   UNL     1      16.125   0.209  13.268  1.00  0.00    -0.246 OA
ATOM      5  O   UNL     1      14.162  -0.376  12.364  1.00  0.00    -0.423 OA
ATOM      6  C   UNL     1      13.327  -1.280  11.858  1.00  0.00     0.142 A 
ATOM      7  C   UNL     1      12.059  -0.891  11.416  1.00  0.00     0.098 A 
ATOM      8  C   UNL     1      11.174  -1.840  10.882  1.00  0.00     0.161 A 
ATOM      9  C   UNL     1      11.561  -3.186  10.790  1.00  0.00     0.158 A 
ATOM     10  C   UNL     1      12.832  -3.582  11.231  1.00  0.00     0.062 A 
ATOM     11  C   UNL     1      13.716  -2.634  11.765  1.00  0.00     0.022 A 
ENDROOT
BRANCH   9  12
ATOM     12  O   UNL     1      10.676  -4.121  10.257  1.00  0.00    -0.504 OA
ATOM     13  H   UNL     1      10.467  -4.148   9.266  1.00  0.00     0.293 HD
ENDBRANCH   9  12
BRANCH   8  14
ATOM     14  O   UNL     1       9.910  -1.455  10.440  1.00  0.00    -0.504 OA
ATOM     15  H   UNL     1       9.774  -0.615   9.889  1.00  0.00     0.293 HD
ENDBRANCH   8  14
TORSDOF 2
ENDMDL
MODEL 3
REMARK VINA RESULT:    -2.066      1.195      2.279
REMARK INTER + INTRA:          -2.187
REMARK INTER:                  -2.187
REMARK INTRA:                   0.000
REMARK UNBOUND:                 0.000
REMARK SMILES O=c1ccc2cc(O)c(O)cc2o1
REMARK SMILES IDX 4 1 3 2 2 3 1 4 13 5 12 6 11 7 9 8 7 9 6 10 5 11 8 12 10 14
REMARK H PARENT 8 13 10 15
REMARK Flexibility Score: inf
ROOT
ATOM      1  C   UNL     1      11.973  -4.120  11.121  1.00  0.00     0.019 A 
ATOM      2  C   UNL     1      10.766  -3.766  10.519  1.00  0.00     0.094 A 
ATOM      3  C   UNL     1      10.452  -2.410  10.375  1.00  0.00     0.336 A 
ATOM      4  O   UNL     1       9.367  -2.070   9.834  1.00  0.00    -0.246 OA
ATOM      5  O   UNL     1      11.293  -1.474  10.807  1.00  0.00    -0.423 OA
ATOM      6  C   UNL     1      12.455  -1.768  11.386  1.00  0.00     0.142 A 
ATOM      7  C   UNL     1      13.300  -0.743  11.821  1.00  0.00     0.098 A 
ATOM      8  C   UNL     1      14.525  -1.047  12.433  1.00  0.00     0.161 A 
ATOM      9  C   UNL     1      14.906  -2.386  12.610  1.00  0.00     0.158 A 
ATOM     10  C   UNL     1      14.063  -3.419  12.177  1.00  0.00     0.062 A 
ATOM     11  C   UNL     1      12.839  -3.115  11.565  1.00  0.00     0.022 A 
ENDROOT
BRANCH   9  12
ATOM     12  O   UNL     1      16.125  -2.679  13.219  1.00  0.00    -0.504 OA
ATOM     13  H   UNL     1      16.250  -2.597  14.222  1.00  0.00     0.293 HD
ENDBRANCH   9  12
BRANCH   8  14
ATOM     14  O   UNL     1      15.369  -0.027  12.867  1.00  0.00    -0.504 OA
ATOM     15  H   UNL     1      16.287  -0.224  13.247  1.00  0.00     0.293 HD
ENDBRANCH   8  14
TORSDOF 2
ENDMDL
