MODEL 1
REMARK VINA RESULT:    -7.569      0.000      0.000
REMARK INTER + INTRA:         -11.469
REMARK INTER:                 -10.666
REMARK INTRA:                  -0.803
REMARK UNBOUND:                -0.803
REMARK SMILES C=C(CC[C@@H](C(=O)[O-])[C@H]1[C@H](O)C[C@@]2(C)C3=C(CC[C@]12C)[C@@]1(C)CC[C@@H](O)C(C)(C)[C@H]1CC3)C(C)C
REMARK SMILES IDX 4 1 5 2 6 3 7 4 8 5 9 6 10 7 19 8 12 9 13 10 18 11 20 12
REMARK SMILES IDX 14 13 15 14 17 15 16 16 32 17 21 18 31 19 30 20 23 21 22 22
REMARK SMILES IDX 27 23 24 24 25 25 28 26 29 27 11 28 26 30 3 32 2 33 1 34
REMARK SMILES IDX 33 35 34 36 35 37
REMARK H PARENT 11 29 26 31
REMARK Flexibility Score: inf
ROOT
ATOM      1  C   UNL     1      47.669   9.342  20.567  1.00  0.00     0.014 C 
ENDROOT
BRANCH   1   2
ATOM      2  C   UNL     1      47.394   9.518  22.080  1.00  0.00     0.042 C 
BRANCH   2   3
ATOM      3  C   UNL     1      45.918   9.695  22.375  1.00  0.00     0.045 C 
ATOM      4  O   UNL     1      45.052   8.933  21.867  1.00  0.00    -0.550 OA
ATOM      5  O   UNL     1      45.496  10.752  23.173  1.00  0.00    -0.550 OA
ENDBRANCH   2   3
BRANCH   2   6
ATOM      6  C   UNL     1      48.157   8.470  22.968  1.00  0.00     0.033 C 
ATOM      7  C   UNL     1      47.551   8.307  24.394  1.00  0.00     0.119 C 
ATOM      8  C   UNL     1      48.400   7.005  22.489  1.00  0.00    -0.017 C 
ATOM      9  C   UNL     1      47.788   6.838  24.812  1.00  0.00     0.043 C 
ATOM     10  C   UNL     1      48.823   6.296  23.813  1.00  0.00    -0.003 C 
ATOM     11  C   UNL     1      49.541   6.787  21.475  1.00  0.00     0.012 C 
ATOM     12  C   UNL     1      47.081   6.411  21.889  1.00  0.00     0.013 C 
ATOM     13  C   UNL     1      50.237   6.683  24.361  1.00  0.00     0.017 C 
ATOM     14  C   UNL     1      48.883   4.792  23.587  1.00  0.00    -0.064 C 
ATOM     15  C   UNL     1      49.867   5.277  21.300  1.00  0.00     0.032 C 
ATOM     16  C   UNL     1      49.464   4.311  22.446  1.00  0.00    -0.064 C 
ATOM     17  C   UNL     1      48.496   3.843  24.687  1.00  0.00     0.032 C 
ATOM     18  C   UNL     1      49.825   2.799  22.317  1.00  0.00    -0.008 C 
ATOM     19  C   UNL     1      47.868   2.605  24.067  1.00  0.00     0.009 C 
ATOM     20  C   UNL     1      48.881   1.837  23.182  1.00  0.00     0.007 C 
ATOM     21  C   UNL     1      51.301   2.671  22.765  1.00  0.00     0.014 C 
ATOM     22  C   UNL     1      49.717   2.389  20.817  1.00  0.00     0.016 C 
ATOM     23  C   UNL     1      49.605   0.631  23.937  1.00  0.00    -0.006 C 
ATOM     24  C   UNL     1      51.856   1.236  22.765  1.00  0.00     0.033 C 
ATOM     25  C   UNL     1      50.814   0.137  23.082  1.00  0.00     0.120 C 
ATOM     26  C   UNL     1      48.606  -0.552  24.068  1.00  0.00     0.014 C 
ATOM     27  C   UNL     1      50.079   0.982  25.377  1.00  0.00     0.014 C 
BRANCH   7  28
ATOM     28  O   UNL     1      48.181   9.191  25.286  1.00  0.00    -0.393 OA
ATOM     29  H   UNL     1      48.042   8.825  26.199  1.00  0.00     0.210 HD
ENDBRANCH   7  28
BRANCH  25  30
ATOM     30  O   UNL     1      51.432  -1.001  23.641  1.00  0.00    -0.393 OA
ATOM     31  H   UNL     1      50.733  -1.575  24.049  1.00  0.00     0.210 HD
ENDBRANCH  25  30
ENDBRANCH   2   6
ENDBRANCH   1   2
BRANCH   1  32
ATOM     32  C   UNL     1      48.191  10.615  19.869  1.00  0.00     0.031 C 
BRANCH  32  33
ATOM     33  C   UNL     1      49.307  10.351  18.877  1.00  0.00    -0.075 C 
ATOM     34  C   UNL     1      49.981  11.390  18.353  1.00  0.00     0.008 C 
BRANCH  33  35
ATOM     35  C   UNL     1      49.718   8.915  18.569  1.00  0.00     0.008 C 
ATOM     36  C   UNL     1      51.122   8.622  19.109  1.00  0.00     0.012 C 
ATOM     37  C   UNL     1      49.629   8.590  17.071  1.00  0.00     0.012 C 
ENDBRANCH  33  35
ENDBRANCH  32  33
ENDBRANCH   1  32
TORSDOF 8
ENDMDL
MODEL 2
REMARK VINA RESULT:    -7.508      2.591      8.736
REMARK INTER + INTRA:         -11.383
REMARK INTER:                  -9.583
REMARK INTRA:                  -1.801
REMARK UNBOUND:                -0.803
REMARK SMILES C=C(CC[C@@H](C(=O)[O-])[C@H]1[C@H](O)C[C@@]2(C)C3=C(CC[C@]12C)[C@@]1(C)CC[C@@H](O)C(C)(C)[C@H]1CC3)C(C)C
REMARK SMILES IDX 4 1 5 2 6 3 7 4 8 5 9 6 10 7 19 8 12 9 13 10 18 11 20 12
REMARK SMILES IDX 14 13 15 14 17 15 16 16 32 17 21 18 31 19 30 20 23 21 22 22
REMARK SMILES IDX 27 23 24 24 25 25 28 26 29 27 11 28 26 30 3 32 2 33 1 34
REMARK SMILES IDX 33 35 34 36 35 37
REMARK H PARENT 11 29 26 31
REMARK Flexibility Score: inf
ROOT
ATOM      1  C   UNL     1      46.862  -0.704  22.532  1.00  0.00     0.014 C 
ENDROOT
BRANCH   1   2
ATOM      2  C   UNL     1      48.248  -0.036  22.703  1.00  0.00     0.042 C 
BRANCH   2   3
ATOM      3  C   UNL     1      49.381  -0.965  22.320  1.00  0.00     0.045 C 
ATOM      4  O   UNL     1      50.546  -0.530  22.117  1.00  0.00    -0.550 OA
ATOM      5  O   UNL     1      49.128  -2.318  22.128  1.00  0.00    -0.550 OA
ENDBRANCH   2   3
BRANCH   2   6
ATOM      6  C   UNL     1      48.307   1.415  22.101  1.00  0.00     0.033 C 
ATOM      7  C   UNL     1      47.233   1.675  21.004  1.00  0.00     0.119 C 
ATOM      8  C   UNL     1      48.244   2.686  23.004  1.00  0.00    -0.017 C 
ATOM      9  C   UNL     1      46.856   3.172  21.096  1.00  0.00     0.043 C 
ATOM     10  C   UNL     1      47.954   3.810  21.961  1.00  0.00    -0.003 C 
ATOM     11  C   UNL     1      49.539   3.077  23.744  1.00  0.00     0.012 C 
ATOM     12  C   UNL     1      47.094   2.538  24.057  1.00  0.00     0.013 C 
ATOM     13  C   UNL     1      49.143   4.165  21.008  1.00  0.00     0.017 C 
ATOM     14  C   UNL     1      47.629   5.106  22.690  1.00  0.00    -0.064 C 
ATOM     15  C   UNL     1      49.431   4.496  24.368  1.00  0.00     0.032 C 
ATOM     16  C   UNL     1      48.390   5.477  23.766  1.00  0.00    -0.064 C 
ATOM     17  C   UNL     1      46.623   6.066  22.120  1.00  0.00     0.032 C 
ATOM     18  C   UNL     1      48.298   6.923  24.342  1.00  0.00    -0.008 C 
ATOM     19  C   UNL     1      45.900   6.757  23.266  1.00  0.00     0.009 C 
ATOM     20  C   UNL     1      46.871   7.616  24.114  1.00  0.00     0.007 C 
ATOM     21  C   UNL     1      49.420   7.733  23.649  1.00  0.00     0.014 C 
ATOM     22  C   UNL     1      48.588   6.868  25.872  1.00  0.00     0.016 C 
ATOM     23  C   UNL     1      46.894   9.157  23.698  1.00  0.00    -0.006 C 
ATOM     24  C   UNL     1      49.480   9.221  24.036  1.00  0.00     0.033 C 
ATOM     25  C   UNL     1      48.111   9.859  24.377  1.00  0.00     0.120 C 
ATOM     26  C   UNL     1      45.601   9.839  24.227  1.00  0.00     0.014 C 
ATOM     27  C   UNL     1      46.931   9.394  22.160  1.00  0.00     0.014 C 
BRANCH   7  28
ATOM     28  O   UNL     1      47.757   1.366  19.737  1.00  0.00    -0.393 OA
ATOM     29  H   UNL     1      48.663   1.772  19.695  1.00  0.00     0.210 HD
ENDBRANCH   7  28
BRANCH  25  30
ATOM     30  O   UNL     1      48.126  11.249  24.137  1.00  0.00    -0.393 OA
ATOM     31  H   UNL     1      47.445  11.461  23.448  1.00  0.00     0.210 HD
ENDBRANCH  25  30
ENDBRANCH   2   6
ENDBRANCH   1   2
BRANCH   1  32
ATOM     32  C   UNL     1      46.095  -0.912  23.853  1.00  0.00     0.031 C 
BRANCH  32  33
ATOM     33  C   UNL     1      44.695  -0.327  23.844  1.00  0.00    -0.075 C 
ATOM     34  C   UNL     1      43.973  -0.329  24.978  1.00  0.00     0.008 C 
BRANCH  33  35
ATOM     35  C   UNL     1      44.170   0.349  22.581  1.00  0.00     0.008 C 
ATOM     36  C   UNL     1      43.823   1.816  22.852  1.00  0.00     0.012 C 
ATOM     37  C   UNL     1      42.969  -0.395  21.978  1.00  0.00     0.012 C 
ENDBRANCH  33  35
ENDBRANCH  32  33
ENDBRANCH   1  32
TORSDOF 8
ENDMDL
MODEL 3
REMARK VINA RESULT:    -7.375      3.018      8.057
REMARK INTER + INTRA:         -11.197
REMARK INTER:                  -9.655
REMARK INTRA:                  -1.542
REMARK UNBOUND:                -0.803
REMARK SMILES C=C(CC[C@@H](C(=O)[O-])[C@H]1[C@H](O)C[C@@]2(C)C3=C(CC[C@]12C)[C@@]1(C)CC[C@@H](O)C(C)(C)[C@H]1CC3)C(C)C
REMARK SMILES IDX 4 1 5 2 6 3 7 4 8 5 9 6 10 7 19 8 12 9 13 10 18 11 20 12
REMARK SMILES IDX 14 13 15 14 17 15 16 16 32 17 21 18 31 19 30 20 23 21 22 22
REMARK SMILES IDX 27 23 24 24 25 25 28 26 29 27 11 28 26 30 3 32 2 33 1 34
REMARK SMILES IDX 33 35 34 36 35 37
REMARK H PARENT 11 29 26 31
REMARK Flexibility Score: inf
ROOT
ATOM      1  C   UNL     1      51.327   1.632  21.022  1.00  0.00     0.014 C 
ENDROOT
BRANCH   1   2
ATOM      2  C   UNL     1      51.144   3.148  20.770  1.00  0.00     0.042 C 
BRANCH   2   3
ATOM      3  C   UNL     1      51.778   3.591  19.467  1.00  0.00     0.045 C 
ATOM      4  O   UNL     1      52.439   2.789  18.754  1.00  0.00    -0.550 OA
ATOM      5  O   UNL     1      51.685   4.920  19.071  1.00  0.00    -0.550 OA
ENDBRANCH   2   3
BRANCH   2   6
ATOM      6  C   UNL     1      49.673   3.638  21.026  1.00  0.00     0.033 C 
ATOM      7  C   UNL     1      48.658   2.474  21.228  1.00  0.00     0.119 C 
ATOM      8  C   UNL     1      49.326   4.646  22.166  1.00  0.00    -0.017 C 
ATOM      9  C   UNL     1      47.577   2.990  22.206  1.00  0.00     0.043 C 
ATOM     10  C   UNL     1      47.774   4.514  22.255  1.00  0.00    -0.003 C 
ATOM     11  C   UNL     1      49.640   6.132  21.897  1.00  0.00     0.012 C 
ATOM     12  C   UNL     1      50.038   4.219  23.493  1.00  0.00     0.013 C 
ATOM     13  C   UNL     1      46.978   5.119  21.051  1.00  0.00     0.017 C 
ATOM     14  C   UNL     1      47.270   5.263  23.480  1.00  0.00    -0.064 C 
ATOM     15  C   UNL     1      48.994   7.053  22.969  1.00  0.00     0.032 C 
ATOM     16  C   UNL     1      47.777   6.503  23.760  1.00  0.00    -0.064 C 
ATOM     17  C   UNL     1      46.094   4.743  24.257  1.00  0.00     0.032 C 
ATOM     18  C   UNL     1      47.080   7.426  24.807  1.00  0.00    -0.008 C 
ATOM     19  C   UNL     1      46.283   5.091  25.725  1.00  0.00     0.009 C 
ATOM     20  C   UNL     1      46.293   6.624  25.949  1.00  0.00     0.007 C 
ATOM     21  C   UNL     1      46.115   8.331  24.004  1.00  0.00     0.014 C 
ATOM     22  C   UNL     1      48.164   8.320  25.480  1.00  0.00     0.016 C 
ATOM     23  C   UNL     1      44.876   7.218  26.379  1.00  0.00    -0.006 C 
ATOM     24  C   UNL     1      45.274   9.298  24.855  1.00  0.00     0.033 C 
ATOM     25  C   UNL     1      44.912   8.775  26.266  1.00  0.00     0.120 C 
ATOM     26  C   UNL     1      44.612   6.860  27.868  1.00  0.00     0.014 C 
ATOM     27  C   UNL     1      43.679   6.652  25.561  1.00  0.00     0.014 C 
BRANCH   7  28
ATOM     28  O   UNL     1      48.088   2.115  19.994  1.00  0.00    -0.393 OA
ATOM     29  H   UNL     1      47.260   1.606  20.198  1.00  0.00     0.210 HD
ENDBRANCH   7  28
BRANCH  25  30
ATOM     30  O   UNL     1      43.723   9.370  26.738  1.00  0.00    -0.393 OA
ATOM     31  H   UNL     1      43.479   8.953  27.604  1.00  0.00     0.210 HD
ENDBRANCH  25  30
ENDBRANCH   2   6
ENDBRANCH   1   2
BRANCH   1  32
ATOM     32  C   UNL     1      51.849   1.286  22.431  1.00  0.00     0.031 C 
BRANCH  32  33
ATOM     33  C   UNL     1      51.005   0.256  23.157  1.00  0.00    -0.075 C 
ATOM     34  C   UNL     1      50.334   0.617  24.266  1.00  0.00     0.008 C 
BRANCH  33  35
ATOM     35  C   UNL     1      50.843  -1.140  22.563  1.00  0.00     0.008 C 
ATOM     36  C   UNL     1      49.376  -1.422  22.224  1.00  0.00     0.012 C 
ATOM     37  C   UNL     1      51.413  -2.233  23.479  1.00  0.00     0.012 C 
ENDBRANCH  33  35
ENDBRANCH  32  33
ENDBRANCH   1  32
TORSDOF 8
ENDMDL
MODEL 4
REMARK VINA RESULT:    -7.301      2.767      4.167
REMARK INTER + INTRA:         -11.092
REMARK INTER:                  -9.519
REMARK INTRA:                  -1.572
REMARK UNBOUND:                -0.803
REMARK SMILES C=C(CC[C@@H](C(=O)[O-])[C@H]1[C@H](O)C[C@@]2(C)C3=C(CC[C@]12C)[C@@]1(C)CC[C@@H](O)C(C)(C)[C@H]1CC3)C(C)C
REMARK SMILES IDX 4 1 5 2 6 3 7 4 8 5 9 6 10 7 19 8 12 9 13 10 18 11 20 12
REMARK SMILES IDX 14 13 15 14 17 15 16 16 32 17 21 18 31 19 30 20 23 21 22 22
REMARK SMILES IDX 27 23 24 24 25 25 28 26 29 27 11 28 26 30 3 32 2 33 1 34
REMARK SMILES IDX 33 35 34 36 35 37
REMARK H PARENT 11 29 26 31
REMARK Flexibility Score: inf
ROOT
ATOM      1  C   UNL     1      48.880   8.874  20.303  1.00  0.00     0.014 C 
ENDROOT
BRANCH   1   2
ATOM      2  C   UNL     1      49.546   7.478  20.249  1.00  0.00     0.042 C 
BRANCH   2   3
ATOM      3  C   UNL     1      50.863   7.503  19.499  1.00  0.00     0.045 C 
ATOM      4  O   UNL     1      51.386   8.587  19.129  1.00  0.00    -0.550 OA
ATOM      5  O   UNL     1      51.483   6.307  19.157  1.00  0.00    -0.550 OA
ENDBRANCH   2   3
BRANCH   2   6
ATOM      6  C   UNL     1      49.556   6.750  21.642  1.00  0.00     0.033 C 
ATOM      7  C   UNL     1      49.178   7.682  22.831  1.00  0.00     0.119 C 
ATOM      8  C   UNL     1      48.728   5.452  21.899  1.00  0.00    -0.017 C 
ATOM      9  C   UNL     1      48.459   6.799  23.877  1.00  0.00     0.043 C 
ATOM     10  C   UNL     1      48.758   5.351  23.456  1.00  0.00    -0.003 C 
ATOM     11  C   UNL     1      49.314   4.136  21.349  1.00  0.00     0.012 C 
ATOM     12  C   UNL     1      47.276   5.622  21.339  1.00  0.00     0.013 C 
ATOM     13  C   UNL     1      50.141   4.967  24.078  1.00  0.00     0.017 C 
ATOM     14  C   UNL     1      47.800   4.260  23.912  1.00  0.00    -0.064 C 
ATOM     15  C   UNL     1      48.559   2.898  21.911  1.00  0.00     0.032 C 
ATOM     16  C   UNL     1      47.779   3.067  23.241  1.00  0.00    -0.064 C 
ATOM     17  C   UNL     1      47.037   4.408  25.198  1.00  0.00     0.032 C 
ATOM     18  C   UNL     1      47.055   1.827  23.851  1.00  0.00    -0.008 C 
ATOM     19  C   UNL     1      45.684   3.732  25.046  1.00  0.00     0.009 C 
ATOM     20  C   UNL     1      45.834   2.206  24.817  1.00  0.00     0.007 C 
ATOM     21  C   UNL     1      48.138   1.033  24.619  1.00  0.00     0.014 C 
ATOM     22  C   UNL     1      46.515   0.944  22.686  1.00  0.00     0.016 C 
ATOM     23  C   UNL     1      45.695   1.342  26.151  1.00  0.00    -0.006 C 
ATOM     24  C   UNL     1      47.627  -0.219  25.353  1.00  0.00     0.033 C 
ATOM     25  C   UNL     1      46.173  -0.118  25.874  1.00  0.00     0.120 C 
ATOM     26  C   UNL     1      44.195   1.277  26.554  1.00  0.00     0.014 C 
ATOM     27  C   UNL     1      46.463   1.932  27.369  1.00  0.00     0.014 C 
BRANCH   7  28
ATOM     28  O   UNL     1      50.339   8.259  23.374  1.00  0.00    -0.393 OA
ATOM     29  H   UNL     1      50.059   9.106  23.813  1.00  0.00     0.210 HD
ENDBRANCH   7  28
BRANCH  25  30
ATOM     30  O   UNL     1      45.973  -0.964  26.984  1.00  0.00    -0.393 OA
ATOM     31  H   UNL     1      46.350  -1.858  26.776  1.00  0.00     0.210 HD
ENDBRANCH  25  30
ENDBRANCH   2   6
ENDBRANCH   1   2
BRANCH   1  32
ATOM     32  C   UNL     1      47.358   8.856  20.049  1.00  0.00     0.031 C 
BRANCH  32  33
ATOM     33  C   UNL     1      46.550   9.523  21.146  1.00  0.00    -0.075 C 
ATOM     34  C   UNL     1      45.528   8.855  21.710  1.00  0.00     0.008 C 
BRANCH  33  35
ATOM     35  C   UNL     1      46.972  10.894  21.665  1.00  0.00     0.008 C 
ATOM     36  C   UNL     1      47.253  10.844  23.171  1.00  0.00     0.012 C 
ATOM     37  C   UNL     1      45.943  11.985  21.336  1.00  0.00     0.012 C 
ENDBRANCH  33  35
ENDBRANCH  32  33
ENDBRANCH   1  32
TORSDOF 8
ENDMDL
MODEL 5
REMARK VINA RESULT:    -7.228      2.749      9.110
REMARK INTER + INTRA:         -10.989
REMARK INTER:                  -9.138
REMARK INTRA:                  -1.851
REMARK UNBOUND:                -0.803
REMARK SMILES C=C(CC[C@@H](C(=O)[O-])[C@H]1[C@H](O)C[C@@]2(C)C3=C(CC[C@]12C)[C@@]1(C)CC[C@@H](O)C(C)(C)[C@H]1CC3)C(C)C
REMARK SMILES IDX 4 1 5 2 6 3 7 4 8 5 9 6 10 7 19 8 12 9 13 10 18 11 20 12
REMARK SMILES IDX 14 13 15 14 17 15 16 16 32 17 21 18 31 19 30 20 23 21 22 22
REMARK SMILES IDX 27 23 24 24 25 25 28 26 29 27 11 28 26 30 3 32 2 33 1 34
REMARK SMILES IDX 33 35 34 36 35 37
REMARK H PARENT 11 29 26 31
REMARK Flexibility Score: inf
ROOT
ATOM      1  C   UNL     1      47.408  -1.794  23.498  1.00  0.00     0.014 C 
ENDROOT
BRANCH   1   2
ATOM      2  C   UNL     1      48.575  -0.836  23.160  1.00  0.00     0.042 C 
BRANCH   2   3
ATOM      3  C   UNL     1      49.624  -1.499  22.290  1.00  0.00     0.045 C 
ATOM      4  O   UNL     1      49.418  -2.620  21.754  1.00  0.00    -0.550 OA
ATOM      5  O   UNL     1      50.864  -0.893  22.123  1.00  0.00    -0.550 OA
ENDBRANCH   2   3
BRANCH   2   6
ATOM      6  C   UNL     1      48.087   0.584  22.696  1.00  0.00     0.033 C 
ATOM      7  C   UNL     1      46.536   0.725  22.660  1.00  0.00     0.119 C 
ATOM      8  C   UNL     1      48.572   1.892  23.396  1.00  0.00    -0.017 C 
ATOM      9  C   UNL     1      46.216   2.200  22.998  1.00  0.00     0.043 C 
ATOM     10  C   UNL     1      47.553   2.944  22.858  1.00  0.00    -0.003 C 
ATOM     11  C   UNL     1      49.982   2.395  23.026  1.00  0.00     0.012 C 
ATOM     12  C   UNL     1      48.494   1.727  24.951  1.00  0.00     0.013 C 
ATOM     13  C   UNL     1      47.713   3.323  21.348  1.00  0.00     0.017 C 
ATOM     14  C   UNL     1      47.728   4.253  23.615  1.00  0.00    -0.064 C 
ATOM     15  C   UNL     1      50.230   3.834  23.558  1.00  0.00     0.032 C 
ATOM     16  C   UNL     1      48.992   4.720  23.858  1.00  0.00    -0.064 C 
ATOM     17  C   UNL     1      46.539   5.122  23.914  1.00  0.00     0.032 C 
ATOM     18  C   UNL     1      49.215   6.185  24.345  1.00  0.00    -0.008 C 
ATOM     19  C   UNL     1      46.766   5.823  25.244  1.00  0.00     0.009 C 
ATOM     20  C   UNL     1      47.984   6.780  25.181  1.00  0.00     0.007 C 
ATOM     21  C   UNL     1      49.472   7.026  23.071  1.00  0.00     0.014 C 
ATOM     22  C   UNL     1      50.490   6.223  25.239  1.00  0.00     0.016 C 
ATOM     23  C   UNL     1      47.592   8.297  24.877  1.00  0.00    -0.006 C 
ATOM     24  C   UNL     1      49.670   8.531  23.316  1.00  0.00     0.033 C 
ATOM     25  C   UNL     1      48.880   9.102  24.519  1.00  0.00     0.120 C 
ATOM     26  C   UNL     1      46.984   8.926  26.162  1.00  0.00     0.014 C 
ATOM     27  C   UNL     1      46.530   8.460  23.750  1.00  0.00     0.014 C 
BRANCH   7  28
ATOM     28  O   UNL     1      46.053   0.387  21.384  1.00  0.00    -0.393 OA
ATOM     29  H   UNL     1      46.751  -0.175  20.954  1.00  0.00     0.210 HD
ENDBRANCH   7  28
BRANCH  25  30
ATOM     30  O   UNL     1      48.617  10.477  24.346  1.00  0.00    -0.393 OA
ATOM     31  H   UNL     1      49.406  10.994  24.653  1.00  0.00     0.210 HD
ENDBRANCH  25  30
ENDBRANCH   2   6
ENDBRANCH   1   2
BRANCH   1  32
ATOM     32  C   UNL     1      47.489  -2.414  24.908  1.00  0.00     0.031 C 
BRANCH  32  33
ATOM     33  C   UNL     1      46.839  -1.565  25.984  1.00  0.00    -0.075 C 
ATOM     34  C   UNL     1      47.571  -1.164  27.039  1.00  0.00     0.008 C 
BRANCH  33  35
ATOM     35  C   UNL     1      45.400  -1.093  25.804  1.00  0.00     0.008 C 
ATOM     36  C   UNL     1      45.267   0.394  26.149  1.00  0.00     0.012 C 
ATOM     37  C   UNL     1      44.403  -1.933  26.615  1.00  0.00     0.012 C 
ENDBRANCH  33  35
ENDBRANCH  32  33
ENDBRANCH   1  32
TORSDOF 8
ENDMDL
MODEL 6
REMARK VINA RESULT:    -7.222     11.942     15.411
REMARK INTER + INTRA:         -10.981
REMARK INTER:                  -9.340
REMARK INTRA:                  -1.642
REMARK UNBOUND:                -0.803
REMARK SMILES C=C(CC[C@@H](C(=O)[O-])[C@H]1[C@H](O)C[C@@]2(C)C3=C(CC[C@]12C)[C@@]1(C)CC[C@@H](O)C(C)(C)[C@H]1CC3)C(C)C
REMARK SMILES IDX 4 1 5 2 6 3 7 4 8 5 9 6 10 7 19 8 12 9 13 10 18 11 20 12
REMARK SMILES IDX 14 13 15 14 17 15 16 16 32 17 21 18 31 19 30 20 23 21 22 22
REMARK SMILES IDX 27 23 24 24 25 25 28 26 29 27 11 28 26 30 3 32 2 33 1 34
REMARK SMILES IDX 33 35 34 36 35 37
REMARK H PARENT 11 29 26 31
REMARK Flexibility Score: inf
ROOT
ATOM      1  C   UNL     1      61.911   3.586  15.902  1.00  0.00     0.014 C 
ENDROOT
BRANCH   1   2
ATOM      2  C   UNL     1      60.518   4.075  16.367  1.00  0.00     0.042 C 
BRANCH   2   3
ATOM      3  C   UNL     1      60.342   3.955  17.867  1.00  0.00     0.045 C 
ATOM      4  O   UNL     1      59.303   3.449  18.367  1.00  0.00    -0.550 OA
ATOM      5  O   UNL     1      61.316   4.465  18.718  1.00  0.00    -0.550 OA
ENDBRANCH   2   3
BRANCH   2   6
ATOM      6  C   UNL     1      60.107   5.451  15.729  1.00  0.00     0.033 C 
ATOM      7  C   UNL     1      61.318   6.278  15.206  1.00  0.00     0.119 C 
ATOM      8  C   UNL     1      59.057   5.546  14.578  1.00  0.00    -0.017 C 
ATOM      9  C   UNL     1      60.814   7.083  13.985  1.00  0.00     0.043 C 
ATOM     10  C   UNL     1      59.281   6.998  14.053  1.00  0.00    -0.003 C 
ATOM     11  C   UNL     1      57.573   5.434  14.982  1.00  0.00     0.012 C 
ATOM     12  C   UNL     1      59.359   4.464  13.487  1.00  0.00     0.013 C 
ATOM     13  C   UNL     1      58.799   8.140  15.008  1.00  0.00     0.017 C 
ATOM     14  C   UNL     1      58.494   7.199  12.766  1.00  0.00    -0.064 C 
ATOM     15  C   UNL     1      56.633   5.827  13.808  1.00  0.00     0.032 C 
ATOM     16  C   UNL     1      57.210   6.732  12.687  1.00  0.00    -0.064 C 
ATOM     17  C   UNL     1      59.040   8.072  11.671  1.00  0.00     0.032 C 
ATOM     18  C   UNL     1      56.273   7.181  11.525  1.00  0.00    -0.008 C 
ATOM     19  C   UNL     1      58.595   7.512  10.329  1.00  0.00     0.009 C 
ATOM     20  C   UNL     1      57.054   7.558  10.178  1.00  0.00     0.007 C 
ATOM     21  C   UNL     1      55.479   8.398  12.060  1.00  0.00     0.014 C 
ATOM     22  C   UNL     1      55.274   6.026  11.217  1.00  0.00     0.016 C 
ATOM     23  C   UNL     1      56.525   8.843   9.392  1.00  0.00    -0.006 C 
ATOM     24  C   UNL     1      54.518   9.042  11.047  1.00  0.00     0.033 C 
ATOM     25  C   UNL     1      54.979   8.959   9.571  1.00  0.00     0.120 C 
ATOM     26  C   UNL     1      56.811   8.657   7.875  1.00  0.00     0.014 C 
ATOM     27  C   UNL     1      57.213  10.172   9.820  1.00  0.00     0.014 C 
BRANCH   7  28
ATOM     28  O   UNL     1      61.784   7.137  16.216  1.00  0.00    -0.393 OA
ATOM     29  H   UNL     1      60.986   7.585  16.602  1.00  0.00     0.210 HD
ENDBRANCH   7  28
BRANCH  25  30
ATOM     30  O   UNL     1      54.433  10.014   8.810  1.00  0.00    -0.393 OA
ATOM     31  H   UNL     1      53.846   9.629   8.109  1.00  0.00     0.210 HD
ENDBRANCH  25  30
ENDBRANCH   2   6
ENDBRANCH   1   2
BRANCH   1  32
ATOM     32  C   UNL     1      62.096   2.056  15.966  1.00  0.00     0.031 C 
BRANCH  32  33
ATOM     33  C   UNL     1      61.075   1.284  15.153  1.00  0.00    -0.075 C 
ATOM     34  C   UNL     1      61.149   1.307  13.810  1.00  0.00     0.008 C 
BRANCH  33  35
ATOM     35  C   UNL     1      60.048   0.411  15.866  1.00  0.00     0.008 C 
ATOM     36  C   UNL     1      60.120  -1.035  15.366  1.00  0.00     0.012 C 
ATOM     37  C   UNL     1      58.621   0.964  15.738  1.00  0.00     0.012 C 
ENDBRANCH  33  35
ENDBRANCH  32  33
ENDBRANCH   1  32
TORSDOF 8
ENDMDL
MODEL 7
REMARK VINA RESULT:    -7.209      2.721      7.873
REMARK INTER + INTRA:         -10.963
REMARK INTER:                  -9.834
REMARK INTRA:                  -1.129
REMARK UNBOUND:                -0.803
REMARK SMILES C=C(CC[C@@H](C(=O)[O-])[C@H]1[C@H](O)C[C@@]2(C)C3=C(CC[C@]12C)[C@@]1(C)CC[C@@H](O)C(C)(C)[C@H]1CC3)C(C)C
REMARK SMILES IDX 4 1 5 2 6 3 7 4 8 5 9 6 10 7 19 8 12 9 13 10 18 11 20 12
REMARK SMILES IDX 14 13 15 14 17 15 16 16 32 17 21 18 31 19 30 20 23 21 22 22
REMARK SMILES IDX 27 23 24 24 25 25 28 26 29 27 11 28 26 30 3 32 2 33 1 34
REMARK SMILES IDX 33 35 34 36 35 37
REMARK H PARENT 11 29 26 31
REMARK Flexibility Score: inf
ROOT
ATOM      1  C   UNL     1      50.590   2.229  21.366  1.00  0.00     0.014 C 
ENDROOT
BRANCH   1   2
ATOM      2  C   UNL     1      49.119   2.088  21.827  1.00  0.00     0.042 C 
BRANCH   2   3
ATOM      3  C   UNL     1      48.750   0.649  22.125  1.00  0.00     0.045 C 
ATOM      4  O   UNL     1      49.073   0.101  23.212  1.00  0.00    -0.550 OA
ATOM      5  O   UNL     1      48.095  -0.108  21.161  1.00  0.00    -0.550 OA
ENDBRANCH   2   3
BRANCH   2   6
ATOM      6  C   UNL     1      48.714   3.146  22.916  1.00  0.00     0.033 C 
ATOM      7  C   UNL     1      49.895   3.567  23.841  1.00  0.00     0.119 C 
ATOM      8  C   UNL     1      48.028   4.496  22.538  1.00  0.00    -0.017 C 
ATOM      9  C   UNL     1      49.646   5.040  24.238  1.00  0.00     0.043 C 
ATOM     10  C   UNL     1      48.183   5.318  23.855  1.00  0.00    -0.003 C 
ATOM     11  C   UNL     1      46.521   4.441  22.214  1.00  0.00     0.012 C 
ATOM     12  C   UNL     1      48.774   5.157  21.331  1.00  0.00     0.013 C 
ATOM     13  C   UNL     1      47.296   4.842  25.054  1.00  0.00     0.017 C 
ATOM     14  C   UNL     1      47.770   6.762  23.604  1.00  0.00    -0.064 C 
ATOM     15  C   UNL     1      45.903   5.865  22.139  1.00  0.00     0.032 C 
ATOM     16  C   UNL     1      46.639   7.016  22.877  1.00  0.00    -0.064 C 
ATOM     17  C   UNL     1      48.473   7.887  24.311  1.00  0.00     0.032 C 
ATOM     18  C   UNL     1      46.012   8.443  22.859  1.00  0.00    -0.008 C 
ATOM     19  C   UNL     1      48.506   9.098  23.392  1.00  0.00     0.009 C 
ATOM     20  C   UNL     1      47.079   9.617  23.085  1.00  0.00     0.007 C 
ATOM     21  C   UNL     1      44.937   8.454  23.972  1.00  0.00     0.014 C 
ATOM     22  C   UNL     1      45.313   8.662  21.483  1.00  0.00     0.016 C 
ATOM     23  C   UNL     1      46.617  10.818  24.030  1.00  0.00    -0.006 C 
ATOM     24  C   UNL     1      44.218   9.800  24.167  1.00  0.00     0.033 C 
ATOM     25  C   UNL     1      45.082  11.048  23.861  1.00  0.00     0.120 C 
ATOM     26  C   UNL     1      47.340  12.118  23.581  1.00  0.00     0.014 C 
ATOM     27  C   UNL     1      46.962  10.607  25.533  1.00  0.00     0.014 C 
BRANCH   7  28
ATOM     28  O   UNL     1      49.932   2.740  24.977  1.00  0.00    -0.393 OA
ATOM     29  H   UNL     1      50.876   2.721  25.287  1.00  0.00     0.210 HD
ENDBRANCH   7  28
BRANCH  25  30
ATOM     30  O   UNL     1      44.629  12.168  24.588  1.00  0.00    -0.393 OA
ATOM     31  H   UNL     1      43.837  12.549  24.127  1.00  0.00     0.210 HD
ENDBRANCH  25  30
ENDBRANCH   2   6
ENDBRANCH   1   2
BRANCH   1  32
ATOM     32  C   UNL     1      50.750   2.625  19.883  1.00  0.00     0.031 C 
BRANCH  32  33
ATOM     33  C   UNL     1      52.127   3.160  19.541  1.00  0.00    -0.075 C 
ATOM     34  C   UNL     1      52.235   4.271  18.791  1.00  0.00     0.008 C 
BRANCH  33  35
ATOM     35  C   UNL     1      53.363   2.496  20.139  1.00  0.00     0.008 C 
ATOM     36  C   UNL     1      54.597   3.390  19.974  1.00  0.00     0.012 C 
ATOM     37  C   UNL     1      53.617   1.100  19.551  1.00  0.00     0.012 C 
ENDBRANCH  33  35
ENDBRANCH  32  33
ENDBRANCH   1  32
TORSDOF 8
ENDMDL
MODEL 8
REMARK VINA RESULT:    -7.179     11.620     13.764
REMARK INTER + INTRA:         -10.920
REMARK INTER:                  -9.335
REMARK INTRA:                  -1.585
REMARK UNBOUND:                -0.803
REMARK SMILES C=C(CC[C@@H](C(=O)[O-])[C@H]1[C@H](O)C[C@@]2(C)C3=C(CC[C@]12C)[C@@]1(C)CC[C@@H](O)C(C)(C)[C@H]1CC3)C(C)C
REMARK SMILES IDX 4 1 5 2 6 3 7 4 8 5 9 6 10 7 19 8 12 9 13 10 18 11 20 12
REMARK SMILES IDX 14 13 15 14 17 15 16 16 32 17 21 18 31 19 30 20 23 21 22 22
REMARK SMILES IDX 27 23 24 24 25 25 28 26 29 27 11 28 26 30 3 32 2 33 1 34
REMARK SMILES IDX 33 35 34 36 35 37
REMARK H PARENT 11 29 26 31
REMARK Flexibility Score: inf
ROOT
ATOM      1  C   UNL     1      53.205  10.838  10.022  1.00  0.00     0.014 C 
ENDROOT
BRANCH   1   2
ATOM      2  C   UNL     1      53.057   9.841  11.196  1.00  0.00     0.042 C 
BRANCH   2   3
ATOM      3  C   UNL     1      51.614   9.438  11.426  1.00  0.00     0.045 C 
ATOM      4  O   UNL     1      51.118   9.409  12.583  1.00  0.00    -0.550 OA
ATOM      5  O   UNL     1      50.832   9.035  10.350  1.00  0.00    -0.550 OA
ENDBRANCH   2   3
BRANCH   2   6
ATOM      6  C   UNL     1      54.103   8.669  11.140  1.00  0.00     0.033 C 
ATOM      7  C   UNL     1      54.650   8.394   9.708  1.00  0.00     0.119 C 
ATOM      8  C   UNL     1      55.376   8.656  12.043  1.00  0.00    -0.017 C 
ATOM      9  C   UNL     1      56.105   7.898   9.875  1.00  0.00     0.043 C 
ATOM     10  C   UNL     1      56.242   7.548  11.366  1.00  0.00    -0.003 C 
ATOM     11  C   UNL     1      55.179   8.241  13.514  1.00  0.00     0.012 C 
ATOM     12  C   UNL     1      56.070  10.059  12.010  1.00  0.00     0.013 C 
ATOM     13  C   UNL     1      55.719   6.084  11.544  1.00  0.00     0.017 C 
ATOM     14  C   UNL     1      57.636   7.549  11.977  1.00  0.00    -0.064 C 
ATOM     15  C   UNL     1      56.540   7.990  14.222  1.00  0.00     0.032 C 
ATOM     16  C   UNL     1      57.770   7.660  13.335  1.00  0.00    -0.064 C 
ATOM     17  C   UNL     1      58.836   7.231  11.131  1.00  0.00     0.032 C 
ATOM     18  C   UNL     1      59.135   7.356  14.024  1.00  0.00    -0.008 C 
ATOM     19  C   UNL     1      60.022   8.036  11.639  1.00  0.00     0.009 C 
ATOM     20  C   UNL     1      60.404   7.631  13.086  1.00  0.00     0.007 C 
ATOM     21  C   UNL     1      59.078   5.869  14.451  1.00  0.00     0.014 C 
ATOM     22  C   UNL     1      59.256   8.241  15.300  1.00  0.00     0.016 C 
ATOM     23  C   UNL     1      61.582   6.557  13.160  1.00  0.00    -0.006 C 
ATOM     24  C   UNL     1      60.360   5.335  15.114  1.00  0.00     0.033 C 
ATOM     25  C   UNL     1      61.671   5.985  14.609  1.00  0.00     0.120 C 
ATOM     26  C   UNL     1      62.930   7.267  12.850  1.00  0.00     0.014 C 
ATOM     27  C   UNL     1      61.441   5.394  12.135  1.00  0.00     0.014 C 
BRANCH   7  28
ATOM     28  O   UNL     1      53.858   7.423   9.071  1.00  0.00    -0.393 OA
ATOM     29  H   UNL     1      53.371   6.936   9.786  1.00  0.00     0.210 HD
ENDBRANCH   7  28
BRANCH  25  30
ATOM     30  O   UNL     1      62.765   5.109  14.770  1.00  0.00    -0.393 OA
ATOM     31  H   UNL     1      63.603   5.640  14.757  1.00  0.00     0.210 HD
ENDBRANCH  25  30
ENDBRANCH   2   6
ENDBRANCH   1   2
BRANCH   1  32
ATOM     32  C   UNL     1      52.887  12.301  10.393  1.00  0.00     0.031 C 
BRANCH  32  33
ATOM     33  C   UNL     1      53.984  12.978  11.193  1.00  0.00    -0.075 C 
ATOM     34  C   UNL     1      55.068  13.453  10.553  1.00  0.00     0.008 C 
BRANCH  33  35
ATOM     35  C   UNL     1      53.795  13.204  12.689  1.00  0.00     0.008 C 
ATOM     36  C   UNL     1      52.370  12.842  13.120  1.00  0.00     0.012 C 
ATOM     37  C   UNL     1      54.147  14.638  13.111  1.00  0.00     0.012 C 
ENDBRANCH  33  35
ENDBRANCH  32  33
ENDBRANCH   1  32
TORSDOF 8
ENDMDL
MODEL 9
REMARK VINA RESULT:    -7.175      1.711      3.422
REMARK INTER + INTRA:         -10.914
REMARK INTER:                  -9.424
REMARK INTRA:                  -1.490
REMARK UNBOUND:                -0.803
REMARK SMILES C=C(CC[C@@H](C(=O)[O-])[C@H]1[C@H](O)C[C@@]2(C)C3=C(CC[C@]12C)[C@@]1(C)CC[C@@H](O)C(C)(C)[C@H]1CC3)C(C)C
REMARK SMILES IDX 4 1 5 2 6 3 7 4 8 5 9 6 10 7 19 8 12 9 13 10 18 11 20 12
REMARK SMILES IDX 14 13 15 14 17 15 16 16 32 17 21 18 31 19 30 20 23 21 22 22
REMARK SMILES IDX 27 23 24 24 25 25 28 26 29 27 11 28 26 30 3 32 2 33 1 34
REMARK SMILES IDX 33 35 34 36 35 37
REMARK H PARENT 11 29 26 31
REMARK Flexibility Score: inf
ROOT
ATOM      1  C   UNL     1      46.616  11.100  22.094  1.00  0.00     0.014 C 
ENDROOT
BRANCH   1   2
ATOM      2  C   UNL     1      47.366   9.947  21.385  1.00  0.00     0.042 C 
BRANCH   2   3
ATOM      3  C   UNL     1      48.143  10.428  20.176  1.00  0.00     0.045 C 
ATOM      4  O   UNL     1      48.905   9.656  19.537  1.00  0.00    -0.550 OA
ATOM      5  O   UNL     1      48.065  11.762  19.794  1.00  0.00    -0.550 OA
ENDBRANCH   2   3
BRANCH   2   6
ATOM      6  C   UNL     1      48.146   9.018  22.385  1.00  0.00     0.033 C 
ATOM      7  C   UNL     1      47.712   9.203  23.869  1.00  0.00     0.119 C 
ATOM      8  C   UNL     1      48.206   7.470  22.197  1.00  0.00    -0.017 C 
ATOM      9  C   UNL     1      47.878   7.828  24.556  1.00  0.00     0.043 C 
ATOM     10  C   UNL     1      48.731   6.994  23.587  1.00  0.00    -0.003 C 
ATOM     11  C   UNL     1      49.188   6.938  21.134  1.00  0.00     0.012 C 
ATOM     12  C   UNL     1      46.777   6.914  21.877  1.00  0.00     0.013 C 
ATOM     13  C   UNL     1      50.230   7.329  23.889  1.00  0.00     0.017 C 
ATOM     14  C   UNL     1      48.638   5.477  23.672  1.00  0.00    -0.064 C 
ATOM     15  C   UNL     1      49.364   5.397  21.243  1.00  0.00     0.032 C 
ATOM     16  C   UNL     1      49.030   4.722  22.600  1.00  0.00    -0.064 C 
ATOM     17  C   UNL     1      48.315   4.809  24.979  1.00  0.00     0.032 C 
ATOM     18  C   UNL     1      49.246   3.185  22.749  1.00  0.00    -0.008 C 
ATOM     19  C   UNL     1      47.515   3.547  24.700  1.00  0.00     0.009 C 
ATOM     20  C   UNL     1      48.342   2.517  23.891  1.00  0.00     0.007 C 
ATOM     21  C   UNL     1      50.751   2.991  23.055  1.00  0.00     0.014 C 
ATOM     22  C   UNL     1      48.917   2.502  21.388  1.00  0.00     0.016 C 
ATOM     23  C   UNL     1      49.053   1.413  24.798  1.00  0.00    -0.006 C 
ATOM     24  C   UNL     1      51.182   1.534  23.294  1.00  0.00     0.033 C 
ATOM     25  C   UNL     1      50.100   0.635  23.940  1.00  0.00     0.120 C 
ATOM     26  C   UNL     1      47.984   0.391  25.277  1.00  0.00     0.014 C 
ATOM     27  C   UNL     1      49.731   1.987  26.075  1.00  0.00     0.014 C 
BRANCH   7  28
ATOM     28  O   UNL     1      48.520  10.173  24.487  1.00  0.00    -0.393 OA
ATOM     29  H   UNL     1      49.195   9.683  25.027  1.00  0.00     0.210 HD
ENDBRANCH   7  28
BRANCH  25  30
ATOM     30  O   UNL     1      50.688  -0.431  24.654  1.00  0.00    -0.393 OA
ATOM     31  H   UNL     1      50.008  -1.142  24.782  1.00  0.00     0.210 HD
ENDBRANCH  25  30
ENDBRANCH   2   6
ENDBRANCH   1   2
BRANCH   1  32
ATOM     32  C   UNL     1      45.080  10.957  22.078  1.00  0.00     0.031 C 
BRANCH  32  33
ATOM     33  C   UNL     1      44.490  10.583  23.424  1.00  0.00    -0.075 C 
ATOM     34  C   UNL     1      44.625  11.430  24.461  1.00  0.00     0.008 C 
BRANCH  33  35
ATOM     35  C   UNL     1      43.663   9.309  23.556  1.00  0.00     0.008 C 
ATOM     36  C   UNL     1      44.203   8.422  24.682  1.00  0.00     0.012 C 
ATOM     37  C   UNL     1      43.580   8.528  22.236  1.00  0.00     0.012 C 
ENDBRANCH  33  35
ENDBRANCH  32  33
ENDBRANCH   1  32
TORSDOF 8
ENDMDL
