MODEL 1
REMARK VINA RESULT:    -4.664      0.000      0.000
REMARK INTER + INTRA:         -10.261
REMARK INTER:                  -8.209
REMARK INTRA:                  -2.051
REMARK UNBOUND:                -2.051
REMARK SMILES CCCCCCCCCCCCCCC(=O)[O-]
REMARK SMILES IDX 9 1 10 2 11 3 12 4 13 5 14 6 15 7 16 8 17 9 8 10 7 11 6 12
REMARK SMILES IDX 5 13 4 14 3 15 2 16 1 17
REMARK H PARENT
REMARK Flexibility Score: inf
ROOT
ATOM      1  C   UNL     1      60.358  28.638  11.215  1.00  0.00     0.000 C 
ENDROOT
BRANCH   1   2
ATOM      2  C   UNL     1      60.306  29.824  10.233  1.00  0.00     0.000 C 
BRANCH   2   3
ATOM      3  C   UNL     1      61.304  29.683   9.073  1.00  0.00     0.000 C 
BRANCH   3   4
ATOM      4  C   UNL     1      62.407  28.646   9.352  1.00  0.00     0.000 C 
BRANCH   4   5
ATOM      5  C   UNL     1      63.853  29.168   9.206  1.00  0.00     0.006 C 
BRANCH   5   6
ATOM      6  C   UNL     1      63.964  30.681   8.961  1.00  0.00     0.053 C 
BRANCH   6   7
ATOM      7  C   UNL     1      65.294  31.223   9.385  1.00  0.00     0.041 C 
ATOM      8  O   UNL     1      66.353  30.611   9.081  1.00  0.00    -0.550 OA
ATOM      9  O   UNL     1      65.363  32.384  10.144  1.00  0.00    -0.550 OA
ENDBRANCH   6   7
ENDBRANCH   5   6
ENDBRANCH   4   5
ENDBRANCH   3   4
ENDBRANCH   2   3
ENDBRANCH   1   2
BRANCH   1  10
ATOM     10  C   UNL     1      59.773  28.915  12.615  1.00  0.00     0.000 C 
BRANCH  10  11
ATOM     11  C   UNL     1      60.813  29.045  13.743  1.00  0.00    -0.000 C 
BRANCH  11  12
ATOM     12  C   UNL     1      62.234  28.673  13.285  1.00  0.00    -0.000 C 
BRANCH  12  13
ATOM     13  C   UNL     1      63.226  29.838  13.427  1.00  0.00    -0.000 C 
BRANCH  13  14
ATOM     14  C   UNL     1      63.029  30.915  12.346  1.00  0.00    -0.000 C 
BRANCH  14  15
ATOM     15  C   UNL     1      62.971  32.335  12.931  1.00  0.00    -0.000 C 
BRANCH  15  16
ATOM     16  C   UNL     1      62.002  32.449  14.117  1.00  0.00    -0.003 C 
ATOM     17  C   UNL     1      60.632  32.945  13.661  1.00  0.00     0.004 C 
ENDBRANCH  15  16
ENDBRANCH  14  15
ENDBRANCH  13  14
ENDBRANCH  12  13
ENDBRANCH  11  12
ENDBRANCH  10  11
ENDBRANCH   1  10
TORSDOF 13
ENDMDL
MODEL 2
REMARK VINA RESULT:    -4.616      3.040      5.656
REMARK INTER + INTRA:         -10.176
REMARK INTER:                  -8.291
REMARK INTRA:                  -1.884
REMARK UNBOUND:                -2.051
REMARK SMILES CCCCCCCCCCCCCCC(=O)[O-]
REMARK SMILES IDX 9 1 10 2 11 3 12 4 13 5 14 6 15 7 16 8 17 9 8 10 7 11 6 12
REMARK SMILES IDX 5 13 4 14 3 15 2 16 1 17
REMARK H PARENT
REMARK Flexibility Score: inf
ROOT
ATOM      1  C   UNL     1      64.517  31.214  10.175  1.00  0.00     0.000 C 
ENDROOT
BRANCH   1   2
ATOM      2  C   UNL     1      64.088  31.173  11.654  1.00  0.00     0.000 C 
BRANCH   2   3
ATOM      3  C   UNL     1      64.155  32.549  12.334  1.00  0.00     0.000 C 
BRANCH   3   4
ATOM      4  C   UNL     1      63.239  32.654  13.568  1.00  0.00     0.000 C 
BRANCH   4   5
ATOM      5  C   UNL     1      61.730  32.747  13.261  1.00  0.00     0.006 C 
BRANCH   5   6
ATOM      6  C   UNL     1      60.862  33.190  14.449  1.00  0.00     0.053 C 
BRANCH   6   7
ATOM      7  C   UNL     1      60.053  32.060  15.007  1.00  0.00     0.041 C 
ATOM      8  O   UNL     1      58.915  31.801  14.532  1.00  0.00    -0.550 OA
ATOM      9  O   UNL     1      60.540  31.314  16.072  1.00  0.00    -0.550 OA
ENDBRANCH   6   7
ENDBRANCH   5   6
ENDBRANCH   4   5
ENDBRANCH   3   4
ENDBRANCH   2   3
ENDBRANCH   1   2
BRANCH   1  10
ATOM     10  C   UNL     1      63.764  30.242   9.242  1.00  0.00     0.000 C 
BRANCH  10  11
ATOM     11  C   UNL     1      63.153  29.013   9.938  1.00  0.00    -0.000 C 
BRANCH  11  12
ATOM     12  C   UNL     1      61.747  28.672   9.413  1.00  0.00    -0.000 C 
BRANCH  12  13
ATOM     13  C   UNL     1      60.724  29.784   9.695  1.00  0.00    -0.000 C 
BRANCH  13  14
ATOM     14  C   UNL     1      60.555  30.061  11.199  1.00  0.00    -0.000 C 
BRANCH  14  15
ATOM     15  C   UNL     1      59.627  29.048  11.885  1.00  0.00    -0.000 C 
BRANCH  15  16
ATOM     16  C   UNL     1      60.307  28.318  13.054  1.00  0.00    -0.003 C 
ATOM     17  C   UNL     1      61.636  28.978  13.415  1.00  0.00     0.004 C 
ENDBRANCH  15  16
ENDBRANCH  14  15
ENDBRANCH  13  14
ENDBRANCH  12  13
ENDBRANCH  11  12
ENDBRANCH  10  11
ENDBRANCH   1  10
TORSDOF 13
ENDMDL
MODEL 3
REMARK VINA RESULT:    -4.593     13.412     15.309
REMARK INTER + INTRA:         -10.136
REMARK INTER:                  -8.098
REMARK INTRA:                  -2.038
REMARK UNBOUND:                -2.051
REMARK SMILES CCCCCCCCCCCCCCC(=O)[O-]
REMARK SMILES IDX 9 1 10 2 11 3 12 4 13 5 14 6 15 7 16 8 17 9 8 10 7 11 6 12
REMARK SMILES IDX 5 13 4 14 3 15 2 16 1 17
REMARK H PARENT
REMARK Flexibility Score: inf
ROOT
ATOM      1  C   UNL     1      64.133  30.137  28.531  1.00  0.00     0.000 C 
ENDROOT
BRANCH   1   2
ATOM      2  C   UNL     1      64.706  30.427  27.131  1.00  0.00     0.000 C 
BRANCH   2   3
ATOM      3  C   UNL     1      65.432  29.219  26.519  1.00  0.00     0.000 C 
BRANCH   3   4
ATOM      4  C   UNL     1      65.914  29.474  25.079  1.00  0.00     0.000 C 
BRANCH   4   5
ATOM      5  C   UNL     1      65.814  28.262  24.128  1.00  0.00     0.006 C 
BRANCH   5   6
ATOM      6  C   UNL     1      65.253  26.986  24.775  1.00  0.00     0.053 C 
BRANCH   6   7
ATOM      7  C   UNL     1      64.889  25.953  23.754  1.00  0.00     0.041 C 
ATOM      8  O   UNL     1      63.750  25.413  23.777  1.00  0.00    -0.550 OA
ATOM      9  O   UNL     1      65.817  25.559  22.799  1.00  0.00    -0.550 OA
ENDBRANCH   6   7
ENDBRANCH   5   6
ENDBRANCH   4   5
ENDBRANCH   3   4
ENDBRANCH   2   3
ENDBRANCH   1   2
BRANCH   1  10
ATOM     10  C   UNL     1      62.636  30.464  28.712  1.00  0.00     0.000 C 
BRANCH  10  11
ATOM     11  C   UNL     1      61.692  29.249  28.652  1.00  0.00    -0.000 C 
BRANCH  11  12
ATOM     12  C   UNL     1      62.449  27.913  28.565  1.00  0.00    -0.000 C 
BRANCH  12  13
ATOM     13  C   UNL     1      62.200  27.177  27.238  1.00  0.00    -0.000 C 
BRANCH  13  14
ATOM     14  C   UNL     1      60.755  27.338  26.737  1.00  0.00    -0.000 C 
BRANCH  14  15
ATOM     15  C   UNL     1      60.682  27.659  25.237  1.00  0.00    -0.000 C 
BRANCH  15  16
ATOM     16  C   UNL     1      61.978  28.287  24.701  1.00  0.00    -0.003 C 
ATOM     17  C   UNL     1      61.976  29.801  24.896  1.00  0.00     0.004 C 
ENDBRANCH  15  16
ENDBRANCH  14  15
ENDBRANCH  13  14
ENDBRANCH  12  13
ENDBRANCH  11  12
ENDBRANCH  10  11
ENDBRANCH   1  10
TORSDOF 13
ENDMDL
MODEL 4
REMARK VINA RESULT:    -4.557     13.338     15.212
REMARK INTER + INTRA:         -10.072
REMARK INTER:                  -8.120
REMARK INTRA:                  -1.952
REMARK UNBOUND:                -2.051
REMARK SMILES CCCCCCCCCCCCCCC(=O)[O-]
REMARK SMILES IDX 9 1 10 2 11 3 12 4 13 5 14 6 15 7 16 8 17 9 8 10 7 11 6 12
REMARK SMILES IDX 5 13 4 14 3 15 2 16 1 17
REMARK H PARENT
REMARK Flexibility Score: inf
ROOT
ATOM      1  C   UNL     1      61.130  28.303  24.649  1.00  0.00     0.000 C 
ENDROOT
BRANCH   1   2
ATOM      2  C   UNL     1      61.990  29.475  25.157  1.00  0.00     0.000 C 
BRANCH   2   3
ATOM      3  C   UNL     1      63.361  29.555  24.466  1.00  0.00     0.000 C 
BRANCH   3   4
ATOM      4  C   UNL     1      64.534  29.308  25.432  1.00  0.00     0.000 C 
BRANCH   4   5
ATOM      5  C   UNL     1      65.285  27.975  25.227  1.00  0.00     0.006 C 
BRANCH   5   6
ATOM      6  C   UNL     1      65.373  27.509  23.764  1.00  0.00     0.053 C 
BRANCH   6   7
ATOM      7  C   UNL     1      65.029  26.060  23.615  1.00  0.00     0.041 C 
ATOM      8  O   UNL     1      65.886  25.247  23.176  1.00  0.00    -0.550 OA
ATOM      9  O   UNL     1      63.752  25.611  23.927  1.00  0.00    -0.550 OA
ENDBRANCH   6   7
ENDBRANCH   5   6
ENDBRANCH   4   5
ENDBRANCH   3   4
ENDBRANCH   2   3
ENDBRANCH   1   2
BRANCH   1  10
ATOM     10  C   UNL     1      60.900  27.164  25.664  1.00  0.00     0.000 C 
BRANCH  10  11
ATOM     11  C   UNL     1      61.893  27.129  26.840  1.00  0.00    -0.000 C 
BRANCH  11  12
ATOM     12  C   UNL     1      61.193  27.166  28.209  1.00  0.00    -0.000 C 
BRANCH  12  13
ATOM     13  C   UNL     1      61.092  28.587  28.785  1.00  0.00    -0.000 C 
BRANCH  13  14
ATOM     14  C   UNL     1      62.468  29.184  29.125  1.00  0.00    -0.000 C 
BRANCH  14  15
ATOM     15  C   UNL     1      62.688  30.563  28.485  1.00  0.00    -0.000 C 
BRANCH  15  16
ATOM     16  C   UNL     1      64.036  31.189  28.872  1.00  0.00    -0.003 C 
ATOM     17  C   UNL     1      65.123  30.123  28.989  1.00  0.00     0.004 C 
ENDBRANCH  15  16
ENDBRANCH  14  15
ENDBRANCH  13  14
ENDBRANCH  12  13
ENDBRANCH  11  12
ENDBRANCH  10  11
ENDBRANCH   1  10
TORSDOF 13
ENDMDL
MODEL 5
REMARK VINA RESULT:    -4.522      2.528      4.642
REMARK INTER + INTRA:         -10.010
REMARK INTER:                  -7.849
REMARK INTRA:                  -2.161
REMARK UNBOUND:                -2.051
REMARK SMILES CCCCCCCCCCCCCCC(=O)[O-]
REMARK SMILES IDX 9 1 10 2 11 3 12 4 13 5 14 6 15 7 16 8 17 9 8 10 7 11 6 12
REMARK SMILES IDX 5 13 4 14 3 15 2 16 1 17
REMARK H PARENT
REMARK Flexibility Score: inf
ROOT
ATOM      1  C   UNL     1      63.310  31.841  12.215  1.00  0.00     0.000 C 
ENDROOT
BRANCH   1   2
ATOM      2  C   UNL     1      63.784  30.442  11.780  1.00  0.00     0.000 C 
BRANCH   2   3
ATOM      3  C   UNL     1      63.387  29.340  12.775  1.00  0.00     0.000 C 
BRANCH   3   4
ATOM      4  C   UNL     1      62.013  29.586  13.427  1.00  0.00     0.000 C 
BRANCH   4   5
ATOM      5  C   UNL     1      60.838  28.810  12.796  1.00  0.00     0.006 C 
BRANCH   5   6
ATOM      6  C   UNL     1      60.041  29.600  11.745  1.00  0.00     0.053 C 
BRANCH   6   7
ATOM      7  C   UNL     1      60.350  29.149  10.351  1.00  0.00     0.041 C 
ATOM      8  O   UNL     1      59.685  29.597   9.379  1.00  0.00    -0.550 OA
ATOM      9  O   UNL     1      61.348  28.209  10.127  1.00  0.00    -0.550 OA
ENDBRANCH   6   7
ENDBRANCH   5   6
ENDBRANCH   4   5
ENDBRANCH   3   4
ENDBRANCH   2   3
ENDBRANCH   1   2
BRANCH   1  10
ATOM     10  C   UNL     1      64.415  32.776  12.748  1.00  0.00     0.000 C 
BRANCH  10  11
ATOM     11  C   UNL     1      64.197  33.294  14.181  1.00  0.00    -0.000 C 
BRANCH  11  12
ATOM     12  C   UNL     1      63.999  32.157  15.199  1.00  0.00    -0.000 C 
BRANCH  12  13
ATOM     13  C   UNL     1      62.731  32.338  16.049  1.00  0.00    -0.000 C 
BRANCH  13  14
ATOM     14  C   UNL     1      62.187  33.776  15.998  1.00  0.00    -0.000 C 
BRANCH  14  15
ATOM     15  C   UNL     1      60.736  33.841  15.497  1.00  0.00    -0.000 C 
BRANCH  15  16
ATOM     16  C   UNL     1      60.491  32.946  14.273  1.00  0.00    -0.003 C 
ATOM     17  C   UNL     1      59.358  31.958  14.534  1.00  0.00     0.004 C 
ENDBRANCH  15  16
ENDBRANCH  14  15
ENDBRANCH  13  14
ENDBRANCH  12  13
ENDBRANCH  11  12
ENDBRANCH  10  11
ENDBRANCH   1  10
TORSDOF 13
ENDMDL
MODEL 6
REMARK VINA RESULT:    -4.512      2.850      5.509
REMARK INTER + INTRA:          -9.993
REMARK INTER:                  -8.073
REMARK INTRA:                  -1.920
REMARK UNBOUND:                -2.051
REMARK SMILES CCCCCCCCCCCCCCC(=O)[O-]
REMARK SMILES IDX 9 1 10 2 11 3 12 4 13 5 14 6 15 7 16 8 17 9 8 10 7 11 6 12
REMARK SMILES IDX 5 13 4 14 3 15 2 16 1 17
REMARK H PARENT
REMARK Flexibility Score: inf
ROOT
ATOM      1  C   UNL     1      62.619  28.765  13.312  1.00  0.00     0.000 C 
ENDROOT
BRANCH   1   2
ATOM      2  C   UNL     1      63.449  30.035  13.047  1.00  0.00     0.000 C 
BRANCH   2   3
ATOM      3  C   UNL     1      62.584  31.242  12.651  1.00  0.00     0.000 C 
BRANCH   3   4
ATOM      4  C   UNL     1      63.092  32.567  13.251  1.00  0.00     0.000 C 
BRANCH   4   5
ATOM      5  C   UNL     1      63.083  32.635  14.793  1.00  0.00     0.006 C 
BRANCH   5   6
ATOM      6  C   UNL     1      61.806  32.089  15.451  1.00  0.00     0.053 C 
BRANCH   6   7
ATOM      7  C   UNL     1      60.605  32.920  15.121  1.00  0.00     0.041 C 
ATOM      8  O   UNL     1      59.693  32.452  14.388  1.00  0.00    -0.550 OA
ATOM      9  O   UNL     1      60.508  34.222  15.594  1.00  0.00    -0.550 OA
ENDBRANCH   6   7
ENDBRANCH   5   6
ENDBRANCH   4   5
ENDBRANCH   3   4
ENDBRANCH   2   3
ENDBRANCH   1   2
BRANCH   1  10
ATOM     10  C   UNL     1      61.112  28.999  13.546  1.00  0.00     0.000 C 
BRANCH  10  11
ATOM     11  C   UNL     1      60.183  28.374  12.489  1.00  0.00    -0.000 C 
BRANCH  11  12
ATOM     12  C   UNL     1      59.740  29.385  11.417  1.00  0.00    -0.000 C 
BRANCH  12  13
ATOM     13  C   UNL     1      59.711  28.777  10.006  1.00  0.00    -0.000 C 
BRANCH  13  14
ATOM     14  C   UNL     1      61.085  28.243   9.565  1.00  0.00    -0.000 C 
BRANCH  14  15
ATOM     15  C   UNL     1      62.083  29.369   9.255  1.00  0.00    -0.000 C 
BRANCH  15  16
ATOM     16  C   UNL     1      63.534  28.980   9.575  1.00  0.00    -0.003 C 
ATOM     17  C   UNL     1      64.472  30.173   9.408  1.00  0.00     0.004 C 
ENDBRANCH  15  16
ENDBRANCH  14  15
ENDBRANCH  13  14
ENDBRANCH  12  13
ENDBRANCH  11  12
ENDBRANCH  10  11
ENDBRANCH   1  10
TORSDOF 13
ENDMDL
MODEL 7
REMARK VINA RESULT:    -4.503      3.381      6.257
REMARK INTER + INTRA:          -9.977
REMARK INTER:                  -8.309
REMARK INTRA:                  -1.668
REMARK UNBOUND:                -2.051
REMARK SMILES CCCCCCCCCCCCCCC(=O)[O-]
REMARK SMILES IDX 9 1 10 2 11 3 12 4 13 5 14 6 15 7 16 8 17 9 8 10 7 11 6 12
REMARK SMILES IDX 5 13 4 14 3 15 2 16 1 17
REMARK H PARENT
REMARK Flexibility Score: inf
ROOT
ATOM      1  C   UNL     1      63.000  31.187  11.959  1.00  0.00     0.000 C 
ENDROOT
BRANCH   1   2
ATOM      2  C   UNL     1      62.537  32.197  13.025  1.00  0.00     0.000 C 
BRANCH   2   3
ATOM      3  C   UNL     1      61.015  32.410  13.027  1.00  0.00     0.000 C 
BRANCH   3   4
ATOM      4  C   UNL     1      60.500  33.056  14.326  1.00  0.00     0.000 C 
BRANCH   4   5
ATOM      5  C   UNL     1      61.596  33.486  15.325  1.00  0.00     0.006 C 
BRANCH   5   6
ATOM      6  C   UNL     1      61.066  34.118  16.622  1.00  0.00     0.053 C 
BRANCH   6   7
ATOM      7  C   UNL     1      62.017  33.938  17.765  1.00  0.00     0.041 C 
ATOM      8  O   UNL     1      63.008  33.168  17.648  1.00  0.00    -0.550 OA
ATOM      9  O   UNL     1      61.792  34.592  18.969  1.00  0.00    -0.550 OA
ENDBRANCH   6   7
ENDBRANCH   5   6
ENDBRANCH   4   5
ENDBRANCH   3   4
ENDBRANCH   2   3
ENDBRANCH   1   2
BRANCH   1  10
ATOM     10  C   UNL     1      63.711  29.931  12.505  1.00  0.00     0.000 C 
BRANCH  10  11
ATOM     11  C   UNL     1      62.956  29.187  13.621  1.00  0.00    -0.000 C 
BRANCH  11  12
ATOM     12  C   UNL     1      61.824  28.296  13.079  1.00  0.00    -0.000 C 
BRANCH  12  13
ATOM     13  C   UNL     1      60.428  28.839  13.421  1.00  0.00    -0.000 C 
BRANCH  13  14
ATOM     14  C   UNL     1      59.441  28.707  12.249  1.00  0.00    -0.000 C 
BRANCH  14  15
ATOM     15  C   UNL     1      59.858  29.541  11.028  1.00  0.00    -0.000 C 
BRANCH  15  16
ATOM     16  C   UNL     1      59.909  28.715   9.734  1.00  0.00    -0.003 C 
ATOM     17  C   UNL     1      61.339  28.290   9.410  1.00  0.00     0.004 C 
ENDBRANCH  15  16
ENDBRANCH  14  15
ENDBRANCH  13  14
ENDBRANCH  12  13
ENDBRANCH  11  12
ENDBRANCH  10  11
ENDBRANCH   1  10
TORSDOF 13
ENDMDL
MODEL 8
REMARK VINA RESULT:    -4.494     12.716     14.784
REMARK INTER + INTRA:          -9.960
REMARK INTER:                  -8.007
REMARK INTRA:                  -1.953
REMARK UNBOUND:                -2.051
REMARK SMILES CCCCCCCCCCCCCCC(=O)[O-]
REMARK SMILES IDX 9 1 10 2 11 3 12 4 13 5 14 6 15 7 16 8 17 9 8 10 7 11 6 12
REMARK SMILES IDX 5 13 4 14 3 15 2 16 1 17
REMARK H PARENT
REMARK Flexibility Score: inf
ROOT
ATOM      1  C   UNL     1      64.091  30.189  26.068  1.00  0.00     0.000 C 
ENDROOT
BRANCH   1   2
ATOM      2  C   UNL     1      64.708  29.427  24.880  1.00  0.00     0.000 C 
BRANCH   2   3
ATOM      3  C   UNL     1      65.590  28.247  25.318  1.00  0.00     0.000 C 
BRANCH   3   4
ATOM      4  C   UNL     1      64.868  26.891  25.222  1.00  0.00     0.000 C 
BRANCH   4   5
ATOM      5  C   UNL     1      64.546  26.418  23.788  1.00  0.00     0.006 C 
BRANCH   5   6
ATOM      6  C   UNL     1      65.711  25.721  23.068  1.00  0.00     0.053 C 
BRANCH   6   7
ATOM      7  C   UNL     1      66.150  26.475  21.850  1.00  0.00     0.041 C 
ATOM      8  O   UNL     1      66.384  25.861  20.776  1.00  0.00    -0.550 OA
ATOM      9  O   UNL     1      66.335  27.850  21.911  1.00  0.00    -0.550 OA
ENDBRANCH   6   7
ENDBRANCH   5   6
ENDBRANCH   4   5
ENDBRANCH   3   4
ENDBRANCH   2   3
ENDBRANCH   1   2
BRANCH   1  10
ATOM     10  C   UNL     1      64.759  29.931  27.435  1.00  0.00     0.000 C 
BRANCH  10  11
ATOM     11  C   UNL     1      63.783  29.690  28.601  1.00  0.00    -0.000 C 
BRANCH  11  12
ATOM     12  C   UNL     1      62.326  30.020  28.234  1.00  0.00    -0.000 C 
BRANCH  12  13
ATOM     13  C   UNL     1      61.354  28.884  28.591  1.00  0.00    -0.000 C 
BRANCH  13  14
ATOM     14  C   UNL     1      61.990  27.492  28.431  1.00  0.00    -0.000 C 
BRANCH  14  15
ATOM     15  C   UNL     1      61.970  26.998  26.976  1.00  0.00    -0.000 C 
BRANCH  15  16
ATOM     16  C   UNL     1      60.750  27.507  26.193  1.00  0.00    -0.003 C 
ATOM     17  C   UNL     1      61.168  28.103  24.852  1.00  0.00     0.004 C 
ENDBRANCH  15  16
ENDBRANCH  14  15
ENDBRANCH  13  14
ENDBRANCH  12  13
ENDBRANCH  11  12
ENDBRANCH  10  11
ENDBRANCH   1  10
TORSDOF 13
ENDMDL
MODEL 9
REMARK VINA RESULT:    -4.416      2.702      4.083
REMARK INTER + INTRA:          -9.823
REMARK INTER:                  -7.726
REMARK INTRA:                  -2.098
REMARK UNBOUND:                -2.051
REMARK SMILES CCCCCCCCCCCCCCC(=O)[O-]
REMARK SMILES IDX 9 1 10 2 11 3 12 4 13 5 14 6 15 7 16 8 17 9 8 10 7 11 6 12
REMARK SMILES IDX 5 13 4 14 3 15 2 16 1 17
REMARK H PARENT
REMARK Flexibility Score: inf
ROOT
ATOM      1  C   UNL     1      61.769  29.898  13.243  1.00  0.00     0.000 C 
ENDROOT
BRANCH   1   2
ATOM      2  C   UNL     1      63.062  29.413  12.563  1.00  0.00     0.000 C 
BRANCH   2   3
ATOM      3  C   UNL     1      63.330  30.111  11.220  1.00  0.00     0.000 C 
BRANCH   3   4
ATOM      4  C   UNL     1      63.533  29.120  10.059  1.00  0.00     0.000 C 
BRANCH   4   5
ATOM      5  C   UNL     1      62.328  28.966   9.107  1.00  0.00     0.006 C 
BRANCH   5   6
ATOM      6  C   UNL     1      61.158  28.151   9.682  1.00  0.00     0.053 C 
BRANCH   6   7
ATOM      7  C   UNL     1      59.950  29.001   9.930  1.00  0.00     0.041 C 
ATOM      8  O   UNL     1      59.261  28.833  10.971  1.00  0.00    -0.550 OA
ATOM      9  O   UNL     1      59.565  29.953   8.996  1.00  0.00    -0.550 OA
ENDBRANCH   6   7
ENDBRANCH   5   6
ENDBRANCH   4   5
ENDBRANCH   3   4
ENDBRANCH   2   3
ENDBRANCH   1   2
BRANCH   1  10
ATOM     10  C   UNL     1      61.163  31.193  12.663  1.00  0.00     0.000 C 
BRANCH  10  11
ATOM     11  C   UNL     1      60.030  31.815  13.499  1.00  0.00    -0.000 C 
BRANCH  11  12
ATOM     12  C   UNL     1      60.425  33.166  14.122  1.00  0.00    -0.000 C 
BRANCH  12  13
ATOM     13  C   UNL     1      61.122  33.008  15.483  1.00  0.00    -0.000 C 
BRANCH  13  14
ATOM     14  C   UNL     1      62.601  33.429  15.440  1.00  0.00    -0.000 C 
BRANCH  14  15
ATOM     15  C   UNL     1      63.557  32.246  15.655  1.00  0.00    -0.000 C 
BRANCH  15  16
ATOM     16  C   UNL     1      64.616  32.131  14.548  1.00  0.00    -0.003 C 
ATOM     17  C   UNL     1      64.285  33.048  13.374  1.00  0.00     0.004 C 
ENDBRANCH  15  16
ENDBRANCH  14  15
ENDBRANCH  13  14
ENDBRANCH  12  13
ENDBRANCH  11  12
ENDBRANCH  10  11
ENDBRANCH   1  10
TORSDOF 13
ENDMDL
