MODEL 1
REMARK VINA RESULT:    -2.154      0.000      0.000
REMARK INTER + INTRA:          -8.804
REMARK INTER:                  -4.672
REMARK INTRA:                  -4.132
REMARK UNBOUND:                -4.132
REMARK SMILES CCCCCCCCCCCCCCCCCCCCCC(=O)[O-]
REMARK SMILES IDX 12 1 11 2 10 3 9 4 8 5 7 6 6 7 5 8 4 9 3 10 2 11 1 12 13 13
REMARK SMILES IDX 14 14 15 15 16 16 17 17 18 18 19 19 20 20 21 21 22 22 23 23
REMARK SMILES IDX 24 24
REMARK H PARENT
REMARK Flexibility Score: inf
ROOT
ATOM      1  C   UNL     1      -2.494   4.774   8.532  1.00  0.00     0.000 C 
ENDROOT
BRANCH   1   2
ATOM      2  C   UNL     1      -2.326   6.298   8.614  1.00  0.00     0.000 C 
BRANCH   2   3
ATOM      3  C   UNL     1      -0.859   6.744   8.524  1.00  0.00     0.000 C 
BRANCH   3   4
ATOM      4  C   UNL     1      -0.658   8.216   8.931  1.00  0.00    -0.000 C 
BRANCH   4   5
ATOM      5  C   UNL     1       0.685   8.445   9.650  1.00  0.00    -0.000 C 
BRANCH   5   6
ATOM      6  C   UNL     1       1.782   7.474   9.176  1.00  0.00    -0.000 C 
BRANCH   6   7
ATOM      7  C   UNL     1       2.762   7.115  10.307  1.00  0.00    -0.000 C 
BRANCH   7   8
ATOM      8  C   UNL     1       2.702   5.626  10.684  1.00  0.00    -0.000 C 
BRANCH   8   9
ATOM      9  C   UNL     1       2.022   4.781   9.590  1.00  0.00    -0.000 C 
BRANCH   9  10
ATOM     10  C   UNL     1       2.530   3.331   9.563  1.00  0.00    -0.000 C 
BRANCH  10  11
ATOM     11  C   UNL     1       1.751   2.417  10.521  1.00  0.00    -0.003 C 
ATOM     12  C   UNL     1       1.060   1.288   9.761  1.00  0.00     0.004 C 
ENDBRANCH  10  11
ENDBRANCH   9  10
ENDBRANCH   8   9
ENDBRANCH   7   8
ENDBRANCH   6   7
ENDBRANCH   5   6
ENDBRANCH   4   5
ENDBRANCH   3   4
ENDBRANCH   2   3
ENDBRANCH   1   2
BRANCH   1  13
ATOM     13  C   UNL     1      -1.533   4.075   9.504  1.00  0.00     0.000 C 
BRANCH  13  14
ATOM     14  C   UNL     1      -2.014   4.116  10.967  1.00  0.00     0.000 C 
BRANCH  14  15
ATOM     15  C   UNL     1      -0.922   4.439  12.005  1.00  0.00     0.000 C 
BRANCH  15  16
ATOM     16  C   UNL     1      -0.574   5.932  12.147  1.00  0.00     0.000 C 
BRANCH  16  17
ATOM     17  C   UNL     1      -1.809   6.853  12.252  1.00  0.00     0.000 C 
BRANCH  17  18
ATOM     18  C   UNL     1      -2.520   6.725  13.607  1.00  0.00     0.000 C 
BRANCH  18  19
ATOM     19  C   UNL     1      -4.035   6.926  13.461  1.00  0.00     0.000 C 
BRANCH  19  20
ATOM     20  C   UNL     1      -4.521   6.752  12.010  1.00  0.00     0.006 C 
BRANCH  20  21
ATOM     21  C   UNL     1      -5.396   5.508  11.780  1.00  0.00     0.053 C 
BRANCH  21  22
ATOM     22  C   UNL     1      -5.706   5.300  10.329  1.00  0.00     0.041 C 
ATOM     23  O   UNL     1      -5.791   6.286   9.550  1.00  0.00    -0.550 OA
ATOM     24  O   UNL     1      -5.893   4.015   9.835  1.00  0.00    -0.550 OA
ENDBRANCH  21  22
ENDBRANCH  20  21
ENDBRANCH  19  20
ENDBRANCH  18  19
ENDBRANCH  17  18
ENDBRANCH  16  17
ENDBRANCH  15  16
ENDBRANCH  14  15
ENDBRANCH  13  14
ENDBRANCH   1  13
TORSDOF 20
ENDMDL
MODEL 2
REMARK VINA RESULT:    -2.139      4.498      7.651
REMARK INTER + INTRA:          -8.771
REMARK INTER:                  -6.182
REMARK INTRA:                  -2.589
REMARK UNBOUND:                -4.132
REMARK SMILES CCCCCCCCCCCCCCCCCCCCCC(=O)[O-]
REMARK SMILES IDX 12 1 11 2 10 3 9 4 8 5 7 6 6 7 5 8 4 9 3 10 2 11 1 12 13 13
REMARK SMILES IDX 14 14 15 15 16 16 17 17 18 18 19 19 20 20 21 21 22 22 23 23
REMARK SMILES IDX 24 24
REMARK H PARENT
REMARK Flexibility Score: inf
ROOT
ATOM      1  C   UNL     1      -4.985  -1.476  11.134  1.00  0.00     0.000 C 
ENDROOT
BRANCH   1   2
ATOM      2  C   UNL     1      -4.504  -0.754  12.400  1.00  0.00     0.000 C 
BRANCH   2   3
ATOM      3  C   UNL     1      -4.767   0.759  12.363  1.00  0.00     0.000 C 
BRANCH   3   4
ATOM      4  C   UNL     1      -3.555   1.586  12.833  1.00  0.00    -0.000 C 
BRANCH   4   5
ATOM      5  C   UNL     1      -3.475   2.955  12.131  1.00  0.00    -0.000 C 
BRANCH   5   6
ATOM      6  C   UNL     1      -4.853   3.469  11.680  1.00  0.00    -0.000 C 
BRANCH   6   7
ATOM      7  C   UNL     1      -4.764   4.300  10.386  1.00  0.00    -0.000 C 
BRANCH   7   8
ATOM      8  C   UNL     1      -3.476   5.135  10.313  1.00  0.00    -0.000 C 
BRANCH   8   9
ATOM      9  C   UNL     1      -2.581   4.712   9.132  1.00  0.00    -0.000 C 
BRANCH   9  10
ATOM     10  C   UNL     1      -1.133   4.428   9.560  1.00  0.00    -0.000 C 
BRANCH  10  11
ATOM     11  C   UNL     1      -0.221   5.654   9.400  1.00  0.00    -0.003 C 
ATOM     12  C   UNL     1       1.193   5.351   9.887  1.00  0.00     0.004 C 
ENDBRANCH  10  11
ENDBRANCH   9  10
ENDBRANCH   8   9
ENDBRANCH   7   8
ENDBRANCH   6   7
ENDBRANCH   5   6
ENDBRANCH   4   5
ENDBRANCH   3   4
ENDBRANCH   2   3
ENDBRANCH   1   2
BRANCH   1  13
ATOM     13  C   UNL     1      -3.983  -2.565  10.724  1.00  0.00     0.000 C 
BRANCH  13  14
ATOM     14  C   UNL     1      -2.775  -2.667  11.674  1.00  0.00     0.000 C 
BRANCH  14  15
ATOM     15  C   UNL     1      -1.430  -2.979  10.990  1.00  0.00     0.000 C 
BRANCH  15  16
ATOM     16  C   UNL     1      -0.346  -1.897  11.151  1.00  0.00     0.000 C 
BRANCH  16  17
ATOM     17  C   UNL     1      -0.803  -0.675  11.977  1.00  0.00     0.000 C 
BRANCH  17  18
ATOM     18  C   UNL     1       0.330   0.338  12.198  1.00  0.00     0.000 C 
BRANCH  18  19
ATOM     19  C   UNL     1       0.162   1.566  11.291  1.00  0.00     0.000 C 
BRANCH  19  20
ATOM     20  C   UNL     1       0.862   1.400   9.929  1.00  0.00     0.006 C 
BRANCH  20  21
ATOM     21  C   UNL     1       2.340   1.824   9.920  1.00  0.00     0.053 C 
BRANCH  21  22
ATOM     22  C   UNL     1       3.262   0.647   9.818  1.00  0.00     0.041 C 
ATOM     23  O   UNL     1       2.805  -0.525   9.884  1.00  0.00    -0.550 OA
ATOM     24  O   UNL     1       4.625   0.845   9.641  1.00  0.00    -0.550 OA
ENDBRANCH  21  22
ENDBRANCH  20  21
ENDBRANCH  19  20
ENDBRANCH  18  19
ENDBRANCH  17  18
ENDBRANCH  16  17
ENDBRANCH  15  16
ENDBRANCH  14  15
ENDBRANCH  13  14
ENDBRANCH   1  13
TORSDOF 20
ENDMDL
MODEL 3
REMARK VINA RESULT:    -2.070      2.255      5.259
REMARK INTER + INTRA:          -8.623
REMARK INTER:                  -5.415
REMARK INTRA:                  -3.208
REMARK UNBOUND:                -4.132
REMARK SMILES CCCCCCCCCCCCCCCCCCCCCC(=O)[O-]
REMARK SMILES IDX 12 1 11 2 10 3 9 4 8 5 7 6 6 7 5 8 4 9 3 10 2 11 1 12 13 13
REMARK SMILES IDX 14 14 15 15 16 16 17 17 18 18 19 19 20 20 21 21 22 22 23 23
REMARK SMILES IDX 24 24
REMARK H PARENT
REMARK Flexibility Score: inf
ROOT
ATOM      1  C   UNL     1      -3.478   4.037  12.932  1.00  0.00     0.000 C 
ENDROOT
BRANCH   1   2
ATOM      2  C   UNL     1      -2.424   3.043  13.443  1.00  0.00     0.000 C 
BRANCH   2   3
ATOM      3  C   UNL     1      -2.029   1.996  12.391  1.00  0.00     0.000 C 
BRANCH   3   4
ATOM      4  C   UNL     1      -2.297   0.553  12.858  1.00  0.00    -0.000 C 
BRANCH   4   5
ATOM      5  C   UNL     1      -1.194  -0.421  12.401  1.00  0.00    -0.000 C 
BRANCH   5   6
ATOM      6  C   UNL     1       0.142   0.287  12.119  1.00  0.00    -0.000 C 
BRANCH   6   7
ATOM      7  C   UNL     1       0.762  -0.161  10.783  1.00  0.00    -0.000 C 
BRANCH   7   8
ATOM      8  C   UNL     1       1.502   0.981  10.068  1.00  0.00    -0.000 C 
BRANCH   8   9
ATOM      9  C   UNL     1       0.640   2.254   9.970  1.00  0.00    -0.000 C 
BRANCH   9  10
ATOM     10  C   UNL     1       1.379   3.507  10.469  1.00  0.00    -0.000 C 
BRANCH  10  11
ATOM     11  C   UNL     1       1.201   3.733  11.978  1.00  0.00    -0.003 C 
ATOM     12  C   UNL     1       0.473   5.046  12.251  1.00  0.00     0.004 C 
ENDBRANCH  10  11
ENDBRANCH   9  10
ENDBRANCH   8   9
ENDBRANCH   7   8
ENDBRANCH   6   7
ENDBRANCH   5   6
ENDBRANCH   4   5
ENDBRANCH   3   4
ENDBRANCH   2   3
ENDBRANCH   1   2
BRANCH   1  13
ATOM     13  C   UNL     1      -4.344   3.388  11.843  1.00  0.00     0.000 C 
BRANCH  13  14
ATOM     14  C   UNL     1      -4.640   4.332  10.662  1.00  0.00     0.000 C 
BRANCH  14  15
ATOM     15  C   UNL     1      -3.461   5.222  10.225  1.00  0.00     0.000 C 
BRANCH  15  16
ATOM     16  C   UNL     1      -2.611   4.662   9.069  1.00  0.00     0.000 C 
BRANCH  16  17
ATOM     17  C   UNL     1      -1.239   5.352   8.913  1.00  0.00     0.000 C 
BRANCH  17  18
ATOM     18  C   UNL     1      -1.232   6.776   9.490  1.00  0.00     0.000 C 
BRANCH  18  19
ATOM     19  C   UNL     1      -0.665   7.782   8.479  1.00  0.00     0.000 C 
BRANCH  19  20
ATOM     20  C   UNL     1      -1.735   8.318   7.510  1.00  0.00     0.006 C 
BRANCH  20  21
ATOM     21  C   UNL     1      -3.145   8.423   8.116  1.00  0.00     0.053 C 
BRANCH  21  22
ATOM     22  C   UNL     1      -4.167   7.704   7.289  1.00  0.00     0.041 C 
ATOM     23  O   UNL     1      -3.811   7.032   6.285  1.00  0.00    -0.550 OA
ATOM     24  O   UNL     1      -5.511   7.771   7.632  1.00  0.00    -0.550 OA
ENDBRANCH  21  22
ENDBRANCH  20  21
ENDBRANCH  19  20
ENDBRANCH  18  19
ENDBRANCH  17  18
ENDBRANCH  16  17
ENDBRANCH  15  16
ENDBRANCH  14  15
ENDBRANCH  13  14
ENDBRANCH   1  13
TORSDOF 20
ENDMDL
MODEL 4
REMARK VINA RESULT:    -2.065      7.050      9.594
REMARK INTER + INTRA:          -8.612
REMARK INTER:                  -5.146
REMARK INTRA:                  -3.466
REMARK UNBOUND:                -4.132
REMARK SMILES CCCCCCCCCCCCCCCCCCCCCC(=O)[O-]
REMARK SMILES IDX 12 1 11 2 10 3 9 4 8 5 7 6 6 7 5 8 4 9 3 10 2 11 1 12 13 13
REMARK SMILES IDX 14 14 15 15 16 16 17 17 18 18 19 19 20 20 21 21 22 22 23 23
REMARK SMILES IDX 24 24
REMARK H PARENT
REMARK Flexibility Score: inf
ROOT
ATOM      1  C   UNL     1      -4.295  -5.687   9.563  1.00  0.00     0.000 C 
ENDROOT
BRANCH   1   2
ATOM      2  C   UNL     1      -4.251  -4.883  10.870  1.00  0.00     0.000 C 
BRANCH   2   3
ATOM      3  C   UNL     1      -5.646  -4.596  11.444  1.00  0.00     0.000 C 
BRANCH   3   4
ATOM      4  C   UNL     1      -5.941  -3.089  11.567  1.00  0.00    -0.000 C 
BRANCH   4   5
ATOM      5  C   UNL     1      -4.898  -2.229  10.829  1.00  0.00    -0.000 C 
BRANCH   5   6
ATOM      6  C   UNL     1      -4.380  -1.062  11.688  1.00  0.00    -0.000 C 
BRANCH   6   7
ATOM      7  C   UNL     1      -3.772  -1.548  13.015  1.00  0.00    -0.000 C 
BRANCH   7   8
ATOM      8  C   UNL     1      -2.410  -2.234  12.821  1.00  0.00    -0.000 C 
BRANCH   8   9
ATOM      9  C   UNL     1      -1.445  -1.371  11.985  1.00  0.00    -0.000 C 
BRANCH   9  10
ATOM     10  C   UNL     1      -0.367  -2.208  11.277  1.00  0.00    -0.000 C 
BRANCH  10  11
ATOM     11  C   UNL     1      -0.845  -3.632  10.956  1.00  0.00    -0.003 C 
ATOM     12  C   UNL     1      -0.438  -4.040   9.543  1.00  0.00     0.004 C 
ENDBRANCH  10  11
ENDBRANCH   9  10
ENDBRANCH   8   9
ENDBRANCH   7   8
ENDBRANCH   6   7
ENDBRANCH   5   6
ENDBRANCH   4   5
ENDBRANCH   3   4
ENDBRANCH   2   3
ENDBRANCH   1   2
BRANCH   1  13
ATOM     13  C   UNL     1      -3.871  -4.808   8.377  1.00  0.00     0.000 C 
BRANCH  13  14
ATOM     14  C   UNL     1      -5.060  -4.314   7.532  1.00  0.00     0.000 C 
BRANCH  14  15
ATOM     15  C   UNL     1      -6.417  -4.957   7.875  1.00  0.00     0.000 C 
BRANCH  15  16
ATOM     16  C   UNL     1      -7.534  -3.967   8.255  1.00  0.00     0.000 C 
BRANCH  16  17
ATOM     17  C   UNL     1      -7.187  -2.493   7.958  1.00  0.00     0.000 C 
BRANCH  17  18
ATOM     18  C   UNL     1      -8.434  -1.648   7.657  1.00  0.00     0.000 C 
BRANCH  18  19
ATOM     19  C   UNL     1      -8.358  -0.278   8.347  1.00  0.00     0.000 C 
BRANCH  19  20
ATOM     20  C   UNL     1      -7.879  -0.374   9.807  1.00  0.00     0.006 C 
BRANCH  20  21
ATOM     21  C   UNL     1      -7.394   0.959  10.404  1.00  0.00     0.053 C 
BRANCH  21  22
ATOM     22  C   UNL     1      -7.967   2.139   9.681  1.00  0.00     0.041 C 
ATOM     23  O   UNL     1      -9.137   2.533   9.935  1.00  0.00    -0.550 OA
ATOM     24  O   UNL     1      -7.206   2.810   8.733  1.00  0.00    -0.550 OA
ENDBRANCH  21  22
ENDBRANCH  20  21
ENDBRANCH  19  20
ENDBRANCH  18  19
ENDBRANCH  17  18
ENDBRANCH  16  17
ENDBRANCH  15  16
ENDBRANCH  14  15
ENDBRANCH  13  14
ENDBRANCH   1  13
TORSDOF 20
ENDMDL
MODEL 5
REMARK VINA RESULT:    -2.040      4.324      7.090
REMARK INTER + INTRA:          -8.556
REMARK INTER:                  -5.201
REMARK INTRA:                  -3.355
REMARK UNBOUND:                -4.132
REMARK SMILES CCCCCCCCCCCCCCCCCCCCCC(=O)[O-]
REMARK SMILES IDX 12 1 11 2 10 3 9 4 8 5 7 6 6 7 5 8 4 9 3 10 2 11 1 12 13 13
REMARK SMILES IDX 14 14 15 15 16 16 17 17 18 18 19 19 20 20 21 21 22 22 23 23
REMARK SMILES IDX 24 24
REMARK H PARENT
REMARK Flexibility Score: inf
ROOT
ATOM      1  C   UNL     1      -2.519   5.893   8.304  1.00  0.00     0.000 C 
ENDROOT
BRANCH   1   2
ATOM      2  C   UNL     1      -2.122   4.519   8.863  1.00  0.00     0.000 C 
BRANCH   2   3
ATOM      3  C   UNL     1      -2.424   4.373  10.361  1.00  0.00     0.000 C 
BRANCH   3   4
ATOM      4  C   UNL     1      -1.219   3.846  11.163  1.00  0.00    -0.000 C 
BRANCH   4   5
ATOM      5  C   UNL     1      -0.191   3.129  10.267  1.00  0.00    -0.000 C 
BRANCH   5   6
ATOM      6  C   UNL     1       0.347   1.835  10.903  1.00  0.00    -0.000 C 
BRANCH   6   7
ATOM      7  C   UNL     1       1.220   1.030   9.922  1.00  0.00    -0.000 C 
BRANCH   7   8
ATOM      8  C   UNL     1       2.126   0.018  10.639  1.00  0.00    -0.000 C 
BRANCH   8   9
ATOM      9  C   UNL     1       3.611   0.425  10.571  1.00  0.00    -0.000 C 
BRANCH   9  10
ATOM     10  C   UNL     1       4.275   0.017   9.246  1.00  0.00    -0.000 C 
BRANCH  10  11
ATOM     11  C   UNL     1       5.806  -0.047   9.350  1.00  0.00    -0.003 C 
ATOM     12  C   UNL     1       6.347   1.110  10.184  1.00  0.00     0.004 C 
ENDBRANCH  10  11
ENDBRANCH   9  10
ENDBRANCH   8   9
ENDBRANCH   7   8
ENDBRANCH   6   7
ENDBRANCH   5   6
ENDBRANCH   4   5
ENDBRANCH   3   4
ENDBRANCH   2   3
ENDBRANCH   1   2
BRANCH   1  13
ATOM     13  C   UNL     1      -1.745   7.008   9.022  1.00  0.00     0.000 C 
BRANCH  13  14
ATOM     14  C   UNL     1      -0.242   7.016   8.687  1.00  0.00     0.000 C 
BRANCH  14  15
ATOM     15  C   UNL     1       0.692   6.690   9.868  1.00  0.00     0.000 C 
BRANCH  15  16
ATOM     16  C   UNL     1       2.041   6.054   9.481  1.00  0.00     0.000 C 
BRANCH  16  17
ATOM     17  C   UNL     1       2.825   5.478  10.680  1.00  0.00     0.000 C 
BRANCH  17  18
ATOM     18  C   UNL     1       3.631   4.226  10.304  1.00  0.00     0.000 C 
BRANCH  18  19
ATOM     19  C   UNL     1       3.257   3.724   8.902  1.00  0.00     0.000 C 
BRANCH  19  20
ATOM     20  C   UNL     1       4.487   3.514   7.998  1.00  0.00     0.006 C 
BRANCH  20  21
ATOM     21  C   UNL     1       4.203   2.707   6.719  1.00  0.00     0.053 C 
BRANCH  21  22
ATOM     22  C   UNL     1       5.443   2.484   5.909  1.00  0.00     0.041 C 
ATOM     23  O   UNL     1       6.349   1.717   6.333  1.00  0.00    -0.550 OA
ATOM     24  O   UNL     1       5.595   3.116   4.682  1.00  0.00    -0.550 OA
ENDBRANCH  21  22
ENDBRANCH  20  21
ENDBRANCH  19  20
ENDBRANCH  18  19
ENDBRANCH  17  18
ENDBRANCH  16  17
ENDBRANCH  15  16
ENDBRANCH  14  15
ENDBRANCH  13  14
ENDBRANCH   1  13
TORSDOF 20
ENDMDL
MODEL 6
REMARK VINA RESULT:    -2.036      3.812      6.924
REMARK INTER + INTRA:          -8.548
REMARK INTER:                  -5.084
REMARK INTRA:                  -3.464
REMARK UNBOUND:                -4.132
REMARK SMILES CCCCCCCCCCCCCCCCCCCCCC(=O)[O-]
REMARK SMILES IDX 12 1 11 2 10 3 9 4 8 5 7 6 6 7 5 8 4 9 3 10 2 11 1 12 13 13
REMARK SMILES IDX 14 14 15 15 16 16 17 17 18 18 19 19 20 20 21 21 22 22 23 23
REMARK SMILES IDX 24 24
REMARK H PARENT
REMARK Flexibility Score: inf
ROOT
ATOM      1  C   UNL     1      -0.365   8.251   9.169  1.00  0.00     0.000 C 
ENDROOT
BRANCH   1   2
ATOM      2  C   UNL     1      -0.709   6.913   8.499  1.00  0.00     0.000 C 
BRANCH   2   3
ATOM      3  C   UNL     1      -2.193   6.540   8.635  1.00  0.00     0.000 C 
BRANCH   3   4
ATOM      4  C   UNL     1      -2.429   5.018   8.608  1.00  0.00    -0.000 C 
BRANCH   4   5
ATOM      5  C   UNL     1      -3.139   4.515   9.879  1.00  0.00    -0.000 C 
BRANCH   5   6
ATOM      6  C   UNL     1      -2.859   5.404  11.104  1.00  0.00    -0.000 C 
BRANCH   6   7
ATOM      7  C   UNL     1      -1.783   4.798  12.023  1.00  0.00    -0.000 C 
BRANCH   7   8
ATOM      8  C   UNL     1      -0.395   5.413  11.785  1.00  0.00    -0.000 C 
BRANCH   8   9
ATOM      9  C   UNL     1       0.678   4.336  11.532  1.00  0.00    -0.000 C 
BRANCH   9  10
ATOM     10  C   UNL     1       0.650   3.803  10.091  1.00  0.00    -0.000 C 
BRANCH  10  11
ATOM     11  C   UNL     1       0.533   2.272  10.032  1.00  0.00    -0.003 C 
ATOM     12  C   UNL     1       1.594   1.608  10.905  1.00  0.00     0.004 C 
ENDBRANCH  10  11
ENDBRANCH   9  10
ENDBRANCH   8   9
ENDBRANCH   7   8
ENDBRANCH   6   7
ENDBRANCH   5   6
ENDBRANCH   4   5
ENDBRANCH   3   4
ENDBRANCH   2   3
ENDBRANCH   1   2
BRANCH   1  13
ATOM     13  C   UNL     1       1.150   8.498   9.128  1.00  0.00     0.000 C 
BRANCH  13  14
ATOM     14  C   UNL     1       1.975   7.198   9.077  1.00  0.00     0.000 C 
BRANCH  14  15
ATOM     15  C   UNL     1       3.421   7.362   8.572  1.00  0.00     0.000 C 
BRANCH  15  16
ATOM     16  C   UNL     1       4.488   6.599   9.381  1.00  0.00     0.000 C 
BRANCH  16  17
ATOM     17  C   UNL     1       3.903   5.540  10.340  1.00  0.00     0.000 C 
BRANCH  17  18
ATOM     18  C   UNL     1       4.259   4.107   9.917  1.00  0.00     0.000 C 
BRANCH  18  19
ATOM     19  C   UNL     1       4.118   3.924   8.399  1.00  0.00     0.000 C 
BRANCH  19  20
ATOM     20  C   UNL     1       3.766   2.477   8.005  1.00  0.00     0.006 C 
BRANCH  20  21
ATOM     21  C   UNL     1       4.888   1.731   7.264  1.00  0.00     0.053 C 
BRANCH  21  22
ATOM     22  C   UNL     1       4.673   1.721   5.781  1.00  0.00     0.041 C 
ATOM     23  O   UNL     1       4.557   2.806   5.150  1.00  0.00    -0.550 OA
ATOM     24  O   UNL     1       4.607   0.516   5.096  1.00  0.00    -0.550 OA
ENDBRANCH  21  22
ENDBRANCH  20  21
ENDBRANCH  19  20
ENDBRANCH  18  19
ENDBRANCH  17  18
ENDBRANCH  16  17
ENDBRANCH  15  16
ENDBRANCH  14  15
ENDBRANCH  13  14
ENDBRANCH   1  13
TORSDOF 20
ENDMDL
MODEL 7
REMARK VINA RESULT:    -2.018      3.034      6.585
REMARK INTER + INTRA:          -8.509
REMARK INTER:                  -4.754
REMARK INTRA:                  -3.755
REMARK UNBOUND:                -4.132
REMARK SMILES CCCCCCCCCCCCCCCCCCCCCC(=O)[O-]
REMARK SMILES IDX 12 1 11 2 10 3 9 4 8 5 7 6 6 7 5 8 4 9 3 10 2 11 1 12 13 13
REMARK SMILES IDX 14 14 15 15 16 16 17 17 18 18 19 19 20 20 21 21 22 22 23 23
REMARK SMILES IDX 24 24
REMARK H PARENT
REMARK Flexibility Score: inf
ROOT
ATOM      1  C   UNL     1       2.435   6.822  11.397  1.00  0.00     0.000 C 
ENDROOT
BRANCH   1   2
ATOM      2  C   UNL     1       1.616   5.775  12.165  1.00  0.00     0.000 C 
BRANCH   2   3
ATOM      3  C   UNL     1       0.113   6.089  12.187  1.00  0.00     0.000 C 
BRANCH   3   4
ATOM      4  C   UNL     1      -0.725   4.948  12.794  1.00  0.00    -0.000 C 
BRANCH   4   5
ATOM      5  C   UNL     1      -2.192   4.987  12.323  1.00  0.00    -0.000 C 
BRANCH   5   6
ATOM      6  C   UNL     1      -2.490   3.945  11.230  1.00  0.00    -0.000 C 
BRANCH   6   7
ATOM      7  C   UNL     1      -3.263   4.554  10.047  1.00  0.00    -0.000 C 
BRANCH   7   8
ATOM      8  C   UNL     1      -2.440   4.560   8.749  1.00  0.00    -0.000 C 
BRANCH   8   9
ATOM      9  C   UNL     1      -1.308   5.605   8.790  1.00  0.00    -0.000 C 
BRANCH   9  10
ATOM     10  C   UNL     1      -1.826   7.025   9.070  1.00  0.00    -0.000 C 
BRANCH  10  11
ATOM     11  C   UNL     1      -1.800   7.918   7.820  1.00  0.00    -0.003 C 
ATOM     12  C   UNL     1      -0.621   8.885   7.863  1.00  0.00     0.004 C 
ENDBRANCH  10  11
ENDBRANCH   9  10
ENDBRANCH   8   9
ENDBRANCH   7   8
ENDBRANCH   6   7
ENDBRANCH   5   6
ENDBRANCH   4   5
ENDBRANCH   3   4
ENDBRANCH   2   3
ENDBRANCH   1   2
BRANCH   1  13
ATOM     13  C   UNL     1       1.825   7.070  10.010  1.00  0.00     0.000 C 
BRANCH  13  14
ATOM     14  C   UNL     1       2.877   7.140   8.888  1.00  0.00     0.000 C 
BRANCH  14  15
ATOM     15  C   UNL     1       4.173   6.352   9.157  1.00  0.00     0.000 C 
BRANCH  15  16
ATOM     16  C   UNL     1       4.241   4.958   8.503  1.00  0.00     0.000 C 
BRANCH  16  17
ATOM     17  C   UNL     1       3.965   3.797   9.482  1.00  0.00     0.000 C 
BRANCH  17  18
ATOM     18  C   UNL     1       2.771   2.935   9.045  1.00  0.00     0.000 C 
BRANCH  18  19
ATOM     19  C   UNL     1       1.462   3.443   9.664  1.00  0.00     0.000 C 
BRANCH  19  20
ATOM     20  C   UNL     1       0.494   2.302  10.029  1.00  0.00     0.006 C 
BRANCH  20  21
ATOM     21  C   UNL     1       0.712   1.710  11.432  1.00  0.00     0.053 C 
BRANCH  21  22
ATOM     22  C   UNL     1       0.849   0.218  11.397  1.00  0.00     0.041 C 
ATOM     23  O   UNL     1       0.793  -0.449  12.465  1.00  0.00    -0.550 OA
ATOM     24  O   UNL     1       1.032  -0.435  10.186  1.00  0.00    -0.550 OA
ENDBRANCH  21  22
ENDBRANCH  20  21
ENDBRANCH  19  20
ENDBRANCH  18  19
ENDBRANCH  17  18
ENDBRANCH  16  17
ENDBRANCH  15  16
ENDBRANCH  14  15
ENDBRANCH  13  14
ENDBRANCH   1  13
TORSDOF 20
ENDMDL
MODEL 8
REMARK VINA RESULT:    -2.012      3.368      6.124
REMARK INTER + INTRA:          -8.496
REMARK INTER:                  -4.676
REMARK INTRA:                  -3.819
REMARK UNBOUND:                -4.132
REMARK SMILES CCCCCCCCCCCCCCCCCCCCCC(=O)[O-]
REMARK SMILES IDX 12 1 11 2 10 3 9 4 8 5 7 6 6 7 5 8 4 9 3 10 2 11 1 12 13 13
REMARK SMILES IDX 14 14 15 15 16 16 17 17 18 18 19 19 20 20 21 21 22 22 23 23
REMARK SMILES IDX 24 24
REMARK H PARENT
REMARK Flexibility Score: inf
ROOT
ATOM      1  C   UNL     1      -1.523   4.024  10.751  1.00  0.00     0.000 C 
ENDROOT
BRANCH   1   2
ATOM      2  C   UNL     1      -0.251   3.278  11.179  1.00  0.00     0.000 C 
BRANCH   2   3
ATOM      3  C   UNL     1       0.450   2.571  10.009  1.00  0.00     0.000 C 
BRANCH   3   4
ATOM      4  C   UNL     1       0.845   1.120  10.341  1.00  0.00    -0.000 C 
BRANCH   4   5
ATOM      5  C   UNL     1       1.689   1.025  11.626  1.00  0.00    -0.000 C 
BRANCH   5   6
ATOM      6  C   UNL     1       3.170   0.721  11.340  1.00  0.00    -0.000 C 
BRANCH   6   7
ATOM      7  C   UNL     1       3.347  -0.163  10.092  1.00  0.00    -0.000 C 
BRANCH   7   8
ATOM      8  C   UNL     1       4.381   0.410   9.110  1.00  0.00    -0.000 C 
BRANCH   8   9
ATOM      9  C   UNL     1       4.426   1.950   9.153  1.00  0.00    -0.000 C 
BRANCH   9  10
ATOM     10  C   UNL     1       3.600   2.595   8.029  1.00  0.00    -0.000 C 
BRANCH  10  11
ATOM     11  C   UNL     1       4.445   3.506   7.126  1.00  0.00    -0.003 C 
ATOM     12  C   UNL     1       5.387   4.376   7.953  1.00  0.00     0.004 C 
ENDBRANCH  10  11
ENDBRANCH   9  10
ENDBRANCH   8   9
ENDBRANCH   7   8
ENDBRANCH   6   7
ENDBRANCH   5   6
ENDBRANCH   4   5
ENDBRANCH   3   4
ENDBRANCH   2   3
ENDBRANCH   1   2
BRANCH   1  13
ATOM     13  C   UNL     1      -1.550   4.212   9.228  1.00  0.00     0.000 C 
BRANCH  13  14
ATOM     14  C   UNL     1      -2.323   5.468   8.785  1.00  0.00     0.000 C 
BRANCH  14  15
ATOM     15  C   UNL     1      -1.742   6.804   9.286  1.00  0.00     0.000 C 
BRANCH  15  16
ATOM     16  C   UNL     1      -0.836   7.542   8.282  1.00  0.00     0.000 C 
BRANCH  16  17
ATOM     17  C   UNL     1       0.613   7.739   8.778  1.00  0.00     0.000 C 
BRANCH  17  18
ATOM     18  C   UNL     1       0.943   6.848   9.986  1.00  0.00     0.000 C 
BRANCH  18  19
ATOM     19  C   UNL     1       2.022   5.814   9.635  1.00  0.00     0.000 C 
BRANCH  19  20
ATOM     20  C   UNL     1       3.186   5.802  10.644  1.00  0.00     0.006 C 
BRANCH  20  21
ATOM     21  C   UNL     1       3.322   4.493  11.440  1.00  0.00     0.053 C 
BRANCH  21  22
ATOM     22  C   UNL     1       2.773   4.621  12.828  1.00  0.00     0.041 C 
ATOM     23  O   UNL     1       2.951   3.699  13.668  1.00  0.00    -0.550 OA
ATOM     24  O   UNL     1       2.071   5.761  13.196  1.00  0.00    -0.550 OA
ENDBRANCH  21  22
ENDBRANCH  20  21
ENDBRANCH  19  20
ENDBRANCH  18  19
ENDBRANCH  17  18
ENDBRANCH  16  17
ENDBRANCH  15  16
ENDBRANCH  14  15
ENDBRANCH  13  14
ENDBRANCH   1  13
TORSDOF 20
ENDMDL
MODEL 9
REMARK VINA RESULT:    -1.974      3.377      5.228
REMARK INTER + INTRA:          -8.413
REMARK INTER:                  -4.520
REMARK INTRA:                  -3.893
REMARK UNBOUND:                -4.132
REMARK SMILES CCCCCCCCCCCCCCCCCCCCCC(=O)[O-]
REMARK SMILES IDX 12 1 11 2 10 3 9 4 8 5 7 6 6 7 5 8 4 9 3 10 2 11 1 12 13 13
REMARK SMILES IDX 14 14 15 15 16 16 17 17 18 18 19 19 20 20 21 21 22 22 23 23
REMARK SMILES IDX 24 24
REMARK H PARENT
REMARK Flexibility Score: inf
ROOT
ATOM      1  C   UNL     1       0.054   6.592   9.202  1.00  0.00     0.000 C 
ENDROOT
BRANCH   1   2
ATOM      2  C   UNL     1       0.281   7.586  10.350  1.00  0.00     0.000 C 
BRANCH   2   3
ATOM      3  C   UNL     1      -0.526   7.238  11.610  1.00  0.00     0.000 C 
BRANCH   3   4
ATOM      4  C   UNL     1       0.318   7.312  12.896  1.00  0.00    -0.000 C 
BRANCH   4   5
ATOM      5  C   UNL     1       0.907   5.943  13.287  1.00  0.00    -0.000 C 
BRANCH   5   6
ATOM      6  C   UNL     1       2.415   5.842  12.994  1.00  0.00    -0.000 C 
BRANCH   6   7
ATOM      7  C   UNL     1       2.706   4.973  11.758  1.00  0.00    -0.000 C 
BRANCH   7   8
ATOM      8  C   UNL     1       3.506   5.728  10.685  1.00  0.00    -0.000 C 
BRANCH   8   9
ATOM      9  C   UNL     1       3.457   5.013   9.320  1.00  0.00    -0.000 C 
BRANCH   9  10
ATOM     10  C   UNL     1       2.476   3.830   9.309  1.00  0.00    -0.000 C 
BRANCH  10  11
ATOM     11  C   UNL     1       3.108   2.547   8.747  1.00  0.00    -0.003 C 
ATOM     12  C   UNL     1       4.536   2.372   9.256  1.00  0.00     0.004 C 
ENDBRANCH  10  11
ENDBRANCH   9  10
ENDBRANCH   8   9
ENDBRANCH   7   8
ENDBRANCH   6   7
ENDBRANCH   5   6
ENDBRANCH   4   5
ENDBRANCH   3   4
ENDBRANCH   2   3
ENDBRANCH   1   2
BRANCH   1  13
ATOM     13  C   UNL     1      -1.267   6.895   8.481  1.00  0.00     0.000 C 
BRANCH  13  14
ATOM     14  C   UNL     1      -2.218   5.685   8.425  1.00  0.00     0.000 C 
BRANCH  14  15
ATOM     15  C   UNL     1      -1.762   4.456   9.233  1.00  0.00     0.000 C 
BRANCH  15  16
ATOM     16  C   UNL     1      -2.505   4.234  10.564  1.00  0.00     0.000 C 
BRANCH  16  17
ATOM     17  C   UNL     1      -1.602   3.712  11.702  1.00  0.00     0.000 C 
BRANCH  17  18
ATOM     18  C   UNL     1      -0.469   2.813  11.184  1.00  0.00     0.000 C 
BRANCH  18  19
ATOM     19  C   UNL     1       0.403   2.297  12.337  1.00  0.00     0.000 C 
BRANCH  19  20
ATOM     20  C   UNL     1       1.456   1.272  11.875  1.00  0.00     0.006 C 
BRANCH  20  21
ATOM     21  C   UNL     1       0.895  -0.134  11.605  1.00  0.00     0.053 C 
BRANCH  21  22
ATOM     22  C   UNL     1       1.590  -0.805  10.459  1.00  0.00     0.041 C 
ATOM     23  O   UNL     1       2.810  -0.580  10.237  1.00  0.00    -0.550 OA
ATOM     24  O   UNL     1       0.893  -1.685   9.642  1.00  0.00    -0.550 OA
ENDBRANCH  21  22
ENDBRANCH  20  21
ENDBRANCH  19  20
ENDBRANCH  18  19
ENDBRANCH  17  18
ENDBRANCH  16  17
ENDBRANCH  15  16
ENDBRANCH  14  15
ENDBRANCH  13  14
ENDBRANCH   1  13
TORSDOF 20
ENDMDL
