MODEL 1
REMARK VINA RESULT:    -6.869      0.000      0.000
REMARK INTER + INTRA:          -8.032
REMARK INTER:                  -8.475
REMARK INTRA:                   0.442
REMARK UNBOUND:                 0.442
REMARK SMILES Oc1cc(O)c2cc(O)c(-c3cc(O)c(O)c(O)c3)[o+]c2c1
REMARK SMILES IDX 10 1 20 2 21 3 22 4 2 5 3 6 4 7 6 8 7 9 8 10 11 11 12 12
REMARK SMILES IDX 13 13 19 14 15 15 17 16 14 17 16 19 18 21 9 23 1 25 5 27
REMARK H PARENT 14 18 16 20 18 22 9 24 1 26 5 28
REMARK Flexibility Score: inf
ROOT
ATOM      1  C   UNL     1      -5.076  -8.961  23.837  1.00  0.00     0.402 A 
ATOM      2  O   UNL     1      -3.917  -8.373  23.554  1.00  0.00    -0.202 OA
ATOM      3  C   UNL     1      -2.744  -8.994  23.634  1.00  0.00     0.368 A 
ATOM      4  C   UNL     1      -1.580  -8.291  23.312  1.00  0.00     0.162 A 
ATOM      5  C   UNL     1      -0.334  -8.921  23.385  1.00  0.00     0.128 A 
ATOM      6  C   UNL     1      -0.252 -10.258  23.780  1.00  0.00     0.093 A 
ATOM      7  C   UNL     1      -1.404 -10.984  24.107  1.00  0.00     0.136 A 
ATOM      8  C   UNL     1      -2.671 -10.348  24.038  1.00  0.00     0.125 A 
ATOM      9  C   UNL     1      -3.877 -10.992  24.359  1.00  0.00     0.078 A 
ATOM     10  C   UNL     1      -5.087 -10.300  24.271  1.00  0.00     0.223 A 
ENDROOT
BRANCH   1  11
ATOM     11  C   UNL     1      -6.317  -8.166  23.700  1.00  0.00     0.091 A 
ATOM     12  C   UNL     1      -7.520  -8.672  24.217  1.00  0.00     0.068 A 
ATOM     13  C   UNL     1      -8.706  -7.931  24.117  1.00  0.00     0.162 A 
ATOM     14  C   UNL     1      -6.307  -6.889  23.115  1.00  0.00     0.068 A 
ATOM     15  C   UNL     1      -8.694  -6.667  23.514  1.00  0.00     0.200 A 
ATOM     16  C   UNL     1      -7.490  -6.143  23.015  1.00  0.00     0.162 A 
BRANCH  13  17
ATOM     17  O   UNL     1      -9.901  -8.444  24.619  1.00  0.00    -0.504 OA
ATOM     18  H   UNL     1      -9.918  -9.267  25.210  1.00  0.00     0.293 HD
ENDBRANCH  13  17
BRANCH  15  19
ATOM     19  O   UNL     1      -9.884  -5.945  23.421  1.00  0.00    -0.502 OA
ATOM     20  H   UNL     1     -10.789  -6.377  23.567  1.00  0.00     0.293 HD
ENDBRANCH  15  19
BRANCH  16  21
ATOM     21  O   UNL     1      -7.471  -4.879  22.425  1.00  0.00    -0.504 OA
ATOM     22  H   UNL     1      -7.101  -4.071  22.912  1.00  0.00     0.293 HD
ENDBRANCH  16  21
ENDBRANCH   1  11
BRANCH  10  23
ATOM     23  O   UNL     1      -6.279 -10.924  24.639  1.00  0.00    -0.500 OA
ATOM     24  H   UNL     1      -7.174 -10.457  24.553  1.00  0.00     0.294 HD
ENDBRANCH  10  23
BRANCH   5  25
ATOM     25  O   UNL     1       0.832  -8.227  23.065  1.00  0.00    -0.507 OA
ATOM     26  H   UNL     1       0.882  -7.619  22.256  1.00  0.00     0.293 HD
ENDBRANCH   5  25
BRANCH   7  27
ATOM     27  O   UNL     1      -1.237 -12.318  24.489  1.00  0.00    -0.507 OA
ATOM     28  H   UNL     1      -1.810 -12.791  25.173  1.00  0.00     0.293 HD
ENDBRANCH   7  27
TORSDOF 7
ENDMDL
MODEL 2
REMARK VINA RESULT:    -6.864      1.417      2.454
REMARK INTER + INTRA:          -8.027
REMARK INTER:                  -7.814
REMARK INTRA:                  -0.213
REMARK UNBOUND:                 0.442
REMARK SMILES Oc1cc(O)c2cc(O)c(-c3cc(O)c(O)c(O)c3)[o+]c2c1
REMARK SMILES IDX 10 1 20 2 21 3 22 4 2 5 3 6 4 7 6 8 7 9 8 10 11 11 12 12
REMARK SMILES IDX 13 13 19 14 15 15 17 16 14 17 16 19 18 21 9 23 1 25 5 27
REMARK H PARENT 14 18 16 20 18 22 9 24 1 26 5 28
REMARK Flexibility Score: inf
ROOT
ATOM      1  C   UNL     1      -4.914  -8.863  23.717  1.00  0.00     0.402 A 
ATOM      2  O   UNL     1      -4.793 -10.000  23.037  1.00  0.00    -0.202 OA
ATOM      3  C   UNL     1      -3.696 -10.752  23.060  1.00  0.00     0.368 A 
ATOM      4  C   UNL     1      -3.665 -11.932  22.314  1.00  0.00     0.162 A 
ATOM      5  C   UNL     1      -2.525 -12.742  22.323  1.00  0.00     0.128 A 
ATOM      6  C   UNL     1      -1.413 -12.370  23.081  1.00  0.00     0.093 A 
ATOM      7  C   UNL     1      -1.420 -11.191  23.838  1.00  0.00     0.136 A 
ATOM      8  C   UNL     1      -2.573 -10.364  23.829  1.00  0.00     0.125 A 
ATOM      9  C   UNL     1      -2.664  -9.160  24.546  1.00  0.00     0.078 A 
ATOM     10  C   UNL     1      -3.833  -8.395  24.486  1.00  0.00     0.223 A 
ENDROOT
BRANCH   1  11
ATOM     11  C   UNL     1      -6.191  -8.121  23.618  1.00  0.00     0.091 A 
ATOM     12  C   UNL     1      -7.358  -8.681  24.161  1.00  0.00     0.068 A 
ATOM     13  C   UNL     1      -8.576  -7.991  24.098  1.00  0.00     0.162 A 
ATOM     14  C   UNL     1      -6.250  -6.840  23.043  1.00  0.00     0.068 A 
ATOM     15  C   UNL     1      -8.633  -6.723  23.505  1.00  0.00     0.200 A 
ATOM     16  C   UNL     1      -7.466  -6.144  22.980  1.00  0.00     0.162 A 
BRANCH  13  17
ATOM     17  O   UNL     1      -9.735  -8.558  24.626  1.00  0.00    -0.504 OA
ATOM     18  H   UNL     1      -9.729  -9.478  25.050  1.00  0.00     0.293 HD
ENDBRANCH  13  17
BRANCH  15  19
ATOM     19  O   UNL     1      -9.855  -6.051  23.449  1.00  0.00    -0.502 OA
ATOM     20  H   UNL     1     -10.399  -5.992  22.597  1.00  0.00     0.293 HD
ENDBRANCH  15  19
BRANCH  16  21
ATOM     21  O   UNL     1      -7.516  -4.876  22.401  1.00  0.00    -0.504 OA
ATOM     22  H   UNL     1      -6.720  -4.249  22.426  1.00  0.00     0.293 HD
ENDBRANCH  16  21
ENDBRANCH   1  11
BRANCH  10  23
ATOM     23  O   UNL     1      -3.906  -7.174  25.157  1.00  0.00    -0.500 OA
ATOM     24  H   UNL     1      -3.073  -6.669  25.436  1.00  0.00     0.294 HD
ENDBRANCH  10  23
BRANCH   5  25
ATOM     25  O   UNL     1      -2.487 -13.921  21.582  1.00  0.00    -0.507 OA
ATOM     26  H   UNL     1      -2.829 -14.797  21.960  1.00  0.00     0.293 HD
ENDBRANCH   5  25
BRANCH   7  27
ATOM     27  O   UNL     1      -0.269 -10.891  24.572  1.00  0.00    -0.507 OA
ATOM     28  H   UNL     1       0.035  -9.956  24.801  1.00  0.00     0.293 HD
ENDBRANCH   7  27
TORSDOF 7
ENDMDL
MODEL 3
REMARK VINA RESULT:    -6.857      0.130      1.792
REMARK INTER + INTRA:          -8.018
REMARK INTER:                  -8.394
REMARK INTRA:                   0.376
REMARK UNBOUND:                 0.442
REMARK SMILES Oc1cc(O)c2cc(O)c(-c3cc(O)c(O)c(O)c3)[o+]c2c1
REMARK SMILES IDX 10 1 20 2 21 3 22 4 2 5 3 6 4 7 6 8 7 9 8 10 11 11 12 12
REMARK SMILES IDX 13 13 19 14 15 15 17 16 14 17 16 19 18 21 9 23 1 25 5 27
REMARK H PARENT 14 18 16 20 18 22 9 24 1 26 5 28
REMARK Flexibility Score: inf
ROOT
ATOM      1  C   UNL     1      -5.027  -8.948  23.851  1.00  0.00     0.402 A 
ATOM      2  O   UNL     1      -3.860  -8.379  23.564  1.00  0.00    -0.202 OA
ATOM      3  C   UNL     1      -2.697  -9.018  23.641  1.00  0.00     0.368 A 
ATOM      4  C   UNL     1      -1.522  -8.335  23.316  1.00  0.00     0.162 A 
ATOM      5  C   UNL     1      -0.286  -8.984  23.386  1.00  0.00     0.128 A 
ATOM      6  C   UNL     1      -0.225 -10.322  23.782  1.00  0.00     0.093 A 
ATOM      7  C   UNL     1      -1.388 -11.029  24.112  1.00  0.00     0.136 A 
ATOM      8  C   UNL     1      -2.644 -10.373  24.046  1.00  0.00     0.125 A 
ATOM      9  C   UNL     1      -3.859 -10.998  24.371  1.00  0.00     0.078 A 
ATOM     10  C   UNL     1      -5.059 -10.286  24.286  1.00  0.00     0.223 A 
ENDROOT
BRANCH   1  11
ATOM     11  C   UNL     1      -6.256  -8.134  23.716  1.00  0.00     0.091 A 
ATOM     12  C   UNL     1      -6.193  -6.894  23.061  1.00  0.00     0.068 A 
ATOM     13  C   UNL     1      -7.346  -6.112  22.903  1.00  0.00     0.162 A 
ATOM     14  C   UNL     1      -7.498  -8.600  24.179  1.00  0.00     0.068 A 
ATOM     15  C   UNL     1      -8.577  -6.573  23.385  1.00  0.00     0.200 A 
ATOM     16  C   UNL     1      -8.654  -7.824  24.022  1.00  0.00     0.162 A 
BRANCH  13  17
ATOM     17  O   UNL     1      -7.275  -4.875  22.264  1.00  0.00    -0.504 OA
ATOM     18  H   UNL     1      -6.839  -4.772  21.355  1.00  0.00     0.293 HD
ENDBRANCH  13  17
BRANCH  15  19
ATOM     19  O   UNL     1      -9.713  -5.780  23.221  1.00  0.00    -0.502 OA
ATOM     20  H   UNL     1      -9.663  -4.832  22.868  1.00  0.00     0.293 HD
ENDBRANCH  15  19
BRANCH  16  21
ATOM     21  O   UNL     1      -9.881  -8.292  24.492  1.00  0.00    -0.504 OA
ATOM     22  H   UNL     1     -10.462  -8.909  23.936  1.00  0.00     0.293 HD
ENDBRANCH  16  21
ENDBRANCH   1  11
BRANCH  10  23
ATOM     23  O   UNL     1      -6.260 -10.891  24.657  1.00  0.00    -0.500 OA
ATOM     24  H   UNL     1      -7.154 -10.438  24.508  1.00  0.00     0.294 HD
ENDBRANCH  10  23
BRANCH   5  25
ATOM     25  O   UNL     1       0.889  -8.309  23.063  1.00  0.00    -0.507 OA
ATOM     26  H   UNL     1       1.789  -8.775  23.077  1.00  0.00     0.293 HD
ENDBRANCH   5  25
BRANCH   7  27
ATOM     27  O   UNL     1      -1.241 -12.365  24.495  1.00  0.00    -0.507 OA
ATOM     28  H   UNL     1      -1.316 -13.151  23.865  1.00  0.00     0.293 HD
ENDBRANCH   7  27
TORSDOF 7
ENDMDL
MODEL 4
REMARK VINA RESULT:    -6.799      0.963      7.039
REMARK INTER + INTRA:          -7.946
REMARK INTER:                  -8.312
REMARK INTRA:                   0.366
REMARK UNBOUND:                 0.442
REMARK SMILES Oc1cc(O)c2cc(O)c(-c3cc(O)c(O)c(O)c3)[o+]c2c1
REMARK SMILES IDX 10 1 20 2 21 3 22 4 2 5 3 6 4 7 6 8 7 9 8 10 11 11 12 12
REMARK SMILES IDX 13 13 19 14 15 15 17 16 14 17 16 19 18 21 9 23 1 25 5 27
REMARK H PARENT 14 18 16 20 18 22 9 24 1 26 5 28
REMARK Flexibility Score: inf
ROOT
ATOM      1  C   UNL     1      -4.814  -8.889  23.928  1.00  0.00     0.402 A 
ATOM      2  O   UNL     1      -5.386  -7.776  23.477  1.00  0.00    -0.202 OA
ATOM      3  C   UNL     1      -6.693  -7.544  23.553  1.00  0.00     0.368 A 
ATOM      4  C   UNL     1      -7.201  -6.342  23.054  1.00  0.00     0.162 A 
ATOM      5  C   UNL     1      -8.571  -6.072  23.124  1.00  0.00     0.128 A 
ATOM      6  C   UNL     1      -9.435  -7.007  23.697  1.00  0.00     0.093 A 
ATOM      7  C   UNL     1      -8.951  -8.218  24.205  1.00  0.00     0.136 A 
ATOM      8  C   UNL     1      -7.562  -8.499  24.133  1.00  0.00     0.125 A 
ATOM      9  C   UNL     1      -6.990  -9.691  24.605  1.00  0.00     0.078 A 
ATOM     10  C   UNL     1      -5.612  -9.899  24.496  1.00  0.00     0.223 A 
ENDROOT
BRANCH   1  11
ATOM     11  C   UNL     1      -3.346  -9.026  23.795  1.00  0.00     0.091 A 
ATOM     12  C   UNL     1      -2.619  -8.030  23.124  1.00  0.00     0.068 A 
ATOM     13  C   UNL     1      -1.226  -8.126  23.000  1.00  0.00     0.162 A 
ATOM     14  C   UNL     1      -2.656 -10.103  24.375  1.00  0.00     0.068 A 
ATOM     15  C   UNL     1      -0.545  -9.212  23.563  1.00  0.00     0.200 A 
ATOM     16  C   UNL     1      -1.262 -10.202  24.257  1.00  0.00     0.162 A 
BRANCH  13  17
ATOM     17  O   UNL     1      -0.511  -7.141  22.321  1.00  0.00    -0.504 OA
ATOM     18  H   UNL     1      -0.001  -7.348  21.470  1.00  0.00     0.293 HD
ENDBRANCH  13  17
BRANCH  15  19
ATOM     19  O   UNL     1       0.841  -9.292  23.429  1.00  0.00    -0.502 OA
ATOM     20  H   UNL     1       1.307 -10.146  23.144  1.00  0.00     0.293 HD
ENDBRANCH  15  19
BRANCH  16  21
ATOM     21  O   UNL     1      -0.586 -11.279  24.831  1.00  0.00    -0.504 OA
ATOM     22  H   UNL     1       0.016 -11.882  24.282  1.00  0.00     0.293 HD
ENDBRANCH  16  21
ENDBRANCH   1  11
BRANCH  10  23
ATOM     23  O   UNL     1      -5.050 -11.105  24.918  1.00  0.00    -0.500 OA
ATOM     24  H   UNL     1      -4.290 -11.133  25.587  1.00  0.00     0.294 HD
ENDBRANCH  10  23
BRANCH   5  25
ATOM     25  O   UNL     1      -9.084  -4.875  22.628  1.00  0.00    -0.507 OA
ATOM     26  H   UNL     1     -10.077  -4.677  22.645  1.00  0.00     0.293 HD
ENDBRANCH   5  25
BRANCH   7  27
ATOM     27  O   UNL     1      -9.881  -9.098  24.766  1.00  0.00    -0.507 OA
ATOM     28  H   UNL     1     -10.879  -9.040  24.624  1.00  0.00     0.293 HD
ENDBRANCH   7  27
TORSDOF 7
ENDMDL
MODEL 5
REMARK VINA RESULT:    -6.432      1.773      7.467
REMARK INTER + INTRA:          -7.494
REMARK INTER:                  -7.123
REMARK INTRA:                  -0.371
REMARK UNBOUND:                 0.442
REMARK SMILES Oc1cc(O)c2cc(O)c(-c3cc(O)c(O)c(O)c3)[o+]c2c1
REMARK SMILES IDX 10 1 20 2 21 3 22 4 2 5 3 6 4 7 6 8 7 9 8 10 11 11 12 12
REMARK SMILES IDX 13 13 19 14 15 15 17 16 14 17 16 19 18 21 9 23 1 25 5 27
REMARK H PARENT 14 18 16 20 18 22 9 24 1 26 5 28
REMARK Flexibility Score: inf
ROOT
ATOM      1  C   UNL     1      -6.165  -8.422  23.705  1.00  0.00     0.402 A 
ATOM      2  O   UNL     1      -7.160  -8.752  24.524  1.00  0.00    -0.202 OA
ATOM      3  C   UNL     1      -8.262  -8.021  24.667  1.00  0.00     0.368 A 
ATOM      4  C   UNL     1      -9.254  -8.452  25.551  1.00  0.00     0.162 A 
ATOM      5  C   UNL     1     -10.423  -7.704  25.718  1.00  0.00     0.128 A 
ATOM      6  C   UNL     1     -10.600  -6.521  24.997  1.00  0.00     0.093 A 
ATOM      7  C   UNL     1      -9.621  -6.068  24.105  1.00  0.00     0.136 A 
ATOM      8  C   UNL     1      -8.431  -6.822  23.934  1.00  0.00     0.125 A 
ATOM      9  C   UNL     1      -7.391  -6.438  23.072  1.00  0.00     0.078 A 
ATOM     10  C   UNL     1      -6.245  -7.231  22.959  1.00  0.00     0.223 A 
ENDROOT
BRANCH   1  11
ATOM     11  C   UNL     1      -4.994  -9.324  23.626  1.00  0.00     0.091 A 
ATOM     12  C   UNL     1      -5.006 -10.390  22.712  1.00  0.00     0.068 A 
ATOM     13  C   UNL     1      -3.902 -11.247  22.604  1.00  0.00     0.162 A 
ATOM     14  C   UNL     1      -3.846  -9.103  24.405  1.00  0.00     0.068 A 
ATOM     15  C   UNL     1      -2.768 -11.034  23.398  1.00  0.00     0.200 A 
ATOM     16  C   UNL     1      -2.739  -9.956  24.299  1.00  0.00     0.162 A 
BRANCH  13  17
ATOM     17  O   UNL     1      -3.924 -12.312  21.705  1.00  0.00    -0.504 OA
ATOM     18  H   UNL     1      -4.770 -12.841  21.529  1.00  0.00     0.293 HD
ENDBRANCH  13  17
BRANCH  15  19
ATOM     19  O   UNL     1      -1.680 -11.899  23.279  1.00  0.00    -0.502 OA
ATOM     20  H   UNL     1      -1.735 -12.767  22.758  1.00  0.00     0.293 HD
ENDBRANCH  15  19
BRANCH  16  21
ATOM     21  O   UNL     1      -1.606  -9.733  25.082  1.00  0.00    -0.504 OA
ATOM     22  H   UNL     1      -0.673  -9.773  24.689  1.00  0.00     0.293 HD
ENDBRANCH  16  21
ENDBRANCH   1  11
BRANCH  10  23
ATOM     23  O   UNL     1      -5.191  -6.824  22.142  1.00  0.00    -0.500 OA
ATOM     24  H   UNL     1      -5.170  -7.039  21.152  1.00  0.00     0.294 HD
ENDBRANCH  10  23
BRANCH   5  25
ATOM     25  O   UNL     1     -11.417  -8.128  26.598  1.00  0.00    -0.507 OA
ATOM     26  H   UNL     1     -12.376  -7.817  26.503  1.00  0.00     0.293 HD
ENDBRANCH   5  25
BRANCH   7  27
ATOM     27  O   UNL     1      -9.877  -4.877  23.419  1.00  0.00    -0.507 OA
ATOM     28  H   UNL     1      -9.289  -4.057  23.461  1.00  0.00     0.293 HD
ENDBRANCH   7  27
TORSDOF 7
ENDMDL
MODEL 6
REMARK VINA RESULT:    -6.319      1.687      7.300
REMARK INTER + INTRA:          -7.354
REMARK INTER:                  -7.199
REMARK INTRA:                  -0.155
REMARK UNBOUND:                 0.442
REMARK SMILES Oc1cc(O)c2cc(O)c(-c3cc(O)c(O)c(O)c3)[o+]c2c1
REMARK SMILES IDX 10 1 20 2 21 3 22 4 2 5 3 6 4 7 6 8 7 9 8 10 11 11 12 12
REMARK SMILES IDX 13 13 19 14 15 15 17 16 14 17 16 19 18 21 9 23 1 25 5 27
REMARK H PARENT 14 18 16 20 18 22 9 24 1 26 5 28
REMARK Flexibility Score: inf
ROOT
ATOM      1  C   UNL     1      -3.858  -7.342  23.882  1.00  0.00     0.402 A 
ATOM      2  O   UNL     1      -4.873  -8.070  23.423  1.00  0.00    -0.202 OA
ATOM      3  C   UNL     1      -6.145  -7.692  23.518  1.00  0.00     0.368 A 
ATOM      4  C   UNL     1      -7.141  -8.524  23.002  1.00  0.00     0.162 A 
ATOM      5  C   UNL     1      -8.486  -8.150  23.087  1.00  0.00     0.128 A 
ATOM      6  C   UNL     1      -8.834  -6.939  23.689  1.00  0.00     0.093 A 
ATOM      7  C   UNL     1      -7.853  -6.087  24.212  1.00  0.00     0.136 A 
ATOM      8  C   UNL     1      -6.488  -6.464  24.132  1.00  0.00     0.125 A 
ATOM      9  C   UNL     1      -5.439  -5.680  24.641  1.00  0.00     0.078 A 
ATOM     10  C   UNL     1      -4.117  -6.119  24.528  1.00  0.00     0.223 A 
ENDROOT
BRANCH   1  11
ATOM     11  C   UNL     1      -2.485  -7.866  23.706  1.00  0.00     0.091 A 
ATOM     12  C   UNL     1      -2.184  -9.168  24.136  1.00  0.00     0.068 A 
ATOM     13  C   UNL     1      -0.897  -9.695  23.964  1.00  0.00     0.162 A 
ATOM     14  C   UNL     1      -1.489  -7.109  23.066  1.00  0.00     0.068 A 
ATOM     15  C   UNL     1       0.098  -8.928  23.344  1.00  0.00     0.200 A 
ATOM     16  C   UNL     1      -0.200  -7.632  22.889  1.00  0.00     0.162 A 
BRANCH  13  17
ATOM     17  O   UNL     1      -0.599 -10.983  24.405  1.00  0.00    -0.504 OA
ATOM     18  H   UNL     1       0.124 -11.154  25.094  1.00  0.00     0.293 HD
ENDBRANCH  13  17
BRANCH  15  19
ATOM     19  O   UNL     1       1.374  -9.468  23.183  1.00  0.00    -0.502 OA
ATOM     20  H   UNL     1       2.167  -9.150  23.728  1.00  0.00     0.293 HD
ENDBRANCH  15  19
BRANCH  16  21
ATOM     21  O   UNL     1       0.783  -6.870  22.259  1.00  0.00    -0.504 OA
ATOM     22  H   UNL     1       0.948  -6.936  21.261  1.00  0.00     0.293 HD
ENDBRANCH  16  21
ENDBRANCH   1  11
BRANCH  10  23
ATOM     23  O   UNL     1      -3.080  -5.366  25.079  1.00  0.00    -0.500 OA
ATOM     24  H   UNL     1      -2.423  -4.859  24.498  1.00  0.00     0.294 HD
ENDBRANCH  10  23
BRANCH   5  25
ATOM     25  O   UNL     1      -9.485  -8.974  22.575  1.00  0.00    -0.507 OA
ATOM     26  H   UNL     1      -9.423  -9.984  22.637  1.00  0.00     0.293 HD
ENDBRANCH   5  25
BRANCH   7  27
ATOM     27  O   UNL     1      -8.284  -4.891  24.795  1.00  0.00    -0.507 OA
ATOM     28  H   UNL     1      -8.126  -4.638  25.759  1.00  0.00     0.293 HD
ENDBRANCH   7  27
TORSDOF 7
ENDMDL
MODEL 7
REMARK VINA RESULT:    -5.473      1.950      6.996
REMARK INTER + INTRA:          -6.310
REMARK INTER:                  -6.037
REMARK INTRA:                  -0.273
REMARK UNBOUND:                 0.442
REMARK SMILES Oc1cc(O)c2cc(O)c(-c3cc(O)c(O)c(O)c3)[o+]c2c1
REMARK SMILES IDX 10 1 20 2 21 3 22 4 2 5 3 6 4 7 6 8 7 9 8 10 11 11 12 12
REMARK SMILES IDX 13 13 19 14 15 15 17 16 14 17 16 19 18 21 9 23 1 25 5 27
REMARK H PARENT 14 18 16 20 18 22 9 24 1 26 5 28
REMARK Flexibility Score: inf
ROOT
ATOM      1  C   UNL     1      -4.232  -7.368  23.980  1.00  0.00     0.402 A 
ATOM      2  O   UNL     1      -5.128  -6.458  23.608  1.00  0.00    -0.202 OA
ATOM      3  C   UNL     1      -6.437  -6.692  23.577  1.00  0.00     0.368 A 
ATOM      4  C   UNL     1      -7.301  -5.671  23.173  1.00  0.00     0.162 A 
ATOM      5  C   UNL     1      -8.681  -5.889  23.135  1.00  0.00     0.128 A 
ATOM      6  C   UNL     1      -9.199  -7.133  23.502  1.00  0.00     0.093 A 
ATOM      7  C   UNL     1      -8.354  -8.172  23.911  1.00  0.00     0.136 A 
ATOM      8  C   UNL     1      -6.952  -7.957  23.948  1.00  0.00     0.125 A 
ATOM      9  C   UNL     1      -6.029  -8.943  24.332  1.00  0.00     0.078 A 
ATOM     10  C   UNL     1      -4.661  -8.659  24.341  1.00  0.00     0.223 A 
ENDROOT
BRANCH   1  11
ATOM     11  C   UNL     1      -2.802  -6.983  23.982  1.00  0.00     0.091 A 
ATOM     12  C   UNL     1      -2.324  -6.115  24.976  1.00  0.00     0.068 A 
ATOM     13  C   UNL     1      -0.971  -5.751  25.012  1.00  0.00     0.162 A 
ATOM     14  C   UNL     1      -1.901  -7.513  23.045  1.00  0.00     0.068 A 
ATOM     15  C   UNL     1      -0.080  -6.266  24.062  1.00  0.00     0.200 A 
ATOM     16  C   UNL     1      -0.546  -7.154  23.077  1.00  0.00     0.162 A 
BRANCH  13  17
ATOM     17  O   UNL     1      -0.503  -4.877  25.993  1.00  0.00    -0.504 OA
ATOM     18  H   UNL     1       0.158  -4.141  25.776  1.00  0.00     0.293 HD
ENDBRANCH  13  17
BRANCH  15  19
ATOM     19  O   UNL     1       1.262  -5.890  24.112  1.00  0.00    -0.502 OA
ATOM     20  H   UNL     1       1.976  -6.490  24.508  1.00  0.00     0.293 HD
ENDBRANCH  15  19
BRANCH  16  21
ATOM     21  O   UNL     1       0.340  -7.680  22.137  1.00  0.00    -0.504 OA
ATOM     22  H   UNL     1       1.057  -7.108  21.705  1.00  0.00     0.293 HD
ENDBRANCH  16  21
ENDBRANCH   1  11
BRANCH  10  23
ATOM     23  O   UNL     1      -3.741  -9.654  24.672  1.00  0.00    -0.500 OA
ATOM     24  H   UNL     1      -4.036 -10.590  24.923  1.00  0.00     0.294 HD
ENDBRANCH  10  23
BRANCH   5  25
ATOM     25  O   UNL     1      -9.548  -4.875  22.734  1.00  0.00    -0.507 OA
ATOM     26  H   UNL     1      -9.988  -4.257  23.406  1.00  0.00     0.293 HD
ENDBRANCH   5  25
BRANCH   7  27
ATOM     27  O   UNL     1      -8.952  -9.385  24.266  1.00  0.00    -0.507 OA
ATOM     28  H   UNL     1      -8.711  -9.921  25.087  1.00  0.00     0.293 HD
ENDBRANCH   7  27
TORSDOF 7
ENDMDL
