MODEL 1
REMARK VINA RESULT:    -4.688      0.000      0.000
REMARK INTER + INTRA:          -5.828
REMARK INTER:                  -5.510
REMARK INTRA:                  -0.318
REMARK UNBOUND:                -0.318
REMARK SMILES O=c1cc(-c2ccc(O)c(O)c2)oc2cc(O)cc(O)c12
REMARK SMILES IDX 4 1 3 2 2 3 1 4 21 5 19 6 18 7 16 8 15 9 14 10 13 11 5 12
REMARK SMILES IDX 6 13 7 14 8 15 12 16 10 17 9 18 11 20 20 22 17 24
REMARK H PARENT 9 19 11 21 20 23 17 25
REMARK Flexibility Score: inf
ROOT
ATOM      1  C   UNL     1       4.303  -6.702  13.787  1.00  0.00     0.138 A 
ATOM      2  C   UNL     1       4.134  -7.670  12.787  1.00  0.00     0.100 A 
ATOM      3  C   UNL     1       4.208  -9.024  13.118  1.00  0.00     0.197 A 
ATOM      4  O   UNL     1       4.109  -9.866  12.189  1.00  0.00    -0.289 OA
ATOM      5  C   UNL     1       4.416  -9.409  14.464  1.00  0.00     0.107 A 
ATOM      6  C   UNL     1       4.476 -10.760  14.925  1.00  0.00     0.134 A 
ATOM      7  C   UNL     1       4.785 -11.018  16.266  1.00  0.00     0.093 A 
ATOM      8  C   UNL     1       4.981  -9.975  17.175  1.00  0.00     0.123 A 
ATOM      9  C   UNL     1       4.876  -8.655  16.746  1.00  0.00     0.094 A 
ATOM     10  C   UNL     1       4.602  -8.363  15.408  1.00  0.00     0.146 A 
ATOM     11  O   UNL     1       4.528  -7.090  15.038  1.00  0.00    -0.456 OA
ENDROOT
BRANCH   1  12
ATOM     12  C   UNL     1       4.231  -5.248  13.492  1.00  0.00     0.021 A 
ATOM     13  C   UNL     1       3.965  -4.823  12.179  1.00  0.00     0.016 A 
ATOM     14  C   UNL     1       3.883  -3.461  11.875  1.00  0.00     0.051 A 
ATOM     15  C   UNL     1       4.056  -2.503  12.882  1.00  0.00     0.157 A 
ATOM     16  C   UNL     1       4.390  -4.278  14.502  1.00  0.00     0.062 A 
ATOM     17  C   UNL     1       4.306  -2.911  14.196  1.00  0.00     0.158 A 
BRANCH  15  18
ATOM     18  O   UNL     1       3.977  -1.144  12.582  1.00  0.00    -0.504 OA
ATOM     19  H   UNL     1       3.204  -0.763  12.048  1.00  0.00     0.293 HD
ENDBRANCH  15  18
BRANCH  17  20
ATOM     20  O   UNL     1       4.467  -1.955  15.197  1.00  0.00    -0.504 OA
ATOM     21  H   UNL     1       5.239  -1.996  15.852  1.00  0.00     0.293 HD
ENDBRANCH  17  20
ENDBRANCH   1  12
BRANCH   6  22
ATOM     22  O   UNL     1       4.219 -11.874  14.120  1.00  0.00    -0.507 OA
ATOM     23  H   UNL     1       3.339 -12.074  13.670  1.00  0.00     0.293 HD
ENDBRANCH   6  22
BRANCH   8  24
ATOM     24  O   UNL     1       5.273 -10.243  18.510  1.00  0.00    -0.508 OA
ATOM     25  H   UNL     1       4.564 -10.579  19.152  1.00  0.00     0.293 HD
ENDBRANCH   8  24
TORSDOF 5
ENDMDL
MODEL 2
REMARK VINA RESULT:    -2.963     16.488     18.646
REMARK INTER + INTRA:          -3.800
REMARK INTER:                  -3.533
REMARK INTRA:                  -0.267
REMARK UNBOUND:                -0.318
REMARK SMILES O=c1cc(-c2ccc(O)c(O)c2)oc2cc(O)cc(O)c12
REMARK SMILES IDX 4 1 3 2 2 3 1 4 21 5 19 6 18 7 16 8 15 9 14 10 13 11 5 12
REMARK SMILES IDX 6 13 7 14 8 15 12 16 10 17 9 18 11 20 20 22 17 24
REMARK H PARENT 9 19 11 21 20 23 17 25
REMARK Flexibility Score: inf
ROOT
ATOM      1  C   UNL     1      11.981 -13.016  28.700  1.00  0.00     0.138 A 
ATOM      2  C   UNL     1      10.616 -12.972  28.380  1.00  0.00     0.100 A 
ATOM      3  C   UNL     1       9.827 -11.928  28.865  1.00  0.00     0.197 A 
ATOM      4  O   UNL     1       8.596 -11.948  28.608  1.00  0.00    -0.289 OA
ATOM      5  C   UNL     1      10.417 -10.904  29.645  1.00  0.00     0.107 A 
ATOM      6  C   UNL     1       9.718  -9.772  30.165  1.00  0.00     0.134 A 
ATOM      7  C   UNL     1      10.387  -8.874  31.006  1.00  0.00     0.093 A 
ATOM      8  C   UNL     1      11.744  -9.036  31.299  1.00  0.00     0.123 A 
ATOM      9  C   UNL     1      12.446 -10.109  30.756  1.00  0.00     0.094 A 
ATOM     10  C   UNL     1      11.799 -11.040  29.941  1.00  0.00     0.146 A 
ATOM     11  O   UNL     1      12.503 -12.058  29.459  1.00  0.00    -0.456 OA
ENDROOT
BRANCH   1  12
ATOM     12  C   UNL     1      12.868 -14.101  28.208  1.00  0.00     0.021 A 
ATOM     13  C   UNL     1      13.268 -14.107  26.861  1.00  0.00     0.016 A 
ATOM     14  C   UNL     1      14.109 -15.112  26.373  1.00  0.00     0.051 A 
ATOM     15  C   UNL     1      14.570 -16.121  27.228  1.00  0.00     0.157 A 
ATOM     16  C   UNL     1      13.347 -15.112  29.065  1.00  0.00     0.062 A 
ATOM     17  C   UNL     1      14.192 -16.119  28.575  1.00  0.00     0.158 A 
BRANCH  15  18
ATOM     18  O   UNL     1      15.407 -17.125  26.745  1.00  0.00    -0.504 OA
ATOM     19  H   UNL     1      15.872 -17.042  25.848  1.00  0.00     0.293 HD
ENDBRANCH  15  18
BRANCH  17  20
ATOM     20  O   UNL     1      14.663 -17.119  29.424  1.00  0.00    -0.504 OA
ATOM     21  H   UNL     1      15.625 -17.434  29.391  1.00  0.00     0.293 HD
ENDBRANCH  17  20
ENDBRANCH   1  12
BRANCH   6  22
ATOM     22  O   UNL     1       8.384  -9.472  29.872  1.00  0.00    -0.507 OA
ATOM     23  H   UNL     1       7.754  -8.976  30.482  1.00  0.00     0.293 HD
ENDBRANCH   6  22
BRANCH   8  24
ATOM     24  O   UNL     1      12.405  -8.129  32.125  1.00  0.00    -0.508 OA
ATOM     25  H   UNL     1      13.338  -7.797  31.908  1.00  0.00     0.293 HD
ENDBRANCH   8  24
TORSDOF 5
ENDMDL
