MODEL 1
REMARK VINA RESULT:    -5.636      0.000      0.000
REMARK INTER + INTRA:         -12.576
REMARK INTER:                 -10.908
REMARK INTRA:                  -1.668
REMARK UNBOUND:                -1.668
REMARK SMILES CCCCCCCCCCCCCCCCCC(=O)[O-]
REMARK SMILES IDX 10 1 11 2 12 3 13 4 14 5 15 6 16 7 17 8 18 9 19 10 20 11
REMARK SMILES IDX 9 12 8 13 7 14 6 15 5 16 4 17 3 18 2 19 1 20
REMARK H PARENT
REMARK Flexibility Score: inf
ROOT
ATOM      1  C   UNL     1       0.696  44.811  10.300  1.00  0.00     0.000 C 
ENDROOT
BRANCH   1   2
ATOM      2  C   UNL     1       1.194  44.153   9.001  1.00  0.00     0.000 C 
BRANCH   2   3
ATOM      3  C   UNL     1       2.300  43.094   9.185  1.00  0.00     0.000 C 
BRANCH   3   4
ATOM      4  C   UNL     1       3.721  43.658   9.388  1.00  0.00     0.000 C 
BRANCH   4   5
ATOM      5  C   UNL     1       4.183  43.733  10.853  1.00  0.00     0.000 C 
BRANCH   5   6
ATOM      6  C   UNL     1       3.392  42.792  11.777  1.00  0.00     0.000 C 
BRANCH   6   7
ATOM      7  C   UNL     1       4.045  41.407  11.910  1.00  0.00     0.006 C 
BRANCH   7   8
ATOM      8  C   UNL     1       3.033  40.310  12.269  1.00  0.00     0.053 C 
BRANCH   8   9
ATOM      9  C   UNL     1       3.742  39.042  12.626  1.00  0.00     0.041 C 
ATOM     10  O   UNL     1       3.330  37.938  12.180  1.00  0.00    -0.550 OA
ATOM     11  O   UNL     1       4.887  39.083  13.412  1.00  0.00    -0.550 OA
ENDBRANCH   8   9
ENDBRANCH   7   8
ENDBRANCH   6   7
ENDBRANCH   5   6
ENDBRANCH   4   5
ENDBRANCH   3   4
ENDBRANCH   2   3
ENDBRANCH   1   2
BRANCH   1  12
ATOM     12  C   UNL     1      -0.361  45.901  10.052  1.00  0.00     0.000 C 
BRANCH  12  13
ATOM     13  C   UNL     1      -0.185  46.589   8.689  1.00  0.00    -0.000 C 
BRANCH  13  14
ATOM     14  C   UNL     1       0.695  47.850   8.773  1.00  0.00    -0.000 C 
BRANCH  14  15
ATOM     15  C   UNL     1       2.045  47.673   8.058  1.00  0.00    -0.000 C 
BRANCH  15  16
ATOM     16  C   UNL     1       3.137  47.124   8.989  1.00  0.00    -0.000 C 
BRANCH  16  17
ATOM     17  C   UNL     1       4.533  47.516   8.490  1.00  0.00    -0.000 C 
BRANCH  17  18
ATOM     18  C   UNL     1       5.614  47.085   9.488  1.00  0.00    -0.000 C 
BRANCH  18  19
ATOM     19  C   UNL     1       6.901  47.894   9.289  1.00  0.00    -0.003 C 
ATOM     20  C   UNL     1       6.595  49.376   9.091  1.00  0.00     0.004 C 
ENDBRANCH  18  19
ENDBRANCH  17  18
ENDBRANCH  16  17
ENDBRANCH  15  16
ENDBRANCH  14  15
ENDBRANCH  13  14
ENDBRANCH  12  13
ENDBRANCH   1  12
TORSDOF 16
ENDMDL
MODEL 2
REMARK VINA RESULT:    -5.339      0.886      1.652
REMARK INTER + INTRA:         -12.001
REMARK INTER:                  -9.932
REMARK INTRA:                  -2.069
REMARK UNBOUND:                -1.668
REMARK SMILES CCCCCCCCCCCCCCCCCC(=O)[O-]
REMARK SMILES IDX 10 1 11 2 12 3 13 4 14 5 15 6 16 7 17 8 18 9 19 10 20 11
REMARK SMILES IDX 9 12 8 13 7 14 6 15 5 16 4 17 3 18 2 19 1 20
REMARK H PARENT
REMARK Flexibility Score: inf
ROOT
ATOM      1  C   UNL     1      -0.269  45.864   9.435  1.00  0.00     0.000 C 
ENDROOT
BRANCH   1   2
ATOM      2  C   UNL     1       0.199  45.405  10.827  1.00  0.00     0.000 C 
BRANCH   2   3
ATOM      3  C   UNL     1       1.117  44.166  10.835  1.00  0.00     0.000 C 
BRANCH   3   4
ATOM      4  C   UNL     1       1.705  43.777   9.463  1.00  0.00     0.000 C 
BRANCH   4   5
ATOM      5  C   UNL     1       2.925  42.842   9.526  1.00  0.00     0.000 C 
BRANCH   5   6
ATOM      6  C   UNL     1       3.925  43.240  10.625  1.00  0.00     0.000 C 
BRANCH   6   7
ATOM      7  C   UNL     1       4.084  42.154  11.701  1.00  0.00     0.006 C 
BRANCH   7   8
ATOM      8  C   UNL     1       3.039  41.037  11.570  1.00  0.00     0.053 C 
BRANCH   8   9
ATOM      9  C   UNL     1       3.411  39.870  12.429  1.00  0.00     0.041 C 
ATOM     10  O   UNL     1       4.599  39.725  12.822  1.00  0.00    -0.550 OA
ATOM     11  O   UNL     1       2.436  38.967  12.836  1.00  0.00    -0.550 OA
ENDBRANCH   8   9
ENDBRANCH   7   8
ENDBRANCH   6   7
ENDBRANCH   5   6
ENDBRANCH   4   5
ENDBRANCH   3   4
ENDBRANCH   2   3
ENDBRANCH   1   2
BRANCH   1  12
ATOM     12  C   UNL     1      -0.360  47.394   9.308  1.00  0.00     0.000 C 
BRANCH  12  13
ATOM     13  C   UNL     1       1.018  48.052   9.128  1.00  0.00    -0.000 C 
BRANCH  13  14
ATOM     14  C   UNL     1       1.823  47.429   7.973  1.00  0.00    -0.000 C 
BRANCH  14  15
ATOM     15  C   UNL     1       3.327  47.348   8.281  1.00  0.00    -0.000 C 
BRANCH  15  16
ATOM     16  C   UNL     1       3.612  46.797   9.686  1.00  0.00    -0.000 C 
BRANCH  16  17
ATOM     17  C   UNL     1       5.120  46.664   9.929  1.00  0.00    -0.000 C 
BRANCH  17  18
ATOM     18  C   UNL     1       5.914  47.531   8.945  1.00  0.00    -0.000 C 
BRANCH  18  19
ATOM     19  C   UNL     1       6.484  48.772   9.641  1.00  0.00    -0.003 C 
ATOM     20  C   UNL     1       6.495  49.975   8.701  1.00  0.00     0.004 C 
ENDBRANCH  18  19
ENDBRANCH  17  18
ENDBRANCH  16  17
ENDBRANCH  15  16
ENDBRANCH  14  15
ENDBRANCH  13  14
ENDBRANCH  12  13
ENDBRANCH   1  12
TORSDOF 16
ENDMDL
MODEL 3
REMARK VINA RESULT:    -5.329      3.387      7.435
REMARK INTER + INTRA:         -11.981
REMARK INTER:                 -10.602
REMARK INTRA:                  -1.379
REMARK UNBOUND:                -1.668
REMARK SMILES CCCCCCCCCCCCCCCCCC(=O)[O-]
REMARK SMILES IDX 10 1 11 2 12 3 13 4 14 5 15 6 16 7 17 8 18 9 19 10 20 11
REMARK SMILES IDX 9 12 8 13 7 14 6 15 5 16 4 17 3 18 2 19 1 20
REMARK H PARENT
REMARK Flexibility Score: inf
ROOT
ATOM      1  C   UNL     1       1.157  44.130   8.770  1.00  0.00     0.000 C 
ENDROOT
BRANCH   1   2
ATOM      2  C   UNL     1       0.592  44.855  10.004  1.00  0.00     0.000 C 
BRANCH   2   3
ATOM      3  C   UNL     1       0.535  46.392   9.891  1.00  0.00     0.000 C 
BRANCH   3   4
ATOM      4  C   UNL     1       0.543  46.945   8.451  1.00  0.00     0.000 C 
BRANCH   4   5
ATOM      5  C   UNL     1       1.930  47.350   7.923  1.00  0.00     0.000 C 
BRANCH   5   6
ATOM      6  C   UNL     1       3.007  47.354   9.020  1.00  0.00     0.000 C 
BRANCH   6   7
ATOM      7  C   UNL     1       4.413  47.640   8.467  1.00  0.00     0.006 C 
BRANCH   7   8
ATOM      8  C   UNL     1       5.524  47.063   9.356  1.00  0.00     0.053 C 
BRANCH   8   9
ATOM      9  C   UNL     1       6.760  47.900   9.257  1.00  0.00     0.041 C 
ATOM     10  O   UNL     1       7.879  47.419   9.578  1.00  0.00    -0.550 OA
ATOM     11  O   UNL     1       6.683  49.197   8.763  1.00  0.00    -0.550 OA
ENDBRANCH   8   9
ENDBRANCH   7   8
ENDBRANCH   6   7
ENDBRANCH   5   6
ENDBRANCH   4   5
ENDBRANCH   3   4
ENDBRANCH   2   3
ENDBRANCH   1   2
BRANCH   1  12
ATOM     12  C   UNL     1       2.287  43.146   9.120  1.00  0.00     0.000 C 
BRANCH  12  13
ATOM     13  C   UNL     1       3.564  43.861   9.591  1.00  0.00    -0.000 C 
BRANCH  13  14
ATOM     14  C   UNL     1       3.936  43.509  11.043  1.00  0.00    -0.000 C 
BRANCH  14  15
ATOM     15  C   UNL     1       2.809  42.761  11.774  1.00  0.00    -0.000 C 
BRANCH  15  16
ATOM     16  C   UNL     1       2.992  41.237  11.737  1.00  0.00    -0.000 C 
BRANCH  16  17
ATOM     17  C   UNL     1       4.385  40.838  12.238  1.00  0.00    -0.000 C 
BRANCH  17  18
ATOM     18  C   UNL     1       4.372  39.424  12.831  1.00  0.00    -0.000 C 
BRANCH  18  19
ATOM     19  C   UNL     1       2.996  38.771  12.667  1.00  0.00    -0.003 C 
ATOM     20  C   UNL     1       3.093  37.473  11.869  1.00  0.00     0.004 C 
ENDBRANCH  18  19
ENDBRANCH  17  18
ENDBRANCH  16  17
ENDBRANCH  15  16
ENDBRANCH  14  15
ENDBRANCH  13  14
ENDBRANCH  12  13
ENDBRANCH   1  12
TORSDOF 16
ENDMDL
MODEL 4
REMARK VINA RESULT:    -5.327      3.341      7.095
REMARK INTER + INTRA:         -11.977
REMARK INTER:                 -10.574
REMARK INTRA:                  -1.403
REMARK UNBOUND:                -1.668
REMARK SMILES CCCCCCCCCCCCCCCCCC(=O)[O-]
REMARK SMILES IDX 10 1 11 2 12 3 13 4 14 5 15 6 16 7 17 8 18 9 19 10 20 11
REMARK SMILES IDX 9 12 8 13 7 14 6 15 5 16 4 17 3 18 2 19 1 20
REMARK H PARENT
REMARK Flexibility Score: inf
ROOT
ATOM      1  C   UNL     1       0.745  44.783  10.250  1.00  0.00     0.000 C 
ENDROOT
BRANCH   1   2
ATOM      2  C   UNL     1      -0.191  45.970   9.961  1.00  0.00     0.000 C 
BRANCH   2   3
ATOM      3  C   UNL     1      -0.092  46.551   8.536  1.00  0.00     0.000 C 
BRANCH   3   4
ATOM      4  C   UNL     1       0.496  47.973   8.447  1.00  0.00     0.000 C 
BRANCH   4   5
ATOM      5  C   UNL     1       1.921  48.048   7.871  1.00  0.00     0.000 C 
BRANCH   5   6
ATOM      6  C   UNL     1       2.947  47.278   8.719  1.00  0.00     0.000 C 
BRANCH   6   7
ATOM      7  C   UNL     1       4.399  47.612   8.339  1.00  0.00     0.006 C 
BRANCH   7   8
ATOM      8  C   UNL     1       5.404  47.179   9.415  1.00  0.00     0.053 C 
BRANCH   8   9
ATOM      9  C   UNL     1       6.680  47.947   9.278  1.00  0.00     0.041 C 
ATOM     10  O   UNL     1       7.781  47.404   9.559  1.00  0.00    -0.550 OA
ATOM     11  O   UNL     1       6.659  49.249   8.792  1.00  0.00    -0.550 OA
ENDBRANCH   8   9
ENDBRANCH   7   8
ENDBRANCH   6   7
ENDBRANCH   5   6
ENDBRANCH   4   5
ENDBRANCH   3   4
ENDBRANCH   2   3
ENDBRANCH   1   2
BRANCH   1  12
ATOM     12  C   UNL     1       1.215  44.067   8.972  1.00  0.00     0.000 C 
BRANCH  12  13
ATOM     13  C   UNL     1       2.389  43.110   9.234  1.00  0.00    -0.000 C 
BRANCH  13  14
ATOM     14  C   UNL     1       3.720  43.852   9.452  1.00  0.00    -0.000 C 
BRANCH  14  15
ATOM     15  C   UNL     1       4.143  43.880  10.930  1.00  0.00    -0.000 C 
BRANCH  15  16
ATOM     16  C   UNL     1       3.346  42.888  11.790  1.00  0.00    -0.000 C 
BRANCH  16  17
ATOM     17  C   UNL     1       3.924  41.473  11.675  1.00  0.00    -0.000 C 
BRANCH  17  18
ATOM     18  C   UNL     1       2.996  40.444  12.333  1.00  0.00    -0.000 C 
BRANCH  18  19
ATOM     19  C   UNL     1       3.706  39.097  12.511  1.00  0.00    -0.003 C 
ATOM     20  C   UNL     1       4.844  39.203  13.523  1.00  0.00     0.004 C 
ENDBRANCH  18  19
ENDBRANCH  17  18
ENDBRANCH  16  17
ENDBRANCH  15  16
ENDBRANCH  14  15
ENDBRANCH  13  14
ENDBRANCH  12  13
ENDBRANCH   1  12
TORSDOF 16
ENDMDL
MODEL 5
REMARK VINA RESULT:    -5.228      0.669      1.179
REMARK INTER + INTRA:         -11.786
REMARK INTER:                 -10.219
REMARK INTRA:                  -1.567
REMARK UNBOUND:                -1.668
REMARK SMILES CCCCCCCCCCCCCCCCCC(=O)[O-]
REMARK SMILES IDX 10 1 11 2 12 3 13 4 14 5 15 6 16 7 17 8 18 9 19 10 20 11
REMARK SMILES IDX 9 12 8 13 7 14 6 15 5 16 4 17 3 18 2 19 1 20
REMARK H PARENT
REMARK Flexibility Score: inf
ROOT
ATOM      1  C   UNL     1       1.131  44.238   8.682  1.00  0.00     0.000 C 
ENDROOT
BRANCH   1   2
ATOM      2  C   UNL     1       2.116  43.105   9.021  1.00  0.00     0.000 C 
BRANCH   2   3
ATOM      3  C   UNL     1       3.582  43.546   9.210  1.00  0.00     0.000 C 
BRANCH   3   4
ATOM      4  C   UNL     1       4.161  43.312  10.620  1.00  0.00     0.000 C 
BRANCH   4   5
ATOM      5  C   UNL     1       3.208  43.662  11.776  1.00  0.00     0.000 C 
BRANCH   5   6
ATOM      6  C   UNL     1       2.499  42.428  12.358  1.00  0.00     0.000 C 
BRANCH   6   7
ATOM      7  C   UNL     1       3.091  41.107  11.842  1.00  0.00     0.006 C 
BRANCH   7   8
ATOM      8  C   UNL     1       2.655  39.898  12.681  1.00  0.00     0.053 C 
BRANCH   8   9
ATOM      9  C   UNL     1       3.706  38.833  12.649  1.00  0.00     0.041 C 
ATOM     10  O   UNL     1       3.513  37.771  12.000  1.00  0.00    -0.550 OA
ATOM     11  O   UNL     1       4.919  39.034  13.296  1.00  0.00    -0.550 OA
ENDBRANCH   8   9
ENDBRANCH   7   8
ENDBRANCH   6   7
ENDBRANCH   5   6
ENDBRANCH   4   5
ENDBRANCH   3   4
ENDBRANCH   2   3
ENDBRANCH   1   2
BRANCH   1  12
ATOM     12  C   UNL     1       0.855  45.168   9.877  1.00  0.00     0.000 C 
BRANCH  12  13
ATOM     13  C   UNL     1      -0.361  46.079   9.643  1.00  0.00    -0.000 C 
BRANCH  13  14
ATOM     14  C   UNL     1       0.039  47.485   9.160  1.00  0.00    -0.000 C 
BRANCH  14  15
ATOM     15  C   UNL     1       1.557  47.721   9.228  1.00  0.00    -0.000 C 
BRANCH  15  16
ATOM     16  C   UNL     1       2.203  47.804   7.838  1.00  0.00    -0.000 C 
BRANCH  16  17
ATOM     17  C   UNL     1       3.733  47.804   7.942  1.00  0.00    -0.000 C 
BRANCH  17  18
ATOM     18  C   UNL     1       4.197  47.114   9.230  1.00  0.00    -0.000 C 
BRANCH  18  19
ATOM     19  C   UNL     1       5.727  47.065   9.308  1.00  0.00    -0.003 C 
ATOM     20  C   UNL     1       6.328  48.467   9.244  1.00  0.00     0.004 C 
ENDBRANCH  18  19
ENDBRANCH  17  18
ENDBRANCH  16  17
ENDBRANCH  15  16
ENDBRANCH  14  15
ENDBRANCH  13  14
ENDBRANCH  12  13
ENDBRANCH   1  12
TORSDOF 16
ENDMDL
MODEL 6
REMARK VINA RESULT:    -5.161      1.162      3.864
REMARK INTER + INTRA:         -11.657
REMARK INTER:                  -9.629
REMARK INTRA:                  -2.027
REMARK UNBOUND:                -1.668
REMARK SMILES CCCCCCCCCCCCCCCCCC(=O)[O-]
REMARK SMILES IDX 10 1 11 2 12 3 13 4 14 5 15 6 16 7 17 8 18 9 19 10 20 11
REMARK SMILES IDX 9 12 8 13 7 14 6 15 5 16 4 17 3 18 2 19 1 20
REMARK H PARENT
REMARK Flexibility Score: inf
ROOT
ATOM      1  C   UNL     1       4.252  46.252  10.642  1.00  0.00     0.000 C 
ENDROOT
BRANCH   1   2
ATOM      2  C   UNL     1       4.410  44.730  10.812  1.00  0.00     0.000 C 
BRANCH   2   3
ATOM      3  C   UNL     1       3.897  43.882   9.630  1.00  0.00     0.000 C 
BRANCH   3   4
ATOM      4  C   UNL     1       2.480  43.300   9.807  1.00  0.00     0.000 C 
BRANCH   4   5
ATOM      5  C   UNL     1       1.795  43.661  11.137  1.00  0.00     0.000 C 
BRANCH   5   6
ATOM      6  C   UNL     1       1.613  42.446  12.062  1.00  0.00     0.000 C 
BRANCH   6   7
ATOM      7  C   UNL     1       2.727  41.401  11.893  1.00  0.00     0.006 C 
BRANCH   7   8
ATOM      8  C   UNL     1       2.539  40.185  12.811  1.00  0.00     0.053 C 
BRANCH   8   9
ATOM      9  C   UNL     1       3.721  39.273  12.719  1.00  0.00     0.041 C 
ATOM     10  O   UNL     1       3.663  38.228  12.018  1.00  0.00    -0.550 OA
ATOM     11  O   UNL     1       4.905  39.602  13.369  1.00  0.00    -0.550 OA
ENDBRANCH   8   9
ENDBRANCH   7   8
ENDBRANCH   6   7
ENDBRANCH   5   6
ENDBRANCH   4   5
ENDBRANCH   3   4
ENDBRANCH   2   3
ENDBRANCH   1   2
BRANCH   1  12
ATOM     12  C   UNL     1       5.371  46.878   9.793  1.00  0.00     0.000 C 
BRANCH  12  13
ATOM     13  C   UNL     1       4.826  47.817   8.704  1.00  0.00    -0.000 C 
BRANCH  13  14
ATOM     14  C   UNL     1       3.531  47.287   8.062  1.00  0.00    -0.000 C 
BRANCH  14  15
ATOM     15  C   UNL     1       2.537  48.412   7.729  1.00  0.00    -0.000 C 
BRANCH  15  16
ATOM     16  C   UNL     1       1.090  48.048   8.093  1.00  0.00    -0.000 C 
BRANCH  16  17
ATOM     17  C   UNL     1       1.050  47.078   9.280  1.00  0.00    -0.000 C 
BRANCH  17  18
ATOM     18  C   UNL     1      -0.056  46.031   9.098  1.00  0.00    -0.000 C 
BRANCH  18  19
ATOM     19  C   UNL     1      -0.433  45.881   7.620  1.00  0.00    -0.003 C 
ATOM     20  C   UNL     1       0.092  44.566   7.048  1.00  0.00     0.004 C 
ENDBRANCH  18  19
ENDBRANCH  17  18
ENDBRANCH  16  17
ENDBRANCH  15  16
ENDBRANCH  14  15
ENDBRANCH  13  14
ENDBRANCH  12  13
ENDBRANCH   1  12
TORSDOF 16
ENDMDL
MODEL 7
REMARK VINA RESULT:    -5.082      3.356      7.381
REMARK INTER + INTRA:         -11.504
REMARK INTER:                  -9.574
REMARK INTRA:                  -1.930
REMARK UNBOUND:                -1.668
REMARK SMILES CCCCCCCCCCCCCCCCCC(=O)[O-]
REMARK SMILES IDX 10 1 11 2 12 3 13 4 14 5 15 6 16 7 17 8 18 9 19 10 20 11
REMARK SMILES IDX 9 12 8 13 7 14 6 15 5 16 4 17 3 18 2 19 1 20
REMARK H PARENT
REMARK Flexibility Score: inf
ROOT
ATOM      1  C   UNL     1       4.281  44.783  10.776  1.00  0.00     0.000 C 
ENDROOT
BRANCH   1   2
ATOM      2  C   UNL     1       4.539  46.280  10.532  1.00  0.00     0.000 C 
BRANCH   2   3
ATOM      3  C   UNL     1       4.960  46.648   9.095  1.00  0.00     0.000 C 
BRANCH   3   4
ATOM      4  C   UNL     1       4.142  47.779   8.440  1.00  0.00     0.000 C 
BRANCH   4   5
ATOM      5  C   UNL     1       2.769  47.350   7.894  1.00  0.00     0.000 C 
BRANCH   5   6
ATOM      6  C   UNL     1       1.608  47.754   8.817  1.00  0.00     0.000 C 
BRANCH   6   7
ATOM      7  C   UNL     1       0.929  46.543   9.478  1.00  0.00     0.006 C 
BRANCH   7   8
ATOM      8  C   UNL     1      -0.503  46.322   8.971  1.00  0.00     0.053 C 
BRANCH   8   9
ATOM      9  C   UNL     1      -0.487  45.834   7.557  1.00  0.00     0.041 C 
ATOM     10  O   UNL     1      -0.974  46.542   6.636  1.00  0.00    -0.550 OA
ATOM     11  O   UNL     1       0.110  44.618   7.248  1.00  0.00    -0.550 OA
ENDBRANCH   8   9
ENDBRANCH   7   8
ENDBRANCH   6   7
ENDBRANCH   5   6
ENDBRANCH   4   5
ENDBRANCH   3   4
ENDBRANCH   2   3
ENDBRANCH   1   2
BRANCH   1  12
ATOM     12  C   UNL     1       3.774  44.051   9.521  1.00  0.00     0.000 C 
BRANCH  12  13
ATOM     13  C   UNL     1       2.481  43.263   9.783  1.00  0.00    -0.000 C 
BRANCH  13  14
ATOM     14  C   UNL     1       1.925  43.495  11.200  1.00  0.00    -0.000 C 
BRANCH  14  15
ATOM     15  C   UNL     1       2.145  42.286  12.123  1.00  0.00    -0.000 C 
BRANCH  15  16
ATOM     16  C   UNL     1       2.968  41.175  11.453  1.00  0.00    -0.000 C 
BRANCH  16  17
ATOM     17  C   UNL     1       4.255  40.895  12.238  1.00  0.00    -0.000 C 
BRANCH  17  18
ATOM     18  C   UNL     1       4.254  39.470  12.806  1.00  0.00    -0.000 C 
BRANCH  18  19
ATOM     19  C   UNL     1       2.916  38.772  12.538  1.00  0.00    -0.003 C 
ATOM     20  C   UNL     1       3.125  37.434  11.833  1.00  0.00     0.004 C 
ENDBRANCH  18  19
ENDBRANCH  17  18
ENDBRANCH  16  17
ENDBRANCH  15  16
ENDBRANCH  14  15
ENDBRANCH  13  14
ENDBRANCH  12  13
ENDBRANCH   1  12
TORSDOF 16
ENDMDL
MODEL 8
REMARK VINA RESULT:    -4.727      3.484      7.985
REMARK INTER + INTRA:         -10.816
REMARK INTER:                  -9.946
REMARK INTRA:                  -0.871
REMARK UNBOUND:                -1.668
REMARK SMILES CCCCCCCCCCCCCCCCCC(=O)[O-]
REMARK SMILES IDX 10 1 11 2 12 3 13 4 14 5 15 6 16 7 17 8 18 9 19 10 20 11
REMARK SMILES IDX 9 12 8 13 7 14 6 15 5 16 4 17 3 18 2 19 1 20
REMARK H PARENT
REMARK Flexibility Score: inf
ROOT
ATOM      1  C   UNL     1       2.843  43.378   9.227  1.00  0.00     0.000 C 
ENDROOT
BRANCH   1   2
ATOM      2  C   UNL     1       1.715  44.342   9.634  1.00  0.00     0.000 C 
BRANCH   2   3
ATOM      3  C   UNL     1       0.756  44.747   8.496  1.00  0.00     0.000 C 
BRANCH   3   4
ATOM      4  C   UNL     1       0.336  46.231   8.488  1.00  0.00     0.000 C 
BRANCH   4   5
ATOM      5  C   UNL     1       1.437  47.210   8.045  1.00  0.00     0.000 C 
BRANCH   5   6
ATOM      6  C   UNL     1       2.565  47.347   9.082  1.00  0.00     0.000 C 
BRANCH   6   7
ATOM      7  C   UNL     1       3.958  47.408   8.436  1.00  0.00     0.006 C 
BRANCH   7   8
ATOM      8  C   UNL     1       5.075  47.000   9.407  1.00  0.00     0.053 C 
BRANCH   8   9
ATOM      9  C   UNL     1       6.290  47.845   9.189  1.00  0.00     0.041 C 
ATOM     10  O   UNL     1       6.174  49.024   8.761  1.00  0.00    -0.550 OA
ATOM     11  O   UNL     1       7.549  47.348   9.506  1.00  0.00    -0.550 OA
ENDBRANCH   8   9
ENDBRANCH   7   8
ENDBRANCH   6   7
ENDBRANCH   5   6
ENDBRANCH   4   5
ENDBRANCH   3   4
ENDBRANCH   2   3
ENDBRANCH   1   2
BRANCH   1  12
ATOM     12  C   UNL     1       3.959  43.284  10.281  1.00  0.00     0.000 C 
BRANCH  12  13
ATOM     13  C   UNL     1       3.431  43.463  11.713  1.00  0.00    -0.000 C 
BRANCH  13  14
ATOM     14  C   UNL     1       2.526  42.300  12.159  1.00  0.00    -0.000 C 
BRANCH  14  15
ATOM     15  C   UNL     1       3.041  40.935  11.674  1.00  0.00    -0.000 C 
BRANCH  15  16
ATOM     16  C   UNL     1       4.207  40.409  12.525  1.00  0.00    -0.000 C 
BRANCH  16  17
ATOM     17  C   UNL     1       4.205  38.877  12.573  1.00  0.00    -0.000 C 
BRANCH  17  18
ATOM     18  C   UNL     1       2.780  38.324  12.448  1.00  0.00    -0.000 C 
BRANCH  18  19
ATOM     19  C   UNL     1       2.775  36.977  11.717  1.00  0.00    -0.003 C 
ATOM     20  C   UNL     1       1.374  36.371  11.688  1.00  0.00     0.004 C 
ENDBRANCH  18  19
ENDBRANCH  17  18
ENDBRANCH  16  17
ENDBRANCH  15  16
ENDBRANCH  14  15
ENDBRANCH  13  14
ENDBRANCH  12  13
ENDBRANCH   1  12
TORSDOF 16
ENDMDL
MODEL 9
REMARK VINA RESULT:    -4.688      3.846      7.908
REMARK INTER + INTRA:         -10.741
REMARK INTER:                  -9.178
REMARK INTRA:                  -1.562
REMARK UNBOUND:                -1.668
REMARK SMILES CCCCCCCCCCCCCCCCCC(=O)[O-]
REMARK SMILES IDX 10 1 11 2 12 3 13 4 14 5 15 6 16 7 17 8 18 9 19 10 20 11
REMARK SMILES IDX 9 12 8 13 7 14 6 15 5 16 4 17 3 18 2 19 1 20
REMARK H PARENT
REMARK Flexibility Score: inf
ROOT
ATOM      1  C   UNL     1       3.564  43.546  10.075  1.00  0.00     0.000 C 
ENDROOT
BRANCH   1   2
ATOM      2  C   UNL     1       2.076  43.505   9.686  1.00  0.00     0.000 C 
BRANCH   2   3
ATOM      3  C   UNL     1       1.143  44.350  10.577  1.00  0.00     0.000 C 
BRANCH   3   4
ATOM      4  C   UNL     1       0.450  45.531   9.868  1.00  0.00     0.000 C 
BRANCH   4   5
ATOM      5  C   UNL     1       1.322  46.264   8.834  1.00  0.00     0.000 C 
BRANCH   5   6
ATOM      6  C   UNL     1       2.411  47.135   9.484  1.00  0.00     0.000 C 
BRANCH   6   7
ATOM      7  C   UNL     1       3.641  47.315   8.581  1.00  0.00     0.006 C 
BRANCH   7   8
ATOM      8  C   UNL     1       4.914  46.715   9.194  1.00  0.00     0.053 C 
BRANCH   8   9
ATOM      9  C   UNL     1       6.049  47.685   9.095  1.00  0.00     0.041 C 
ATOM     10  O   UNL     1       5.846  48.858   8.683  1.00  0.00    -0.550 OA
ATOM     11  O   UNL     1       7.322  47.309   9.505  1.00  0.00    -0.550 OA
ENDBRANCH   8   9
ENDBRANCH   7   8
ENDBRANCH   6   7
ENDBRANCH   5   6
ENDBRANCH   4   5
ENDBRANCH   3   4
ENDBRANCH   2   3
ENDBRANCH   1   2
BRANCH   1  12
ATOM     12  C   UNL     1       3.792  43.397  11.589  1.00  0.00     0.000 C 
BRANCH  12  13
ATOM     13  C   UNL     1       4.260  41.984  11.976  1.00  0.00    -0.000 C 
BRANCH  13  14
ATOM     14  C   UNL     1       3.228  40.901  11.616  1.00  0.00    -0.000 C 
BRANCH  14  15
ATOM     15  C   UNL     1       2.955  39.938  12.783  1.00  0.00    -0.000 C 
BRANCH  15  16
ATOM     16  C   UNL     1       1.496  39.988  13.259  1.00  0.00    -0.000 C 
BRANCH  16  17
ATOM     17  C   UNL     1       0.965  41.427  13.255  1.00  0.00    -0.000 C 
BRANCH  17  18
ATOM     18  C   UNL     1      -0.421  41.504  13.906  1.00  0.00    -0.000 C 
BRANCH  18  19
ATOM     19  C   UNL     1      -0.440  40.767  15.249  1.00  0.00    -0.003 C 
ATOM     20  C   UNL     1      -0.469  41.750  16.417  1.00  0.00     0.004 C 
ENDBRANCH  18  19
ENDBRANCH  17  18
ENDBRANCH  16  17
ENDBRANCH  15  16
ENDBRANCH  14  15
ENDBRANCH  13  14
ENDBRANCH  12  13
ENDBRANCH   1  12
TORSDOF 16
ENDMDL
