MODEL 1
REMARK VINA RESULT:    -5.376      0.000      0.000
REMARK INTER + INTRA:          -9.659
REMARK INTER:                  -7.577
REMARK INTRA:                  -2.082
REMARK UNBOUND:                -2.082
REMARK SMILES OC[C@@H]1O[C@H](O[C@H]2OC=C[C@H]3[C@@H](O)[C@H]4O[C@@]4(CO)[C@H]23)[C@H](O)[C@H](O)[C@@H]1O
REMARK SMILES IDX 6 1 7 2 10 3 9 4 11 5 8 6 19 7 12 8 16 9 14 10 15 11 13 12
REMARK SMILES IDX 17 14 18 15 5 17 20 18 4 19 22 20 3 21 24 22 21 23 23 25
REMARK SMILES IDX 2 27 1 28 25 30
REMARK H PARENT 13 13 18 16 21 24 23 26 1 29 25 31
REMARK Flexibility Score: inf
ROOT
ATOM      1  O   UNL     1      22.131  14.597   7.445  1.00  0.00    -0.310 OA
ENDROOT
BRANCH   1   2
ATOM      2  C   UNL     1      21.186  15.189   8.318  1.00  0.00     0.315 C 
ATOM      3  C   UNL     1      20.746  14.927  11.207  1.00  0.00     0.018 C 
ATOM      4  C   UNL     1      20.381  13.943  10.375  1.00  0.00     0.186 C 
ATOM      5  C   UNL     1      21.075  16.242  10.584  1.00  0.00     0.059 C 
ATOM      6  O   UNL     1      20.456  14.120   8.966  1.00  0.00    -0.472 OA
ATOM      7  C   UNL     1      21.958  16.014   9.374  1.00  0.00     0.105 C 
ATOM      8  C   UNL     1      21.837  17.279  11.404  1.00  0.00     0.154 C 
ATOM      9  C   UNL     1      22.451  17.428   9.052  1.00  0.00     0.130 C 
ATOM     10  C   UNL     1      22.417  18.207  10.325  1.00  0.00     0.183 C 
ATOM     11  O   UNL     1      23.637  17.806   9.725  1.00  0.00    -0.360 OA
BRANCH   8  12
ATOM     12  O   UNL     1      22.877  16.682  12.137  1.00  0.00    -0.390 OA
ATOM     13  H   UNL     1      22.839  15.702  11.962  1.00  0.00     0.211 HD
ENDBRANCH   8  12
BRANCH   9  14
ATOM     14  C   UNL     1      22.096  18.234   7.804  1.00  0.00     0.195 C 
BRANCH  14  15
ATOM     15  O   UNL     1      22.699  17.649   6.677  1.00  0.00    -0.393 OA
ATOM     16  H   UNL     1      22.243  18.040   5.885  1.00  0.00     0.210 HD
ENDBRANCH  14  15
ENDBRANCH   9  14
ENDBRANCH   1   2
BRANCH   1  17
ATOM     17  C   UNL     1      21.548  14.168   6.227  1.00  0.00     0.286 C 
ATOM     18  C   UNL     1      22.637  13.428   5.406  1.00  0.00     0.202 C 
ATOM     19  O   UNL     1      20.998  15.322   5.590  1.00  0.00    -0.341 OA
ATOM     20  C   UNL     1      23.591  14.445   4.743  1.00  0.00     0.179 C 
ATOM     21  C   UNL     1      21.267  15.419   4.200  1.00  0.00     0.178 C 
ATOM     22  C   UNL     1      22.792  15.496   3.920  1.00  0.00     0.177 C 
BRANCH  18  23
ATOM     23  O   UNL     1      23.311  12.471   6.195  1.00  0.00    -0.385 OA
ATOM     24  H   UNL     1      23.798  12.946   6.924  1.00  0.00     0.211 HD
ENDBRANCH  18  23
BRANCH  20  25
ATOM     25  O   UNL     1      24.367  15.107   5.725  1.00  0.00    -0.387 OA
ATOM     26  H   UNL     1      25.321  14.952   5.502  1.00  0.00     0.211 HD
ENDBRANCH  20  25
BRANCH  21  27
ATOM     27  C   UNL     1      20.527  16.652   3.653  1.00  0.00     0.191 C 
BRANCH  27  28
ATOM     28  O   UNL     1      20.515  17.667   4.618  1.00  0.00    -0.394 OA
ATOM     29  H   UNL     1      21.273  18.262   4.398  1.00  0.00     0.210 HD
ENDBRANCH  27  28
ENDBRANCH  21  27
BRANCH  22  30
ATOM     30  O   UNL     1      23.267  16.794   4.178  1.00  0.00    -0.387 OA
ATOM     31  H   UNL     1      24.252  16.762   4.042  1.00  0.00     0.211 HD
ENDBRANCH  22  30
ENDBRANCH   1  17
TORSDOF 10
ENDMDL
MODEL 2
REMARK VINA RESULT:    -5.332      3.174      6.105
REMARK INTER + INTRA:          -9.596
REMARK INTER:                  -7.907
REMARK INTRA:                  -1.689
REMARK UNBOUND:                -2.082
REMARK SMILES OC[C@@H]1O[C@H](O[C@H]2OC=C[C@H]3[C@@H](O)[C@H]4O[C@@]4(CO)[C@H]23)[C@H](O)[C@H](O)[C@@H]1O
REMARK SMILES IDX 6 1 7 2 10 3 9 4 11 5 8 6 19 7 12 8 16 9 14 10 15 11 13 12
REMARK SMILES IDX 17 14 18 15 5 17 20 18 4 19 22 20 3 21 24 22 21 23 23 25
REMARK SMILES IDX 2 27 1 28 25 30
REMARK H PARENT 13 13 18 16 21 24 23 26 1 29 25 31
REMARK Flexibility Score: inf
ROOT
ATOM      1  O   UNL     1      20.251  16.585   7.529  1.00  0.00    -0.310 OA
ENDROOT
BRANCH   1   2
ATOM      2  C   UNL     1      19.890  17.779   6.857  1.00  0.00     0.315 C 
ATOM      3  C   UNL     1      18.225  18.275   4.493  1.00  0.00     0.018 C 
ATOM      4  C   UNL     1      19.456  17.765   4.359  1.00  0.00     0.186 C 
ATOM      5  C   UNL     1      17.885  18.857   5.823  1.00  0.00     0.059 C 
ATOM      6  O   UNL     1      20.323  17.657   5.482  1.00  0.00    -0.472 OA
ATOM      7  C   UNL     1      18.351  17.915   6.915  1.00  0.00     0.105 C 
ATOM      8  C   UNL     1      16.420  19.116   6.164  1.00  0.00     0.154 C 
ATOM      9  C   UNL     1      17.664  18.484   8.160  1.00  0.00     0.130 C 
ATOM     10  C   UNL     1      16.436  19.197   7.699  1.00  0.00     0.183 C 
ATOM     11  O   UNL     1      16.368  17.969   8.405  1.00  0.00    -0.360 OA
BRANCH   8  12
ATOM     12  O   UNL     1      15.605  18.050   5.745  1.00  0.00    -0.390 OA
ATOM     13  H   UNL     1      16.041  17.638   4.950  1.00  0.00     0.211 HD
ENDBRANCH   8  12
BRANCH   9  14
ATOM     14  C   UNL     1      18.368  19.135   9.349  1.00  0.00     0.195 C 
BRANCH  14  15
ATOM     15  O   UNL     1      19.034  18.150  10.099  1.00  0.00    -0.393 OA
ATOM     16  H   UNL     1      19.678  18.635  10.682  1.00  0.00     0.210 HD
ENDBRANCH  14  15
ENDBRANCH   9  14
ENDBRANCH   1   2
BRANCH   1  17
ATOM     17  C   UNL     1      21.592  16.609   7.990  1.00  0.00     0.286 C 
ATOM     18  C   UNL     1      22.005  15.155   8.342  1.00  0.00     0.202 C 
ATOM     19  O   UNL     1      21.651  17.529   9.080  1.00  0.00    -0.341 OA
ATOM     20  C   UNL     1      21.406  14.743   9.705  1.00  0.00     0.179 C 
ATOM     21  C   UNL     1      22.387  17.074  10.204  1.00  0.00     0.178 C 
ATOM     22  C   UNL     1      21.770  15.782  10.804  1.00  0.00     0.177 C 
BRANCH  18  23
ATOM     23  O   UNL     1      21.673  14.262   7.300  1.00  0.00    -0.385 OA
ATOM     24  H   UNL     1      22.213  14.497   6.496  1.00  0.00     0.211 HD
ENDBRANCH  18  23
BRANCH  20  25
ATOM     25  O   UNL     1      19.998  14.631   9.611  1.00  0.00    -0.387 OA
ATOM     26  H   UNL     1      19.609  15.457  10.000  1.00  0.00     0.211 HD
ENDBRANCH  20  25
BRANCH  21  27
ATOM     27  C   UNL     1      22.438  18.212  11.238  1.00  0.00     0.191 C 
BRANCH  27  28
ATOM     28  O   UNL     1      22.959  17.733  12.447  1.00  0.00    -0.394 OA
ATOM     29  H   UNL     1      22.319  18.006  13.148  1.00  0.00     0.210 HD
ENDBRANCH  27  28
ENDBRANCH  21  27
BRANCH  22  30
ATOM     30  O   UNL     1      20.642  16.100  11.580  1.00  0.00    -0.387 OA
ATOM     31  H   UNL     1      20.974  16.643  12.345  1.00  0.00     0.211 HD
ENDBRANCH  22  30
ENDBRANCH   1  17
TORSDOF 10
ENDMDL
MODEL 3
REMARK VINA RESULT:    -5.199      3.916      5.539
REMARK INTER + INTRA:          -9.409
REMARK INTER:                  -7.605
REMARK INTRA:                  -1.804
REMARK UNBOUND:                -2.082
REMARK SMILES OC[C@@H]1O[C@H](O[C@H]2OC=C[C@H]3[C@@H](O)[C@H]4O[C@@]4(CO)[C@H]23)[C@H](O)[C@H](O)[C@@H]1O
REMARK SMILES IDX 6 1 7 2 10 3 9 4 11 5 8 6 19 7 12 8 16 9 14 10 15 11 13 12
REMARK SMILES IDX 17 14 18 15 5 17 20 18 4 19 22 20 3 21 24 22 21 23 23 25
REMARK SMILES IDX 2 27 1 28 25 30
REMARK H PARENT 13 13 18 16 21 24 23 26 1 29 25 31
REMARK Flexibility Score: inf
ROOT
ATOM      1  O   UNL     1      19.011  16.151   9.419  1.00  0.00    -0.310 OA
ENDROOT
BRANCH   1   2
ATOM      2  C   UNL     1      18.123  15.841   8.359  1.00  0.00     0.315 C 
ATOM      3  C   UNL     1      15.264  15.181   8.323  1.00  0.00     0.018 C 
ATOM      4  C   UNL     1      16.162  14.281   8.745  1.00  0.00     0.186 C 
ATOM      5  C   UNL     1      15.801  16.368   7.597  1.00  0.00     0.059 C 
ATOM      6  O   UNL     1      17.556  14.537   8.630  1.00  0.00    -0.472 OA
ATOM      7  C   UNL     1      17.005  16.908   8.343  1.00  0.00     0.105 C 
ATOM      8  C   UNL     1      14.905  17.590   7.416  1.00  0.00     0.154 C 
ATOM      9  C   UNL     1      17.231  18.265   7.670  1.00  0.00     0.130 C 
ATOM     10  C   UNL     1      15.914  18.714   7.128  1.00  0.00     0.183 C 
ATOM     11  O   UNL     1      16.513  19.338   8.251  1.00  0.00    -0.360 OA
BRANCH   8  12
ATOM     12  O   UNL     1      14.188  17.875   8.592  1.00  0.00    -0.390 OA
ATOM     13  H   UNL     1      13.701  17.046   8.850  1.00  0.00     0.211 HD
ENDBRANCH   8  12
BRANCH   9  14
ATOM     14  C   UNL     1      18.434  18.645   6.810  1.00  0.00     0.195 C 
BRANCH  14  15
ATOM     15  O   UNL     1      19.590  18.689   7.609  1.00  0.00    -0.393 OA
ATOM     16  H   UNL     1      19.418  18.082   8.378  1.00  0.00     0.210 HD
ENDBRANCH  14  15
ENDBRANCH   9  14
ENDBRANCH   1   2
BRANCH   1  17
ATOM     17  C   UNL     1      20.253  15.478   9.298  1.00  0.00     0.286 C 
ATOM     18  C   UNL     1      21.107  15.814  10.549  1.00  0.00     0.202 C 
ATOM     19  O   UNL     1      20.832  15.873   8.053  1.00  0.00    -0.341 OA
ATOM     20  C   UNL     1      21.713  17.229  10.419  1.00  0.00     0.179 C 
ATOM     21  C   UNL     1      22.213  16.189   8.114  1.00  0.00     0.178 C 
ATOM     22  C   UNL     1      22.483  17.378   9.075  1.00  0.00     0.177 C 
BRANCH  18  23
ATOM     23  O   UNL     1      20.365  15.638  11.737  1.00  0.00    -0.385 OA
ATOM     24  H   UNL     1      19.691  16.369  11.803  1.00  0.00     0.211 HD
ENDBRANCH  18  23
BRANCH  20  25
ATOM     25  O   UNL     1      20.694  18.210  10.488  1.00  0.00    -0.387 OA
ATOM     26  H   UNL     1      20.179  18.042  11.319  1.00  0.00     0.211 HD
ENDBRANCH  20  25
BRANCH  21  27
ATOM     27  C   UNL     1      22.699  16.494   6.686  1.00  0.00     0.191 C 
BRANCH  27  28
ATOM     28  O   UNL     1      23.968  17.086   6.731  1.00  0.00    -0.394 OA
ATOM     29  H   UNL     1      24.618  16.343   6.690  1.00  0.00     0.210 HD
ENDBRANCH  27  28
ENDBRANCH  21  27
BRANCH  22  30
ATOM     30  O   UNL     1      22.156  18.592   8.448  1.00  0.00    -0.387 OA
ATOM     31  H   UNL     1      21.971  18.373   7.495  1.00  0.00     0.211 HD
ENDBRANCH  22  30
ENDBRANCH   1  17
TORSDOF 10
ENDMDL
MODEL 4
REMARK VINA RESULT:    -5.110      1.727      5.566
REMARK INTER + INTRA:          -9.284
REMARK INTER:                  -7.266
REMARK INTRA:                  -2.018
REMARK UNBOUND:                -2.082
REMARK SMILES OC[C@@H]1O[C@H](O[C@H]2OC=C[C@H]3[C@@H](O)[C@H]4O[C@@]4(CO)[C@H]23)[C@H](O)[C@H](O)[C@@H]1O
REMARK SMILES IDX 6 1 7 2 10 3 9 4 11 5 8 6 19 7 12 8 16 9 14 10 15 11 13 12
REMARK SMILES IDX 17 14 18 15 5 17 20 18 4 19 22 20 3 21 24 22 21 23 23 25
REMARK SMILES IDX 2 27 1 28 25 30
REMARK H PARENT 13 13 18 16 21 24 23 26 1 29 25 31
REMARK Flexibility Score: inf
ROOT
ATOM      1  O   UNL     1      21.028  14.808   7.851  1.00  0.00    -0.310 OA
ENDROOT
BRANCH   1   2
ATOM      2  C   UNL     1      22.287  15.231   7.358  1.00  0.00     0.315 C 
ATOM      3  C   UNL     1      23.185  16.011   4.676  1.00  0.00     0.018 C 
ATOM      4  C   UNL     1      22.966  14.722   4.969  1.00  0.00     0.186 C 
ATOM      5  C   UNL     1      23.259  16.954   5.829  1.00  0.00     0.059 C 
ATOM      6  O   UNL     1      22.673  14.321   6.301  1.00  0.00    -0.472 OA
ATOM      7  C   UNL     1      22.124  16.660   6.790  1.00  0.00     0.105 C 
ATOM      8  C   UNL     1      23.137  18.453   5.567  1.00  0.00     0.154 C 
ATOM      9  C   UNL     1      22.151  17.877   7.718  1.00  0.00     0.130 C 
ATOM     10  C   UNL     1      22.743  19.009   6.945  1.00  0.00     0.183 C 
ATOM     11  O   UNL     1      21.366  18.970   7.280  1.00  0.00    -0.360 OA
BRANCH   8  12
ATOM     12  O   UNL     1      22.125  18.724   4.629  1.00  0.00    -0.390 OA
ATOM     13  H   UNL     1      21.503  17.946   4.631  1.00  0.00     0.211 HD
ENDBRANCH   8  12
BRANCH   9  14
ATOM     14  C   UNL     1      22.518  17.861   9.201  1.00  0.00     0.195 C 
BRANCH  14  15
ATOM     15  O   UNL     1      21.560  17.121   9.915  1.00  0.00    -0.393 OA
ATOM     16  H   UNL     1      22.015  16.803  10.741  1.00  0.00     0.210 HD
ENDBRANCH  14  15
ENDBRANCH   9  14
ENDBRANCH   1   2
BRANCH   1  17
ATOM     17  C   UNL     1      21.133  13.686   8.712  1.00  0.00     0.286 C 
ATOM     18  C   UNL     1      19.698  13.233   9.089  1.00  0.00     0.202 C 
ATOM     19  O   UNL     1      21.951  14.073   9.817  1.00  0.00    -0.341 OA
ATOM     20  C   UNL     1      19.108  14.169  10.168  1.00  0.00     0.179 C 
ATOM     21  C   UNL     1      21.463  13.668  11.086  1.00  0.00     0.178 C 
ATOM     22  C   UNL     1      20.070  14.284  11.384  1.00  0.00     0.177 C 
BRANCH  18  23
ATOM     23  O   UNL     1      18.878  13.122   7.946  1.00  0.00    -0.385 OA
ATOM     24  H   UNL     1      18.231  13.881   7.943  1.00  0.00     0.211 HD
ENDBRANCH  18  23
BRANCH  20  25
ATOM     25  O   UNL     1      18.874  15.457   9.629  1.00  0.00    -0.387 OA
ATOM     26  H   UNL     1      18.515  15.333   8.712  1.00  0.00     0.211 HD
ENDBRANCH  20  25
BRANCH  21  27
ATOM     27  C   UNL     1      22.501  14.071  12.149  1.00  0.00     0.191 C 
BRANCH  27  28
ATOM     28  O   UNL     1      22.879  15.408  11.962  1.00  0.00    -0.394 OA
ATOM     29  H   UNL     1      22.069  15.947  12.134  1.00  0.00     0.210 HD
ENDBRANCH  27  28
ENDBRANCH  21  27
BRANCH  22  30
ATOM     30  O   UNL     1      20.209  15.625  11.783  1.00  0.00    -0.387 OA
ATOM     31  H   UNL     1      19.421  15.828  12.355  1.00  0.00     0.211 HD
ENDBRANCH  22  30
ENDBRANCH   1  17
TORSDOF 10
ENDMDL
MODEL 5
REMARK VINA RESULT:    -5.099      2.062      5.729
REMARK INTER + INTRA:          -9.267
REMARK INTER:                  -7.537
REMARK INTRA:                  -1.730
REMARK UNBOUND:                -2.082
REMARK SMILES OC[C@@H]1O[C@H](O[C@H]2OC=C[C@H]3[C@@H](O)[C@H]4O[C@@]4(CO)[C@H]23)[C@H](O)[C@H](O)[C@@H]1O
REMARK SMILES IDX 6 1 7 2 10 3 9 4 11 5 8 6 19 7 12 8 16 9 14 10 15 11 13 12
REMARK SMILES IDX 17 14 18 15 5 17 20 18 4 19 22 20 3 21 24 22 21 23 23 25
REMARK SMILES IDX 2 27 1 28 25 30
REMARK H PARENT 13 13 18 16 21 24 23 26 1 29 25 31
REMARK Flexibility Score: inf
ROOT
ATOM      1  O   UNL     1      22.560  16.248   7.680  1.00  0.00    -0.310 OA
ENDROOT
BRANCH   1   2
ATOM      2  C   UNL     1      22.094  15.551   6.538  1.00  0.00     0.315 C 
ATOM      3  C   UNL     1      23.468  13.854   4.578  1.00  0.00     0.018 C 
ATOM      4  C   UNL     1      23.623  15.183   4.548  1.00  0.00     0.186 C 
ATOM      5  C   UNL     1      22.352  13.330   5.418  1.00  0.00     0.059 C 
ATOM      6  O   UNL     1      22.851  16.023   5.397  1.00  0.00    -0.472 OA
ATOM      7  C   UNL     1      22.357  14.043   6.756  1.00  0.00     0.105 C 
ATOM      8  C   UNL     1      22.340  11.851   5.792  1.00  0.00     0.154 C 
ATOM      9  C   UNL     1      21.390  13.195   7.587  1.00  0.00     0.130 C 
ATOM     10  C   UNL     1      21.409  11.816   7.015  1.00  0.00     0.183 C 
ATOM     11  O   UNL     1      21.994  12.114   8.272  1.00  0.00    -0.360 OA
BRANCH   8  12
ATOM     12  O   UNL     1      23.625  11.406   6.150  1.00  0.00    -0.390 OA
ATOM     13  H   UNL     1      23.795  10.561   5.652  1.00  0.00     0.211 HD
ENDBRANCH   8  12
BRANCH   9  14
ATOM     14  C   UNL     1      20.027  13.647   8.108  1.00  0.00     0.195 C 
BRANCH  14  15
ATOM     15  O   UNL     1      20.187  14.781   8.923  1.00  0.00    -0.393 OA
ATOM     16  H   UNL     1      20.963  15.281   8.553  1.00  0.00     0.210 HD
ENDBRANCH  14  15
ENDBRANCH   9  14
ENDBRANCH   1   2
BRANCH   1  17
ATOM     17  C   UNL     1      22.165  17.609   7.681  1.00  0.00     0.286 C 
ATOM     18  C   UNL     1      22.768  18.284   8.942  1.00  0.00     0.202 C 
ATOM     19  O   UNL     1      20.739  17.639   7.609  1.00  0.00    -0.341 OA
ATOM     20  C   UNL     1      21.945  17.909  10.194  1.00  0.00     0.179 C 
ATOM     21  C   UNL     1      20.118  18.556   8.496  1.00  0.00     0.178 C 
ATOM     22  C   UNL     1      20.437  18.220   9.977  1.00  0.00     0.177 C 
BRANCH  18  23
ATOM     23  O   UNL     1      24.142  17.988   9.073  1.00  0.00    -0.385 OA
ATOM     24  H   UNL     1      24.422  18.185  10.010  1.00  0.00     0.211 HD
ENDBRANCH  18  23
BRANCH  20  25
ATOM     25  O   UNL     1      22.104  16.535  10.496  1.00  0.00    -0.387 OA
ATOM     26  H   UNL     1      21.893  16.417  11.458  1.00  0.00     0.211 HD
ENDBRANCH  20  25
BRANCH  21  27
ATOM     27  C   UNL     1      18.604  18.536   8.223  1.00  0.00     0.191 C 
BRANCH  27  28
ATOM     28  O   UNL     1      17.938  19.316   9.178  1.00  0.00    -0.394 OA
ATOM     29  H   UNL     1      17.555  18.682   9.831  1.00  0.00     0.210 HD
ENDBRANCH  27  28
ENDBRANCH  21  27
BRANCH  22  30
ATOM     30  O   UNL     1      19.641  17.146  10.413  1.00  0.00    -0.387 OA
ATOM     31  H   UNL     1      18.721  17.328  10.081  1.00  0.00     0.211 HD
ENDBRANCH  22  30
ENDBRANCH   1  17
TORSDOF 10
ENDMDL
MODEL 6
REMARK VINA RESULT:    -5.077      3.748      5.803
REMARK INTER + INTRA:          -9.236
REMARK INTER:                  -7.188
REMARK INTRA:                  -2.048
REMARK UNBOUND:                -2.082
REMARK SMILES OC[C@@H]1O[C@H](O[C@H]2OC=C[C@H]3[C@@H](O)[C@H]4O[C@@]4(CO)[C@H]23)[C@H](O)[C@H](O)[C@@H]1O
REMARK SMILES IDX 6 1 7 2 10 3 9 4 11 5 8 6 19 7 12 8 16 9 14 10 15 11 13 12
REMARK SMILES IDX 17 14 18 15 5 17 20 18 4 19 22 20 3 21 24 22 21 23 23 25
REMARK SMILES IDX 2 27 1 28 25 30
REMARK H PARENT 13 13 18 16 21 24 23 26 1 29 25 31
REMARK Flexibility Score: inf
ROOT
ATOM      1  O   UNL     1      18.360  17.874   8.830  1.00  0.00    -0.310 OA
ENDROOT
BRANCH   1   2
ATOM      2  C   UNL     1      19.591  17.173   8.856  1.00  0.00     0.315 C 
ATOM      3  C   UNL     1      21.553  16.730  10.993  1.00  0.00     0.018 C 
ATOM      4  C   UNL     1      21.462  17.925  10.394  1.00  0.00     0.186 C 
ATOM      5  C   UNL     1      20.858  15.593  10.323  1.00  0.00     0.059 C 
ATOM      6  O   UNL     1      20.619  18.107   9.264  1.00  0.00    -0.472 OA
ATOM      7  C   UNL     1      19.473  16.035   9.896  1.00  0.00     0.105 C 
ATOM      8  C   UNL     1      20.607  14.312  11.113  1.00  0.00     0.154 C 
ATOM      9  C   UNL     1      18.800  14.709   9.529  1.00  0.00     0.130 C 
ATOM     10  C   UNL     1      19.477  13.637  10.318  1.00  0.00     0.183 C 
ATOM     11  O   UNL     1      18.154  14.058  10.607  1.00  0.00    -0.360 OA
BRANCH   8  12
ATOM     12  O   UNL     1      20.175  14.597  12.420  1.00  0.00    -0.390 OA
ATOM     13  H   UNL     1      19.636  13.819  12.731  1.00  0.00     0.211 HD
ENDBRANCH   8  12
BRANCH   9  14
ATOM     14  C   UNL     1      18.366  14.287   8.127  1.00  0.00     0.195 C 
BRANCH  14  15
ATOM     15  O   UNL     1      17.320  15.117   7.687  1.00  0.00    -0.393 OA
ATOM     16  H   UNL     1      16.686  15.190   8.450  1.00  0.00     0.210 HD
ENDBRANCH  14  15
ENDBRANCH   9  14
ENDBRANCH   1   2
BRANCH   1  17
ATOM     17  C   UNL     1      18.213  18.663   7.662  1.00  0.00     0.286 C 
ATOM     18  C   UNL     1      16.900  19.479   7.795  1.00  0.00     0.202 C 
ATOM     19  O   UNL     1      18.258  17.778   6.542  1.00  0.00    -0.341 OA
ATOM     20  C   UNL     1      15.678  18.580   7.500  1.00  0.00     0.179 C 
ATOM     21  C   UNL     1      17.271  18.022   5.552  1.00  0.00     0.178 C 
ATOM     22  C   UNL     1      15.838  17.868   6.126  1.00  0.00     0.177 C 
BRANCH  18  23
ATOM     23  O   UNL     1      16.821  20.122   9.049  1.00  0.00    -0.385 OA
ATOM     24  H   UNL     1      15.977  19.841   9.499  1.00  0.00     0.211 HD
ENDBRANCH  18  23
BRANCH  20  25
ATOM     25  O   UNL     1      15.523  17.609   8.518  1.00  0.00    -0.387 OA
ATOM     26  H   UNL     1      16.431  17.307   8.779  1.00  0.00     0.211 HD
ENDBRANCH  20  25
BRANCH  21  27
ATOM     27  C   UNL     1      17.519  17.057   4.380  1.00  0.00     0.191 C 
BRANCH  27  28
ATOM     28  O   UNL     1      17.724  15.759   4.867  1.00  0.00    -0.394 OA
ATOM     29  H   UNL     1      17.291  15.729   5.754  1.00  0.00     0.210 HD
ENDBRANCH  27  28
ENDBRANCH  21  27
BRANCH  22  30
ATOM     30  O   UNL     1      15.502  16.507   6.231  1.00  0.00    -0.387 OA
ATOM     31  H   UNL     1      16.253  16.002   5.819  1.00  0.00     0.211 HD
ENDBRANCH  22  30
ENDBRANCH   1  17
TORSDOF 10
ENDMDL
MODEL 7
REMARK VINA RESULT:    -5.071      2.441      5.575
REMARK INTER + INTRA:          -9.228
REMARK INTER:                  -7.442
REMARK INTRA:                  -1.785
REMARK UNBOUND:                -2.082
REMARK SMILES OC[C@@H]1O[C@H](O[C@H]2OC=C[C@H]3[C@@H](O)[C@H]4O[C@@]4(CO)[C@H]23)[C@H](O)[C@H](O)[C@@H]1O
REMARK SMILES IDX 6 1 7 2 10 3 9 4 11 5 8 6 19 7 12 8 16 9 14 10 15 11 13 12
REMARK SMILES IDX 17 14 18 15 5 17 20 18 4 19 22 20 3 21 24 22 21 23 23 25
REMARK SMILES IDX 2 27 1 28 25 30
REMARK H PARENT 13 13 18 16 21 24 23 26 1 29 25 31
REMARK Flexibility Score: inf
ROOT
ATOM      1  O   UNL     1      21.609  14.477  10.397  1.00  0.00    -0.310 OA
ENDROOT
BRANCH   1   2
ATOM      2  C   UNL     1      21.374  15.874  10.367  1.00  0.00     0.315 C 
ATOM      3  C   UNL     1      23.173  18.159   9.983  1.00  0.00     0.018 C 
ATOM      4  C   UNL     1      23.164  17.493  11.145  1.00  0.00     0.186 C 
ATOM      5  C   UNL     1      22.038  17.894   9.053  1.00  0.00     0.059 C 
ATOM      6  O   UNL     1      22.197  16.479  11.392  1.00  0.00    -0.472 OA
ATOM      7  C   UNL     1      21.793  16.400   8.975  1.00  0.00     0.105 C 
ATOM      8  C   UNL     1      22.165  18.320   7.593  1.00  0.00     0.154 C 
ATOM      9  C   UNL     1      20.847  16.281   7.778  1.00  0.00     0.130 C 
ATOM     10  C   UNL     1      21.106  17.454   6.891  1.00  0.00     0.183 C 
ATOM     11  O   UNL     1      21.494  16.140   6.527  1.00  0.00    -0.360 OA
BRANCH   8  12
ATOM     12  O   UNL     1      23.443  18.024   7.086  1.00  0.00    -0.390 OA
ATOM     13  H   UNL     1      23.804  18.861   6.685  1.00  0.00     0.211 HD
ENDBRANCH   8  12
BRANCH   9  14
ATOM     14  C   UNL     1      19.386  15.839   7.835  1.00  0.00     0.195 C 
BRANCH  14  15
ATOM     15  O   UNL     1      19.321  14.454   8.069  1.00  0.00    -0.393 OA
ATOM     16  H   UNL     1      19.386  14.336   9.054  1.00  0.00     0.210 HD
ENDBRANCH  14  15
ENDBRANCH   9  14
ENDBRANCH   1   2
BRANCH   1  17
ATOM     17  C   UNL     1      20.732  13.800  11.282  1.00  0.00     0.286 C 
ATOM     18  C   UNL     1      21.592  12.968  12.269  1.00  0.00     0.202 C 
ATOM     19  O   UNL     1      19.827  13.037  10.484  1.00  0.00    -0.341 OA
ATOM     20  C   UNL     1      22.101  11.681  11.582  1.00  0.00     0.179 C 
ATOM     21  C   UNL     1      19.605  11.712  10.940  1.00  0.00     0.178 C 
ATOM     22  C   UNL     1      20.919  10.887  10.955  1.00  0.00     0.177 C 
BRANCH  18  23
ATOM     23  O   UNL     1      22.631  13.745  12.824  1.00  0.00    -0.385 OA
ATOM     24  H   UNL     1      22.316  14.688  12.904  1.00  0.00     0.211 HD
ENDBRANCH  18  23
BRANCH  20  25
ATOM     25  O   UNL     1      23.041  12.000  10.573  1.00  0.00    -0.387 OA
ATOM     26  H   UNL     1      23.713  11.270  10.554  1.00  0.00     0.211 HD
ENDBRANCH  20  25
BRANCH  21  27
ATOM     27  C   UNL     1      18.540  11.066  10.037  1.00  0.00     0.191 C 
BRANCH  27  28
ATOM     28  O   UNL     1      18.642  11.582   8.738  1.00  0.00    -0.394 OA
ATOM     29  H   UNL     1      19.502  11.254   8.380  1.00  0.00     0.210 HD
ENDBRANCH  27  28
ENDBRANCH  21  27
BRANCH  22  30
ATOM     30  O   UNL     1      21.240  10.464   9.654  1.00  0.00    -0.387 OA
ATOM     31  H   UNL     1      21.740  11.213   9.232  1.00  0.00     0.211 HD
ENDBRANCH  22  30
ENDBRANCH   1  17
TORSDOF 10
ENDMDL
MODEL 8
REMARK VINA RESULT:    -5.045      1.952      5.674
REMARK INTER + INTRA:          -9.192
REMARK INTER:                  -7.537
REMARK INTRA:                  -1.655
REMARK UNBOUND:                -2.082
REMARK SMILES OC[C@@H]1O[C@H](O[C@H]2OC=C[C@H]3[C@@H](O)[C@H]4O[C@@]4(CO)[C@H]23)[C@H](O)[C@H](O)[C@@H]1O
REMARK SMILES IDX 6 1 7 2 10 3 9 4 11 5 8 6 19 7 12 8 16 9 14 10 15 11 13 12
REMARK SMILES IDX 17 14 18 15 5 17 20 18 4 19 22 20 3 21 24 22 21 23 23 25
REMARK SMILES IDX 2 27 1 28 25 30
REMARK H PARENT 13 13 18 16 21 24 23 26 1 29 25 31
REMARK Flexibility Score: inf
ROOT
ATOM      1  O   UNL     1      22.055  15.068   7.593  1.00  0.00    -0.310 OA
ENDROOT
BRANCH   1   2
ATOM      2  C   UNL     1      21.203  14.044   7.110  1.00  0.00     0.315 C 
ATOM      3  C   UNL     1      21.696  11.740   5.362  1.00  0.00     0.018 C 
ATOM      4  C   UNL     1      21.633  12.976   4.851  1.00  0.00     0.186 C 
ATOM      5  C   UNL     1      21.200  11.568   6.758  1.00  0.00     0.059 C 
ATOM      6  O   UNL     1      21.252  14.079   5.664  1.00  0.00    -0.472 OA
ATOM      7  C   UNL     1      21.742  12.689   7.623  1.00  0.00     0.105 C 
ATOM      8  C   UNL     1      21.571  10.302   7.525  1.00  0.00     0.154 C 
ATOM      9  C   UNL     1      21.415  12.204   9.038  1.00  0.00     0.130 C 
ATOM     10  C   UNL     1      21.350  10.713   8.990  1.00  0.00     0.183 C 
ATOM     11  O   UNL     1      22.415  11.395   9.629  1.00  0.00    -0.360 OA
BRANCH   8  12
ATOM     12  O   UNL     1      22.919   9.959   7.317  1.00  0.00    -0.390 OA
ATOM     13  H   UNL     1      23.246   9.526   8.152  1.00  0.00     0.211 HD
ENDBRANCH   8  12
BRANCH   9  14
ATOM     14  C   UNL     1      20.418  12.852   9.996  1.00  0.00     0.195 C 
BRANCH  14  15
ATOM     15  O   UNL     1      21.076  13.812  10.783  1.00  0.00    -0.393 OA
ATOM     16  H   UNL     1      21.533  14.425  10.147  1.00  0.00     0.210 HD
ENDBRANCH  14  15
ENDBRANCH   9  14
ENDBRANCH   1   2
BRANCH   1  17
ATOM     17  C   UNL     1      21.335  16.143   8.171  1.00  0.00     0.286 C 
ATOM     18  C   UNL     1      21.593  17.410   7.314  1.00  0.00     0.202 C 
ATOM     19  O   UNL     1      21.745  16.247   9.535  1.00  0.00    -0.341 OA
ATOM     20  C   UNL     1      22.985  17.999   7.635  1.00  0.00     0.179 C 
ATOM     21  C   UNL     1      22.002  17.570   9.979  1.00  0.00     0.178 C 
ATOM     22  C   UNL     1      23.145  18.232   9.165  1.00  0.00     0.177 C 
BRANCH  18  23
ATOM     23  O   UNL     1      21.409  17.146   5.940  1.00  0.00    -0.385 OA
ATOM     24  H   UNL     1      22.004  17.751   5.416  1.00  0.00     0.211 HD
ENDBRANCH  18  23
BRANCH  20  25
ATOM     25  O   UNL     1      24.005  17.128   7.182  1.00  0.00    -0.387 OA
ATOM     26  H   UNL     1      24.248  17.411   6.263  1.00  0.00     0.211 HD
ENDBRANCH  20  25
BRANCH  21  27
ATOM     27  C   UNL     1      22.332  17.515  11.480  1.00  0.00     0.191 C 
BRANCH  27  28
ATOM     28  O   UNL     1      22.833  16.249  11.812  1.00  0.00    -0.394 OA
ATOM     29  H   UNL     1      23.448  15.999  11.081  1.00  0.00     0.210 HD
ENDBRANCH  27  28
ENDBRANCH  21  27
BRANCH  22  30
ATOM     30  O   UNL     1      24.392  17.762   9.610  1.00  0.00    -0.387 OA
ATOM     31  H   UNL     1      25.074  18.385   9.240  1.00  0.00     0.211 HD
ENDBRANCH  22  30
ENDBRANCH   1  17
TORSDOF 10
ENDMDL
MODEL 9
REMARK VINA RESULT:    -4.884      2.404      4.758
REMARK INTER + INTRA:          -8.965
REMARK INTER:                  -6.878
REMARK INTRA:                  -2.088
REMARK UNBOUND:                -2.082
REMARK SMILES OC[C@@H]1O[C@H](O[C@H]2OC=C[C@H]3[C@@H](O)[C@H]4O[C@@]4(CO)[C@H]23)[C@H](O)[C@H](O)[C@@H]1O
REMARK SMILES IDX 6 1 7 2 10 3 9 4 11 5 8 6 19 7 12 8 16 9 14 10 15 11 13 12
REMARK SMILES IDX 17 14 18 15 5 17 20 18 4 19 22 20 3 21 24 22 21 23 23 25
REMARK SMILES IDX 2 27 1 28 25 30
REMARK H PARENT 13 13 18 16 21 24 23 26 1 29 25 31
REMARK Flexibility Score: inf
ROOT
ATOM      1  O   UNL     1      21.821  13.851   8.670  1.00  0.00    -0.310 OA
ENDROOT
BRANCH   1   2
ATOM      2  C   UNL     1      21.304  15.151   8.446  1.00  0.00     0.315 C 
ATOM      3  C   UNL     1      22.506  17.814   8.711  1.00  0.00     0.018 C 
ATOM      4  C   UNL     1      22.153  17.120   9.800  1.00  0.00     0.186 C 
ATOM      5  C   UNL     1      21.979  17.322   7.405  1.00  0.00     0.059 C 
ATOM      6  O   UNL     1      21.439  15.895   9.680  1.00  0.00    -0.472 OA
ATOM      7  C   UNL     1      22.147  15.817   7.334  1.00  0.00     0.105 C 
ATOM      8  C   UNL     1      22.619  17.823   6.114  1.00  0.00     0.154 C 
ATOM      9  C   UNL     1      21.865  15.521   5.858  1.00  0.00     0.130 C 
ATOM     10  C   UNL     1      22.200  16.756   5.089  1.00  0.00     0.183 C 
ATOM     11  O   UNL     1      23.002  15.589   5.017  1.00  0.00    -0.360 OA
BRANCH   8  12
ATOM     12  O   UNL     1      24.021  17.863   6.223  1.00  0.00    -0.390 OA
ATOM     13  H   UNL     1      24.242  18.459   6.989  1.00  0.00     0.211 HD
ENDBRANCH   8  12
BRANCH   9  14
ATOM     14  C   UNL     1      20.670  14.741   5.316  1.00  0.00     0.195 C 
BRANCH  14  15
ATOM     15  O   UNL     1      20.762  13.397   5.721  1.00  0.00    -0.393 OA
ATOM     16  H   UNL     1      20.247  12.871   5.053  1.00  0.00     0.210 HD
ENDBRANCH  14  15
ENDBRANCH   9  14
ENDBRANCH   1   2
BRANCH   1  17
ATOM     17  C   UNL     1      20.902  13.014   9.352  1.00  0.00     0.286 C 
ATOM     18  C   UNL     1      21.613  11.669   9.658  1.00  0.00     0.202 C 
ATOM     19  O   UNL     1      19.738  12.904   8.533  1.00  0.00    -0.341 OA
ATOM     20  C   UNL     1      21.669  10.792   8.387  1.00  0.00     0.179 C 
ATOM     21  C   UNL     1      19.219  11.590   8.412  1.00  0.00     0.178 C 
ATOM     22  C   UNL     1      20.252  10.626   7.769  1.00  0.00     0.177 C 
BRANCH  18  23
ATOM     23  O   UNL     1      22.882  11.881  10.240  1.00  0.00    -0.385 OA
ATOM     24  H   UNL     1      22.760  12.363  11.103  1.00  0.00     0.211 HD
ENDBRANCH  18  23
BRANCH  20  25
ATOM     25  O   UNL     1      22.537  11.368   7.429  1.00  0.00    -0.387 OA
ATOM     26  H   UNL     1      22.619  12.333   7.646  1.00  0.00     0.211 HD
ENDBRANCH  20  25
BRANCH  21  27
ATOM     27  C   UNL     1      17.921  11.660   7.588  1.00  0.00     0.191 C 
BRANCH  27  28
ATOM     28  O   UNL     1      18.040  12.641   6.595  1.00  0.00    -0.394 OA
ATOM     29  H   UNL     1      17.865  13.505   7.041  1.00  0.00     0.210 HD
ENDBRANCH  27  28
ENDBRANCH  21  27
BRANCH  22  30
ATOM     30  O   UNL     1      20.292  10.818   6.377  1.00  0.00    -0.387 OA
ATOM     31  H   UNL     1      21.154  10.429   6.067  1.00  0.00     0.211 HD
ENDBRANCH  22  30
ENDBRANCH   1  17
TORSDOF 10
ENDMDL
