MODEL 1
REMARK VINA RESULT:    -4.112      0.000      0.000
REMARK INTER + INTRA:          -8.429
REMARK INTER:                  -7.477
REMARK INTRA:                  -0.952
REMARK UNBOUND:                -0.952
REMARK SMILES CCCCCCCCCCCCCCCC(=O)[O-]
REMARK SMILES IDX 9 1 10 2 11 3 12 4 13 5 14 6 15 7 16 8 17 9 18 10 8 11 7 12
REMARK SMILES IDX 6 13 5 14 4 15 3 16 2 17 1 18
REMARK H PARENT
REMARK Flexibility Score: inf
ROOT
ATOM      1  C   UNL     1       2.271  23.475  21.939  1.00  0.00     0.000 C 
ENDROOT
BRANCH   1   2
ATOM      2  C   UNL     1       1.711  22.655  23.115  1.00  0.00     0.000 C 
BRANCH   2   3
ATOM      3  C   UNL     1       1.248  23.539  24.284  1.00  0.00     0.000 C 
BRANCH   3   4
ATOM      4  C   UNL     1       1.052  22.748  25.586  1.00  0.00     0.000 C 
BRANCH   4   5
ATOM      5  C   UNL     1       2.393  22.511  26.290  1.00  0.00     0.000 C 
BRANCH   5   6
ATOM      6  C   UNL     1       3.296  23.746  26.187  1.00  0.00     0.006 C 
BRANCH   6   7
ATOM      7  C   UNL     1       4.771  23.344  26.105  1.00  0.00     0.053 C 
BRANCH   7   8
ATOM      8  C   UNL     1       5.530  24.304  25.247  1.00  0.00     0.041 C 
ATOM      9  O   UNL     1       5.503  24.191  23.992  1.00  0.00    -0.550 OA
ATOM     10  O   UNL     1       6.307  25.295  25.832  1.00  0.00    -0.550 OA
ENDBRANCH   7   8
ENDBRANCH   6   7
ENDBRANCH   5   6
ENDBRANCH   4   5
ENDBRANCH   3   4
ENDBRANCH   2   3
ENDBRANCH   1   2
BRANCH   1  11
ATOM     11  C   UNL     1       2.730  24.877  22.369  1.00  0.00     0.000 C 
BRANCH  11  12
ATOM     12  C   UNL     1       1.945  25.997  21.661  1.00  0.00    -0.000 C 
BRANCH  12  13
ATOM     13  C   UNL     1       1.111  26.847  22.639  1.00  0.00    -0.000 C 
BRANCH  13  14
ATOM     14  C   UNL     1       0.707  28.225  22.084  1.00  0.00    -0.000 C 
BRANCH  14  15
ATOM     15  C   UNL     1      -0.160  28.122  20.815  1.00  0.00    -0.000 C 
BRANCH  15  16
ATOM     16  C   UNL     1      -1.103  29.333  20.658  1.00  0.00    -0.000 C 
BRANCH  16  17
ATOM     17  C   UNL     1      -0.450  30.526  19.937  1.00  0.00    -0.003 C 
ATOM     18  C   UNL     1      -1.457  31.590  19.505  1.00  0.00     0.004 C 
ENDBRANCH  16  17
ENDBRANCH  15  16
ENDBRANCH  14  15
ENDBRANCH  13  14
ENDBRANCH  12  13
ENDBRANCH  11  12
ENDBRANCH   1  11
TORSDOF 14
ENDMDL
MODEL 2
REMARK VINA RESULT:    -4.108      0.734      1.590
REMARK INTER + INTRA:          -8.422
REMARK INTER:                  -7.271
REMARK INTRA:                  -1.151
REMARK UNBOUND:                -0.952
REMARK SMILES CCCCCCCCCCCCCCCC(=O)[O-]
REMARK SMILES IDX 9 1 10 2 11 3 12 4 13 5 14 6 15 7 16 8 17 9 18 10 8 11 7 12
REMARK SMILES IDX 6 13 5 14 4 15 3 16 2 17 1 18
REMARK H PARENT
REMARK Flexibility Score: inf
ROOT
ATOM      1  C   UNL     1       1.497  22.639  23.034  1.00  0.00     0.000 C 
ENDROOT
BRANCH   1   2
ATOM      2  C   UNL     1       1.176  23.426  24.317  1.00  0.00     0.000 C 
BRANCH   2   3
ATOM      3  C   UNL     1       0.963  22.512  25.534  1.00  0.00     0.000 C 
BRANCH   3   4
ATOM      4  C   UNL     1       2.272  22.192  26.273  1.00  0.00     0.000 C 
BRANCH   4   5
ATOM      5  C   UNL     1       2.938  23.472  26.789  1.00  0.00     0.000 C 
BRANCH   5   6
ATOM      6  C   UNL     1       4.455  23.432  26.570  1.00  0.00     0.006 C 
BRANCH   6   7
ATOM      7  C   UNL     1       4.876  24.397  25.457  1.00  0.00     0.053 C 
BRANCH   7   8
ATOM      8  C   UNL     1       6.110  23.902  24.773  1.00  0.00     0.041 C 
ATOM      9  O   UNL     1       7.074  23.456  25.450  1.00  0.00    -0.550 OA
ATOM     10  O   UNL     1       6.217  23.978  23.390  1.00  0.00    -0.550 OA
ENDBRANCH   7   8
ENDBRANCH   6   7
ENDBRANCH   5   6
ENDBRANCH   4   5
ENDBRANCH   3   4
ENDBRANCH   2   3
ENDBRANCH   1   2
BRANCH   1  11
ATOM     11  C   UNL     1       2.215  23.500  21.983  1.00  0.00     0.000 C 
BRANCH  11  12
ATOM     12  C   UNL     1       2.576  24.899  22.513  1.00  0.00    -0.000 C 
BRANCH  12  13
ATOM     13  C   UNL     1       1.870  26.029  21.737  1.00  0.00    -0.000 C 
BRANCH  13  14
ATOM     14  C   UNL     1       1.110  27.023  22.633  1.00  0.00    -0.000 C 
BRANCH  14  15
ATOM     15  C   UNL     1       0.759  28.332  21.901  1.00  0.00    -0.000 C 
BRANCH  15  16
ATOM     16  C   UNL     1      -0.363  28.131  20.861  1.00  0.00    -0.000 C 
BRANCH  16  17
ATOM     17  C   UNL     1      -1.142  29.420  20.545  1.00  0.00    -0.003 C 
ATOM     18  C   UNL     1      -0.259  30.531  19.979  1.00  0.00     0.004 C 
ENDBRANCH  16  17
ENDBRANCH  15  16
ENDBRANCH  14  15
ENDBRANCH  13  14
ENDBRANCH  12  13
ENDBRANCH  11  12
ENDBRANCH   1  11
TORSDOF 14
ENDMDL
MODEL 3
REMARK VINA RESULT:    -3.900      3.562      7.010
REMARK INTER + INTRA:          -8.044
REMARK INTER:                  -6.513
REMARK INTRA:                  -1.531
REMARK UNBOUND:                -0.952
REMARK SMILES CCCCCCCCCCCCCCCC(=O)[O-]
REMARK SMILES IDX 9 1 10 2 11 3 12 4 13 5 14 6 15 7 16 8 17 9 18 10 8 11 7 12
REMARK SMILES IDX 6 13 5 14 4 15 3 16 2 17 1 18
REMARK H PARENT
REMARK Flexibility Score: inf
ROOT
ATOM      1  C   UNL     1       4.170  24.010  23.546  1.00  0.00     0.000 C 
ENDROOT
BRANCH   1   2
ATOM      2  C   UNL     1       3.173  23.998  22.374  1.00  0.00     0.000 C 
BRANCH   2   3
ATOM      3  C   UNL     1       1.906  24.816  22.667  1.00  0.00     0.000 C 
BRANCH   3   4
ATOM      4  C   UNL     1       1.893  26.172  21.944  1.00  0.00     0.000 C 
BRANCH   4   5
ATOM      5  C   UNL     1       0.935  27.150  22.633  1.00  0.00     0.000 C 
BRANCH   5   6
ATOM      6  C   UNL     1       0.782  28.440  21.817  1.00  0.00     0.006 C 
BRANCH   6   7
ATOM      7  C   UNL     1      -0.286  28.281  20.732  1.00  0.00     0.053 C 
BRANCH   7   8
ATOM      8  C   UNL     1      -0.830  29.614  20.331  1.00  0.00     0.041 C 
ATOM      9  O   UNL     1      -2.072  29.825  20.353  1.00  0.00    -0.550 OA
ATOM     10  O   UNL     1       0.029  30.611  19.886  1.00  0.00    -0.550 OA
ENDBRANCH   7   8
ENDBRANCH   6   7
ENDBRANCH   5   6
ENDBRANCH   4   5
ENDBRANCH   3   4
ENDBRANCH   2   3
ENDBRANCH   1   2
BRANCH   1  11
ATOM     11  C   UNL     1       3.499  24.359  24.883  1.00  0.00     0.000 C 
BRANCH  11  12
ATOM     12  C   UNL     1       3.853  23.362  26.001  1.00  0.00    -0.000 C 
BRANCH  12  13
ATOM     13  C   UNL     1       2.640  22.530  26.462  1.00  0.00    -0.000 C 
BRANCH  13  14
ATOM     14  C   UNL     1       1.367  22.765  25.630  1.00  0.00    -0.000 C 
BRANCH  14  15
ATOM     15  C   UNL     1       0.081  22.649  26.468  1.00  0.00    -0.000 C 
BRANCH  15  16
ATOM     16  C   UNL     1      -0.593  24.020  26.687  1.00  0.00    -0.000 C 
BRANCH  16  17
ATOM     17  C   UNL     1      -0.039  25.127  25.773  1.00  0.00    -0.003 C 
ATOM     18  C   UNL     1       0.031  26.491  26.457  1.00  0.00     0.004 C 
ENDBRANCH  16  17
ENDBRANCH  15  16
ENDBRANCH  14  15
ENDBRANCH  13  14
ENDBRANCH  12  13
ENDBRANCH  11  12
ENDBRANCH   1  11
TORSDOF 14
ENDMDL
MODEL 4
REMARK VINA RESULT:    -3.799      3.160      4.587
REMARK INTER + INTRA:          -7.859
REMARK INTER:                  -6.407
REMARK INTRA:                  -1.452
REMARK UNBOUND:                -0.952
REMARK SMILES CCCCCCCCCCCCCCCC(=O)[O-]
REMARK SMILES IDX 9 1 10 2 11 3 12 4 13 5 14 6 15 7 16 8 17 9 18 10 8 11 7 12
REMARK SMILES IDX 6 13 5 14 4 15 3 16 2 17 1 18
REMARK H PARENT
REMARK Flexibility Score: inf
ROOT
ATOM      1  C   UNL     1      -0.171  22.830  26.298  1.00  0.00     0.000 C 
ENDROOT
BRANCH   1   2
ATOM      2  C   UNL     1       1.102  22.561  27.121  1.00  0.00     0.000 C 
BRANCH   2   3
ATOM      3  C   UNL     1       2.310  22.205  26.241  1.00  0.00     0.000 C 
BRANCH   3   4
ATOM      4  C   UNL     1       3.486  21.634  27.049  1.00  0.00     0.000 C 
BRANCH   4   5
ATOM      5  C   UNL     1       4.794  22.351  26.694  1.00  0.00     0.000 C 
BRANCH   5   6
ATOM      6  C   UNL     1       4.523  23.771  26.181  1.00  0.00     0.006 C 
BRANCH   6   7
ATOM      7  C   UNL     1       5.821  24.575  26.079  1.00  0.00     0.053 C 
BRANCH   7   8
ATOM      8  C   UNL     1       6.233  24.728  24.650  1.00  0.00     0.041 C 
ATOM      9  O   UNL     1       7.061  25.619  24.320  1.00  0.00    -0.550 OA
ATOM     10  O   UNL     1       5.667  23.920  23.672  1.00  0.00    -0.550 OA
ENDBRANCH   7   8
ENDBRANCH   6   7
ENDBRANCH   5   6
ENDBRANCH   4   5
ENDBRANCH   3   4
ENDBRANCH   2   3
ENDBRANCH   1   2
BRANCH   1  11
ATOM     11  C   UNL     1      -1.034  23.948  26.903  1.00  0.00     0.000 C 
BRANCH  11  12
ATOM     12  C   UNL     1      -1.001  25.239  26.066  1.00  0.00    -0.000 C 
BRANCH  12  13
ATOM     13  C   UNL     1       0.401  25.876  26.011  1.00  0.00    -0.000 C 
BRANCH  13  14
ATOM     14  C   UNL     1       0.924  26.117  24.583  1.00  0.00    -0.000 C 
BRANCH  14  15
ATOM     15  C   UNL     1       1.498  24.842  23.939  1.00  0.00    -0.000 C 
BRANCH  15  16
ATOM     16  C   UNL     1       2.207  25.138  22.601  1.00  0.00    -0.000 C 
BRANCH  16  17
ATOM     17  C   UNL     1       2.609  23.868  21.829  1.00  0.00    -0.003 C 
ATOM     18  C   UNL     1       1.766  22.649  22.198  1.00  0.00     0.004 C 
ENDBRANCH  16  17
ENDBRANCH  15  16
ENDBRANCH  14  15
ENDBRANCH  13  14
ENDBRANCH  12  13
ENDBRANCH  11  12
ENDBRANCH   1  11
TORSDOF 14
ENDMDL
MODEL 5
REMARK VINA RESULT:    -3.748      3.279      7.375
REMARK INTER + INTRA:          -7.767
REMARK INTER:                  -6.573
REMARK INTRA:                  -1.195
REMARK UNBOUND:                -0.952
REMARK SMILES CCCCCCCCCCCCCCCC(=O)[O-]
REMARK SMILES IDX 9 1 10 2 11 3 12 4 13 5 14 6 15 7 16 8 17 9 18 10 8 11 7 12
REMARK SMILES IDX 6 13 5 14 4 15 3 16 2 17 1 18
REMARK H PARENT
REMARK Flexibility Score: inf
ROOT
ATOM      1  C   UNL     1       1.495  22.652  22.392  1.00  0.00     0.000 C 
ENDROOT
BRANCH   1   2
ATOM      2  C   UNL     1       2.492  23.587  21.682  1.00  0.00     0.000 C 
BRANCH   2   3
ATOM      3  C   UNL     1       2.608  24.957  22.368  1.00  0.00     0.000 C 
BRANCH   3   4
ATOM      4  C   UNL     1       1.864  26.067  21.609  1.00  0.00     0.000 C 
BRANCH   4   5
ATOM      5  C   UNL     1       1.100  26.975  22.579  1.00  0.00     0.000 C 
BRANCH   5   6
ATOM      6  C   UNL     1       0.810  28.341  21.943  1.00  0.00     0.006 C 
BRANCH   6   7
ATOM      7  C   UNL     1      -0.373  28.255  20.975  1.00  0.00     0.053 C 
BRANCH   7   8
ATOM      8  C   UNL     1      -0.694  29.606  20.420  1.00  0.00     0.041 C 
ATOM      9  O   UNL     1      -1.894  29.971  20.297  1.00  0.00    -0.550 OA
ATOM     10  O   UNL     1       0.328  30.444  19.993  1.00  0.00    -0.550 OA
ENDBRANCH   7   8
ENDBRANCH   6   7
ENDBRANCH   5   6
ENDBRANCH   4   5
ENDBRANCH   3   4
ENDBRANCH   2   3
ENDBRANCH   1   2
BRANCH   1  11
ATOM     11  C   UNL     1       1.829  22.461  23.880  1.00  0.00     0.000 C 
BRANCH  11  12
ATOM     12  C   UNL     1       1.018  23.398  24.792  1.00  0.00    -0.000 C 
BRANCH  12  13
ATOM     13  C   UNL     1       1.836  23.913  25.993  1.00  0.00    -0.000 C 
BRANCH  13  14
ATOM     14  C   UNL     1       2.802  22.871  26.585  1.00  0.00    -0.000 C 
BRANCH  14  15
ATOM     15  C   UNL     1       4.266  23.346  26.574  1.00  0.00    -0.000 C 
BRANCH  15  16
ATOM     16  C   UNL     1       4.534  24.374  25.456  1.00  0.00    -0.000 C 
BRANCH  16  17
ATOM     17  C   UNL     1       6.013  24.450  25.036  1.00  0.00    -0.003 C 
ATOM     18  C   UNL     1       6.250  24.016  23.591  1.00  0.00     0.004 C 
ENDBRANCH  16  17
ENDBRANCH  15  16
ENDBRANCH  14  15
ENDBRANCH  13  14
ENDBRANCH  12  13
ENDBRANCH  11  12
ENDBRANCH   1  11
TORSDOF 14
ENDMDL
MODEL 6
REMARK VINA RESULT:    -3.462      2.621      4.079
REMARK INTER + INTRA:          -7.247
REMARK INTER:                  -5.623
REMARK INTRA:                  -1.624
REMARK UNBOUND:                -0.952
REMARK SMILES CCCCCCCCCCCCCCCC(=O)[O-]
REMARK SMILES IDX 9 1 10 2 11 3 12 4 13 5 14 6 15 7 16 8 17 9 18 10 8 11 7 12
REMARK SMILES IDX 6 13 5 14 4 15 3 16 2 17 1 18
REMARK H PARENT
REMARK Flexibility Score: inf
ROOT
ATOM      1  C   UNL     1       1.718  22.363  22.684  1.00  0.00     0.000 C 
ENDROOT
BRANCH   1   2
ATOM      2  C   UNL     1       1.139  22.858  24.021  1.00  0.00     0.000 C 
BRANCH   2   3
ATOM      3  C   UNL     1       1.805  22.194  25.236  1.00  0.00     0.000 C 
BRANCH   3   4
ATOM      4  C   UNL     1       3.241  22.687  25.471  1.00  0.00     0.000 C 
BRANCH   4   5
ATOM      5  C   UNL     1       3.318  23.580  26.714  1.00  0.00     0.000 C 
BRANCH   5   6
ATOM      6  C   UNL     1       4.761  24.019  26.991  1.00  0.00     0.006 C 
BRANCH   6   7
ATOM      7  C   UNL     1       5.544  24.188  25.686  1.00  0.00     0.053 C 
BRANCH   7   8
ATOM      8  C   UNL     1       6.421  25.397  25.753  1.00  0.00     0.041 C 
ATOM      9  O   UNL     1       6.558  26.021  26.838  1.00  0.00    -0.550 OA
ATOM     10  O   UNL     1       7.051  25.863  24.606  1.00  0.00    -0.550 OA
ENDBRANCH   7   8
ENDBRANCH   6   7
ENDBRANCH   5   6
ENDBRANCH   4   5
ENDBRANCH   3   4
ENDBRANCH   2   3
ENDBRANCH   1   2
BRANCH   1  11
ATOM     11  C   UNL     1       2.248  23.512  21.813  1.00  0.00     0.000 C 
BRANCH  11  12
ATOM     12  C   UNL     1       2.655  24.743  22.644  1.00  0.00    -0.000 C 
BRANCH  12  13
ATOM     13  C   UNL     1       1.861  26.007  22.261  1.00  0.00    -0.000 C 
BRANCH  13  14
ATOM     14  C   UNL     1       0.918  26.513  23.367  1.00  0.00    -0.000 C 
BRANCH  14  15
ATOM     15  C   UNL     1       1.174  25.830  24.723  1.00  0.00    -0.000 C 
BRANCH  15  16
ATOM     16  C   UNL     1      -0.050  25.920  25.657  1.00  0.00    -0.000 C 
BRANCH  16  17
ATOM     17  C   UNL     1       0.053  25.003  26.889  1.00  0.00    -0.003 C 
ATOM     18  C   UNL     1      -1.040  23.936  26.937  1.00  0.00     0.004 C 
ENDBRANCH  16  17
ENDBRANCH  15  16
ENDBRANCH  14  15
ENDBRANCH  13  14
ENDBRANCH  12  13
ENDBRANCH  11  12
ENDBRANCH   1  11
TORSDOF 14
ENDMDL
MODEL 7
REMARK VINA RESULT:    -3.434      2.441      3.198
REMARK INTER + INTRA:          -7.196
REMARK INTER:                  -6.170
REMARK INTRA:                  -1.027
REMARK UNBOUND:                -0.952
REMARK SMILES CCCCCCCCCCCCCCCC(=O)[O-]
REMARK SMILES IDX 9 1 10 2 11 3 12 4 13 5 14 6 15 7 16 8 17 9 18 10 8 11 7 12
REMARK SMILES IDX 6 13 5 14 4 15 3 16 2 17 1 18
REMARK H PARENT
REMARK Flexibility Score: inf
ROOT
ATOM      1  C   UNL     1       2.545  23.488  23.348  1.00  0.00     0.000 C 
ENDROOT
BRANCH   1   2
ATOM      2  C   UNL     1       3.574  24.038  24.352  1.00  0.00     0.000 C 
BRANCH   2   3
ATOM      3  C   UNL     1       3.280  23.605  25.797  1.00  0.00     0.000 C 
BRANCH   3   4
ATOM      4  C   UNL     1       2.367  22.371  25.874  1.00  0.00     0.000 C 
BRANCH   4   5
ATOM      5  C   UNL     1       1.200  22.613  26.838  1.00  0.00     0.000 C 
BRANCH   5   6
ATOM      6  C   UNL     1       0.043  23.333  26.134  1.00  0.00     0.006 C 
BRANCH   6   7
ATOM      7  C   UNL     1      -0.481  24.494  26.983  1.00  0.00     0.053 C 
BRANCH   7   8
ATOM      8  C   UNL     1      -0.086  25.804  26.379  1.00  0.00     0.041 C 
ATOM      9  O   UNL     1      -0.348  26.882  26.977  1.00  0.00    -0.550 OA
ATOM     10  O   UNL     1       0.527  25.840  25.134  1.00  0.00    -0.550 OA
ENDBRANCH   7   8
ENDBRANCH   6   7
ENDBRANCH   5   6
ENDBRANCH   4   5
ENDBRANCH   3   4
ENDBRANCH   2   3
ENDBRANCH   1   2
BRANCH   1  11
ATOM     11  C   UNL     1       2.487  24.318  22.056  1.00  0.00     0.000 C 
BRANCH  11  12
ATOM     12  C   UNL     1       2.220  25.810  22.324  1.00  0.00    -0.000 C 
BRANCH  12  13
ATOM     13  C   UNL     1       1.497  26.504  21.153  1.00  0.00    -0.000 C 
BRANCH  13  14
ATOM     14  C   UNL     1       0.579  27.662  21.583  1.00  0.00    -0.000 C 
BRANCH  14  15
ATOM     15  C   UNL     1      -0.712  27.738  20.746  1.00  0.00    -0.000 C 
BRANCH  15  16
ATOM     16  C   UNL     1      -1.320  29.155  20.748  1.00  0.00    -0.000 C 
BRANCH  16  17
ATOM     17  C   UNL     1      -0.397  30.218  20.126  1.00  0.00    -0.003 C 
ATOM     18  C   UNL     1      -1.146  31.466  19.662  1.00  0.00     0.004 C 
ENDBRANCH  16  17
ENDBRANCH  15  16
ENDBRANCH  14  15
ENDBRANCH  13  14
ENDBRANCH  12  13
ENDBRANCH  11  12
ENDBRANCH   1  11
TORSDOF 14
ENDMDL
MODEL 8
REMARK VINA RESULT:    -3.096      4.894      7.488
REMARK INTER + INTRA:          -6.581
REMARK INTER:                  -5.778
REMARK INTRA:                  -0.804
REMARK UNBOUND:                -0.952
REMARK SMILES CCCCCCCCCCCCCCCC(=O)[O-]
REMARK SMILES IDX 9 1 10 2 11 3 12 4 13 5 14 6 15 7 16 8 17 9 18 10 8 11 7 12
REMARK SMILES IDX 6 13 5 14 4 15 3 16 2 17 1 18
REMARK H PARENT
REMARK Flexibility Score: inf
ROOT
ATOM      1  C   UNL     1       6.914  21.625  26.673  1.00  0.00     0.000 C 
ENDROOT
BRANCH   1   2
ATOM      2  C   UNL     1       6.172  20.326  27.036  1.00  0.00     0.000 C 
BRANCH   2   3
ATOM      3  C   UNL     1       6.785  19.088  26.362  1.00  0.00     0.000 C 
BRANCH   3   4
ATOM      4  C   UNL     1       6.116  17.778  26.804  1.00  0.00     0.000 C 
BRANCH   4   5
ATOM      5  C   UNL     1       4.880  17.477  25.947  1.00  0.00     0.000 C 
BRANCH   5   6
ATOM      6  C   UNL     1       4.788  15.982  25.617  1.00  0.00     0.006 C 
BRANCH   6   7
ATOM      7  C   UNL     1       4.519  15.764  24.126  1.00  0.00     0.053 C 
BRANCH   7   8
ATOM      8  C   UNL     1       3.049  15.776  23.852  1.00  0.00     0.041 C 
ATOM      9  O   UNL     1       2.577  16.531  22.960  1.00  0.00    -0.550 OA
ATOM     10  O   UNL     1       2.192  14.990  24.612  1.00  0.00    -0.550 OA
ENDBRANCH   7   8
ENDBRANCH   6   7
ENDBRANCH   5   6
ENDBRANCH   4   5
ENDBRANCH   3   4
ENDBRANCH   2   3
ENDBRANCH   1   2
BRANCH   1  11
ATOM     11  C   UNL     1       5.993  22.855  26.711  1.00  0.00     0.000 C 
BRANCH  11  12
ATOM     12  C   UNL     1       5.913  23.575  25.352  1.00  0.00    -0.000 C 
BRANCH  12  13
ATOM     13  C   UNL     1       4.595  24.352  25.168  1.00  0.00    -0.000 C 
BRANCH  13  14
ATOM     14  C   UNL     1       3.336  23.541  25.519  1.00  0.00    -0.000 C 
BRANCH  14  15
ATOM     15  C   UNL     1       2.124  23.919  24.647  1.00  0.00    -0.000 C 
BRANCH  15  16
ATOM     16  C   UNL     1       1.542  22.698  23.905  1.00  0.00    -0.000 C 
BRANCH  16  17
ATOM     17  C   UNL     1       1.657  22.803  22.373  1.00  0.00    -0.003 C 
ATOM     18  C   UNL     1       2.619  23.897  21.917  1.00  0.00     0.004 C 
ENDBRANCH  16  17
ENDBRANCH  15  16
ENDBRANCH  14  15
ENDBRANCH  13  14
ENDBRANCH  12  13
ENDBRANCH  11  12
ENDBRANCH   1  11
TORSDOF 14
ENDMDL
MODEL 9
REMARK VINA RESULT:    -2.963      4.966      6.973
REMARK INTER + INTRA:          -6.339
REMARK INTER:                  -5.174
REMARK INTRA:                  -1.166
REMARK UNBOUND:                -0.952
REMARK SMILES CCCCCCCCCCCCCCCC(=O)[O-]
REMARK SMILES IDX 9 1 10 2 11 3 12 4 13 5 14 6 15 7 16 8 17 9 18 10 8 11 7 12
REMARK SMILES IDX 6 13 5 14 4 15 3 16 2 17 1 18
REMARK H PARENT
REMARK Flexibility Score: inf
ROOT
ATOM      1  C   UNL     1       3.690  21.815  27.060  1.00  0.00     0.000 C 
ENDROOT
BRANCH   1   2
ATOM      2  C   UNL     1       5.224  21.696  27.119  1.00  0.00     0.000 C 
BRANCH   2   3
ATOM      3  C   UNL     1       5.706  20.239  27.058  1.00  0.00     0.000 C 
BRANCH   3   4
ATOM      4  C   UNL     1       4.549  19.228  27.056  1.00  0.00     0.000 C 
BRANCH   4   5
ATOM      5  C   UNL     1       5.076  17.791  26.971  1.00  0.00     0.000 C 
BRANCH   5   6
ATOM      6  C   UNL     1       4.329  16.992  25.897  1.00  0.00     0.006 C 
BRANCH   6   7
ATOM      7  C   UNL     1       5.011  17.133  24.533  1.00  0.00     0.053 C 
BRANCH   7   8
ATOM      8  C   UNL     1       5.230  15.790  23.914  1.00  0.00     0.041 C 
ATOM      9  O   UNL     1       6.330  15.517  23.364  1.00  0.00    -0.550 OA
ATOM     10  O   UNL     1       4.204  14.854  23.901  1.00  0.00    -0.550 OA
ENDBRANCH   7   8
ENDBRANCH   6   7
ENDBRANCH   5   6
ENDBRANCH   4   5
ENDBRANCH   3   4
ENDBRANCH   2   3
ENDBRANCH   1   2
BRANCH   1  11
ATOM     11  C   UNL     1       3.227  23.223  26.654  1.00  0.00     0.000 C 
BRANCH  11  12
ATOM     12  C   UNL     1       1.720  23.438  26.883  1.00  0.00    -0.000 C 
BRANCH  12  13
ATOM     13  C   UNL     1       0.859  22.885  25.732  1.00  0.00    -0.000 C 
BRANCH  13  14
ATOM     14  C   UNL     1       1.058  23.617  24.393  1.00  0.00    -0.000 C 
BRANCH  14  15
ATOM     15  C   UNL     1       1.433  22.662  23.244  1.00  0.00    -0.000 C 
BRANCH  15  16
ATOM     16  C   UNL     1       2.503  23.268  22.313  1.00  0.00    -0.000 C 
BRANCH  16  17
ATOM     17  C   UNL     1       3.222  24.486  22.919  1.00  0.00    -0.003 C 
ATOM     18  C   UNL     1       4.642  24.173  23.387  1.00  0.00     0.004 C 
ENDBRANCH  16  17
ENDBRANCH  15  16
ENDBRANCH  14  15
ENDBRANCH  13  14
ENDBRANCH  12  13
ENDBRANCH  11  12
ENDBRANCH   1  11
TORSDOF 14
ENDMDL
