MODEL 1
REMARK VINA RESULT:    -6.105      0.000      0.000
REMARK INTER + INTRA:          -9.808
REMARK INTER:                  -8.425
REMARK INTRA:                  -1.383
REMARK UNBOUND:                -1.383
REMARK SMILES O=C([O-])[C@H]1O[C@@H](Oc2cc3oc(-c4ccccc4)cc(=O)c3c(O)c2O)[C@@H](O)[C@H](O)[C@@H]1O
REMARK SMILES IDX 7 1 6 2 4 3 31 4 5 5 29 6 27 7 2 8 1 9 3 10 32 11 30 13
REMARK SMILES IDX 28 15 8 17 25 18 9 19 23 20 10 21 22 22 11 23 20 24 12 25
REMARK SMILES IDX 19 26 21 27 26 28 24 30 13 32 14 33 18 34 15 35 17 36 16 37
REMARK H PARENT 32 12 30 14 28 16 26 29 24 31
REMARK Flexibility Score: inf
ROOT
ATOM      1  O   UNL     1      -5.454  91.765 -15.098  1.00  0.00    -0.458 OA
ENDROOT
BRANCH   1   2
ATOM      2  C   UNL     1      -4.399  91.829 -16.062  1.00  0.00     0.339 C 
ATOM      3  C   UNL     1      -5.102  93.871 -17.076  1.00  0.00     0.199 C 
ATOM      4  C   UNL     1      -5.564  93.147 -18.365  1.00  0.00     0.180 C 
ATOM      5  O   UNL     1      -4.068  93.176 -16.386  1.00  0.00    -0.328 OA
ATOM      6  C   UNL     1      -5.920  91.679 -18.077  1.00  0.00     0.181 C 
ATOM      7  C   UNL     1      -4.761  91.013 -17.318  1.00  0.00     0.214 C 
BRANCH   3   8
ATOM      8  C   UNL     1      -6.216  94.290 -16.147  1.00  0.00     0.073 C 
ATOM      9  O   UNL     1      -5.985  94.947 -15.097  1.00  0.00    -0.547 OA
ATOM     10  O   UNL     1      -7.526  93.945 -16.456  1.00  0.00    -0.547 OA
ENDBRANCH   3   8
BRANCH   4  11
ATOM     11  O   UNL     1      -4.528  93.214 -19.314  1.00  0.00    -0.387 OA
ATOM     12  H   UNL     1      -3.863  92.517 -19.074  1.00  0.00     0.211 HD
ENDBRANCH   4  11
BRANCH   6  13
ATOM     13  O   UNL     1      -6.160  91.004 -19.287  1.00  0.00    -0.387 OA
ATOM     14  H   UNL     1      -6.889  91.494 -19.752  1.00  0.00     0.211 HD
ENDBRANCH   6  13
BRANCH   7  15
ATOM     15  O   UNL     1      -5.062  89.680 -16.983  1.00  0.00    -0.384 OA
ATOM     16  H   UNL     1      -4.208  89.212 -16.790  1.00  0.00     0.211 HD
ENDBRANCH   7  15
ENDBRANCH   1   2
BRANCH   1  17
ATOM     17  C   UNL     1      -5.337  91.528 -13.715  1.00  0.00     0.172 A 
ATOM     18  C   UNL     1      -4.771  92.438 -12.791  1.00  0.00     0.201 A 
ATOM     19  C   UNL     1      -5.837  90.312 -13.252  1.00  0.00     0.098 A 
ATOM     20  C   UNL     1      -4.721  92.118 -11.417  1.00  0.00     0.176 A 
ATOM     21  C   UNL     1      -5.757  89.960 -11.907  1.00  0.00     0.146 A 
ATOM     22  C   UNL     1      -5.172  90.843 -10.967  1.00  0.00     0.111 A 
ATOM     23  O   UNL     1      -6.230  88.776 -11.532  1.00  0.00    -0.456 OA
ATOM     24  C   UNL     1      -5.055  90.370  -9.637  1.00  0.00     0.197 A 
ATOM     25  C   UNL     1      -6.171  88.326 -10.283  1.00  0.00     0.138 A 
ATOM     26  C   UNL     1      -5.574  89.121  -9.295  1.00  0.00     0.100 A 
ATOM     27  O   UNL     1      -4.462  91.031  -8.744  1.00  0.00    -0.289 OA
BRANCH  18  28
ATOM     28  O   UNL     1      -4.277  93.668 -13.226  1.00  0.00    -0.502 OA
ATOM     29  H   UNL     1      -3.714  93.772 -14.061  1.00  0.00     0.293 HD
ENDBRANCH  18  28
BRANCH  20  30
ATOM     30  O   UNL     1      -4.248  93.106 -10.547  1.00  0.00    -0.504 OA
ATOM     31  H   UNL     1      -3.278  93.363 -10.444  1.00  0.00     0.293 HD
ENDBRANCH  20  30
BRANCH  25  32
ATOM     32  C   UNL     1      -6.746  86.991  -9.977  1.00  0.00     0.017 A 
ATOM     33  C   UNL     1      -8.052  86.844  -9.468  1.00  0.00     0.012 A 
ATOM     34  C   UNL     1      -5.960  85.840 -10.168  1.00  0.00     0.012 A 
ATOM     35  C   UNL     1      -8.560  85.574  -9.181  1.00  0.00     0.001 A 
ATOM     36  C   UNL     1      -6.475  84.573  -9.880  1.00  0.00     0.001 A 
ATOM     37  C   UNL     1      -7.775  84.439  -9.390  1.00  0.00     0.000 A 
ENDBRANCH  25  32
ENDBRANCH   1  17
TORSDOF 9
ENDMDL
MODEL 2
REMARK VINA RESULT:    -5.845      6.572     10.543
REMARK INTER + INTRA:          -9.450
REMARK INTER:                  -8.202
REMARK INTRA:                  -1.248
REMARK UNBOUND:                -1.383
REMARK SMILES O=C([O-])[C@H]1O[C@@H](Oc2cc3oc(-c4ccccc4)cc(=O)c3c(O)c2O)[C@@H](O)[C@H](O)[C@@H]1O
REMARK SMILES IDX 7 1 6 2 4 3 31 4 5 5 29 6 27 7 2 8 1 9 3 10 32 11 30 13
REMARK SMILES IDX 28 15 8 17 25 18 9 19 23 20 10 21 22 22 11 23 20 24 12 25
REMARK SMILES IDX 19 26 21 27 26 28 24 30 13 32 14 33 18 34 15 35 17 36 16 37
REMARK H PARENT 32 12 30 14 28 16 26 29 24 31
REMARK Flexibility Score: inf
ROOT
ATOM      1  O   UNL     1     -10.412  84.508  -9.381  1.00  0.00    -0.458 OA
ENDROOT
BRANCH   1   2
ATOM      2  C   UNL     1     -11.340  85.108  -8.472  1.00  0.00     0.339 C 
ATOM      3  C   UNL     1     -12.628  83.138  -8.082  1.00  0.00     0.199 C 
ATOM      4  C   UNL     1     -13.830  83.687  -8.891  1.00  0.00     0.180 C 
ATOM      5  O   UNL     1     -11.820  84.167  -7.518  1.00  0.00    -0.328 OA
ATOM      6  C   UNL     1     -13.371  84.724  -9.929  1.00  0.00     0.181 C 
ATOM      7  C   UNL     1     -12.494  85.782  -9.240  1.00  0.00     0.214 C 
BRANCH   3   8
ATOM      8  C   UNL     1     -11.798  82.100  -8.800  1.00  0.00     0.073 C 
ATOM      9  O   UNL     1     -11.978  81.844 -10.020  1.00  0.00    -0.547 OA
ATOM     10  O   UNL     1     -10.815  81.412  -8.100  1.00  0.00    -0.547 OA
ENDBRANCH   3   8
BRANCH   4  11
ATOM     11  O   UNL     1     -14.744  84.273  -7.996  1.00  0.00    -0.387 OA
ATOM     12  H   UNL     1     -15.486  83.625  -7.869  1.00  0.00     0.211 HD
ENDBRANCH   4  11
BRANCH   6  13
ATOM     13  O   UNL     1     -14.493  85.332 -10.519  1.00  0.00    -0.387 OA
ATOM     14  H   UNL     1     -15.258  84.712 -10.391  1.00  0.00     0.211 HD
ENDBRANCH   6  13
BRANCH   7  15
ATOM     15  O   UNL     1     -12.002  86.725 -10.161  1.00  0.00    -0.384 OA
ATOM     16  H   UNL     1     -12.698  86.867 -10.855  1.00  0.00     0.211 HD
ENDBRANCH   7  15
ENDBRANCH   1   2
BRANCH   1  17
ATOM     17  C   UNL     1      -9.006  84.589  -9.348  1.00  0.00     0.172 A 
ATOM     18  C   UNL     1      -8.136  83.495  -9.565  1.00  0.00     0.201 A 
ATOM     19  C   UNL     1      -8.466  85.850  -9.099  1.00  0.00     0.098 A 
ATOM     20  C   UNL     1      -6.736  83.683  -9.535  1.00  0.00     0.176 A 
ATOM     21  C   UNL     1      -7.089  86.046  -9.023  1.00  0.00     0.146 A 
ATOM     22  C   UNL     1      -6.198  84.962  -9.211  1.00  0.00     0.111 A 
ATOM     23  O   UNL     1      -6.636  87.267  -8.760  1.00  0.00    -0.456 OA
ATOM     24  C   UNL     1      -4.819  85.233  -9.032  1.00  0.00     0.197 A 
ATOM     25  C   UNL     1      -5.346  87.557  -8.629  1.00  0.00     0.138 A 
ATOM     26  C   UNL     1      -4.396  86.536  -8.762  1.00  0.00     0.100 A 
ATOM     27  O   UNL     1      -3.949  84.324  -9.077  1.00  0.00    -0.289 OA
BRANCH  18  28
ATOM     28  O   UNL     1      -8.651  82.226  -9.830  1.00  0.00    -0.502 OA
ATOM     29  H   UNL     1      -9.625  81.986  -9.694  1.00  0.00     0.293 HD
ENDBRANCH  18  28
BRANCH  20  30
ATOM     30  O   UNL     1      -5.937  82.583  -9.864  1.00  0.00    -0.504 OA
ATOM     31  H   UNL     1      -6.159  81.625  -9.639  1.00  0.00     0.293 HD
ENDBRANCH  20  30
BRANCH  25  32
ATOM     32  C   UNL     1      -4.956  88.962  -8.347  1.00  0.00     0.017 A 
ATOM     33  C   UNL     1      -5.443  90.037  -9.119  1.00  0.00     0.012 A 
ATOM     34  C   UNL     1      -4.050  89.232  -7.305  1.00  0.00     0.012 A 
ATOM     35  C   UNL     1      -5.048  91.347  -8.835  1.00  0.00     0.001 A 
ATOM     36  C   UNL     1      -3.660  90.545  -7.026  1.00  0.00     0.001 A 
ATOM     37  C   UNL     1      -4.161  91.603  -7.787  1.00  0.00     0.000 A 
ENDBRANCH  25  32
ENDBRANCH   1  17
TORSDOF 9
ENDMDL
MODEL 3
REMARK VINA RESULT:    -5.753      1.999      2.993
REMARK INTER + INTRA:          -9.323
REMARK INTER:                  -8.027
REMARK INTRA:                  -1.296
REMARK UNBOUND:                -1.383
REMARK SMILES O=C([O-])[C@H]1O[C@@H](Oc2cc3oc(-c4ccccc4)cc(=O)c3c(O)c2O)[C@@H](O)[C@H](O)[C@@H]1O
REMARK SMILES IDX 7 1 6 2 4 3 31 4 5 5 29 6 27 7 2 8 1 9 3 10 32 11 30 13
REMARK SMILES IDX 28 15 8 17 25 18 9 19 23 20 10 21 22 22 11 23 20 24 12 25
REMARK SMILES IDX 19 26 21 27 26 28 24 30 13 32 14 33 18 34 15 35 17 36 16 37
REMARK H PARENT 32 12 30 14 28 16 26 29 24 31
REMARK Flexibility Score: inf
ROOT
ATOM      1  O   UNL     1      -6.349  90.870 -14.561  1.00  0.00    -0.458 OA
ENDROOT
BRANCH   1   2
ATOM      2  C   UNL     1      -4.949  91.009 -14.820  1.00  0.00     0.339 C 
ATOM      3  C   UNL     1      -5.031  93.309 -15.450  1.00  0.00     0.199 C 
ATOM      4  C   UNL     1      -4.767  92.976 -16.940  1.00  0.00     0.180 C 
ATOM      5  O   UNL     1      -4.498  92.334 -14.558  1.00  0.00    -0.328 OA
ATOM      6  C   UNL     1      -5.221  91.546 -17.276  1.00  0.00     0.181 C 
ATOM      7  C   UNL     1      -4.616  90.567 -16.258  1.00  0.00     0.214 C 
BRANCH   3   8
ATOM      8  C   UNL     1      -6.464  93.651 -15.118  1.00  0.00     0.073 C 
ATOM      9  O   UNL     1      -7.348  93.716 -16.014  1.00  0.00    -0.547 OA
ATOM     10  O   UNL     1      -6.816  93.900 -13.798  1.00  0.00    -0.547 OA
ENDBRANCH   3   8
BRANCH   4  11
ATOM     11  O   UNL     1      -3.391  93.118 -17.194  1.00  0.00    -0.387 OA
ATOM     12  H   UNL     1      -3.250  94.035 -17.550  1.00  0.00     0.211 HD
ENDBRANCH   4  11
BRANCH   6  13
ATOM     13  O   UNL     1      -4.807  91.213 -18.578  1.00  0.00    -0.387 OA
ATOM     14  H   UNL     1      -5.186  91.899 -19.187  1.00  0.00     0.211 HD
ENDBRANCH   6  13
BRANCH   7  15
ATOM     15  O   UNL     1      -5.047  89.248 -16.491  1.00  0.00    -0.384 OA
ATOM     16  H   UNL     1      -4.837  88.710 -15.684  1.00  0.00     0.211 HD
ENDBRANCH   7  15
ENDBRANCH   1   2
BRANCH   1  17
ATOM     17  C   UNL     1      -6.958  90.247 -13.455  1.00  0.00     0.172 A 
ATOM     18  C   UNL     1      -8.191  90.646 -12.889  1.00  0.00     0.201 A 
ATOM     19  C   UNL     1      -6.283  89.155 -12.912  1.00  0.00     0.098 A 
ATOM     20  C   UNL     1      -8.733  89.940 -11.793  1.00  0.00     0.176 A 
ATOM     21  C   UNL     1      -6.779  88.474 -11.804  1.00  0.00     0.146 A 
ATOM     22  C   UNL     1      -7.999  88.870 -11.204  1.00  0.00     0.111 A 
ATOM     23  O   UNL     1      -6.078  87.455 -11.319  1.00  0.00    -0.456 OA
ATOM     24  C   UNL     1      -8.387  88.177 -10.031  1.00  0.00     0.197 A 
ATOM     25  C   UNL     1      -6.440  86.761 -10.245  1.00  0.00     0.138 A 
ATOM     26  C   UNL     1      -7.616  87.110  -9.568  1.00  0.00     0.100 A 
ATOM     27  O   UNL     1      -9.399  88.512  -9.362  1.00  0.00    -0.289 OA
BRANCH  18  28
ATOM     28  O   UNL     1      -8.894  91.727 -13.423  1.00  0.00    -0.502 OA
ATOM     29  H   UNL     1      -9.884  91.694 -13.631  1.00  0.00     0.293 HD
ENDBRANCH  18  28
BRANCH  20  30
ATOM     30  O   UNL     1     -10.005  90.321 -11.353  1.00  0.00    -0.504 OA
ATOM     31  H   UNL     1     -10.807  90.444 -11.953  1.00  0.00     0.293 HD
ENDBRANCH  20  30
BRANCH  25  32
ATOM     32  C   UNL     1      -5.583  85.632  -9.802  1.00  0.00     0.017 A 
ATOM     33  C   UNL     1      -4.414  85.841  -9.042  1.00  0.00     0.012 A 
ATOM     34  C   UNL     1      -5.923  84.319 -10.174  1.00  0.00     0.012 A 
ATOM     35  C   UNL     1      -3.623  84.757  -8.649  1.00  0.00     0.001 A 
ATOM     36  C   UNL     1      -5.128  83.239  -9.777  1.00  0.00     0.001 A 
ATOM     37  C   UNL     1      -3.981  83.458  -9.012  1.00  0.00     0.000 A 
ENDBRANCH  25  32
ENDBRANCH   1  17
TORSDOF 9
ENDMDL
MODEL 4
REMARK VINA RESULT:    -5.698      7.463     11.318
REMARK INTER + INTRA:          -9.247
REMARK INTER:                  -7.941
REMARK INTRA:                  -1.306
REMARK UNBOUND:                -1.383
REMARK SMILES O=C([O-])[C@H]1O[C@@H](Oc2cc3oc(-c4ccccc4)cc(=O)c3c(O)c2O)[C@@H](O)[C@H](O)[C@@H]1O
REMARK SMILES IDX 7 1 6 2 4 3 31 4 5 5 29 6 27 7 2 8 1 9 3 10 32 11 30 13
REMARK SMILES IDX 28 15 8 17 25 18 9 19 23 20 10 21 22 22 11 23 20 24 12 25
REMARK SMILES IDX 19 26 21 27 26 28 24 30 13 32 14 33 18 34 15 35 17 36 16 37
REMARK H PARENT 32 12 30 14 28 16 26 29 24 31
REMARK Flexibility Score: inf
ROOT
ATOM      1  O   UNL     1      -8.063  84.160  -8.407  1.00  0.00    -0.458 OA
ENDROOT
BRANCH   1   2
ATOM      2  C   UNL     1      -7.059  83.816  -9.367  1.00  0.00     0.339 C 
ATOM      3  C   UNL     1      -5.307  83.457  -7.788  1.00  0.00     0.199 C 
ATOM      4  C   UNL     1      -4.568  84.749  -8.218  1.00  0.00     0.180 C 
ATOM      5  O   UNL     1      -6.110  82.902  -8.826  1.00  0.00    -0.328 OA
ATOM      6  C   UNL     1      -5.545  85.768  -8.827  1.00  0.00     0.181 C 
ATOM      7  C   UNL     1      -6.380  85.084  -9.921  1.00  0.00     0.214 C 
BRANCH   3   8
ATOM      8  C   UNL     1      -6.062  83.559  -6.485  1.00  0.00     0.073 C 
ATOM      9  O   UNL     1      -6.123  84.642  -5.844  1.00  0.00    -0.547 OA
ATOM     10  O   UNL     1      -6.704  82.435  -5.981  1.00  0.00    -0.547 OA
ENDBRANCH   3   8
BRANCH   4  11
ATOM     11  O   UNL     1      -3.579  84.409  -9.159  1.00  0.00    -0.387 OA
ATOM     12  H   UNL     1      -3.966  84.559 -10.061  1.00  0.00     0.211 HD
ENDBRANCH   4  11
BRANCH   6  13
ATOM     13  O   UNL     1      -4.826  86.848  -9.368  1.00  0.00    -0.387 OA
ATOM     14  H   UNL     1      -5.110  86.939 -10.315  1.00  0.00     0.211 HD
ENDBRANCH   6  13
BRANCH   7  15
ATOM     15  O   UNL     1      -7.330  85.963 -10.471  1.00  0.00    -0.384 OA
ATOM     16  H   UNL     1      -7.138  86.875 -10.130  1.00  0.00     0.211 HD
ENDBRANCH   7  15
ENDBRANCH   1   2
BRANCH   1  17
ATOM     17  C   UNL     1      -9.451  83.941  -8.502  1.00  0.00     0.172 A 
ATOM     18  C   UNL     1     -10.375  84.875  -9.025  1.00  0.00     0.201 A 
ATOM     19  C   UNL     1      -9.912  82.704  -8.057  1.00  0.00     0.098 A 
ATOM     20  C   UNL     1     -11.748  84.552  -9.101  1.00  0.00     0.176 A 
ATOM     21  C   UNL     1     -11.268  82.384  -8.083  1.00  0.00     0.146 A 
ATOM     22  C   UNL     1     -12.215  83.311  -8.579  1.00  0.00     0.111 A 
ATOM     23  O   UNL     1     -11.648  81.196  -7.624  1.00  0.00    -0.456 OA
ATOM     24  C   UNL     1     -13.579  82.938  -8.489  1.00  0.00     0.197 A 
ATOM     25  C   UNL     1     -12.916  80.804  -7.568  1.00  0.00     0.138 A 
ATOM     26  C   UNL     1     -13.923  81.676  -8.004  1.00  0.00     0.100 A 
ATOM     27  O   UNL     1     -14.508  83.725  -8.807  1.00  0.00    -0.289 OA
BRANCH  18  28
ATOM     28  O   UNL     1      -9.937  86.116  -9.490  1.00  0.00    -0.502 OA
ATOM     29  H   UNL     1      -9.296  86.219 -10.267  1.00  0.00     0.293 HD
ENDBRANCH  18  28
BRANCH  20  30
ATOM     30  O   UNL     1     -12.589  85.478  -9.727  1.00  0.00    -0.504 OA
ATOM     31  H   UNL     1     -12.924  85.399 -10.676  1.00  0.00     0.293 HD
ENDBRANCH  20  30
BRANCH  25  32
ATOM     32  C   UNL     1     -13.222  79.448  -7.047  1.00  0.00     0.017 A 
ATOM     33  C   UNL     1     -14.547  79.012  -6.841  1.00  0.00     0.012 A 
ATOM     34  C   UNL     1     -12.164  78.580  -6.717  1.00  0.00     0.012 A 
ATOM     35  C   UNL     1     -14.801  77.732  -6.340  1.00  0.00     0.001 A 
ATOM     36  C   UNL     1     -12.425  77.301  -6.217  1.00  0.00     0.001 A 
ATOM     37  C   UNL     1     -13.742  76.875  -6.031  1.00  0.00     0.000 A 
ENDBRANCH  25  32
ENDBRANCH   1  17
TORSDOF 9
ENDMDL
MODEL 5
REMARK VINA RESULT:    -5.664      8.292     12.906
REMARK INTER + INTRA:          -9.200
REMARK INTER:                  -7.888
REMARK INTRA:                  -1.311
REMARK UNBOUND:                -1.383
REMARK SMILES O=C([O-])[C@H]1O[C@@H](Oc2cc3oc(-c4ccccc4)cc(=O)c3c(O)c2O)[C@@H](O)[C@H](O)[C@@H]1O
REMARK SMILES IDX 7 1 6 2 4 3 31 4 5 5 29 6 27 7 2 8 1 9 3 10 32 11 30 13
REMARK SMILES IDX 28 15 8 17 25 18 9 19 23 20 10 21 22 22 11 23 20 24 12 25
REMARK SMILES IDX 19 26 21 27 26 28 24 30 13 32 14 33 18 34 15 35 17 36 16 37
REMARK H PARENT 32 12 30 14 28 16 26 29 24 31
REMARK Flexibility Score: inf
ROOT
ATOM      1  O   UNL     1     -12.734  84.024  -8.714  1.00  0.00    -0.458 OA
ENDROOT
BRANCH   1   2
ATOM      2  C   UNL     1     -12.843  82.776  -9.406  1.00  0.00     0.339 C 
ATOM      3  C   UNL     1     -13.890  81.585  -7.623  1.00  0.00     0.199 C 
ATOM      4  C   UNL     1     -12.614  80.751  -7.346  1.00  0.00     0.180 C 
ATOM      5  O   UNL     1     -13.979  82.036  -8.971  1.00  0.00    -0.328 OA
ATOM      6  C   UNL     1     -11.353  81.498  -7.811  1.00  0.00     0.181 C 
ATOM      7  C   UNL     1     -11.543  81.961  -9.264  1.00  0.00     0.214 C 
BRANCH   3   8
ATOM      8  C   UNL     1     -14.148  82.701  -6.638  1.00  0.00     0.073 C 
ATOM      9  O   UNL     1     -13.393  82.890  -5.647  1.00  0.00    -0.547 OA
ATOM     10  O   UNL     1     -15.241  83.537  -6.829  1.00  0.00    -0.547 OA
ENDBRANCH   3   8
BRANCH   4  11
ATOM     11  O   UNL     1     -12.724  79.523  -8.022  1.00  0.00    -0.387 OA
ATOM     12  H   UNL     1     -13.634  79.167  -7.840  1.00  0.00     0.211 HD
ENDBRANCH   4  11
BRANCH   6  13
ATOM     13  O   UNL     1     -10.237  80.649  -7.713  1.00  0.00    -0.387 OA
ATOM     14  H   UNL     1     -10.491  79.907  -7.105  1.00  0.00     0.211 HD
ENDBRANCH   6  13
BRANCH   7  15
ATOM     15  O   UNL     1     -10.435  82.700  -9.719  1.00  0.00    -0.384 OA
ATOM     16  H   UNL     1     -10.140  82.309 -10.583  1.00  0.00     0.211 HD
ENDBRANCH   7  15
ENDBRANCH   1   2
BRANCH   1  17
ATOM     17  C   UNL     1     -12.785  85.318  -9.267  1.00  0.00     0.172 A 
ATOM     18  C   UNL     1     -11.650  86.081  -9.627  1.00  0.00     0.201 A 
ATOM     19  C   UNL     1     -14.056  85.849  -9.479  1.00  0.00     0.098 A 
ATOM     20  C   UNL     1     -11.806  87.363 -10.199  1.00  0.00     0.176 A 
ATOM     21  C   UNL     1     -14.230  87.128 -10.001  1.00  0.00     0.146 A 
ATOM     22  C   UNL     1     -13.109  87.922 -10.345  1.00  0.00     0.111 A 
ATOM     23  O   UNL     1     -15.467  87.587 -10.158  1.00  0.00    -0.456 OA
ATOM     24  C   UNL     1     -13.374  89.241 -10.789  1.00  0.00     0.197 A 
ATOM     25  C   UNL     1     -15.744  88.805 -10.612  1.00  0.00     0.138 A 
ATOM     26  C   UNL     1     -14.693  89.670 -10.941  1.00  0.00     0.100 A 
ATOM     27  O   UNL     1     -12.451  90.063 -11.025  1.00  0.00    -0.289 OA
BRANCH  18  28
ATOM     28  O   UNL     1     -10.366  85.567  -9.438  1.00  0.00    -0.502 OA
ATOM     29  H   UNL     1      -9.926  85.501  -8.529  1.00  0.00     0.293 HD
ENDBRANCH  18  28
BRANCH  20  30
ATOM     30  O   UNL     1     -10.647  88.017 -10.628  1.00  0.00    -0.504 OA
ATOM     31  H   UNL     1      -9.725  87.606 -10.635  1.00  0.00     0.293 HD
ENDBRANCH  20  30
BRANCH  25  32
ATOM     32  C   UNL     1     -17.167  89.204 -10.758  1.00  0.00     0.017 A 
ATOM     33  C   UNL     1     -17.619  89.952 -11.866  1.00  0.00     0.012 A 
ATOM     34  C   UNL     1     -18.089  88.859  -9.753  1.00  0.00     0.012 A 
ATOM     35  C   UNL     1     -18.963  90.321 -11.969  1.00  0.00     0.001 A 
ATOM     36  C   UNL     1     -19.433  89.230  -9.864  1.00  0.00     0.001 A 
ATOM     37  C   UNL     1     -19.870  89.958 -10.972  1.00  0.00     0.000 A 
ENDBRANCH  25  32
ENDBRANCH   1  17
TORSDOF 9
ENDMDL
MODEL 6
REMARK VINA RESULT:    -5.596      3.633      9.425
REMARK INTER + INTRA:          -9.106
REMARK INTER:                  -7.809
REMARK INTRA:                  -1.297
REMARK UNBOUND:                -1.383
REMARK SMILES O=C([O-])[C@H]1O[C@@H](Oc2cc3oc(-c4ccccc4)cc(=O)c3c(O)c2O)[C@@H](O)[C@H](O)[C@@H]1O
REMARK SMILES IDX 7 1 6 2 4 3 31 4 5 5 29 6 27 7 2 8 1 9 3 10 32 11 30 13
REMARK SMILES IDX 28 15 8 17 25 18 9 19 23 20 10 21 22 22 11 23 20 24 12 25
REMARK SMILES IDX 19 26 21 27 26 28 24 30 13 32 14 33 18 34 15 35 17 36 16 37
REMARK H PARENT 32 12 30 14 28 16 26 29 24 31
REMARK Flexibility Score: inf
ROOT
ATOM      1  O   UNL     1      -5.912  86.123  -9.114  1.00  0.00    -0.458 OA
ENDROOT
BRANCH   1   2
ATOM      2  C   UNL     1      -4.884  85.330  -9.715  1.00  0.00     0.339 C 
ATOM      3  C   UNL     1      -5.924  83.220  -9.317  1.00  0.00     0.199 C 
ATOM      4  C   UNL     1      -4.887  82.843  -8.228  1.00  0.00     0.180 C 
ATOM      5  O   UNL     1      -5.411  84.134 -10.281  1.00  0.00    -0.328 OA
ATOM      6  C   UNL     1      -4.272  84.100  -7.592  1.00  0.00     0.181 C 
ATOM      7  C   UNL     1      -3.763  85.035  -8.700  1.00  0.00     0.214 C 
BRANCH   3   8
ATOM      8  C   UNL     1      -7.271  83.652  -8.791  1.00  0.00     0.073 C 
ATOM      9  O   UNL     1      -7.478  83.802  -7.557  1.00  0.00    -0.547 OA
ATOM     10  O   UNL     1      -8.306  83.891  -9.686  1.00  0.00    -0.547 OA
ENDBRANCH   3   8
BRANCH   4  11
ATOM     11  O   UNL     1      -3.880  82.059  -8.819  1.00  0.00    -0.387 OA
ATOM     12  H   UNL     1      -4.064  81.113  -8.579  1.00  0.00     0.211 HD
ENDBRANCH   4  11
BRANCH   6  13
ATOM     13  O   UNL     1      -3.214  83.731  -6.743  1.00  0.00    -0.387 OA
ATOM     14  H   UNL     1      -2.965  84.539  -6.223  1.00  0.00     0.211 HD
ENDBRANCH   6  13
BRANCH   7  15
ATOM     15  O   UNL     1      -3.239  86.228  -8.169  1.00  0.00    -0.384 OA
ATOM     16  H   UNL     1      -2.352  86.024  -7.772  1.00  0.00     0.211 HD
ENDBRANCH   7  15
ENDBRANCH   1   2
BRANCH   1  17
ATOM     17  C   UNL     1      -6.780  87.029  -9.754  1.00  0.00     0.172 A 
ATOM     18  C   UNL     1      -8.087  87.338  -9.308  1.00  0.00     0.201 A 
ATOM     19  C   UNL     1      -6.284  87.659 -10.894  1.00  0.00     0.098 A 
ATOM     20  C   UNL     1      -8.873  88.279 -10.007  1.00  0.00     0.176 A 
ATOM     21  C   UNL     1      -7.061  88.558 -11.621  1.00  0.00     0.146 A 
ATOM     22  C   UNL     1      -8.380  88.865 -11.209  1.00  0.00     0.111 A 
ATOM     23  O   UNL     1      -6.539  89.109 -12.712  1.00  0.00    -0.456 OA
ATOM     24  C   UNL     1      -9.128  89.722 -12.054  1.00  0.00     0.197 A 
ATOM     25  C   UNL     1      -7.204  89.949 -13.498  1.00  0.00     0.138 A 
ATOM     26  C   UNL     1      -8.529  90.278 -13.184  1.00  0.00     0.100 A 
ATOM     27  O   UNL     1     -10.340  89.980 -11.836  1.00  0.00    -0.289 OA
BRANCH  18  28
ATOM     28  O   UNL     1      -8.602  86.731  -8.162  1.00  0.00    -0.502 OA
ATOM     29  H   UNL     1      -8.192  85.906  -7.742  1.00  0.00     0.293 HD
ENDBRANCH  18  28
BRANCH  20  30
ATOM     30  O   UNL     1     -10.111  88.617  -9.451  1.00  0.00    -0.504 OA
ATOM     31  H   UNL     1     -10.465  89.559  -9.365  1.00  0.00     0.293 HD
ENDBRANCH  20  30
BRANCH  25  32
ATOM     32  C   UNL     1      -6.513  90.514 -14.685  1.00  0.00     0.017 A 
ATOM     33  C   UNL     1      -5.615  89.748 -15.456  1.00  0.00     0.012 A 
ATOM     34  C   UNL     1      -6.731  91.859 -15.036  1.00  0.00     0.012 A 
ATOM     35  C   UNL     1      -4.972  90.313 -16.562  1.00  0.00     0.001 A 
ATOM     36  C   UNL     1      -6.086  92.418 -16.143  1.00  0.00     0.001 A 
ATOM     37  C   UNL     1      -5.210  91.645 -16.908  1.00  0.00     0.000 A 
ENDBRANCH  25  32
ENDBRANCH   1  17
TORSDOF 9
ENDMDL
MODEL 7
REMARK VINA RESULT:    -5.585      4.485      9.525
REMARK INTER + INTRA:          -9.091
REMARK INTER:                  -7.933
REMARK INTRA:                  -1.157
REMARK UNBOUND:                -1.383
REMARK SMILES O=C([O-])[C@H]1O[C@@H](Oc2cc3oc(-c4ccccc4)cc(=O)c3c(O)c2O)[C@@H](O)[C@H](O)[C@@H]1O
REMARK SMILES IDX 7 1 6 2 4 3 31 4 5 5 29 6 27 7 2 8 1 9 3 10 32 11 30 13
REMARK SMILES IDX 28 15 8 17 25 18 9 19 23 20 10 21 22 22 11 23 20 24 12 25
REMARK SMILES IDX 19 26 21 27 26 28 24 30 13 32 14 33 18 34 15 35 17 36 16 37
REMARK H PARENT 32 12 30 14 28 16 26 29 24 31
REMARK Flexibility Score: inf
ROOT
ATOM      1  O   UNL     1      -5.866  85.878  -9.034  1.00  0.00    -0.458 OA
ENDROOT
BRANCH   1   2
ATOM      2  C   UNL     1      -4.755  85.211  -9.640  1.00  0.00     0.339 C 
ATOM      3  C   UNL     1      -5.559  82.994  -9.275  1.00  0.00     0.199 C 
ATOM      4  C   UNL     1      -4.491  82.718  -8.186  1.00  0.00     0.180 C 
ATOM      5  O   UNL     1      -5.146  83.972 -10.225  1.00  0.00    -0.328 OA
ATOM      6  C   UNL     1      -4.019  84.026  -7.531  1.00  0.00     0.181 C 
ATOM      7  C   UNL     1      -3.612  85.027  -8.624  1.00  0.00     0.214 C 
BRANCH   3   8
ATOM      8  C   UNL     1      -6.947  83.269  -8.750  1.00  0.00     0.073 C 
ATOM      9  O   UNL     1      -7.167  83.416  -7.518  1.00  0.00    -0.547 OA
ATOM     10  O   UNL     1      -8.006  83.364  -9.644  1.00  0.00    -0.547 OA
ENDBRANCH   3   8
BRANCH   4  11
ATOM     11  O   UNL     1      -3.402  82.057  -8.783  1.00  0.00    -0.387 OA
ATOM     12  H   UNL     1      -2.774  81.809  -8.054  1.00  0.00     0.211 HD
ENDBRANCH   4  11
BRANCH   6  13
ATOM     13  O   UNL     1      -2.930  83.763  -6.681  1.00  0.00    -0.387 OA
ATOM     14  H   UNL     1      -3.005  82.814  -6.401  1.00  0.00     0.211 HD
ENDBRANCH   6  13
BRANCH   7  15
ATOM     15  O   UNL     1      -3.223  86.262  -8.074  1.00  0.00    -0.384 OA
ATOM     16  H   UNL     1      -3.279  86.189  -7.086  1.00  0.00     0.211 HD
ENDBRANCH   7  15
ENDBRANCH   1   2
BRANCH   1  17
ATOM     17  C   UNL     1      -6.515  87.044  -9.485  1.00  0.00     0.172 A 
ATOM     18  C   UNL     1      -7.884  87.113  -9.838  1.00  0.00     0.201 A 
ATOM     19  C   UNL     1      -5.734  88.195  -9.564  1.00  0.00     0.098 A 
ATOM     20  C   UNL     1      -8.449  88.337 -10.257  1.00  0.00     0.176 A 
ATOM     21  C   UNL     1      -6.264  89.401 -10.016  1.00  0.00     0.146 A 
ATOM     22  C   UNL     1      -7.624  89.490 -10.399  1.00  0.00     0.111 A 
ATOM     23  O   UNL     1      -5.462  90.458 -10.090  1.00  0.00    -0.456 OA
ATOM     24  C   UNL     1      -8.057  90.730 -10.928  1.00  0.00     0.197 A 
ATOM     25  C   UNL     1      -5.854  91.644 -10.543  1.00  0.00     0.138 A 
ATOM     26  C   UNL     1      -7.175  91.810 -10.978  1.00  0.00     0.100 A 
ATOM     27  O   UNL     1      -9.217  90.889 -11.391  1.00  0.00    -0.289 OA
BRANCH  18  28
ATOM     28  O   UNL     1      -8.691  85.977  -9.755  1.00  0.00    -0.502 OA
ATOM     29  H   UNL     1      -8.377  85.055 -10.031  1.00  0.00     0.293 HD
ENDBRANCH  18  28
BRANCH  20  30
ATOM     30  O   UNL     1      -9.829  88.357 -10.487  1.00  0.00    -0.504 OA
ATOM     31  H   UNL     1     -10.532  88.290  -9.766  1.00  0.00     0.293 HD
ENDBRANCH  20  30
BRANCH  25  32
ATOM     32  C   UNL     1      -4.872  92.759 -10.566  1.00  0.00     0.017 A 
ATOM     33  C   UNL     1      -4.310  93.228 -11.771  1.00  0.00     0.012 A 
ATOM     34  C   UNL     1      -4.463  93.346  -9.355  1.00  0.00     0.012 A 
ATOM     35  C   UNL     1      -3.381  94.272 -11.759  1.00  0.00     0.001 A 
ATOM     36  C   UNL     1      -3.534  94.390  -9.349  1.00  0.00     0.001 A 
ATOM     37  C   UNL     1      -2.996  94.856 -10.551  1.00  0.00     0.000 A 
ENDBRANCH  25  32
ENDBRANCH   1  17
TORSDOF 9
ENDMDL
MODEL 8
REMARK VINA RESULT:    -5.580      2.028      2.842
REMARK INTER + INTRA:          -9.084
REMARK INTER:                  -8.216
REMARK INTRA:                  -0.868
REMARK UNBOUND:                -1.383
REMARK SMILES O=C([O-])[C@H]1O[C@@H](Oc2cc3oc(-c4ccccc4)cc(=O)c3c(O)c2O)[C@@H](O)[C@H](O)[C@@H]1O
REMARK SMILES IDX 7 1 6 2 4 3 31 4 5 5 29 6 27 7 2 8 1 9 3 10 32 11 30 13
REMARK SMILES IDX 28 15 8 17 25 18 9 19 23 20 10 21 22 22 11 23 20 24 12 25
REMARK SMILES IDX 19 26 21 27 26 28 24 30 13 32 14 33 18 34 15 35 17 36 16 37
REMARK H PARENT 32 12 30 14 28 16 26 29 24 31
REMARK Flexibility Score: inf
ROOT
ATOM      1  O   UNL     1      -4.830  92.455 -14.126  1.00  0.00    -0.458 OA
ENDROOT
BRANCH   1   2
ATOM      2  C   UNL     1      -3.730  92.060 -14.950  1.00  0.00     0.339 C 
ATOM      3  C   UNL     1      -4.635  92.884 -16.998  1.00  0.00     0.199 C 
ATOM      4  C   UNL     1      -4.902  91.454 -17.530  1.00  0.00     0.180 C 
ATOM      5  O   UNL     1      -3.565  92.939 -16.058  1.00  0.00    -0.328 OA
ATOM      6  C   UNL     1      -5.071  90.456 -16.372  1.00  0.00     0.181 C 
ATOM      7  C   UNL     1      -3.888  90.595 -15.401  1.00  0.00     0.214 C 
BRANCH   3   8
ATOM      8  C   UNL     1      -5.858  93.618 -16.503  1.00  0.00     0.073 C 
ATOM      9  O   UNL     1      -7.014  93.134 -16.636  1.00  0.00    -0.547 OA
ATOM     10  O   UNL     1      -5.707  94.854 -15.887  1.00  0.00    -0.547 OA
ENDBRANCH   3   8
BRANCH   4  11
ATOM     11  O   UNL     1      -3.821  91.068 -18.343  1.00  0.00    -0.387 OA
ATOM     12  H   UNL     1      -3.003  91.484 -17.963  1.00  0.00     0.211 HD
ENDBRANCH   4  11
BRANCH   6  13
ATOM     13  O   UNL     1      -5.132  89.147 -16.880  1.00  0.00    -0.387 OA
ATOM     14  H   UNL     1      -6.052  89.014 -17.227  1.00  0.00     0.211 HD
ENDBRANCH   6  13
BRANCH   7  15
ATOM     15  O   UNL     1      -4.026  89.740 -14.293  1.00  0.00    -0.384 OA
ATOM     16  H   UNL     1      -3.300  89.063 -14.336  1.00  0.00     0.211 HD
ENDBRANCH   7  15
ENDBRANCH   1   2
BRANCH   1  17
ATOM     17  C   UNL     1      -4.831  92.647 -12.730  1.00  0.00     0.172 A 
ATOM     18  C   UNL     1      -4.932  93.906 -12.094  1.00  0.00     0.201 A 
ATOM     19  C   UNL     1      -4.740  91.496 -11.949  1.00  0.00     0.098 A 
ATOM     20  C   UNL     1      -4.948  93.992 -10.685  1.00  0.00     0.176 A 
ATOM     21  C   UNL     1      -4.710  91.564 -10.559  1.00  0.00     0.146 A 
ATOM     22  C   UNL     1      -4.785  92.815  -9.899  1.00  0.00     0.111 A 
ATOM     23  O   UNL     1      -4.600  90.433  -9.870  1.00  0.00    -0.456 OA
ATOM     24  C   UNL     1      -4.661  92.799  -8.488  1.00  0.00     0.197 A 
ATOM     25  C   UNL     1      -4.524  90.387  -8.544  1.00  0.00     0.138 A 
ATOM     26  C   UNL     1      -4.553  91.582  -7.814  1.00  0.00     0.100 A 
ATOM     27  O   UNL     1      -4.614  93.859  -7.811  1.00  0.00    -0.289 OA
BRANCH  18  28
ATOM     28  O   UNL     1      -5.038  95.073 -12.853  1.00  0.00    -0.502 OA
ATOM     29  H   UNL     1      -5.852  95.295 -13.412  1.00  0.00     0.293 HD
ENDBRANCH  18  28
BRANCH  20  30
ATOM     30  O   UNL     1      -5.158  95.256 -10.124  1.00  0.00    -0.504 OA
ATOM     31  H   UNL     1      -4.459  95.787  -9.625  1.00  0.00     0.293 HD
ENDBRANCH  20  30
BRANCH  25  32
ATOM     32  C   UNL     1      -4.416  89.062  -7.881  1.00  0.00     0.017 A 
ATOM     33  C   UNL     1      -5.092  87.927  -8.375  1.00  0.00     0.012 A 
ATOM     34  C   UNL     1      -3.646  88.936  -6.711  1.00  0.00     0.012 A 
ATOM     35  C   UNL     1      -4.978  86.697  -7.722  1.00  0.00     0.001 A 
ATOM     36  C   UNL     1      -3.536  87.702  -6.063  1.00  0.00     0.001 A 
ATOM     37  C   UNL     1      -4.198  86.583  -6.570  1.00  0.00     0.000 A 
ENDBRANCH  25  32
ENDBRANCH   1  17
TORSDOF 9
ENDMDL
MODEL 9
REMARK VINA RESULT:    -5.508      2.077      3.496
REMARK INTER + INTRA:          -8.985
REMARK INTER:                  -7.733
REMARK INTRA:                  -1.251
REMARK UNBOUND:                -1.383
REMARK SMILES O=C([O-])[C@H]1O[C@@H](Oc2cc3oc(-c4ccccc4)cc(=O)c3c(O)c2O)[C@@H](O)[C@H](O)[C@@H]1O
REMARK SMILES IDX 7 1 6 2 4 3 31 4 5 5 29 6 27 7 2 8 1 9 3 10 32 11 30 13
REMARK SMILES IDX 28 15 8 17 25 18 9 19 23 20 10 21 22 22 11 23 20 24 12 25
REMARK SMILES IDX 19 26 21 27 26 28 24 30 13 32 14 33 18 34 15 35 17 36 16 37
REMARK H PARENT 32 12 30 14 28 16 26 29 24 31
REMARK Flexibility Score: inf
ROOT
ATOM      1  O   UNL     1      -4.818  92.816 -14.105  1.00  0.00    -0.458 OA
ENDROOT
BRANCH   1   2
ATOM      2  C   UNL     1      -5.948  92.804 -14.981  1.00  0.00     0.339 C 
ATOM      3  C   UNL     1      -5.278  90.890 -16.239  1.00  0.00     0.199 C 
ATOM      4  C   UNL     1      -4.948  91.747 -17.487  1.00  0.00     0.180 C 
ATOM      5  O   UNL     1      -6.269  91.482 -15.403  1.00  0.00    -0.328 OA
ATOM      6  C   UNL     1      -4.609  93.194 -17.091  1.00  0.00     0.181 C 
ATOM      7  C   UNL     1      -5.717  93.745 -16.179  1.00  0.00     0.214 C 
BRANCH   3   8
ATOM      8  C   UNL     1      -4.078  90.426 -15.448  1.00  0.00     0.073 C 
ATOM      9  O   UNL     1      -2.907  90.756 -15.777  1.00  0.00    -0.547 OA
ATOM     10  O   UNL     1      -4.268  89.620 -14.334  1.00  0.00    -0.547 OA
ENDBRANCH   3   8
BRANCH   4  11
ATOM     11  O   UNL     1      -6.058  91.731 -18.350  1.00  0.00    -0.387 OA
ATOM     12  H   UNL     1      -5.927  90.978 -18.984  1.00  0.00     0.211 HD
ENDBRANCH   4  11
BRANCH   6  13
ATOM     13  O   UNL     1      -4.490  93.985 -18.246  1.00  0.00    -0.387 OA
ATOM     14  H   UNL     1      -4.840  93.446 -19.003  1.00  0.00     0.211 HD
ENDBRANCH   6  13
BRANCH   7  15
ATOM     15  O   UNL     1      -5.425  95.051 -15.744  1.00  0.00    -0.384 OA
ATOM     16  H   UNL     1      -6.283  95.538 -15.640  1.00  0.00     0.211 HD
ENDBRANCH   7  15
ENDBRANCH   1   2
BRANCH   1  17
ATOM     17  C   UNL     1      -4.821  92.964 -12.704  1.00  0.00     0.172 A 
ATOM     18  C   UNL     1      -4.930  94.203 -12.030  1.00  0.00     0.201 A 
ATOM     19  C   UNL     1      -4.724  91.791 -11.959  1.00  0.00     0.098 A 
ATOM     20  C   UNL     1      -4.948  94.246 -10.619  1.00  0.00     0.176 A 
ATOM     21  C   UNL     1      -4.695  91.817 -10.567  1.00  0.00     0.146 A 
ATOM     22  C   UNL     1      -4.778  93.046  -9.869  1.00  0.00     0.111 A 
ATOM     23  O   UNL     1      -4.578  90.665  -9.913  1.00  0.00    -0.456 OA
ATOM     24  C   UNL     1      -4.656  92.987  -8.459  1.00  0.00     0.197 A 
ATOM     25  C   UNL     1      -4.504  90.579  -8.589  1.00  0.00     0.138 A 
ATOM     26  C   UNL     1      -4.541  91.751  -7.822  1.00  0.00     0.100 A 
ATOM     27  O   UNL     1      -4.615  94.027  -7.750  1.00  0.00    -0.289 OA
BRANCH  18  28
ATOM     28  O   UNL     1      -5.042  95.391 -12.753  1.00  0.00    -0.502 OA
ATOM     29  H   UNL     1      -5.931  95.828 -12.962  1.00  0.00     0.293 HD
ENDBRANCH  18  28
BRANCH  20  30
ATOM     30  O   UNL     1      -5.166  95.491 -10.020  1.00  0.00    -0.504 OA
ATOM     31  H   UNL     1      -4.544  95.925  -9.355  1.00  0.00     0.293 HD
ENDBRANCH  20  30
BRANCH  25  32
ATOM     32  C   UNL     1      -4.389  89.235  -7.967  1.00  0.00     0.017 A 
ATOM     33  C   UNL     1      -3.584  89.009  -6.832  1.00  0.00     0.012 A 
ATOM     34  C   UNL     1      -5.073  88.148  -8.540  1.00  0.00     0.012 A 
ATOM     35  C   UNL     1      -3.489  87.730  -6.276  1.00  0.00     0.001 A 
ATOM     36  C   UNL     1      -4.974  86.871  -7.979  1.00  0.00     0.001 A 
ATOM     37  C   UNL     1      -4.185  86.663  -6.845  1.00  0.00     0.000 A 
ENDBRANCH  25  32
ENDBRANCH   1  17
TORSDOF 9
ENDMDL
