MODEL 1
REMARK VINA RESULT:    -5.105      0.000      0.000
REMARK INTER + INTRA:          -6.237
REMARK INTER:                  -6.299
REMARK INTRA:                   0.062
REMARK UNBOUND:                 0.062
REMARK SMILES Oc1cc(O)c2cc(O)c(-c3cc(O)c(O)c(O)c3)[o+]c2c1
REMARK SMILES IDX 10 1 20 2 21 3 22 4 2 5 3 6 4 7 6 8 7 9 8 10 11 11 12 12
REMARK SMILES IDX 13 13 19 14 15 15 17 16 14 17 16 19 18 21 9 23 1 25 5 27
REMARK H PARENT 14 18 16 20 18 22 9 24 1 26 5 28
REMARK Flexibility Score: inf
ROOT
ATOM      1  C   UNL     1     -44.065  28.402  -3.291  1.00  0.00     0.402 A 
ATOM      2  O   UNL     1     -44.765  27.757  -2.362  1.00  0.00    -0.202 OA
ATOM      3  C   UNL     1     -44.619  27.973  -1.059  1.00  0.00     0.368 A 
ATOM      4  C   UNL     1     -45.399  27.242  -0.158  1.00  0.00     0.162 A 
ATOM      5  C   UNL     1     -45.264  27.445   1.218  1.00  0.00     0.128 A 
ATOM      6  C   UNL     1     -44.345  28.383   1.696  1.00  0.00     0.093 A 
ATOM      7  C   UNL     1     -43.551  29.127   0.814  1.00  0.00     0.136 A 
ATOM      8  C   UNL     1     -43.686  28.926  -0.584  1.00  0.00     0.125 A 
ATOM      9  C   UNL     1     -42.944  29.636  -1.542  1.00  0.00     0.078 A 
ATOM     10  C   UNL     1     -43.135  29.386  -2.904  1.00  0.00     0.223 A 
ENDROOT
BRANCH   1  11
ATOM     11  C   UNL     1     -44.310  28.067  -4.712  1.00  0.00     0.091 A 
ATOM     12  C   UNL     1     -43.223  27.956  -5.593  1.00  0.00     0.068 A 
ATOM     13  C   UNL     1     -43.426  27.661  -6.945  1.00  0.00     0.162 A 
ATOM     14  C   UNL     1     -45.614  27.913  -5.213  1.00  0.00     0.068 A 
ATOM     15  C   UNL     1     -44.731  27.486  -7.437  1.00  0.00     0.200 A 
ATOM     16  C   UNL     1     -45.827  27.618  -6.567  1.00  0.00     0.162 A 
BRANCH  13  17
ATOM     17  O   UNL     1     -42.318  27.545  -7.784  1.00  0.00    -0.504 OA
ATOM     18  H   UNL     1     -42.359  27.045  -8.664  1.00  0.00     0.293 HD
ENDBRANCH  13  17
BRANCH  15  19
ATOM     19  O   UNL     1     -44.924  27.189  -8.786  1.00  0.00    -0.502 OA
ATOM     20  H   UNL     1     -44.353  26.510  -9.277  1.00  0.00     0.293 HD
ENDBRANCH  15  19
BRANCH  16  21
ATOM     21  O   UNL     1     -47.125  27.460  -7.052  1.00  0.00    -0.504 OA
ATOM     22  H   UNL     1     -47.475  26.556  -7.349  1.00  0.00     0.293 HD
ENDBRANCH  16  21
ENDBRANCH   1  11
BRANCH  10  23
ATOM     23  O   UNL     1     -42.434  30.125  -3.857  1.00  0.00    -0.500 OA
ATOM     24  H   UNL     1     -42.326  29.797  -4.810  1.00  0.00     0.294 HD
ENDBRANCH  10  23
BRANCH   5  25
ATOM     25  O   UNL     1     -46.039  26.721   2.122  1.00  0.00    -0.507 OA
ATOM     26  H   UNL     1     -45.966  25.713   2.193  1.00  0.00     0.293 HD
ENDBRANCH   5  25
BRANCH   7  27
ATOM     27  O   UNL     1     -42.655  30.043   1.372  1.00  0.00    -0.507 OA
ATOM     28  H   UNL     1     -42.854  31.022   1.512  1.00  0.00     0.293 HD
ENDBRANCH   7  27
TORSDOF 7
ENDMDL
MODEL 2
REMARK VINA RESULT:    -4.908      1.101      3.061
REMARK INTER + INTRA:          -5.993
REMARK INTER:                  -6.269
REMARK INTRA:                   0.276
REMARK UNBOUND:                 0.062
REMARK SMILES Oc1cc(O)c2cc(O)c(-c3cc(O)c(O)c(O)c3)[o+]c2c1
REMARK SMILES IDX 10 1 20 2 21 3 22 4 2 5 3 6 4 7 6 8 7 9 8 10 11 11 12 12
REMARK SMILES IDX 13 13 19 14 15 15 17 16 14 17 16 19 18 21 9 23 1 25 5 27
REMARK H PARENT 14 18 16 20 18 22 9 24 1 26 5 28
REMARK Flexibility Score: inf
ROOT
ATOM      1  C   UNL     1     -44.879  27.879  -2.955  1.00  0.00     0.402 A 
ATOM      2  O   UNL     1     -43.830  28.336  -2.276  1.00  0.00    -0.202 OA
ATOM      3  C   UNL     1     -43.800  28.415  -0.950  1.00  0.00     0.368 A 
ATOM      4  C   UNL     1     -42.652  28.913  -0.325  1.00  0.00     0.162 A 
ATOM      5  C   UNL     1     -42.594  29.011   1.068  1.00  0.00     0.128 A 
ATOM      6  C   UNL     1     -43.687  28.610   1.840  1.00  0.00     0.093 A 
ATOM      7  C   UNL     1     -44.848  28.110   1.239  1.00  0.00     0.136 A 
ATOM      8  C   UNL     1     -44.912  28.006  -0.175  1.00  0.00     0.125 A 
ATOM      9  C   UNL     1     -46.028  27.503  -0.863  1.00  0.00     0.078 A 
ATOM     10  C   UNL     1     -46.016  27.427  -2.259  1.00  0.00     0.223 A 
ENDROOT
BRANCH   1  11
ATOM     11  C   UNL     1     -44.797  27.848  -4.433  1.00  0.00     0.091 A 
ATOM     12  C   UNL     1     -45.977  27.907  -5.191  1.00  0.00     0.068 A 
ATOM     13  C   UNL     1     -45.931  27.859  -6.588  1.00  0.00     0.162 A 
ATOM     14  C   UNL     1     -43.566  27.704  -5.095  1.00  0.00     0.068 A 
ATOM     15  C   UNL     1     -44.696  27.736  -7.246  1.00  0.00     0.200 A 
ATOM     16  C   UNL     1     -43.511  27.654  -6.495  1.00  0.00     0.162 A 
BRANCH  13  17
ATOM     17  O   UNL     1     -47.125  27.935  -7.305  1.00  0.00    -0.504 OA
ATOM     18  H   UNL     1     -47.595  28.816  -7.477  1.00  0.00     0.293 HD
ENDBRANCH  13  17
BRANCH  15  19
ATOM     19  O   UNL     1     -44.659  27.692  -8.641  1.00  0.00    -0.502 OA
ATOM     20  H   UNL     1     -43.922  28.136  -9.176  1.00  0.00     0.293 HD
ENDBRANCH  15  19
BRANCH  16  21
ATOM     21  O   UNL     1     -42.283  27.517  -7.141  1.00  0.00    -0.504 OA
ATOM     22  H   UNL     1     -41.913  28.247  -7.740  1.00  0.00     0.293 HD
ENDBRANCH  16  21
ENDBRANCH   1  11
BRANCH  10  23
ATOM     23  O   UNL     1     -47.104  26.882  -2.940  1.00  0.00    -0.500 OA
ATOM     24  H   UNL     1     -48.040  27.256  -2.835  1.00  0.00     0.294 HD
ENDBRANCH  10  23
BRANCH   5  25
ATOM     25  O   UNL     1     -41.452  29.505   1.697  1.00  0.00    -0.507 OA
ATOM     26  H   UNL     1     -41.476  29.828   2.658  1.00  0.00     0.293 HD
ENDBRANCH   5  25
BRANCH   7  27
ATOM     27  O   UNL     1     -45.898  27.734   2.081  1.00  0.00    -0.507 OA
ATOM     28  H   UNL     1     -45.866  27.787   3.089  1.00  0.00     0.293 HD
ENDBRANCH   7  27
TORSDOF 7
ENDMDL
MODEL 3
REMARK VINA RESULT:    -4.661      1.583      6.989
REMARK INTER + INTRA:          -5.688
REMARK INTER:                  -5.310
REMARK INTRA:                  -0.379
REMARK UNBOUND:                 0.062
REMARK SMILES Oc1cc(O)c2cc(O)c(-c3cc(O)c(O)c(O)c3)[o+]c2c1
REMARK SMILES IDX 10 1 20 2 21 3 22 4 2 5 3 6 4 7 6 8 7 9 8 10 11 11 12 12
REMARK SMILES IDX 13 13 19 14 15 15 17 16 14 17 16 19 18 21 9 23 1 25 5 27
REMARK H PARENT 14 18 16 20 18 22 9 24 1 26 5 28
REMARK Flexibility Score: inf
ROOT
ATOM      1  C   UNL     1     -44.122  28.589  -3.209  1.00  0.00     0.402 A 
ATOM      2  O   UNL     1     -44.714  27.881  -4.167  1.00  0.00    -0.202 OA
ATOM      3  C   UNL     1     -44.348  27.933  -5.444  1.00  0.00     0.368 A 
ATOM      4  C   UNL     1     -45.035  27.154  -6.380  1.00  0.00     0.162 A 
ATOM      5  C   UNL     1     -44.674  27.192  -7.729  1.00  0.00     0.128 A 
ATOM      6  C   UNL     1     -43.623  28.012  -8.145  1.00  0.00     0.093 A 
ATOM      7  C   UNL     1     -42.920  28.803  -7.228  1.00  0.00     0.136 A 
ATOM      8  C   UNL     1     -43.281  28.767  -5.856  1.00  0.00     0.125 A 
ATOM      9  C   UNL     1     -42.624  29.513  -4.865  1.00  0.00     0.078 A 
ATOM     10  C   UNL     1     -43.034  29.422  -3.531  1.00  0.00     0.223 A 
ENDROOT
BRANCH   1  11
ATOM     11  C   UNL     1     -44.627  28.452  -1.824  1.00  0.00     0.091 A 
ATOM     12  C   UNL     1     -45.632  29.319  -1.368  1.00  0.00     0.068 A 
ATOM     13  C   UNL     1     -46.114  29.228  -0.058  1.00  0.00     0.162 A 
ATOM     14  C   UNL     1     -44.081  27.510  -0.935  1.00  0.00     0.068 A 
ATOM     15  C   UNL     1     -45.580  28.269   0.821  1.00  0.00     0.200 A 
ATOM     16  C   UNL     1     -44.557  27.412   0.380  1.00  0.00     0.162 A 
BRANCH  13  17
ATOM     17  O   UNL     1     -47.124  30.097   0.352  1.00  0.00    -0.504 OA
ATOM     18  H   UNL     1     -47.973  29.767   0.793  1.00  0.00     0.293 HD
ENDBRANCH  13  17
BRANCH  15  19
ATOM     19  O   UNL     1     -46.069  28.183   2.125  1.00  0.00    -0.502 OA
ATOM     20  H   UNL     1     -46.266  27.294   2.570  1.00  0.00     0.293 HD
ENDBRANCH  15  19
BRANCH  16  21
ATOM     21  O   UNL     1     -44.013  26.469   1.251  1.00  0.00    -0.504 OA
ATOM     22  H   UNL     1     -43.060  26.140   1.149  1.00  0.00     0.293 HD
ENDBRANCH  16  21
ENDBRANCH   1  11
BRANCH  10  23
ATOM     23  O   UNL     1     -42.351  30.125  -2.539  1.00  0.00    -0.500 OA
ATOM     24  H   UNL     1     -42.622  31.064  -2.270  1.00  0.00     0.294 HD
ENDBRANCH  10  23
BRANCH   5  25
ATOM     25  O   UNL     1     -45.353  26.417  -8.668  1.00  0.00    -0.507 OA
ATOM     26  H   UNL     1     -46.357  26.284  -8.618  1.00  0.00     0.293 HD
ENDBRANCH   5  25
BRANCH   7  27
ATOM     27  O   UNL     1     -41.884  29.598  -7.726  1.00  0.00    -0.507 OA
ATOM     28  H   UNL     1     -41.517  30.414  -7.257  1.00  0.00     0.293 HD
ENDBRANCH   7  27
TORSDOF 7
ENDMDL
MODEL 4
REMARK VINA RESULT:    -4.467      1.554      6.853
REMARK INTER + INTRA:          -5.449
REMARK INTER:                  -5.071
REMARK INTRA:                  -0.378
REMARK UNBOUND:                 0.062
REMARK SMILES Oc1cc(O)c2cc(O)c(-c3cc(O)c(O)c(O)c3)[o+]c2c1
REMARK SMILES IDX 10 1 20 2 21 3 22 4 2 5 3 6 4 7 6 8 7 9 8 10 11 11 12 12
REMARK SMILES IDX 13 13 19 14 15 15 17 16 14 17 16 19 18 21 9 23 1 25 5 27
REMARK H PARENT 14 18 16 20 18 22 9 24 1 26 5 28
REMARK Flexibility Score: inf
ROOT
ATOM      1  C   UNL     1     -44.158  28.670  -3.237  1.00  0.00     0.402 A 
ATOM      2  O   UNL     1     -44.804  27.986  -4.177  1.00  0.00    -0.202 OA
ATOM      3  C   UNL     1     -44.464  28.014  -5.462  1.00  0.00     0.368 A 
ATOM      4  C   UNL     1     -45.207  27.264  -6.378  1.00  0.00     0.162 A 
ATOM      5  C   UNL     1     -44.874  27.278  -7.735  1.00  0.00     0.128 A 
ATOM      6  C   UNL     1     -43.795  28.045  -8.179  1.00  0.00     0.093 A 
ATOM      7  C   UNL     1     -43.036  28.807  -7.282  1.00  0.00     0.136 A 
ATOM      8  C   UNL     1     -43.368  28.795  -5.902  1.00  0.00     0.125 A 
ATOM      9  C   UNL     1     -42.655  29.514  -4.930  1.00  0.00     0.078 A 
ATOM     10  C   UNL     1     -43.039  29.450  -3.588  1.00  0.00     0.223 A 
ENDROOT
BRANCH   1  11
ATOM     11  C   UNL     1     -44.638  28.565  -1.840  1.00  0.00     0.091 A 
ATOM     12  C   UNL     1     -44.103  27.575  -1.000  1.00  0.00     0.068 A 
ATOM     13  C   UNL     1     -44.553  27.439   0.318  1.00  0.00     0.162 A 
ATOM     14  C   UNL     1     -45.658  29.398  -1.352  1.00  0.00     0.068 A 
ATOM     15  C   UNL     1     -45.559  28.289   0.808  1.00  0.00     0.200 A 
ATOM     16  C   UNL     1     -46.115  29.268  -0.033  1.00  0.00     0.162 A 
BRANCH  13  17
ATOM     17  O   UNL     1     -43.986  26.453   1.125  1.00  0.00    -0.504 OA
ATOM     18  H   UNL     1     -43.571  25.613   0.739  1.00  0.00     0.293 HD
ENDBRANCH  13  17
BRANCH  15  19
ATOM     19  O   UNL     1     -45.998  28.148   2.125  1.00  0.00    -0.502 OA
ATOM     20  H   UNL     1     -46.387  28.923   2.651  1.00  0.00     0.293 HD
ENDBRANCH  15  19
BRANCH  16  21
ATOM     21  O   UNL     1     -47.124  30.104   0.443  1.00  0.00    -0.504 OA
ATOM     22  H   UNL     1     -46.999  31.109   0.500  1.00  0.00     0.293 HD
ENDBRANCH  16  21
ENDBRANCH   1  11
BRANCH  10  23
ATOM     23  O   UNL     1     -42.302  30.125  -2.614  1.00  0.00    -0.500 OA
ATOM     24  H   UNL     1     -41.712  30.915  -2.847  1.00  0.00     0.294 HD
ENDBRANCH  10  23
BRANCH   5  25
ATOM     25  O   UNL     1     -45.610  26.531  -8.654  1.00  0.00    -0.507 OA
ATOM     26  H   UNL     1     -45.654  26.791  -9.633  1.00  0.00     0.293 HD
ENDBRANCH   5  25
BRANCH   7  27
ATOM     27  O   UNL     1     -41.975  29.550  -7.807  1.00  0.00    -0.507 OA
ATOM     28  H   UNL     1     -41.437  29.281  -8.618  1.00  0.00     0.293 HD
ENDBRANCH   7  27
TORSDOF 7
ENDMDL
MODEL 5
REMARK VINA RESULT:    -4.463      1.114      2.522
REMARK INTER + INTRA:          -5.444
REMARK INTER:                  -5.556
REMARK INTRA:                   0.112
REMARK UNBOUND:                 0.062
REMARK SMILES Oc1cc(O)c2cc(O)c(-c3cc(O)c(O)c(O)c3)[o+]c2c1
REMARK SMILES IDX 10 1 20 2 21 3 22 4 2 5 3 6 4 7 6 8 7 9 8 10 11 11 12 12
REMARK SMILES IDX 13 13 19 14 15 15 17 16 14 17 16 19 18 21 9 23 1 25 5 27
REMARK H PARENT 14 18 16 20 18 22 9 24 1 26 5 28
REMARK Flexibility Score: inf
ROOT
ATOM      1  C   UNL     1     -44.934  27.952  -2.935  1.00  0.00     0.402 A 
ATOM      2  O   UNL     1     -43.885  28.449  -2.286  1.00  0.00    -0.202 OA
ATOM      3  C   UNL     1     -43.827  28.546  -0.962  1.00  0.00     0.368 A 
ATOM      4  C   UNL     1     -42.681  29.086  -0.369  1.00  0.00     0.162 A 
ATOM      5  C   UNL     1     -42.594  29.203   1.021  1.00  0.00     0.128 A 
ATOM      6  C   UNL     1     -43.656  28.777   1.822  1.00  0.00     0.093 A 
ATOM      7  C   UNL     1     -44.814  28.233   1.254  1.00  0.00     0.136 A 
ATOM      8  C   UNL     1     -44.907  28.110  -0.157  1.00  0.00     0.125 A 
ATOM      9  C   UNL     1     -46.022  27.564  -0.813  1.00  0.00     0.078 A 
ATOM     10  C   UNL     1     -46.039  27.472  -2.208  1.00  0.00     0.223 A 
ENDROOT
BRANCH   1  11
ATOM     11  C   UNL     1     -44.885  27.906  -4.414  1.00  0.00     0.091 A 
ATOM     12  C   UNL     1     -43.649  27.733  -5.058  1.00  0.00     0.068 A 
ATOM     13  C   UNL     1     -43.569  27.707  -6.455  1.00  0.00     0.162 A 
ATOM     14  C   UNL     1     -46.041  28.089  -5.192  1.00  0.00     0.068 A 
ATOM     15  C   UNL     1     -44.732  27.869  -7.227  1.00  0.00     0.200 A 
ATOM     16  C   UNL     1     -45.970  28.065  -6.591  1.00  0.00     0.162 A 
BRANCH  13  17
ATOM     17  O   UNL     1     -42.325  27.518  -7.055  1.00  0.00    -0.504 OA
ATOM     18  H   UNL     1     -41.610  26.933  -6.640  1.00  0.00     0.293 HD
ENDBRANCH  13  17
BRANCH  15  19
ATOM     19  O   UNL     1     -44.644  27.837  -8.619  1.00  0.00    -0.502 OA
ATOM     20  H   UNL     1     -43.871  27.394  -9.102  1.00  0.00     0.293 HD
ENDBRANCH  15  19
BRANCH  16  21
ATOM     21  O   UNL     1     -47.125  28.241  -7.353  1.00  0.00    -0.504 OA
ATOM     22  H   UNL     1     -47.095  28.670  -8.271  1.00  0.00     0.293 HD
ENDBRANCH  16  21
ENDBRANCH   1  11
BRANCH  10  23
ATOM     23  O   UNL     1     -47.125  26.884  -2.858  1.00  0.00    -0.500 OA
ATOM     24  H   UNL     1     -48.012  26.742  -2.389  1.00  0.00     0.294 HD
ENDBRANCH  10  23
BRANCH   5  25
ATOM     25  O   UNL     1     -41.455  29.740   1.618  1.00  0.00    -0.507 OA
ATOM     26  H   UNL     1     -40.700  29.149   1.946  1.00  0.00     0.293 HD
ENDBRANCH   5  25
BRANCH   7  27
ATOM     27  O   UNL     1     -45.832  27.834   2.125  1.00  0.00    -0.507 OA
ATOM     28  H   UNL     1     -46.794  27.696   1.852  1.00  0.00     0.293 HD
ENDBRANCH   7  27
TORSDOF 7
ENDMDL
MODEL 6
REMARK VINA RESULT:    -4.368      1.524      7.273
REMARK INTER + INTRA:          -5.327
REMARK INTER:                  -5.600
REMARK INTRA:                   0.273
REMARK UNBOUND:                 0.062
REMARK SMILES Oc1cc(O)c2cc(O)c(-c3cc(O)c(O)c(O)c3)[o+]c2c1
REMARK SMILES IDX 10 1 20 2 21 3 22 4 2 5 3 6 4 7 6 8 7 9 8 10 11 11 12 12
REMARK SMILES IDX 13 13 19 14 15 15 17 16 14 17 16 19 18 21 9 23 1 25 5 27
REMARK H PARENT 14 18 16 20 18 22 9 24 1 26 5 28
REMARK Flexibility Score: inf
ROOT
ATOM      1  C   UNL     1     -44.805  28.527  -3.397  1.00  0.00     0.402 A 
ATOM      2  O   UNL     1     -43.865  28.968  -4.229  1.00  0.00    -0.202 OA
ATOM      3  C   UNL     1     -44.044  29.069  -5.542  1.00  0.00     0.368 A 
ATOM      4  C   UNL     1     -42.994  29.541  -6.336  1.00  0.00     0.162 A 
ATOM      5  C   UNL     1     -43.153  29.654  -7.720  1.00  0.00     0.128 A 
ATOM      6  C   UNL     1     -44.365  29.293  -8.313  1.00  0.00     0.093 A 
ATOM      7  C   UNL     1     -45.431  28.816  -7.540  1.00  0.00     0.136 A 
ATOM      8  C   UNL     1     -45.276  28.702  -6.134  1.00  0.00     0.125 A 
ATOM      9  C   UNL     1     -46.293  28.248  -5.279  1.00  0.00     0.078 A 
ATOM     10  C   UNL     1     -46.069  28.167  -3.902  1.00  0.00     0.223 A 
ENDROOT
BRANCH   1  11
ATOM     11  C   UNL     1     -44.483  28.451  -1.954  1.00  0.00     0.091 A 
ATOM     12  C   UNL     1     -43.380  29.162  -1.455  1.00  0.00     0.068 A 
ATOM     13  C   UNL     1     -43.040  29.092  -0.099  1.00  0.00     0.162 A 
ATOM     14  C   UNL     1     -45.224  27.636  -1.080  1.00  0.00     0.068 A 
ATOM     15  C   UNL     1     -43.797  28.293   0.774  1.00  0.00     0.200 A 
ATOM     16  C   UNL     1     -44.889  27.560   0.279  1.00  0.00     0.162 A 
BRANCH  13  17
ATOM     17  O   UNL     1     -41.946  29.825   0.360  1.00  0.00    -0.504 OA
ATOM     18  H   UNL     1     -41.063  29.387   0.591  1.00  0.00     0.293 HD
ENDBRANCH  13  17
BRANCH  15  19
ATOM     19  O   UNL     1     -43.452  28.232   2.125  1.00  0.00    -0.502 OA
ATOM     20  H   UNL     1     -42.541  28.519   2.464  1.00  0.00     0.293 HD
ENDBRANCH  15  19
BRANCH  16  21
ATOM     21  O   UNL     1     -45.635  26.754   1.138  1.00  0.00    -0.504 OA
ATOM     22  H   UNL     1     -46.501  26.319   0.840  1.00  0.00     0.293 HD
ENDBRANCH  16  21
ENDBRANCH   1  11
BRANCH  10  23
ATOM     23  O   UNL     1     -47.094  27.763  -3.047  1.00  0.00    -0.500 OA
ATOM     24  H   UNL     1     -47.473  28.384  -2.341  1.00  0.00     0.294 HD
ENDBRANCH  10  23
BRANCH   5  25
ATOM     25  O   UNL     1     -42.111  30.125  -8.518  1.00  0.00    -0.507 OA
ATOM     26  H   UNL     1     -41.444  30.805  -8.170  1.00  0.00     0.293 HD
ENDBRANCH   5  25
BRANCH   7  27
ATOM     27  O   UNL     1     -46.608  28.473  -8.210  1.00  0.00    -0.507 OA
ATOM     28  H   UNL     1     -47.475  28.231  -7.752  1.00  0.00     0.293 HD
ENDBRANCH   7  27
TORSDOF 7
ENDMDL
MODEL 7
REMARK VINA RESULT:    -4.183      1.573      7.443
REMARK INTER + INTRA:          -5.098
REMARK INTER:                  -5.503
REMARK INTRA:                   0.405
REMARK UNBOUND:                 0.062
REMARK SMILES Oc1cc(O)c2cc(O)c(-c3cc(O)c(O)c(O)c3)[o+]c2c1
REMARK SMILES IDX 10 1 20 2 21 3 22 4 2 5 3 6 4 7 6 8 7 9 8 10 11 11 12 12
REMARK SMILES IDX 13 13 19 14 15 15 17 16 14 17 16 19 18 21 9 23 1 25 5 27
REMARK H PARENT 14 18 16 20 18 22 9 24 1 26 5 28
REMARK Flexibility Score: inf
ROOT
ATOM      1  C   UNL     1     -44.791  28.466  -3.449  1.00  0.00     0.402 A 
ATOM      2  O   UNL     1     -43.830  28.902  -4.259  1.00  0.00    -0.202 OA
ATOM      3  C   UNL     1     -43.992  29.045  -5.570  1.00  0.00     0.368 A 
ATOM      4  C   UNL     1     -42.921  29.507  -6.341  1.00  0.00     0.162 A 
ATOM      5  C   UNL     1     -43.062  29.664  -7.722  1.00  0.00     0.128 A 
ATOM      6  C   UNL     1     -44.279  29.359  -8.337  1.00  0.00     0.093 A 
ATOM      7  C   UNL     1     -45.367  28.893  -7.588  1.00  0.00     0.136 A 
ATOM      8  C   UNL     1     -45.230  28.734  -6.184  1.00  0.00     0.125 A 
ATOM      9  C   UNL     1     -46.269  28.289  -5.352  1.00  0.00     0.078 A 
ATOM     10  C   UNL     1     -46.061  28.161  -3.976  1.00  0.00     0.223 A 
ENDROOT
BRANCH   1  11
ATOM     11  C   UNL     1     -44.487  28.339  -2.006  1.00  0.00     0.091 A 
ATOM     12  C   UNL     1     -45.360  27.617  -1.178  1.00  0.00     0.068 A 
ATOM     13  C   UNL     1     -45.108  27.497   0.193  1.00  0.00     0.162 A 
ATOM     14  C   UNL     1     -43.371  28.974  -1.434  1.00  0.00     0.068 A 
ATOM     15  C   UNL     1     -43.979  28.116   0.756  1.00  0.00     0.200 A 
ATOM     16  C   UNL     1     -43.111  28.860  -0.062  1.00  0.00     0.162 A 
BRANCH  13  17
ATOM     17  O   UNL     1     -45.992  26.758   0.979  1.00  0.00    -0.504 OA
ATOM     18  H   UNL     1     -46.674  27.200   1.584  1.00  0.00     0.293 HD
ENDBRANCH  13  17
BRANCH  15  19
ATOM     19  O   UNL     1     -43.734  27.988   2.124  1.00  0.00    -0.502 OA
ATOM     20  H   UNL     1     -44.212  27.302   2.697  1.00  0.00     0.293 HD
ENDBRANCH  15  19
BRANCH  16  21
ATOM     21  O   UNL     1     -41.998  29.489   0.494  1.00  0.00    -0.504 OA
ATOM     22  H   UNL     1     -41.175  28.965   0.771  1.00  0.00     0.293 HD
ENDBRANCH  16  21
ENDBRANCH   1  11
BRANCH  10  23
ATOM     23  O   UNL     1     -47.107  27.765  -3.142  1.00  0.00    -0.500 OA
ATOM     24  H   UNL     1     -47.739  28.439  -2.727  1.00  0.00     0.294 HD
ENDBRANCH  10  23
BRANCH   5  25
ATOM     25  O   UNL     1     -41.998  30.125  -8.497  1.00  0.00    -0.507 OA
ATOM     26  H   UNL     1     -41.247  30.672  -8.092  1.00  0.00     0.293 HD
ENDBRANCH   5  25
BRANCH   7  27
ATOM     27  O   UNL     1     -46.547  28.607  -8.278  1.00  0.00    -0.507 OA
ATOM     28  H   UNL     1     -46.774  28.967  -9.194  1.00  0.00     0.293 HD
ENDBRANCH   7  27
TORSDOF 7
ENDMDL
MODEL 8
REMARK VINA RESULT:    -2.259      1.912      2.262
REMARK INTER + INTRA:          -2.725
REMARK INTER:                  -2.365
REMARK INTRA:                  -0.360
REMARK UNBOUND:                 0.062
REMARK SMILES Oc1cc(O)c2cc(O)c(-c3cc(O)c(O)c(O)c3)[o+]c2c1
REMARK SMILES IDX 10 1 20 2 21 3 22 4 2 5 3 6 4 7 6 8 7 9 8 10 11 11 12 12
REMARK SMILES IDX 13 13 19 14 15 15 17 16 14 17 16 19 18 21 9 23 1 25 5 27
REMARK H PARENT 14 18 16 20 18 22 9 24 1 26 5 28
REMARK Flexibility Score: inf
ROOT
ATOM      1  C   UNL     1     -44.870  27.961  -3.119  1.00  0.00     0.402 A 
ATOM      2  O   UNL     1     -45.538  28.753  -2.285  1.00  0.00    -0.202 OA
ATOM      3  C   UNL     1     -45.590  28.550  -0.972  1.00  0.00     0.368 A 
ATOM      4  C   UNL     1     -46.322  29.436  -0.176  1.00  0.00     0.162 A 
ATOM      5  C   UNL     1     -46.398  29.245   1.206  1.00  0.00     0.128 A 
ATOM      6  C   UNL     1     -45.739  28.164   1.796  1.00  0.00     0.093 A 
ATOM      7  C   UNL     1     -45.000  27.261   1.021  1.00  0.00     0.136 A 
ATOM      8  C   UNL     1     -44.918  27.452  -0.383  1.00  0.00     0.125 A 
ATOM      9  C   UNL     1     -44.190  26.608  -1.237  1.00  0.00     0.078 A 
ATOM     10  C   UNL     1     -44.152  26.862  -2.611  1.00  0.00     0.223 A 
ENDROOT
BRANCH   1  11
ATOM     11  C   UNL     1     -44.895  28.286  -4.563  1.00  0.00     0.091 A 
ATOM     12  C   UNL     1     -43.844  29.031  -5.121  1.00  0.00     0.068 A 
ATOM     13  C   UNL     1     -43.851  29.371  -6.478  1.00  0.00     0.162 A 
ATOM     14  C   UNL     1     -45.976  27.912  -5.380  1.00  0.00     0.068 A 
ATOM     15  C   UNL     1     -44.924  28.976  -7.294  1.00  0.00     0.200 A 
ATOM     16  C   UNL     1     -45.991  28.248  -6.740  1.00  0.00     0.162 A 
BRANCH  13  17
ATOM     17  O   UNL     1     -42.781  30.100  -6.996  1.00  0.00    -0.504 OA
ATOM     18  H   UNL     1     -42.338  29.856  -7.874  1.00  0.00     0.293 HD
ENDBRANCH  13  17
BRANCH  15  19
ATOM     19  O   UNL     1     -44.921  29.316  -8.648  1.00  0.00    -0.502 OA
ATOM     20  H   UNL     1     -45.309  28.707  -9.359  1.00  0.00     0.293 HD
ENDBRANCH  15  19
BRANCH  16  21
ATOM     21  O   UNL     1     -47.066  27.867  -7.542  1.00  0.00    -0.504 OA
ATOM     22  H   UNL     1     -47.271  28.340  -8.415  1.00  0.00     0.293 HD
ENDBRANCH  16  21
ENDBRANCH   1  11
BRANCH  10  23
ATOM     23  O   UNL     1     -43.389  26.053  -3.452  1.00  0.00    -0.500 OA
ATOM     24  H   UNL     1     -42.466  25.730  -3.187  1.00  0.00     0.294 HD
ENDBRANCH  10  23
BRANCH   5  25
ATOM     25  O   UNL     1     -47.125  30.125   2.006  1.00  0.00    -0.507 OA
ATOM     26  H   UNL     1     -48.070  30.401   1.765  1.00  0.00     0.293 HD
ENDBRANCH   5  25
BRANCH   7  27
ATOM     27  O   UNL     1     -44.373  26.204   1.686  1.00  0.00    -0.507 OA
ATOM     28  H   UNL     1     -43.506  25.779   1.392  1.00  0.00     0.293 HD
ENDBRANCH   7  27
TORSDOF 7
ENDMDL
