MODEL 1
REMARK VINA RESULT:    -6.009      0.000      0.000
REMARK INTER + INTRA:          -9.935
REMARK INTER:                  -8.819
REMARK INTRA:                  -1.116
REMARK UNBOUND:                -1.116
REMARK SMILES O=c1c(O[C@H]2O[C@@H](CO)[C@H](O)[C@@H](O)[C@@H]2O)c(-c2ccc(O)c(O)c2)oc2cc(O)cc(O)c12
REMARK SMILES IDX 4 1 3 2 16 3 25 4 2 5 26 6 1 7 33 8 27 9 31 10 28 11 30 12
REMARK SMILES IDX 17 13 18 14 19 15 20 16 24 17 22 18 21 19 23 21 32 23 29 25
REMARK SMILES IDX 5 27 14 28 6 29 12 30 7 31 10 32 15 33 13 35 8 37 9 38 11 40
REMARK H PARENT 21 20 23 22 32 24 29 26 15 34 13 36 9 39 11 41
REMARK Flexibility Score: inf
ROOT
ATOM      1  O   UNL     1       6.424  -4.828   5.987  1.00  0.00    -0.454 OA
ENDROOT
BRANCH   1   2
ATOM      2  C   UNL     1       5.287  -5.529   5.556  1.00  0.00     0.214 A 
ATOM      3  C   UNL     1       3.975  -5.088   5.830  1.00  0.00     0.180 A 
ATOM      4  O   UNL     1       2.945  -5.881   5.541  1.00  0.00    -0.452 OA
ATOM      5  C   UNL     1       5.460  -6.722   4.843  1.00  0.00     0.239 A 
ATOM      6  C   UNL     1       3.070  -7.048   4.924  1.00  0.00     0.146 A 
ATOM      7  O   UNL     1       6.631  -7.095   4.550  1.00  0.00    -0.285 OA
ATOM      8  C   UNL     1       4.338  -7.502   4.500  1.00  0.00     0.111 A 
ATOM      9  C   UNL     1       1.929  -7.817   4.676  1.00  0.00     0.094 A 
ATOM     10  C   UNL     1       4.429  -8.718   3.780  1.00  0.00     0.134 A 
ATOM     11  C   UNL     1       2.029  -9.036   3.999  1.00  0.00     0.123 A 
ATOM     12  C   UNL     1       3.272  -9.472   3.533  1.00  0.00     0.093 A 
BRANCH   3  13
ATOM     13  C   UNL     1       3.684  -3.749   6.387  1.00  0.00     0.025 A 
ATOM     14  C   UNL     1       2.972  -3.626   7.590  1.00  0.00     0.016 A 
ATOM     15  C   UNL     1       2.623  -2.362   8.078  1.00  0.00     0.051 A 
ATOM     16  C   UNL     1       2.968  -1.209   7.367  1.00  0.00     0.157 A 
ATOM     17  C   UNL     1       4.024  -2.588   5.671  1.00  0.00     0.062 A 
ATOM     18  C   UNL     1       3.670  -1.322   6.156  1.00  0.00     0.158 A 
BRANCH  16  19
ATOM     19  O   UNL     1       2.593   0.039   7.869  1.00  0.00    -0.504 OA
ATOM     20  H   UNL     1       3.256   0.653   8.330  1.00  0.00     0.293 HD
ENDBRANCH  16  19
BRANCH  18  21
ATOM     21  O   UNL     1       3.993  -0.177   5.424  1.00  0.00    -0.504 OA
ATOM     22  H   UNL     1       3.285   0.337   4.906  1.00  0.00     0.293 HD
ENDBRANCH  18  21
ENDBRANCH   3  13
BRANCH  10  23
ATOM     23  O   UNL     1       5.660  -9.180   3.314  1.00  0.00    -0.507 OA
ATOM     24  H   UNL     1       6.415  -9.415   3.950  1.00  0.00     0.293 HD
ENDBRANCH  10  23
BRANCH  11  25
ATOM     25  O   UNL     1       0.900  -9.824   3.785  1.00  0.00    -0.508 OA
ATOM     26  H   UNL     1      -0.028  -9.500   4.038  1.00  0.00     0.293 HD
ENDBRANCH  11  25
ENDBRANCH   1   2
BRANCH   1  27
ATOM     27  C   UNL     1       7.113  -3.838   5.209  1.00  0.00     0.339 C 
ATOM     28  C   UNL     1       8.522  -4.331   4.741  1.00  0.00     0.214 C 
ATOM     29  O   UNL     1       7.165  -2.614   5.925  1.00  0.00    -0.332 OA
ATOM     30  C   UNL     1       9.661  -3.523   5.421  1.00  0.00     0.180 C 
ATOM     31  C   UNL     1       7.913  -1.658   5.199  1.00  0.00     0.179 C 
ATOM     32  C   UNL     1       9.422  -1.991   5.307  1.00  0.00     0.177 C 
BRANCH  28  33
ATOM     33  O   UNL     1       8.614  -4.194   3.345  1.00  0.00    -0.384 OA
ATOM     34  H   UNL     1       7.727  -3.882   3.019  1.00  0.00     0.211 HD
ENDBRANCH  28  33
BRANCH  30  35
ATOM     35  O   UNL     1       9.767  -3.868   6.782  1.00  0.00    -0.387 OA
ATOM     36  H   UNL     1       9.129  -4.612   6.951  1.00  0.00     0.211 HD
ENDBRANCH  30  35
BRANCH  31  37
ATOM     37  C   UNL     1       7.591  -0.251   5.718  1.00  0.00     0.191 C 
BRANCH  37  38
ATOM     38  O   UNL     1       6.809   0.460   4.793  1.00  0.00    -0.394 OA
ATOM     39  H   UNL     1       6.771  -0.080   3.963  1.00  0.00     0.210 HD
ENDBRANCH  37  38
ENDBRANCH  31  37
BRANCH  32  40
ATOM     40  O   UNL     1      10.125  -1.433   4.221  1.00  0.00    -0.387 OA
ATOM     41  H   UNL     1       9.535  -0.771   3.781  1.00  0.00     0.211 HD
ENDBRANCH  32  40
ENDBRANCH   1  27
TORSDOF 12
ENDMDL
MODEL 2
REMARK VINA RESULT:    -5.867      3.148      6.423
REMARK INTER + INTRA:          -9.727
REMARK INTER:                  -8.703
REMARK INTRA:                  -1.024
REMARK UNBOUND:                -1.116
REMARK SMILES O=c1c(O[C@H]2O[C@@H](CO)[C@H](O)[C@@H](O)[C@@H]2O)c(-c2ccc(O)c(O)c2)oc2cc(O)cc(O)c12
REMARK SMILES IDX 4 1 3 2 16 3 25 4 2 5 26 6 1 7 33 8 27 9 31 10 28 11 30 12
REMARK SMILES IDX 17 13 18 14 19 15 20 16 24 17 22 18 21 19 23 21 32 23 29 25
REMARK SMILES IDX 5 27 14 28 6 29 12 30 7 31 10 32 15 33 13 35 8 37 9 38 11 40
REMARK H PARENT 21 20 23 22 32 24 29 26 15 34 13 36 9 39 11 41
REMARK Flexibility Score: inf
ROOT
ATOM      1  O   UNL     1       4.345  -0.335   5.485  1.00  0.00    -0.454 OA
ENDROOT
BRANCH   1   2
ATOM      2  C   UNL     1       5.144  -1.446   5.793  1.00  0.00     0.214 A 
ATOM      3  C   UNL     1       4.645  -2.572   6.481  1.00  0.00     0.180 A 
ATOM      4  O   UNL     1       5.489  -3.517   6.890  1.00  0.00    -0.452 OA
ATOM      5  C   UNL     1       6.494  -1.431   5.420  1.00  0.00     0.239 A 
ATOM      6  C   UNL     1       6.786  -3.508   6.613  1.00  0.00     0.146 A 
ATOM      7  O   UNL     1       6.934  -0.449   4.758  1.00  0.00    -0.285 OA
ATOM      8  C   UNL     1       7.343  -2.483   5.818  1.00  0.00     0.111 A 
ATOM      9  C   UNL     1       7.596  -4.539   7.099  1.00  0.00     0.094 A 
ATOM     10  C   UNL     1       8.716  -2.541   5.481  1.00  0.00     0.134 A 
ATOM     11  C   UNL     1       8.961  -4.571   6.796  1.00  0.00     0.123 A 
ATOM     12  C   UNL     1       9.512  -3.588   5.970  1.00  0.00     0.093 A 
BRANCH   3  13
ATOM     13  C   UNL     1       3.202  -2.777   6.733  1.00  0.00     0.025 A 
ATOM     14  C   UNL     1       2.585  -2.166   7.836  1.00  0.00     0.016 A 
ATOM     15  C   UNL     1       1.240  -2.423   8.125  1.00  0.00     0.051 A 
ATOM     16  C   UNL     1       0.499  -3.300   7.326  1.00  0.00     0.157 A 
ATOM     17  C   UNL     1       2.457  -3.664   5.936  1.00  0.00     0.062 A 
ATOM     18  C   UNL     1       1.111  -3.926   6.227  1.00  0.00     0.158 A 
BRANCH  16  19
ATOM     19  O   UNL     1      -0.836  -3.551   7.647  1.00  0.00    -0.504 OA
ATOM     20  H   UNL     1      -1.197  -3.414   8.585  1.00  0.00     0.293 HD
ENDBRANCH  16  19
BRANCH  18  21
ATOM     21  O   UNL     1       0.388  -4.826   5.442  1.00  0.00    -0.504 OA
ATOM     22  H   UNL     1      -0.169  -5.566   5.862  1.00  0.00     0.293 HD
ENDBRANCH  18  21
ENDBRANCH   3  13
BRANCH  10  23
ATOM     23  O   UNL     1       9.294  -1.565   4.667  1.00  0.00    -0.507 OA
ATOM     24  H   UNL     1       8.755  -0.780   4.317  1.00  0.00     0.293 HD
ENDBRANCH  10  23
BRANCH  11  25
ATOM     25  O   UNL     1       9.779  -5.575   7.310  1.00  0.00    -0.508 OA
ATOM     26  H   UNL     1      10.779  -5.442   7.416  1.00  0.00     0.293 HD
ENDBRANCH  11  25
ENDBRANCH   1   2
BRANCH   1  27
ATOM     27  C   UNL     1       4.390   0.920   6.180  1.00  0.00     0.339 C 
ATOM     28  C   UNL     1       2.961   1.482   6.478  1.00  0.00     0.214 C 
ATOM     29  O   UNL     1       5.208   1.835   5.467  1.00  0.00    -0.332 OA
ATOM     30  C   UNL     1       2.682   2.780   5.671  1.00  0.00     0.180 C 
ATOM     31  C   UNL     1       5.191   3.097   6.103  1.00  0.00     0.179 C 
ATOM     32  C   UNL     1       3.843   3.804   5.818  1.00  0.00     0.177 C 
BRANCH  28  33
ATOM     33  O   UNL     1       2.852   1.747   7.853  1.00  0.00    -0.384 OA
ATOM     34  H   UNL     1       2.837   2.736   7.963  1.00  0.00     0.211 HD
ENDBRANCH  28  33
BRANCH  30  35
ATOM     35  O   UNL     1       2.504   2.486   4.305  1.00  0.00    -0.387 OA
ATOM     36  H   UNL     1       1.601   2.813   4.046  1.00  0.00     0.211 HD
ENDBRANCH  30  35
BRANCH  31  37
ATOM     37  C   UNL     1       6.392   3.928   5.631  1.00  0.00     0.191 C 
BRANCH  37  38
ATOM     38  O   UNL     1       6.004   4.868   4.663  1.00  0.00    -0.394 OA
ATOM     39  H   UNL     1       5.122   4.582   4.312  1.00  0.00     0.210 HD
ENDBRANCH  37  38
ENDBRANCH  31  37
BRANCH  32  40
ATOM     40  O   UNL     1       3.571   4.761   6.816  1.00  0.00    -0.387 OA
ATOM     41  H   UNL     1       4.351   5.366   6.882  1.00  0.00     0.211 HD
ENDBRANCH  32  40
ENDBRANCH   1  27
TORSDOF 12
ENDMDL
MODEL 3
REMARK VINA RESULT:    -5.855      2.213      5.098
REMARK INTER + INTRA:          -9.708
REMARK INTER:                  -8.634
REMARK INTRA:                  -1.075
REMARK UNBOUND:                -1.116
REMARK SMILES O=c1c(O[C@H]2O[C@@H](CO)[C@H](O)[C@@H](O)[C@@H]2O)c(-c2ccc(O)c(O)c2)oc2cc(O)cc(O)c12
REMARK SMILES IDX 4 1 3 2 16 3 25 4 2 5 26 6 1 7 33 8 27 9 31 10 28 11 30 12
REMARK SMILES IDX 17 13 18 14 19 15 20 16 24 17 22 18 21 19 23 21 32 23 29 25
REMARK SMILES IDX 5 27 14 28 6 29 12 30 7 31 10 32 15 33 13 35 8 37 9 38 11 40
REMARK H PARENT 21 20 23 22 32 24 29 26 15 34 13 36 9 39 11 41
REMARK Flexibility Score: inf
ROOT
ATOM      1  O   UNL     1       4.542  -3.784   6.499  1.00  0.00    -0.454 OA
ENDROOT
BRANCH   1   2
ATOM      2  C   UNL     1       3.760  -4.874   6.088  1.00  0.00     0.214 A 
ATOM      3  C   UNL     1       4.279  -5.927   5.305  1.00  0.00     0.180 A 
ATOM      4  O   UNL     1       3.450  -6.844   4.809  1.00  0.00    -0.452 OA
ATOM      5  C   UNL     1       2.409  -4.912   6.454  1.00  0.00     0.239 A 
ATOM      6  C   UNL     1       2.152  -6.878   5.079  1.00  0.00     0.146 A 
ATOM      7  O   UNL     1       1.951  -3.999   7.198  1.00  0.00    -0.285 OA
ATOM      8  C   UNL     1       1.576  -5.936   5.959  1.00  0.00     0.111 A 
ATOM      9  C   UNL     1       1.359  -7.874   4.499  1.00  0.00     0.094 A 
ATOM     10  C   UNL     1       0.203  -6.044   6.283  1.00  0.00     0.134 A 
ATOM     11  C   UNL     1      -0.007  -7.952   4.791  1.00  0.00     0.123 A 
ATOM     12  C   UNL     1      -0.575  -7.055   5.698  1.00  0.00     0.093 A 
BRANCH   3  13
ATOM     13  C   UNL     1       5.725  -6.088   5.044  1.00  0.00     0.025 A 
ATOM     14  C   UNL     1       6.373  -5.249   4.124  1.00  0.00     0.016 A 
ATOM     15  C   UNL     1       7.722  -5.451   3.812  1.00  0.00     0.051 A 
ATOM     16  C   UNL     1       8.437  -6.497   4.404  1.00  0.00     0.157 A 
ATOM     17  C   UNL     1       6.444  -7.143   5.633  1.00  0.00     0.062 A 
ATOM     18  C   UNL     1       7.794  -7.350   5.318  1.00  0.00     0.158 A 
BRANCH  16  19
ATOM     19  O   UNL     1       9.778  -6.686   4.063  1.00  0.00    -0.504 OA
ATOM     20  H   UNL     1      10.410  -7.220   4.648  1.00  0.00     0.293 HD
ENDBRANCH  16  19
BRANCH  18  21
ATOM     21  O   UNL     1       8.492  -8.415   5.892  1.00  0.00    -0.504 OA
ATOM     22  H   UNL     1       9.409  -8.282   6.311  1.00  0.00     0.293 HD
ENDBRANCH  18  21
ENDBRANCH   3  13
BRANCH  10  23
ATOM     23  O   UNL     1      -0.392  -5.153   7.177  1.00  0.00    -0.507 OA
ATOM     24  H   UNL     1      -1.363  -5.250   7.456  1.00  0.00     0.293 HD
ENDBRANCH  10  23
BRANCH  11  25
ATOM     25  O   UNL     1      -0.807  -8.918   4.185  1.00  0.00    -0.508 OA
ATOM     26  H   UNL     1      -1.686  -8.675   3.741  1.00  0.00     0.293 HD
ENDBRANCH  11  25
ENDBRANCH   1   2
BRANCH   1  27
ATOM     27  C   UNL     1       4.416  -2.450   5.982  1.00  0.00     0.339 C 
ATOM     28  C   UNL     1       5.721  -1.970   5.266  1.00  0.00     0.214 C 
ATOM     29  O   UNL     1       3.995  -1.572   7.014  1.00  0.00    -0.332 OA
ATOM     30  C   UNL     1       6.402  -0.811   6.045  1.00  0.00     0.180 C 
ATOM     31  C   UNL     1       3.947  -0.244   6.531  1.00  0.00     0.179 C 
ATOM     32  C   UNL     1       5.388   0.312   6.401  1.00  0.00     0.177 C 
BRANCH  28  33
ATOM     33  O   UNL     1       5.399  -1.540   3.968  1.00  0.00    -0.384 OA
ATOM     34  H   UNL     1       5.941  -2.082   3.333  1.00  0.00     0.211 HD
ENDBRANCH  28  33
BRANCH  30  35
ATOM     35  O   UNL     1       6.987  -1.291   7.234  1.00  0.00    -0.387 OA
ATOM     36  H   UNL     1       6.350  -1.941   7.637  1.00  0.00     0.211 HD
ENDBRANCH  30  35
BRANCH  31  37
ATOM     37  C   UNL     1       3.078   0.611   7.461  1.00  0.00     0.191 C 
BRANCH  37  38
ATOM     38  O   UNL     1       2.727   1.825   6.848  1.00  0.00    -0.394 OA
ATOM     39  H   UNL     1       2.677   2.511   7.561  1.00  0.00     0.210 HD
ENDBRANCH  37  38
ENDBRANCH  31  37
BRANCH  32  40
ATOM     40  O   UNL     1       5.424   1.364   5.464  1.00  0.00    -0.387 OA
ATOM     41  H   UNL     1       6.166   1.969   5.712  1.00  0.00     0.211 HD
ENDBRANCH  32  40
ENDBRANCH   1  27
TORSDOF 12
ENDMDL
MODEL 4
REMARK VINA RESULT:    -5.837      1.543      2.037
REMARK INTER + INTRA:          -9.683
REMARK INTER:                  -8.283
REMARK INTRA:                  -1.400
REMARK UNBOUND:                -1.116
REMARK SMILES O=c1c(O[C@H]2O[C@@H](CO)[C@H](O)[C@@H](O)[C@@H]2O)c(-c2ccc(O)c(O)c2)oc2cc(O)cc(O)c12
REMARK SMILES IDX 4 1 3 2 16 3 25 4 2 5 26 6 1 7 33 8 27 9 31 10 28 11 30 12
REMARK SMILES IDX 17 13 18 14 19 15 20 16 24 17 22 18 21 19 23 21 32 23 29 25
REMARK SMILES IDX 5 27 14 28 6 29 12 30 7 31 10 32 15 33 13 35 8 37 9 38 11 40
REMARK H PARENT 21 20 23 22 32 24 29 26 15 34 13 36 9 39 11 41
REMARK Flexibility Score: inf
ROOT
ATOM      1  O   UNL     1       5.847  -6.232   5.404  1.00  0.00    -0.454 OA
ENDROOT
BRANCH   1   2
ATOM      2  C   UNL     1       4.456  -6.364   5.274  1.00  0.00     0.214 A 
ATOM      3  C   UNL     1       3.553  -5.401   5.773  1.00  0.00     0.180 A 
ATOM      4  O   UNL     1       2.248  -5.663   5.767  1.00  0.00    -0.452 OA
ATOM      5  C   UNL     1       3.943  -7.502   4.640  1.00  0.00     0.239 A 
ATOM      6  C   UNL     1       1.725  -6.759   5.234  1.00  0.00     0.146 A 
ATOM      7  O   UNL     1       4.746  -8.342   4.145  1.00  0.00    -0.285 OA
ATOM      8  C   UNL     1       2.550  -7.712   4.599  1.00  0.00     0.111 A 
ATOM      9  C   UNL     1       0.341  -6.952   5.289  1.00  0.00     0.094 A 
ATOM     10  C   UNL     1       1.953  -8.835   3.977  1.00  0.00     0.134 A 
ATOM     11  C   UNL     1      -0.240  -8.084   4.707  1.00  0.00     0.123 A 
ATOM     12  C   UNL     1       0.562  -9.008   4.034  1.00  0.00     0.093 A 
BRANCH   3  13
ATOM     13  C   UNL     1       3.992  -4.077   6.267  1.00  0.00     0.025 A 
ATOM     14  C   UNL     1       4.383  -3.919   7.606  1.00  0.00     0.016 A 
ATOM     15  C   UNL     1       4.718  -2.653   8.098  1.00  0.00     0.051 A 
ATOM     16  C   UNL     1       4.658  -1.531   7.266  1.00  0.00     0.157 A 
ATOM     17  C   UNL     1       3.925  -2.946   5.435  1.00  0.00     0.062 A 
ATOM     18  C   UNL     1       4.256  -1.677   5.928  1.00  0.00     0.158 A 
BRANCH  16  19
ATOM     19  O   UNL     1       4.983  -0.277   7.788  1.00  0.00    -0.504 OA
ATOM     20  H   UNL     1       5.204  -0.146   8.770  1.00  0.00     0.293 HD
ENDBRANCH  16  19
BRANCH  18  21
ATOM     21  O   UNL     1       4.164  -0.558   5.098  1.00  0.00    -0.504 OA
ATOM     22  H   UNL     1       3.370   0.075   5.151  1.00  0.00     0.293 HD
ENDBRANCH  18  21
ENDBRANCH   3  13
BRANCH  10  23
ATOM     23  O   UNL     1       2.733  -9.779   3.308  1.00  0.00    -0.507 OA
ATOM     24  H   UNL     1       3.719  -9.899   3.519  1.00  0.00     0.293 HD
ENDBRANCH  10  23
BRANCH  11  25
ATOM     25  O   UNL     1      -1.614  -8.299   4.794  1.00  0.00    -0.508 OA
ATOM     26  H   UNL     1      -2.249  -7.966   4.076  1.00  0.00     0.293 HD
ENDBRANCH  11  25
ENDBRANCH   1   2
BRANCH   1  27
ATOM     27  C   UNL     1       6.655  -5.326   4.639  1.00  0.00     0.339 C 
ATOM     28  C   UNL     1       7.693  -6.075   3.741  1.00  0.00     0.214 C 
ATOM     29  O   UNL     1       7.255  -4.371   5.500  1.00  0.00    -0.332 OA
ATOM     30  C   UNL     1       9.150  -5.809   4.213  1.00  0.00     0.180 C 
ATOM     31  C   UNL     1       8.116  -3.526   4.763  1.00  0.00     0.179 C 
ATOM     32  C   UNL     1       9.417  -4.290   4.411  1.00  0.00     0.177 C 
BRANCH  28  33
ATOM     33  O   UNL     1       7.542  -5.646   2.411  1.00  0.00    -0.384 OA
ATOM     34  H   UNL     1       8.448  -5.631   2.000  1.00  0.00     0.211 HD
ENDBRANCH  28  33
BRANCH  30  35
ATOM     35  O   UNL     1       9.407  -6.479   5.424  1.00  0.00    -0.387 OA
ATOM     36  H   UNL     1       9.193  -5.849   6.164  1.00  0.00     0.211 HD
ENDBRANCH  30  35
BRANCH  31  37
ATOM     37  C   UNL     1       8.394  -2.248   5.565  1.00  0.00     0.191 C 
BRANCH  37  38
ATOM     38  O   UNL     1       9.021  -1.278   4.766  1.00  0.00    -0.394 OA
ATOM     39  H   UNL     1       9.299  -1.725   3.926  1.00  0.00     0.210 HD
ENDBRANCH  37  38
ENDBRANCH  31  37
BRANCH  32  40
ATOM     40  O   UNL     1      10.031  -3.717   3.280  1.00  0.00    -0.387 OA
ATOM     41  H   UNL     1      10.785  -4.299   3.012  1.00  0.00     0.211 HD
ENDBRANCH  32  40
ENDBRANCH   1  27
TORSDOF 12
ENDMDL
MODEL 5
REMARK VINA RESULT:    -5.543      2.739      6.921
REMARK INTER + INTRA:          -9.251
REMARK INTER:                  -7.649
REMARK INTRA:                  -1.602
REMARK UNBOUND:                -1.116
REMARK SMILES O=c1c(O[C@H]2O[C@@H](CO)[C@H](O)[C@@H](O)[C@@H]2O)c(-c2ccc(O)c(O)c2)oc2cc(O)cc(O)c12
REMARK SMILES IDX 4 1 3 2 16 3 25 4 2 5 26 6 1 7 33 8 27 9 31 10 28 11 30 12
REMARK SMILES IDX 17 13 18 14 19 15 20 16 24 17 22 18 21 19 23 21 32 23 29 25
REMARK SMILES IDX 5 27 14 28 6 29 12 30 7 31 10 32 15 33 13 35 8 37 9 38 11 40
REMARK H PARENT 21 20 23 22 32 24 29 26 15 34 13 36 9 39 11 41
REMARK Flexibility Score: inf
ROOT
ATOM      1  O   UNL     1       5.718  -2.223   4.620  1.00  0.00    -0.454 OA
ENDROOT
BRANCH   1   2
ATOM      2  C   UNL     1       5.265  -1.125   5.367  1.00  0.00     0.214 A 
ATOM      3  C   UNL     1       4.150  -1.202   6.228  1.00  0.00     0.180 A 
ATOM      4  O   UNL     1       3.670  -0.088   6.778  1.00  0.00    -0.452 OA
ATOM      5  C   UNL     1       5.933   0.099   5.240  1.00  0.00     0.239 A 
ATOM      6  C   UNL     1       4.235   1.103   6.631  1.00  0.00     0.146 A 
ATOM      7  O   UNL     1       6.963   0.162   4.510  1.00  0.00    -0.285 OA
ATOM      8  C   UNL     1       5.429   1.244   5.890  1.00  0.00     0.111 A 
ATOM      9  C   UNL     1       3.648   2.218   7.237  1.00  0.00     0.094 A 
ATOM     10  C   UNL     1       6.046   2.515   5.812  1.00  0.00     0.134 A 
ATOM     11  C   UNL     1       4.241   3.480   7.124  1.00  0.00     0.123 A 
ATOM     12  C   UNL     1       5.447   3.621   6.434  1.00  0.00     0.093 A 
BRANCH   3  13
ATOM     13  C   UNL     1       3.510  -2.485   6.590  1.00  0.00     0.025 A 
ATOM     14  C   UNL     1       3.998  -3.235   7.671  1.00  0.00     0.016 A 
ATOM     15  C   UNL     1       3.449  -4.488   7.966  1.00  0.00     0.051 A 
ATOM     16  C   UNL     1       2.417  -5.012   7.181  1.00  0.00     0.157 A 
ATOM     17  C   UNL     1       2.477  -3.016   5.798  1.00  0.00     0.062 A 
ATOM     18  C   UNL     1       1.930  -4.273   6.089  1.00  0.00     0.158 A 
BRANCH  16  19
ATOM     19  O   UNL     1       1.898  -6.271   7.488  1.00  0.00    -0.504 OA
ATOM     20  H   UNL     1       2.118  -6.744   8.358  1.00  0.00     0.293 HD
ENDBRANCH  16  19
BRANCH  18  21
ATOM     21  O   UNL     1       0.920  -4.801   5.281  1.00  0.00    -0.504 OA
ATOM     22  H   UNL     1       1.082  -5.006   4.299  1.00  0.00     0.293 HD
ENDBRANCH  18  21
ENDBRANCH   3  13
BRANCH  10  23
ATOM     23  O   UNL     1       7.245   2.685   5.119  1.00  0.00    -0.507 OA
ATOM     24  H   UNL     1       8.025   3.193   5.525  1.00  0.00     0.293 HD
ENDBRANCH  10  23
BRANCH  11  25
ATOM     25  O   UNL     1       3.638   4.600   7.693  1.00  0.00    -0.508 OA
ATOM     26  H   UNL     1       3.804   5.533   7.330  1.00  0.00     0.293 HD
ENDBRANCH  11  25
ENDBRANCH   1   2
BRANCH   1  27
ATOM     27  C   UNL     1       6.610  -3.233   5.115  1.00  0.00     0.339 C 
ATOM     28  C   UNL     1       7.575  -2.680   6.215  1.00  0.00     0.214 C 
ATOM     29  O   UNL     1       7.295  -3.843   4.033  1.00  0.00    -0.332 OA
ATOM     30  C   UNL     1       9.049  -2.667   5.723  1.00  0.00     0.180 C 
ATOM     31  C   UNL     1       8.233  -4.782   4.520  1.00  0.00     0.179 C 
ATOM     32  C   UNL     1       9.457  -4.036   5.107  1.00  0.00     0.177 C 
BRANCH  28  33
ATOM     33  O   UNL     1       7.468  -3.483   7.363  1.00  0.00    -0.384 OA
ATOM     34  H   UNL     1       6.701  -4.101   7.222  1.00  0.00     0.211 HD
ENDBRANCH  28  33
BRANCH  30  35
ATOM     35  O   UNL     1       9.239  -1.659   4.759  1.00  0.00    -0.387 OA
ATOM     36  H   UNL     1       8.496  -1.006   4.861  1.00  0.00     0.211 HD
ENDBRANCH  30  35
BRANCH  31  37
ATOM     37  C   UNL     1       8.628  -5.747   3.394  1.00  0.00     0.191 C 
BRANCH  37  38
ATOM     38  O   UNL     1       9.499  -6.742   3.867  1.00  0.00    -0.394 OA
ATOM     39  H   UNL     1       8.985  -7.307   4.499  1.00  0.00     0.210 HD
ENDBRANCH  37  38
ENDBRANCH  31  37
BRANCH  32  40
ATOM     40  O   UNL     1      10.125  -4.850   6.042  1.00  0.00    -0.387 OA
ATOM     41  H   UNL     1      10.365  -5.699   5.594  1.00  0.00     0.211 HD
ENDBRANCH  32  40
ENDBRANCH   1  27
TORSDOF 12
ENDMDL
MODEL 6
REMARK VINA RESULT:    -5.424      2.552      5.157
REMARK INTER + INTRA:          -9.076
REMARK INTER:                  -8.177
REMARK INTRA:                  -0.899
REMARK UNBOUND:                -1.116
REMARK SMILES O=c1c(O[C@H]2O[C@@H](CO)[C@H](O)[C@@H](O)[C@@H]2O)c(-c2ccc(O)c(O)c2)oc2cc(O)cc(O)c12
REMARK SMILES IDX 4 1 3 2 16 3 25 4 2 5 26 6 1 7 33 8 27 9 31 10 28 11 30 12
REMARK SMILES IDX 17 13 18 14 19 15 20 16 24 17 22 18 21 19 23 21 32 23 29 25
REMARK SMILES IDX 5 27 14 28 6 29 12 30 7 31 10 32 15 33 13 35 8 37 9 38 11 40
REMARK H PARENT 21 20 23 22 32 24 29 26 15 34 13 36 9 39 11 41
REMARK Flexibility Score: inf
ROOT
ATOM      1  O   UNL     1       3.808  -1.410   5.368  1.00  0.00    -0.454 OA
ENDROOT
BRANCH   1   2
ATOM      2  C   UNL     1       4.258  -2.739   5.378  1.00  0.00     0.214 A 
ATOM      3  C   UNL     1       3.521  -3.785   5.975  1.00  0.00     0.180 A 
ATOM      4  O   UNL     1       4.076  -4.989   6.099  1.00  0.00    -0.452 OA
ATOM      5  C   UNL     1       5.493  -3.039   4.789  1.00  0.00     0.239 A 
ATOM      6  C   UNL     1       5.271  -5.297   5.612  1.00  0.00     0.146 A 
ATOM      7  O   UNL     1       6.133  -2.117   4.208  1.00  0.00    -0.285 OA
ATOM      8  C   UNL     1       6.018  -4.343   4.888  1.00  0.00     0.111 A 
ATOM      9  C   UNL     1       5.776  -6.586   5.805  1.00  0.00     0.094 A 
ATOM     10  C   UNL     1       7.257  -4.725   4.319  1.00  0.00     0.134 A 
ATOM     11  C   UNL     1       7.019  -6.947   5.275  1.00  0.00     0.123 A 
ATOM     12  C   UNL     1       7.744  -6.026   4.516  1.00  0.00     0.093 A 
BRANCH   3  13
ATOM     13  C   UNL     1       2.125  -3.615   6.433  1.00  0.00     0.025 A 
ATOM     14  C   UNL     1       1.838  -2.778   7.523  1.00  0.00     0.016 A 
ATOM     15  C   UNL     1       0.531  -2.679   8.012  1.00  0.00     0.051 A 
ATOM     16  C   UNL     1      -0.501  -3.421   7.429  1.00  0.00     0.157 A 
ATOM     17  C   UNL     1       1.087  -4.365   5.854  1.00  0.00     0.062 A 
ATOM     18  C   UNL     1      -0.222  -4.271   6.346  1.00  0.00     0.158 A 
BRANCH  16  19
ATOM     19  O   UNL     1      -1.793  -3.315   7.948  1.00  0.00    -0.504 OA
ATOM     20  H   UNL     1      -2.514  -2.771   7.486  1.00  0.00     0.293 HD
ENDBRANCH  16  19
BRANCH  18  21
ATOM     21  O   UNL     1      -1.240  -5.038   5.777  1.00  0.00    -0.504 OA
ATOM     22  H   UNL     1      -1.328  -6.032   5.976  1.00  0.00     0.293 HD
ENDBRANCH  18  21
ENDBRANCH   3  13
BRANCH  10  23
ATOM     23  O   UNL     1       8.006  -3.819   3.566  1.00  0.00    -0.507 OA
ATOM     24  H   UNL     1       7.738  -2.844   3.490  1.00  0.00     0.293 HD
ENDBRANCH  10  23
BRANCH  11  25
ATOM     25  O   UNL     1       7.543  -8.219   5.498  1.00  0.00    -0.508 OA
ATOM     26  H   UNL     1       8.419  -8.512   5.079  1.00  0.00     0.293 HD
ENDBRANCH  11  25
ENDBRANCH   1   2
BRANCH   1  27
ATOM     27  C   UNL     1       4.317  -0.371   6.217  1.00  0.00     0.339 C 
ATOM     28  C   UNL     1       3.186   0.584   6.722  1.00  0.00     0.214 C 
ATOM     29  O   UNL     1       5.370   0.315   5.560  1.00  0.00    -0.332 OA
ATOM     30  C   UNL     1       3.342   2.012   6.127  1.00  0.00     0.180 C 
ATOM     31  C   UNL     1       5.821   1.391   6.359  1.00  0.00     0.179 C 
ATOM     32  C   UNL     1       4.791   2.547   6.300  1.00  0.00     0.177 C 
BRANCH  28  33
ATOM     33  O   UNL     1       3.234   0.650   8.125  1.00  0.00    -0.384 OA
ATOM     34  H   UNL     1       2.968   1.572   8.388  1.00  0.00     0.211 HD
ENDBRANCH  28  33
BRANCH  30  35
ATOM     35  O   UNL     1       3.015   2.015   4.757  1.00  0.00    -0.387 OA
ATOM     36  H   UNL     1       3.858   1.865   4.250  1.00  0.00     0.211 HD
ENDBRANCH  30  35
BRANCH  31  37
ATOM     37  C   UNL     1       7.214   1.832   5.891  1.00  0.00     0.191 C 
BRANCH  37  38
ATOM     38  O   UNL     1       7.389   3.215   6.066  1.00  0.00    -0.394 OA
ATOM     39  H   UNL     1       8.297   3.439   5.736  1.00  0.00     0.210 HD
ENDBRANCH  37  38
ENDBRANCH  31  37
BRANCH  32  40
ATOM     40  O   UNL     1       4.911   3.369   7.439  1.00  0.00    -0.387 OA
ATOM     41  H   UNL     1       4.548   4.261   7.213  1.00  0.00     0.211 HD
ENDBRANCH  32  40
ENDBRANCH   1  27
TORSDOF 12
ENDMDL
MODEL 7
REMARK VINA RESULT:    -5.411      1.850      7.983
REMARK INTER + INTRA:          -9.057
REMARK INTER:                  -7.562
REMARK INTRA:                  -1.495
REMARK UNBOUND:                -1.116
REMARK SMILES O=c1c(O[C@H]2O[C@@H](CO)[C@H](O)[C@@H](O)[C@@H]2O)c(-c2ccc(O)c(O)c2)oc2cc(O)cc(O)c12
REMARK SMILES IDX 4 1 3 2 16 3 25 4 2 5 26 6 1 7 33 8 27 9 31 10 28 11 30 12
REMARK SMILES IDX 17 13 18 14 19 15 20 16 24 17 22 18 21 19 23 21 32 23 29 25
REMARK SMILES IDX 5 27 14 28 6 29 12 30 7 31 10 32 15 33 13 35 8 37 9 38 11 40
REMARK H PARENT 21 20 23 22 32 24 29 26 15 34 13 36 9 39 11 41
REMARK Flexibility Score: inf
ROOT
ATOM      1  O   UNL     1       5.003  -4.107   6.660  1.00  0.00    -0.454 OA
ENDROOT
BRANCH   1   2
ATOM      2  C   UNL     1       5.493  -2.872   6.209  1.00  0.00     0.214 A 
ATOM      3  C   UNL     1       6.758  -2.735   5.599  1.00  0.00     0.180 A 
ATOM      4  O   UNL     1       7.234  -1.517   5.347  1.00  0.00    -0.452 OA
ATOM      5  C   UNL     1       4.704  -1.728   6.387  1.00  0.00     0.239 A 
ATOM      6  C   UNL     1       6.544  -0.404   5.560  1.00  0.00     0.146 A 
ATOM      7  O   UNL     1       3.550  -1.852   6.885  1.00  0.00    -0.285 OA
ATOM      8  C   UNL     1       5.221  -0.462   6.048  1.00  0.00     0.111 A 
ATOM      9  C   UNL     1       7.136   0.832   5.276  1.00  0.00     0.094 A 
ATOM     10  C   UNL     1       4.488   0.740   6.196  1.00  0.00     0.134 A 
ATOM     11  C   UNL     1       6.421   2.019   5.462  1.00  0.00     0.123 A 
ATOM     12  C   UNL     1       5.095   1.970   5.898  1.00  0.00     0.093 A 
BRANCH   3  13
ATOM     13  C   UNL     1       7.570  -3.897   5.179  1.00  0.00     0.025 A 
ATOM     14  C   UNL     1       8.525  -4.441   6.052  1.00  0.00     0.016 A 
ATOM     15  C   UNL     1       9.353  -5.487   5.630  1.00  0.00     0.051 A 
ATOM     16  C   UNL     1       9.248  -5.993   4.330  1.00  0.00     0.157 A 
ATOM     17  C   UNL     1       7.471  -4.402   3.871  1.00  0.00     0.062 A 
ATOM     18  C   UNL     1       8.304  -5.446   3.445  1.00  0.00     0.158 A 
BRANCH  16  19
ATOM     19  O   UNL     1      10.098  -7.026   3.930  1.00  0.00    -0.504 OA
ATOM     20  H   UNL     1      11.104  -6.904   3.880  1.00  0.00     0.293 HD
ENDBRANCH  16  19
BRANCH  18  21
ATOM     21  O   UNL     1       8.212  -5.925   2.136  1.00  0.00    -0.504 OA
ATOM     22  H   UNL     1       8.118  -6.918   1.942  1.00  0.00     0.293 HD
ENDBRANCH  18  21
ENDBRANCH   3  13
BRANCH  10  23
ATOM     23  O   UNL     1       3.165   0.719   6.641  1.00  0.00    -0.507 OA
ATOM     24  H   UNL     1       2.697  -0.151   6.873  1.00  0.00     0.293 HD
ENDBRANCH  10  23
BRANCH  11  25
ATOM     25  O   UNL     1       7.019   3.253   5.217  1.00  0.00    -0.508 OA
ATOM     26  H   UNL     1       6.638   3.902   4.537  1.00  0.00     0.293 HD
ENDBRANCH  11  25
ENDBRANCH   1   2
BRANCH   1  27
ATOM     27  C   UNL     1       4.225  -5.014   5.865  1.00  0.00     0.339 C 
ATOM     28  C   UNL     1       2.839  -5.330   6.517  1.00  0.00     0.214 C 
ATOM     29  O   UNL     1       4.983  -6.180   5.583  1.00  0.00    -0.332 OA
ATOM     30  C   UNL     1       2.749  -6.814   6.969  1.00  0.00     0.180 C 
ATOM     31  C   UNL     1       4.194  -7.111   4.869  1.00  0.00     0.179 C 
ATOM     32  C   UNL     1       3.186  -7.784   5.835  1.00  0.00     0.177 C 
BRANCH  28  33
ATOM     33  O   UNL     1       1.822  -5.058   5.586  1.00  0.00    -0.384 OA
ATOM     34  H   UNL     1       1.442  -4.167   5.814  1.00  0.00     0.211 HD
ENDBRANCH  28  33
BRANCH  30  35
ATOM     35  O   UNL     1       3.561  -7.038   8.098  1.00  0.00    -0.387 OA
ATOM     36  H   UNL     1       3.194  -6.488   8.841  1.00  0.00     0.211 HD
ENDBRANCH  30  35
BRANCH  31  37
ATOM     37  C   UNL     1       5.105  -8.134   4.178  1.00  0.00     0.191 C 
BRANCH  37  38
ATOM     38  O   UNL     1       4.362  -8.987   3.345  1.00  0.00    -0.394 OA
ATOM     39  H   UNL     1       3.702  -9.455   3.918  1.00  0.00     0.210 HD
ENDBRANCH  37  38
ENDBRANCH  31  37
BRANCH  32  40
ATOM     40  O   UNL     1       2.079  -8.281   5.118  1.00  0.00    -0.387 OA
ATOM     41  H   UNL     1       2.408  -8.640   4.257  1.00  0.00     0.211 HD
ENDBRANCH  32  40
ENDBRANCH   1  27
TORSDOF 12
ENDMDL
MODEL 8
REMARK VINA RESULT:    -5.350      2.332      5.116
REMARK INTER + INTRA:          -8.968
REMARK INTER:                  -7.604
REMARK INTRA:                  -1.364
REMARK UNBOUND:                -1.116
REMARK SMILES O=c1c(O[C@H]2O[C@@H](CO)[C@H](O)[C@@H](O)[C@@H]2O)c(-c2ccc(O)c(O)c2)oc2cc(O)cc(O)c12
REMARK SMILES IDX 4 1 3 2 16 3 25 4 2 5 26 6 1 7 33 8 27 9 31 10 28 11 30 12
REMARK SMILES IDX 17 13 18 14 19 15 20 16 24 17 22 18 21 19 23 21 32 23 29 25
REMARK SMILES IDX 5 27 14 28 6 29 12 30 7 31 10 32 15 33 13 35 8 37 9 38 11 40
REMARK H PARENT 21 20 23 22 32 24 29 26 15 34 13 36 9 39 11 41
REMARK Flexibility Score: inf
ROOT
ATOM      1  O   UNL     1       5.417  -2.670   5.130  1.00  0.00    -0.454 OA
ENDROOT
BRANCH   1   2
ATOM      2  C   UNL     1       4.529  -3.662   5.572  1.00  0.00     0.214 A 
ATOM      3  C   UNL     1       4.807  -5.040   5.444  1.00  0.00     0.180 A 
ATOM      4  O   UNL     1       3.857  -5.928   5.728  1.00  0.00    -0.452 OA
ATOM      5  C   UNL     1       3.313  -3.273   6.147  1.00  0.00     0.239 A 
ATOM      6  C   UNL     1       2.668  -5.597   6.214  1.00  0.00     0.146 A 
ATOM      7  O   UNL     1       3.081  -2.042   6.312  1.00  0.00    -0.285 OA
ATOM      8  C   UNL     1       2.357  -4.248   6.493  1.00  0.00     0.111 A 
ATOM      9  C   UNL     1       1.729  -6.602   6.468  1.00  0.00     0.094 A 
ATOM     10  C   UNL     1       1.107  -3.936   7.079  1.00  0.00     0.134 A 
ATOM     11  C   UNL     1       0.479  -6.284   7.010  1.00  0.00     0.123 A 
ATOM     12  C   UNL     1       0.181  -4.958   7.336  1.00  0.00     0.093 A 
BRANCH   3  13
ATOM     13  C   UNL     1       6.137  -5.551   5.047  1.00  0.00     0.025 A 
ATOM     14  C   UNL     1       7.064  -5.938   6.027  1.00  0.00     0.016 A 
ATOM     15  C   UNL     1       8.352  -6.344   5.660  1.00  0.00     0.051 A 
ATOM     16  C   UNL     1       8.733  -6.357   4.315  1.00  0.00     0.157 A 
ATOM     17  C   UNL     1       6.525  -5.559   3.696  1.00  0.00     0.062 A 
ATOM     18  C   UNL     1       7.816  -5.960   3.327  1.00  0.00     0.158 A 
BRANCH  16  19
ATOM     19  O   UNL     1      10.030  -6.751   3.978  1.00  0.00    -0.504 OA
ATOM     20  H   UNL     1      10.240  -7.205   3.096  1.00  0.00     0.293 HD
ENDBRANCH  16  19
BRANCH  18  21
ATOM     21  O   UNL     1       8.198  -5.942   1.984  1.00  0.00    -0.504 OA
ATOM     22  H   UNL     1       7.564  -6.247   1.250  1.00  0.00     0.293 HD
ENDBRANCH  18  21
ENDBRANCH   3  13
BRANCH  10  23
ATOM     23  O   UNL     1       0.780  -2.619   7.403  1.00  0.00    -0.507 OA
ATOM     24  H   UNL     1       1.491  -1.945   7.668  1.00  0.00     0.293 HD
ENDBRANCH  10  23
BRANCH  11  25
ATOM     25  O   UNL     1      -0.473  -7.277   7.228  1.00  0.00    -0.508 OA
ATOM     26  H   UNL     1      -0.464  -7.844   8.069  1.00  0.00     0.293 HD
ENDBRANCH  11  25
ENDBRANCH   1   2
BRANCH   1  27
ATOM     27  C   UNL     1       6.664  -2.351   5.765  1.00  0.00     0.339 C 
ATOM     28  C   UNL     1       6.657  -0.918   6.393  1.00  0.00     0.214 C 
ATOM     29  O   UNL     1       7.733  -2.550   4.853  1.00  0.00    -0.332 OA
ATOM     30  C   UNL     1       7.638   0.032   5.652  1.00  0.00     0.180 C 
ATOM     31  C   UNL     1       8.956  -2.160   5.446  1.00  0.00     0.179 C 
ATOM     32  C   UNL     1       9.043  -0.614   5.486  1.00  0.00     0.177 C 
BRANCH  28  33
ATOM     33  O   UNL     1       7.021  -1.011   7.747  1.00  0.00    -0.384 OA
ATOM     34  H   UNL     1       6.412  -1.672   8.173  1.00  0.00     0.211 HD
ENDBRANCH  28  33
BRANCH  30  35
ATOM     35  O   UNL     1       7.137   0.366   4.379  1.00  0.00    -0.387 OA
ATOM     36  H   UNL     1       6.370  -0.240   4.193  1.00  0.00     0.211 HD
ENDBRANCH  30  35
BRANCH  31  37
ATOM     37  C   UNL     1      10.125  -2.786   4.675  1.00  0.00     0.191 C 
BRANCH  37  38
ATOM     38  O   UNL     1       9.780  -3.010   3.332  1.00  0.00    -0.394 OA
ATOM     39  H   UNL     1       8.809  -2.827   3.244  1.00  0.00     0.210 HD
ENDBRANCH  37  38
ENDBRANCH  31  37
BRANCH  32  40
ATOM     40  O   UNL     1       9.930  -0.200   6.500  1.00  0.00    -0.387 OA
ATOM     41  H   UNL     1      10.753   0.139   6.067  1.00  0.00     0.211 HD
ENDBRANCH  32  40
ENDBRANCH   1  27
TORSDOF 12
ENDMDL
MODEL 9
REMARK VINA RESULT:    -5.339      2.648      6.319
REMARK INTER + INTRA:          -8.951
REMARK INTER:                  -7.793
REMARK INTRA:                  -1.158
REMARK UNBOUND:                -1.116
REMARK SMILES O=c1c(O[C@H]2O[C@@H](CO)[C@H](O)[C@@H](O)[C@@H]2O)c(-c2ccc(O)c(O)c2)oc2cc(O)cc(O)c12
REMARK SMILES IDX 4 1 3 2 16 3 25 4 2 5 26 6 1 7 33 8 27 9 31 10 28 11 30 12
REMARK SMILES IDX 17 13 18 14 19 15 20 16 24 17 22 18 21 19 23 21 32 23 29 25
REMARK SMILES IDX 5 27 14 28 6 29 12 30 7 31 10 32 15 33 13 35 8 37 9 38 11 40
REMARK H PARENT 21 20 23 22 32 24 29 26 15 34 13 36 9 39 11 41
REMARK Flexibility Score: inf
ROOT
ATOM      1  O   UNL     1       5.020  -0.237   5.125  1.00  0.00    -0.454 OA
ENDROOT
BRANCH   1   2
ATOM      2  C   UNL     1       5.652  -1.450   5.441  1.00  0.00     0.214 A 
ATOM      3  C   UNL     1       7.034  -1.538   5.712  1.00  0.00     0.180 A 
ATOM      4  O   UNL     1       7.601  -2.735   5.840  1.00  0.00    -0.452 OA
ATOM      5  C   UNL     1       4.885  -2.622   5.473  1.00  0.00     0.239 A 
ATOM      6  C   UNL     1       6.920  -3.874   5.812  1.00  0.00     0.146 A 
ATOM      7  O   UNL     1       3.638  -2.542   5.283  1.00  0.00    -0.285 OA
ATOM      8  C   UNL     1       5.515  -3.866   5.675  1.00  0.00     0.111 A 
ATOM      9  C   UNL     1       7.607  -5.085   5.942  1.00  0.00     0.094 A 
ATOM     10  C   UNL     1       4.811  -5.093   5.721  1.00  0.00     0.134 A 
ATOM     11  C   UNL     1       6.911  -6.297   5.947  1.00  0.00     0.123 A 
ATOM     12  C   UNL     1       5.517  -6.298   5.861  1.00  0.00     0.093 A 
BRANCH   3  13
ATOM     13  C   UNL     1       7.884  -0.344   5.908  1.00  0.00     0.025 A 
ATOM     14  C   UNL     1       8.068   0.186   7.195  1.00  0.00     0.016 A 
ATOM     15  C   UNL     1       8.804   1.363   7.376  1.00  0.00     0.051 A 
ATOM     16  C   UNL     1       9.354   2.030   6.276  1.00  0.00     0.157 A 
ATOM     17  C   UNL     1       8.432   0.332   4.804  1.00  0.00     0.062 A 
ATOM     18  C   UNL     1       9.165   1.514   4.983  1.00  0.00     0.158 A 
BRANCH  16  19
ATOM     19  O   UNL     1      10.070   3.210   6.483  1.00  0.00    -0.504 OA
ATOM     20  H   UNL     1       9.972   4.012   5.870  1.00  0.00     0.293 HD
ENDBRANCH  16  19
BRANCH  18  21
ATOM     21  O   UNL     1       9.685   2.188   3.877  1.00  0.00    -0.504 OA
ATOM     22  H   UNL     1      10.613   2.603   3.898  1.00  0.00     0.293 HD
ENDBRANCH  18  21
ENDBRANCH   3  13
BRANCH  10  23
ATOM     23  O   UNL     1       3.419  -5.122   5.625  1.00  0.00    -0.507 OA
ATOM     24  H   UNL     1       2.915  -5.992   5.487  1.00  0.00     0.293 HD
ENDBRANCH  10  23
BRANCH  11  25
ATOM     25  O   UNL     1       7.595  -7.508   6.036  1.00  0.00    -0.508 OA
ATOM     26  H   UNL     1       8.188  -7.839   5.282  1.00  0.00     0.293 HD
ENDBRANCH  11  25
ENDBRANCH   1   2
BRANCH   1  27
ATOM     27  C   UNL     1       4.892   0.874   6.025  1.00  0.00     0.339 C 
ATOM     28  C   UNL     1       3.405   1.131   6.436  1.00  0.00     0.214 C 
ATOM     29  O   UNL     1       5.519   2.018   5.468  1.00  0.00    -0.332 OA
ATOM     30  C   UNL     1       2.885   2.481   5.870  1.00  0.00     0.180 C 
ATOM     31  C   UNL     1       5.326   3.136   6.313  1.00  0.00     0.179 C 
ATOM     32  C   UNL     1       3.870   3.645   6.174  1.00  0.00     0.177 C 
BRANCH  28  33
ATOM     33  O   UNL     1       3.314   1.141   7.839  1.00  0.00    -0.384 OA
ATOM     34  H   UNL     1       4.173   0.786   8.194  1.00  0.00     0.211 HD
ENDBRANCH  28  33
BRANCH  30  35
ATOM     35  O   UNL     1       2.698   2.394   4.477  1.00  0.00    -0.387 OA
ATOM     36  H   UNL     1       1.863   1.877   4.321  1.00  0.00     0.211 HD
ENDBRANCH  30  35
BRANCH  31  37
ATOM     37  C   UNL     1       6.355   4.222   5.972  1.00  0.00     0.191 C 
BRANCH  37  38
ATOM     38  O   UNL     1       6.136   4.737   4.684  1.00  0.00    -0.394 OA
ATOM     39  H   UNL     1       6.509   4.083   4.039  1.00  0.00     0.210 HD
ENDBRANCH  37  38
ENDBRANCH  31  37
BRANCH  32  40
ATOM     40  O   UNL     1       3.490   4.362   7.326  1.00  0.00    -0.387 OA
ATOM     41  H   UNL     1       3.074   5.212   7.035  1.00  0.00     0.211 HD
ENDBRANCH  32  40
ENDBRANCH   1  27
TORSDOF 12
ENDMDL
