MODEL 1
REMARK VINA RESULT:    -3.392      0.000      0.000
REMARK INTER + INTRA:          -4.177
REMARK INTER:                  -3.888
REMARK INTRA:                  -0.289
REMARK UNBOUND:                -0.289
REMARK SMILES O=C([O-])C=Cc1ccc(O)cc1
REMARK SMILES IDX 6 1 7 2 12 3 8 4 11 5 9 6 5 7 4 8 2 9 1 10 3 11 10 12
REMARK H PARENT 10 13
REMARK Flexibility Score: inf
ROOT
ATOM      1  C   UNL     1       7.702 -32.627  14.523  1.00  0.00    -0.025 A 
ATOM      2  C   UNL     1       8.509 -32.655  13.372  1.00  0.00     0.012 A 
ATOM      3  C   UNL     1       8.272 -32.259  15.751  1.00  0.00     0.012 A 
ATOM      4  C   UNL     1       9.851 -32.270  13.442  1.00  0.00     0.047 A 
ATOM      5  C   UNL     1       9.614 -31.874  15.819  1.00  0.00     0.047 A 
ATOM      6  C   UNL     1      10.407 -31.874  14.667  1.00  0.00     0.115 A 
ENDROOT
BRANCH   1   7
ATOM      7  C   UNL     1       6.297 -33.079  14.485  1.00  0.00     0.010 C 
ATOM      8  C   UNL     1       5.875 -34.330  14.728  1.00  0.00     0.025 C 
BRANCH   8   9
ATOM      9  C   UNL     1       6.740 -35.514  14.898  1.00  0.00     0.064 C 
ATOM     10  O   UNL     1       6.999 -35.982  16.036  1.00  0.00    -0.545 OA
ATOM     11  O   UNL     1       7.336 -36.082  13.779  1.00  0.00    -0.545 OA
ENDBRANCH   8   9
ENDBRANCH   1   7
BRANCH   6  12
ATOM     12  O   UNL     1      11.742 -31.488  14.749  1.00  0.00    -0.508 OA
ATOM     13  H   UNL     1      12.309 -31.361  13.919  1.00  0.00     0.293 HD
ENDBRANCH   6  12
TORSDOF 3
ENDMDL
MODEL 2
REMARK VINA RESULT:    -3.348      2.473      4.005
REMARK INTER + INTRA:          -4.126
REMARK INTER:                  -3.877
REMARK INTRA:                  -0.250
REMARK UNBOUND:                -0.289
REMARK SMILES O=C([O-])C=Cc1ccc(O)cc1
REMARK SMILES IDX 6 1 7 2 12 3 8 4 11 5 9 6 5 7 4 8 2 9 1 10 3 11 10 12
REMARK H PARENT 10 13
REMARK Flexibility Score: inf
ROOT
ATOM      1  C   UNL     1       8.919 -32.294  15.222  1.00  0.00    -0.025 A 
ATOM      2  C   UNL     1       8.124 -33.187  15.962  1.00  0.00     0.012 A 
ATOM      3  C   UNL     1       9.681 -31.330  15.900  1.00  0.00     0.012 A 
ATOM      4  C   UNL     1       8.135 -33.148  17.360  1.00  0.00     0.047 A 
ATOM      5  C   UNL     1       9.690 -31.293  17.297  1.00  0.00     0.047 A 
ATOM      6  C   UNL     1       8.922 -32.202  18.032  1.00  0.00     0.115 A 
ENDROOT
BRANCH   1   7
ATOM      7  C   UNL     1       8.884 -32.281  13.746  1.00  0.00     0.010 C 
ATOM      8  C   UNL     1       9.796 -32.850  12.941  1.00  0.00     0.025 C 
BRANCH   8   9
ATOM      9  C   UNL     1      11.083 -33.431  13.370  1.00  0.00     0.064 C 
ATOM     10  O   UNL     1      11.203 -34.661  13.609  1.00  0.00    -0.545 OA
ATOM     11  O   UNL     1      12.167 -32.590  13.581  1.00  0.00    -0.545 OA
ENDBRANCH   8   9
ENDBRANCH   1   7
BRANCH   6  12
ATOM     12  O   UNL     1       8.940 -32.154  19.424  1.00  0.00    -0.508 OA
ATOM     13  H   UNL     1       8.453 -32.843  19.984  1.00  0.00     0.293 HD
ENDBRANCH   6  12
TORSDOF 3
ENDMDL
MODEL 3
REMARK VINA RESULT:    -3.297      2.496      3.767
REMARK INTER + INTRA:          -4.068
REMARK INTER:                  -4.292
REMARK INTRA:                   0.224
REMARK UNBOUND:                -0.289
REMARK SMILES O=C([O-])C=Cc1ccc(O)cc1
REMARK SMILES IDX 6 1 7 2 12 3 8 4 11 5 9 6 5 7 4 8 2 9 1 10 3 11 10 12
REMARK H PARENT 10 13
REMARK Flexibility Score: inf
ROOT
ATOM      1  C   UNL     1       9.550 -32.166  15.494  1.00  0.00    -0.025 A 
ATOM      2  C   UNL     1       9.920 -31.166  16.410  1.00  0.00     0.012 A 
ATOM      3  C   UNL     1       8.794 -33.261  15.940  1.00  0.00     0.012 A 
ATOM      4  C   UNL     1       9.493 -31.236  17.740  1.00  0.00     0.047 A 
ATOM      5  C   UNL     1       8.368 -33.329  17.270  1.00  0.00     0.047 A 
ATOM      6  C   UNL     1       8.712 -32.317  18.173  1.00  0.00     0.115 A 
ENDROOT
BRANCH   1   7
ATOM      7  C   UNL     1      10.033 -32.142  14.098  1.00  0.00     0.010 C 
ATOM      8  C   UNL     1       9.291 -32.419  13.014  1.00  0.00     0.025 C 
BRANCH   8   9
ATOM      9  C   UNL     1       7.922 -32.970  13.023  1.00  0.00     0.064 C 
ATOM     10  O   UNL     1       7.706 -34.201  12.877  1.00  0.00    -0.545 OA
ATOM     11  O   UNL     1       6.844 -32.100  13.126  1.00  0.00    -0.545 OA
ENDBRANCH   8   9
ENDBRANCH   1   7
BRANCH   6  12
ATOM     12  O   UNL     1       8.281 -32.397  19.495  1.00  0.00    -0.508 OA
ATOM     13  H   UNL     1       7.993 -31.574  20.009  1.00  0.00     0.293 HD
ENDBRANCH   6  12
TORSDOF 3
ENDMDL
MODEL 4
REMARK VINA RESULT:    -3.231      2.236      2.988
REMARK INTER + INTRA:          -3.992
REMARK INTER:                  -3.802
REMARK INTRA:                  -0.190
REMARK UNBOUND:                -0.289
REMARK SMILES O=C([O-])C=Cc1ccc(O)cc1
REMARK SMILES IDX 6 1 7 2 12 3 8 4 11 5 9 6 5 7 4 8 2 9 1 10 3 11 10 12
REMARK H PARENT 10 13
REMARK Flexibility Score: inf
ROOT
ATOM      1  C   UNL     1       9.023 -32.952  13.995  1.00  0.00    -0.025 A 
ATOM      2  C   UNL     1       9.266 -34.288  13.634  1.00  0.00     0.012 A 
ATOM      3  C   UNL     1      10.091 -32.042  14.021  1.00  0.00     0.012 A 
ATOM      4  C   UNL     1      10.549 -34.693  13.254  1.00  0.00     0.047 A 
ATOM      5  C   UNL     1      11.373 -32.449  13.641  1.00  0.00     0.047 A 
ATOM      6  C   UNL     1      11.607 -33.772  13.253  1.00  0.00     0.115 A 
ENDROOT
BRANCH   1   7
ATOM      7  C   UNL     1       7.688 -32.512  14.452  1.00  0.00     0.010 C 
ATOM      8  C   UNL     1       7.322 -32.336  15.731  1.00  0.00     0.025 C 
BRANCH   8   9
ATOM      9  C   UNL     1       8.116 -32.717  16.916  1.00  0.00     0.064 C 
ATOM     10  O   UNL     1       8.528 -31.857  17.737  1.00  0.00    -0.545 OA
ATOM     11  O   UNL     1       8.475 -34.047  17.090  1.00  0.00    -0.545 OA
ENDBRANCH   8   9
ENDBRANCH   1   7
BRANCH   6  12
ATOM     12  O   UNL     1      12.889 -34.164  12.875  1.00  0.00    -0.508 OA
ATOM     13  H   UNL     1      13.645 -34.219  13.546  1.00  0.00     0.293 HD
ENDBRANCH   6  12
TORSDOF 3
ENDMDL
MODEL 5
REMARK VINA RESULT:    -3.065      2.127      3.197
REMARK INTER + INTRA:          -3.802
REMARK INTER:                  -3.616
REMARK INTRA:                  -0.186
REMARK UNBOUND:                -0.289
REMARK SMILES O=C([O-])C=Cc1ccc(O)cc1
REMARK SMILES IDX 6 1 7 2 12 3 8 4 11 5 9 6 5 7 4 8 2 9 1 10 3 11 10 12
REMARK H PARENT 10 13
REMARK Flexibility Score: inf
ROOT
ATOM      1  C   UNL     1       9.865 -32.523  14.061  1.00  0.00    -0.025 A 
ATOM      2  C   UNL     1      10.584 -31.419  14.550  1.00  0.00     0.012 A 
ATOM      3  C   UNL     1      10.545 -33.524  13.349  1.00  0.00     0.012 A 
ATOM      4  C   UNL     1      11.969 -31.345  14.374  1.00  0.00     0.047 A 
ATOM      5  C   UNL     1      11.929 -33.449  13.174  1.00  0.00     0.047 A 
ATOM      6  C   UNL     1      12.647 -32.363  13.688  1.00  0.00     0.115 A 
ENDROOT
BRANCH   1   7
ATOM      7  C   UNL     1       8.395 -32.597  14.188  1.00  0.00     0.010 C 
ATOM      8  C   UNL     1       7.719 -32.707  15.342  1.00  0.00     0.025 C 
BRANCH   8   9
ATOM      9  C   UNL     1       8.313 -32.955  16.670  1.00  0.00     0.064 C 
ATOM     10  O   UNL     1       8.545 -34.122  17.081  1.00  0.00    -0.545 OA
ATOM     11  O   UNL     1       8.557 -31.879  17.513  1.00  0.00    -0.545 OA
ENDBRANCH   8   9
ENDBRANCH   1   7
BRANCH   6  12
ATOM     12  O   UNL     1      14.026 -32.301  13.508  1.00  0.00    -0.508 OA
ATOM     13  H   UNL     1      14.459 -31.552  12.982  1.00  0.00     0.293 HD
ENDBRANCH   6  12
TORSDOF 3
ENDMDL
MODEL 6
REMARK VINA RESULT:    -2.892      2.096      2.719
REMARK INTER + INTRA:          -3.603
REMARK INTER:                  -3.695
REMARK INTRA:                   0.091
REMARK UNBOUND:                -0.289
REMARK SMILES O=C([O-])C=Cc1ccc(O)cc1
REMARK SMILES IDX 6 1 7 2 12 3 8 4 11 5 9 6 5 7 4 8 2 9 1 10 3 11 10 12
REMARK H PARENT 10 13
REMARK Flexibility Score: inf
ROOT
ATOM      1  C   UNL     1       8.503 -33.270  16.493  1.00  0.00    -0.025 A 
ATOM      2  C   UNL     1       9.293 -32.581  15.556  1.00  0.00     0.012 A 
ATOM      3  C   UNL     1       8.393 -32.769  17.799  1.00  0.00     0.012 A 
ATOM      4  C   UNL     1       9.920 -31.382  15.909  1.00  0.00     0.047 A 
ATOM      5  C   UNL     1       9.021 -31.570  18.150  1.00  0.00     0.047 A 
ATOM      6  C   UNL     1       9.782 -30.871  17.207  1.00  0.00     0.115 A 
ENDROOT
BRANCH   1   7
ATOM      7  C   UNL     1       7.874 -34.565  16.160  1.00  0.00     0.010 C 
ATOM      8  C   UNL     1       7.238 -34.849  15.013  1.00  0.00     0.025 C 
BRANCH   8   9
ATOM      9  C   UNL     1       6.891 -33.879  13.956  1.00  0.00     0.064 C 
ATOM     10  O   UNL     1       7.534 -33.824  12.876  1.00  0.00    -0.545 OA
ATOM     11  O   UNL     1       5.876 -32.960  14.188  1.00  0.00    -0.545 OA
ENDBRANCH   8   9
ENDBRANCH   1   7
BRANCH   6  12
ATOM     12  O   UNL     1      10.402 -29.677  17.570  1.00  0.00    -0.508 OA
ATOM     13  H   UNL     1      10.517 -28.918  16.910  1.00  0.00     0.293 HD
ENDBRANCH   6  12
TORSDOF 3
ENDMDL
MODEL 7
REMARK VINA RESULT:    -2.804      2.168      5.083
REMARK INTER + INTRA:          -3.503
REMARK INTER:                  -3.898
REMARK INTRA:                   0.395
REMARK UNBOUND:                -0.289
REMARK SMILES O=C([O-])C=Cc1ccc(O)cc1
REMARK SMILES IDX 6 1 7 2 12 3 8 4 11 5 9 6 5 7 4 8 2 9 1 10 3 11 10 12
REMARK H PARENT 10 13
REMARK Flexibility Score: inf
ROOT
ATOM      1  C   UNL     1       9.843 -33.265  13.649  1.00  0.00    -0.025 A 
ATOM      2  C   UNL     1       9.505 -33.676  14.950  1.00  0.00     0.012 A 
ATOM      3  C   UNL     1       8.891 -32.583  12.875  1.00  0.00     0.012 A 
ATOM      4  C   UNL     1       8.252 -33.361  15.485  1.00  0.00     0.047 A 
ATOM      5  C   UNL     1       7.639 -32.270  13.412  1.00  0.00     0.047 A 
ATOM      6  C   UNL     1       7.316 -32.653  14.718  1.00  0.00     0.115 A 
ENDROOT
BRANCH   1   7
ATOM      7  C   UNL     1      11.139 -33.631  13.042  1.00  0.00     0.010 C 
ATOM      8  C   UNL     1      12.307 -33.009  13.269  1.00  0.00     0.025 C 
BRANCH   8   9
ATOM      9  C   UNL     1      12.483 -31.747  14.014  1.00  0.00     0.064 C 
ATOM     10  O   UNL     1      11.519 -31.190  14.601  1.00  0.00    -0.545 OA
ATOM     11  O   UNL     1      13.724 -31.126  14.009  1.00  0.00    -0.545 OA
ENDBRANCH   8   9
ENDBRANCH   1   7
BRANCH   6  12
ATOM     12  O   UNL     1       6.066 -32.334  15.241  1.00  0.00    -0.508 OA
ATOM     13  H   UNL     1       5.947 -32.084  16.215  1.00  0.00     0.293 HD
ENDBRANCH   6  12
TORSDOF 3
ENDMDL
MODEL 8
REMARK VINA RESULT:    -2.723      2.193      4.301
REMARK INTER + INTRA:          -3.410
REMARK INTER:                  -3.379
REMARK INTRA:                  -0.031
REMARK UNBOUND:                -0.289
REMARK SMILES O=C([O-])C=Cc1ccc(O)cc1
REMARK SMILES IDX 6 1 7 2 12 3 8 4 11 5 9 6 5 7 4 8 2 9 1 10 3 11 10 12
REMARK H PARENT 10 13
REMARK Flexibility Score: inf
ROOT
ATOM      1  C   UNL     1       8.437 -32.887  14.785  1.00  0.00    -0.025 A 
ATOM      2  C   UNL     1       8.949 -34.092  14.273  1.00  0.00     0.012 A 
ATOM      3  C   UNL     1       7.074 -32.596  14.621  1.00  0.00     0.012 A 
ATOM      4  C   UNL     1       8.098 -35.012  13.653  1.00  0.00     0.047 A 
ATOM      5  C   UNL     1       6.226 -33.517  14.000  1.00  0.00     0.047 A 
ATOM      6  C   UNL     1       6.732 -34.728  13.518  1.00  0.00     0.115 A 
ENDROOT
BRANCH   1   7
ATOM      7  C   UNL     1       9.324 -31.877  15.397  1.00  0.00     0.010 C 
ATOM      8  C   UNL     1       9.474 -31.668  16.714  1.00  0.00     0.025 C 
BRANCH   8   9
ATOM      9  C   UNL     1       8.656 -32.276  17.782  1.00  0.00     0.064 C 
ATOM     10  O   UNL     1       8.147 -31.580  18.699  1.00  0.00    -0.545 OA
ATOM     11  O   UNL     1       8.502 -33.656  17.814  1.00  0.00    -0.545 OA
ENDBRANCH   8   9
ENDBRANCH   1   7
BRANCH   6  12
ATOM     12  O   UNL     1       5.875 -35.637  12.903  1.00  0.00    -0.508 OA
ATOM     13  H   UNL     1       5.186 -36.157  13.431  1.00  0.00     0.293 HD
ENDBRANCH   6  12
TORSDOF 3
ENDMDL
MODEL 9
REMARK VINA RESULT:    -2.666      1.394      4.733
REMARK INTER + INTRA:          -3.344
REMARK INTER:                  -3.077
REMARK INTRA:                  -0.267
REMARK UNBOUND:                -0.289
REMARK SMILES O=C([O-])C=Cc1ccc(O)cc1
REMARK SMILES IDX 6 1 7 2 12 3 8 4 11 5 9 6 5 7 4 8 2 9 1 10 3 11 10 12
REMARK H PARENT 10 13
REMARK Flexibility Score: inf
ROOT
ATOM      1  C   UNL     1       7.921 -33.436  13.687  1.00  0.00    -0.025 A 
ATOM      2  C   UNL     1       7.612 -33.384  15.058  1.00  0.00     0.012 A 
ATOM      3  C   UNL     1       7.924 -34.677  13.032  1.00  0.00     0.012 A 
ATOM      4  C   UNL     1       7.260 -34.549  15.746  1.00  0.00     0.047 A 
ATOM      5  C   UNL     1       7.573 -35.841  13.722  1.00  0.00     0.047 A 
ATOM      6  C   UNL     1       7.236 -35.781  15.078  1.00  0.00     0.115 A 
ENDROOT
BRANCH   1   7
ATOM      7  C   UNL     1       8.347 -32.229  12.951  1.00  0.00     0.010 C 
ATOM      8  C   UNL     1       9.605 -31.766  12.876  1.00  0.00     0.025 C 
BRANCH   8   9
ATOM      9  C   UNL     1      10.756 -32.267  13.653  1.00  0.00     0.064 C 
ATOM     10  O   UNL     1      11.378 -33.306  13.312  1.00  0.00    -0.545 OA
ATOM     11  O   UNL     1      11.116 -31.614  14.824  1.00  0.00    -0.545 OA
ENDBRANCH   8   9
ENDBRANCH   1   7
BRANCH   6  12
ATOM     12  O   UNL     1       6.887 -36.948  15.753  1.00  0.00    -0.508 OA
ATOM     13  H   UNL     1       6.299 -37.653  15.325  1.00  0.00     0.293 HD
ENDBRANCH   6  12
TORSDOF 3
ENDMDL
