MODEL 1
REMARK VINA RESULT:    -4.217      0.000      0.000
REMARK INTER + INTRA:          -8.995
REMARK INTER:                  -7.175
REMARK INTRA:                  -1.819
REMARK UNBOUND:                -1.819
REMARK SMILES CCCCCCCCCCCCCC(=O)[O-]
REMARK SMILES IDX 8 1 9 2 10 3 11 4 12 5 13 6 14 7 15 8 16 9 7 10 6 11 5 12
REMARK SMILES IDX 4 13 3 14 2 15 1 16
REMARK H PARENT
REMARK Flexibility Score: inf
ROOT
ATOM      1  C   UNL     1      -1.883   7.988 -58.834  1.00  0.00     0.000 C 
ENDROOT
BRANCH   1   2
ATOM      2  C   UNL     1      -2.347   6.666 -59.475  1.00  0.00     0.000 C 
BRANCH   2   3
ATOM      3  C   UNL     1      -2.093   5.442 -58.579  1.00  0.00     0.000 C 
BRANCH   3   4
ATOM      4  C   UNL     1      -0.941   5.659 -57.580  1.00  0.00     0.000 C 
BRANCH   4   5
ATOM      5  C   UNL     1      -1.331   5.561 -56.090  1.00  0.00     0.006 C 
BRANCH   5   6
ATOM      6  C   UNL     1      -1.300   6.897 -55.331  1.00  0.00     0.053 C 
BRANCH   6   7
ATOM      7  C   UNL     1      -0.181   6.952 -54.338  1.00  0.00     0.041 C 
ATOM      8  O   UNL     1       0.067   8.020 -53.719  1.00  0.00    -0.550 OA
ATOM      9  O   UNL     1       0.568   5.813 -54.072  1.00  0.00    -0.550 OA
ENDBRANCH   6   7
ENDBRANCH   5   6
ENDBRANCH   4   5
ENDBRANCH   3   4
ENDBRANCH   2   3
ENDBRANCH   1   2
BRANCH   1  10
ATOM     10  C   UNL     1      -2.899   9.145 -58.890  1.00  0.00     0.000 C 
BRANCH  10  11
ATOM     11  C   UNL     1      -4.285   8.757 -58.347  1.00  0.00    -0.000 C 
BRANCH  11  12
ATOM     12  C   UNL     1      -4.262   8.380 -56.855  1.00  0.00    -0.000 C 
BRANCH  12  13
ATOM     13  C   UNL     1      -4.886   7.015 -56.508  1.00  0.00    -0.000 C 
BRANCH  13  14
ATOM     14  C   UNL     1      -5.639   6.380 -57.690  1.00  0.00    -0.000 C 
BRANCH  14  15
ATOM     15  C   UNL     1      -7.161   6.360 -57.477  1.00  0.00    -0.003 C 
ATOM     16  C   UNL     1      -7.844   7.639 -57.961  1.00  0.00     0.004 C 
ENDBRANCH  14  15
ENDBRANCH  13  14
ENDBRANCH  12  13
ENDBRANCH  11  12
ENDBRANCH  10  11
ENDBRANCH   1  10
TORSDOF 12
ENDMDL
MODEL 2
REMARK VINA RESULT:    -4.212      1.201      2.648
REMARK INTER + INTRA:          -8.986
REMARK INTER:                  -7.113
REMARK INTRA:                  -1.873
REMARK UNBOUND:                -1.819
REMARK SMILES CCCCCCCCCCCCCC(=O)[O-]
REMARK SMILES IDX 8 1 9 2 10 3 11 4 12 5 13 6 14 7 15 8 16 9 7 10 6 11 5 12
REMARK SMILES IDX 4 13 3 14 2 15 1 16
REMARK H PARENT
REMARK Flexibility Score: inf
ROOT
ATOM      1  C   UNL     1      -2.740   5.114 -59.457  1.00  0.00     0.000 C 
ENDROOT
BRANCH   1   2
ATOM      2  C   UNL     1      -2.123   6.524 -59.509  1.00  0.00     0.000 C 
BRANCH   2   3
ATOM      3  C   UNL     1      -0.938   6.697 -58.543  1.00  0.00     0.000 C 
BRANCH   3   4
ATOM      4  C   UNL     1      -0.339   5.354 -58.081  1.00  0.00     0.000 C 
BRANCH   4   5
ATOM      5  C   UNL     1      -0.424   5.081 -56.565  1.00  0.00     0.006 C 
BRANCH   5   6
ATOM      6  C   UNL     1      -0.840   6.294 -55.718  1.00  0.00     0.053 C 
BRANCH   6   7
ATOM      7  C   UNL     1       0.051   6.480 -54.530  1.00  0.00     0.041 C 
ATOM      8  O   UNL     1       0.514   5.480 -53.920  1.00  0.00    -0.550 OA
ATOM      9  O   UNL     1       0.398   7.759 -54.115  1.00  0.00    -0.550 OA
ENDBRANCH   6   7
ENDBRANCH   5   6
ENDBRANCH   4   5
ENDBRANCH   3   4
ENDBRANCH   2   3
ENDBRANCH   1   2
BRANCH   1  10
ATOM     10  C   UNL     1      -4.142   5.026 -58.823  1.00  0.00     0.000 C 
BRANCH  10  11
ATOM     11  C   UNL     1      -4.110   5.055 -57.285  1.00  0.00    -0.000 C 
BRANCH  11  12
ATOM     12  C   UNL     1      -5.028   6.135 -56.685  1.00  0.00    -0.000 C 
BRANCH  12  13
ATOM     13  C   UNL     1      -4.570   7.589 -56.903  1.00  0.00    -0.000 C 
BRANCH  13  14
ATOM     14  C   UNL     1      -5.393   8.325 -57.974  1.00  0.00    -0.000 C 
BRANCH  14  15
ATOM     15  C   UNL     1      -4.537   9.278 -58.823  1.00  0.00    -0.003 C 
ATOM     16  C   UNL     1      -3.215   9.648 -58.150  1.00  0.00     0.004 C 
ENDBRANCH  14  15
ENDBRANCH  13  14
ENDBRANCH  12  13
ENDBRANCH  11  12
ENDBRANCH  10  11
ENDBRANCH   1  10
TORSDOF 12
ENDMDL
MODEL 3
REMARK VINA RESULT:    -4.030      3.551      5.884
REMARK INTER + INTRA:          -8.677
REMARK INTER:                  -6.884
REMARK INTRA:                  -1.792
REMARK UNBOUND:                -1.819
REMARK SMILES CCCCCCCCCCCCCC(=O)[O-]
REMARK SMILES IDX 8 1 9 2 10 3 11 4 12 5 13 6 14 7 15 8 16 9 7 10 6 11 5 12
REMARK SMILES IDX 4 13 3 14 2 15 1 16
REMARK H PARENT
REMARK Flexibility Score: inf
ROOT
ATOM      1  C   UNL     1      -3.301   9.214 -57.840  1.00  0.00     0.000 C 
ENDROOT
BRANCH   1   2
ATOM      2  C   UNL     1      -4.652   8.536 -57.542  1.00  0.00     0.000 C 
BRANCH   2   3
ATOM      3  C   UNL     1      -4.613   7.641 -56.292  1.00  0.00     0.000 C 
BRANCH   3   4
ATOM      4  C   UNL     1      -4.650   6.138 -56.629  1.00  0.00     0.000 C 
BRANCH   4   5
ATOM      5  C   UNL     1      -5.617   5.740 -57.763  1.00  0.00     0.006 C 
BRANCH   5   6
ATOM      6  C   UNL     1      -6.945   5.130 -57.288  1.00  0.00     0.053 C 
BRANCH   6   7
ATOM      7  C   UNL     1      -8.121   5.961 -57.696  1.00  0.00     0.041 C 
ATOM      8  O   UNL     1      -9.231   5.417 -57.935  1.00  0.00    -0.550 OA
ATOM      9  O   UNL     1      -8.001   7.343 -57.780  1.00  0.00    -0.550 OA
ENDBRANCH   6   7
ENDBRANCH   5   6
ENDBRANCH   4   5
ENDBRANCH   3   4
ENDBRANCH   2   3
ENDBRANCH   1   2
BRANCH   1  10
ATOM     10  C   UNL     1      -2.639   8.816 -59.173  1.00  0.00     0.000 C 
BRANCH  10  11
ATOM     11  C   UNL     1      -1.623   7.670 -59.023  1.00  0.00    -0.000 C 
BRANCH  11  12
ATOM     12  C   UNL     1      -2.221   6.290 -59.349  1.00  0.00    -0.000 C 
BRANCH  12  13
ATOM     13  C   UNL     1      -1.697   5.122 -58.492  1.00  0.00    -0.000 C 
BRANCH  13  14
ATOM     14  C   UNL     1      -0.392   5.459 -57.750  1.00  0.00    -0.000 C 
BRANCH  14  15
ATOM     15  C   UNL     1      -0.513   5.271 -56.230  1.00  0.00    -0.003 C 
ATOM     16  C   UNL     1      -1.079   6.502 -55.523  1.00  0.00     0.004 C 
ENDBRANCH  14  15
ENDBRANCH  13  14
ENDBRANCH  12  13
ENDBRANCH  11  12
ENDBRANCH  10  11
ENDBRANCH   1  10
TORSDOF 12
ENDMDL
MODEL 4
REMARK VINA RESULT:    -4.014      2.456      5.293
REMARK INTER + INTRA:          -8.649
REMARK INTER:                  -7.247
REMARK INTRA:                  -1.402
REMARK UNBOUND:                -1.819
REMARK SMILES CCCCCCCCCCCCCC(=O)[O-]
REMARK SMILES IDX 8 1 9 2 10 3 11 4 12 5 13 6 14 7 15 8 16 9 7 10 6 11 5 12
REMARK SMILES IDX 4 13 3 14 2 15 1 16
REMARK H PARENT
REMARK Flexibility Score: inf
ROOT
ATOM      1  C   UNL     1      -2.156   6.815 -59.389  1.00  0.00     0.000 C 
ENDROOT
BRANCH   1   2
ATOM      2  C   UNL     1      -2.788   5.440 -59.674  1.00  0.00     0.000 C 
BRANCH   2   3
ATOM      3  C   UNL     1      -4.282   5.378 -59.311  1.00  0.00     0.000 C 
BRANCH   3   4
ATOM      4  C   UNL     1      -4.531   5.384 -57.791  1.00  0.00     0.000 C 
BRANCH   4   5
ATOM      5  C   UNL     1      -5.543   6.436 -57.292  1.00  0.00     0.006 C 
BRANCH   5   6
ATOM      6  C   UNL     1      -5.689   7.666 -58.202  1.00  0.00     0.053 C 
BRANCH   6   7
ATOM      7  C   UNL     1      -4.757   8.769 -57.806  1.00  0.00     0.041 C 
ATOM      8  O   UNL     1      -4.293   8.820 -56.636  1.00  0.00    -0.550 OA
ATOM      9  O   UNL     1      -4.372   9.723 -58.740  1.00  0.00    -0.550 OA
ENDBRANCH   6   7
ENDBRANCH   5   6
ENDBRANCH   4   5
ENDBRANCH   3   4
ENDBRANCH   2   3
ENDBRANCH   1   2
BRANCH   1  10
ATOM     10  C   UNL     1      -0.798   6.783 -58.662  1.00  0.00     0.000 C 
BRANCH  10  11
ATOM     11  C   UNL     1      -0.560   5.476 -57.887  1.00  0.00    -0.000 C 
BRANCH  11  12
ATOM     12  C   UNL     1      -0.513   5.680 -56.361  1.00  0.00    -0.000 C 
BRANCH  12  13
ATOM     13  C   UNL     1      -1.562   6.653 -55.791  1.00  0.00    -0.000 C 
BRANCH  13  14
ATOM     14  C   UNL     1      -1.448   6.836 -54.268  1.00  0.00    -0.000 C 
BRANCH  14  15
ATOM     15  C   UNL     1       0.010   6.945 -53.795  1.00  0.00    -0.003 C 
ATOM     16  C   UNL     1       0.377   8.353 -53.326  1.00  0.00     0.004 C 
ENDBRANCH  14  15
ENDBRANCH  13  14
ENDBRANCH  12  13
ENDBRANCH  11  12
ENDBRANCH  10  11
ENDBRANCH   1  10
TORSDOF 12
ENDMDL
MODEL 5
REMARK VINA RESULT:    -4.012      3.570      6.197
REMARK INTER + INTRA:          -8.646
REMARK INTER:                  -7.386
REMARK INTRA:                  -1.260
REMARK UNBOUND:                -1.819
REMARK SMILES CCCCCCCCCCCCCC(=O)[O-]
REMARK SMILES IDX 8 1 9 2 10 3 11 4 12 5 13 6 14 7 15 8 16 9 7 10 6 11 5 12
REMARK SMILES IDX 4 13 3 14 2 15 1 16
REMARK H PARENT
REMARK Flexibility Score: inf
ROOT
ATOM      1  C   UNL     1      -3.513   8.630 -56.407  1.00  0.00     0.000 C 
ENDROOT
BRANCH   1   2
ATOM      2  C   UNL     1      -3.343   8.904 -57.913  1.00  0.00     0.000 C 
BRANCH   2   3
ATOM      3  C   UNL     1      -4.604   8.573 -58.731  1.00  0.00     0.000 C 
BRANCH   3   4
ATOM      4  C   UNL     1      -4.587   7.144 -59.306  1.00  0.00     0.000 C 
BRANCH   4   5
ATOM      5  C   UNL     1      -5.305   6.080 -58.451  1.00  0.00     0.006 C 
BRANCH   5   6
ATOM      6  C   UNL     1      -6.163   6.649 -57.309  1.00  0.00     0.053 C 
BRANCH   6   7
ATOM      7  C   UNL     1      -7.589   6.842 -57.722  1.00  0.00     0.041 C 
ATOM      8  O   UNL     1      -8.001   7.980 -58.070  1.00  0.00    -0.550 OA
ATOM      9  O   UNL     1      -8.456   5.757 -57.755  1.00  0.00    -0.550 OA
ENDBRANCH   6   7
ENDBRANCH   5   6
ENDBRANCH   4   5
ENDBRANCH   3   4
ENDBRANCH   2   3
ENDBRANCH   1   2
BRANCH   1  10
ATOM     10  C   UNL     1      -2.676   7.465 -55.846  1.00  0.00     0.000 C 
BRANCH  10  11
ATOM     11  C   UNL     1      -1.864   6.731 -56.928  1.00  0.00    -0.000 C 
BRANCH  11  12
ATOM     12  C   UNL     1      -1.009   5.583 -56.363  1.00  0.00    -0.000 C 
BRANCH  12  13
ATOM     13  C   UNL     1       0.181   6.013 -55.485  1.00  0.00    -0.000 C 
BRANCH  13  14
ATOM     14  C   UNL     1       0.035   5.577 -54.018  1.00  0.00    -0.000 C 
BRANCH  14  15
ATOM     15  C   UNL     1      -0.336   6.745 -53.090  1.00  0.00    -0.003 C 
ATOM     16  C   UNL     1       0.244   8.081 -53.556  1.00  0.00     0.004 C 
ENDBRANCH  14  15
ENDBRANCH  13  14
ENDBRANCH  12  13
ENDBRANCH  11  12
ENDBRANCH  10  11
ENDBRANCH   1  10
TORSDOF 12
ENDMDL
MODEL 6
REMARK VINA RESULT:    -3.946      3.149      5.851
REMARK INTER + INTRA:          -8.534
REMARK INTER:                  -7.377
REMARK INTRA:                  -1.157
REMARK UNBOUND:                -1.819
REMARK SMILES CCCCCCCCCCCCCC(=O)[O-]
REMARK SMILES IDX 8 1 9 2 10 3 11 4 12 5 13 6 14 7 15 8 16 9 7 10 6 11 5 12
REMARK SMILES IDX 4 13 3 14 2 15 1 16
REMARK H PARENT
REMARK Flexibility Score: inf
ROOT
ATOM      1  C   UNL     1      -2.288   6.031 -59.277  1.00  0.00     0.000 C 
ENDROOT
BRANCH   1   2
ATOM      2  C   UNL     1      -1.805   7.481 -59.087  1.00  0.00     0.000 C 
BRANCH   2   3
ATOM      3  C   UNL     1      -2.944   8.453 -58.737  1.00  0.00     0.000 C 
BRANCH   3   4
ATOM      4  C   UNL     1      -3.284   8.465 -57.235  1.00  0.00     0.000 C 
BRANCH   4   5
ATOM      5  C   UNL     1      -4.710   8.000 -56.876  1.00  0.00     0.006 C 
BRANCH   5   6
ATOM      6  C   UNL     1      -5.563   7.566 -58.079  1.00  0.00     0.053 C 
BRANCH   6   7
ATOM      7  C   UNL     1      -6.859   6.949 -57.654  1.00  0.00     0.041 C 
ATOM      8  O   UNL     1      -7.946   7.548 -57.862  1.00  0.00    -0.550 OA
ATOM      9  O   UNL     1      -6.869   5.695 -57.055  1.00  0.00    -0.550 OA
ENDBRANCH   6   7
ENDBRANCH   5   6
ENDBRANCH   4   5
ENDBRANCH   3   4
ENDBRANCH   2   3
ENDBRANCH   1   2
BRANCH   1  10
ATOM     10  C   UNL     1      -1.600   4.979 -58.386  1.00  0.00     0.000 C 
BRANCH  10  11
ATOM     11  C   UNL     1      -0.332   5.511 -57.696  1.00  0.00    -0.000 C 
BRANCH  11  12
ATOM     12  C   UNL     1      -0.389   5.400 -56.162  1.00  0.00    -0.000 C 
BRANCH  12  13
ATOM     13  C   UNL     1      -1.123   6.547 -55.442  1.00  0.00    -0.000 C 
BRANCH  13  14
ATOM     14  C   UNL     1      -1.307   6.293 -53.937  1.00  0.00    -0.000 C 
BRANCH  14  15
ATOM     15  C   UNL     1      -0.129   6.821 -53.102  1.00  0.00    -0.003 C 
ATOM     16  C   UNL     1       0.254   8.257 -53.457  1.00  0.00     0.004 C 
ENDBRANCH  14  15
ENDBRANCH  13  14
ENDBRANCH  12  13
ENDBRANCH  11  12
ENDBRANCH  10  11
ENDBRANCH   1  10
TORSDOF 12
ENDMDL
MODEL 7
REMARK VINA RESULT:    -3.935      2.572      4.799
REMARK INTER + INTRA:          -8.516
REMARK INTER:                  -6.615
REMARK INTRA:                  -1.900
REMARK UNBOUND:                -1.819
REMARK SMILES CCCCCCCCCCCCCC(=O)[O-]
REMARK SMILES IDX 8 1 9 2 10 3 11 4 12 5 13 6 14 7 15 8 16 9 7 10 6 11 5 12
REMARK SMILES IDX 4 13 3 14 2 15 1 16
REMARK H PARENT
REMARK Flexibility Score: inf
ROOT
ATOM      1  C   UNL     1      -1.009   6.266 -55.795  1.00  0.00     0.000 C 
ENDROOT
BRANCH   1   2
ATOM      2  C   UNL     1      -2.495   6.232 -55.390  1.00  0.00     0.000 C 
BRANCH   2   3
ATOM      3  C   UNL     1      -3.283   5.111 -56.091  1.00  0.00     0.000 C 
BRANCH   3   4
ATOM      4  C   UNL     1      -4.702   5.544 -56.504  1.00  0.00     0.000 C 
BRANCH   4   5
ATOM      5  C   UNL     1      -4.953   7.066 -56.510  1.00  0.00     0.006 C 
BRANCH   5   6
ATOM      6  C   UNL     1      -5.008   7.700 -57.909  1.00  0.00     0.053 C 
BRANCH   6   7
ATOM      7  C   UNL     1      -4.138   8.914 -58.009  1.00  0.00     0.041 C 
ATOM      8  O   UNL     1      -3.297   9.169 -57.107  1.00  0.00    -0.550 OA
ATOM      9  O   UNL     1      -4.233   9.748 -59.116  1.00  0.00    -0.550 OA
ENDBRANCH   6   7
ENDBRANCH   5   6
ENDBRANCH   4   5
ENDBRANCH   3   4
ENDBRANCH   2   3
ENDBRANCH   1   2
BRANCH   1  10
ATOM     10  C   UNL     1      -0.520   5.066 -56.627  1.00  0.00     0.000 C 
BRANCH  10  11
ATOM     11  C   UNL     1      -0.198   5.435 -58.085  1.00  0.00    -0.000 C 
BRANCH  11  12
ATOM     12  C   UNL     1      -0.912   6.716 -58.553  1.00  0.00    -0.000 C 
BRANCH  12  13
ATOM     13  C   UNL     1      -1.971   6.519 -59.654  1.00  0.00    -0.000 C 
BRANCH  13  14
ATOM     14  C   UNL     1      -2.650   5.141 -59.596  1.00  0.00    -0.000 C 
BRANCH  14  15
ATOM     15  C   UNL     1      -4.014   5.125 -60.302  1.00  0.00    -0.003 C 
ATOM     16  C   UNL     1      -3.939   5.611 -61.750  1.00  0.00     0.004 C 
ENDBRANCH  14  15
ENDBRANCH  13  14
ENDBRANCH  12  13
ENDBRANCH  11  12
ENDBRANCH  10  11
ENDBRANCH   1  10
TORSDOF 12
ENDMDL
MODEL 8
REMARK VINA RESULT:    -3.720     11.574     13.748
REMARK INTER + INTRA:          -8.148
REMARK INTER:                  -6.493
REMARK INTRA:                  -1.656
REMARK UNBOUND:                -1.819
REMARK SMILES CCCCCCCCCCCCCC(=O)[O-]
REMARK SMILES IDX 8 1 9 2 10 3 11 4 12 5 13 6 14 7 15 8 16 9 7 10 6 11 5 12
REMARK SMILES IDX 4 13 3 14 2 15 1 16
REMARK H PARENT
REMARK Flexibility Score: inf
ROOT
ATOM      1  C   UNL     1      -9.153  16.704 -62.987  1.00  0.00     0.000 C 
ENDROOT
BRANCH   1   2
ATOM      2  C   UNL     1      -8.990  16.753 -64.517  1.00  0.00     0.000 C 
BRANCH   2   3
ATOM      3  C   UNL     1      -7.993  17.828 -64.981  1.00  0.00     0.000 C 
BRANCH   3   4
ATOM      4  C   UNL     1      -6.599  17.668 -64.346  1.00  0.00     0.000 C 
BRANCH   4   5
ATOM      5  C   UNL     1      -6.035  18.932 -63.664  1.00  0.00     0.006 C 
BRANCH   5   6
ATOM      6  C   UNL     1      -7.101  19.880 -63.092  1.00  0.00     0.053 C 
BRANCH   6   7
ATOM      7  C   UNL     1      -6.502  20.924 -62.202  1.00  0.00     0.041 C 
ATOM      8  O   UNL     1      -5.822  21.864 -62.693  1.00  0.00    -0.550 OA
ATOM      9  O   UNL     1      -6.723  20.880 -60.831  1.00  0.00    -0.550 OA
ENDBRANCH   6   7
ENDBRANCH   5   6
ENDBRANCH   4   5
ENDBRANCH   3   4
ENDBRANCH   2   3
ENDBRANCH   1   2
BRANCH   1  10
ATOM     10  C   UNL     1      -8.988  15.313 -62.346  1.00  0.00     0.000 C 
BRANCH  10  11
ATOM     11  C   UNL     1      -8.034  15.316 -61.139  1.00  0.00    -0.000 C 
BRANCH  11  12
ATOM     12  C   UNL     1      -7.408  16.696 -60.869  1.00  0.00    -0.000 C 
BRANCH  12  13
ATOM     13  C   UNL     1      -5.869  16.727 -60.824  1.00  0.00    -0.000 C 
BRANCH  13  14
ATOM     14  C   UNL     1      -5.316  17.805 -59.876  1.00  0.00    -0.000 C 
BRANCH  14  15
ATOM     15  C   UNL     1      -4.118  18.558 -60.475  1.00  0.00    -0.003 C 
ATOM     16  C   UNL     1      -2.807  18.265 -59.745  1.00  0.00     0.004 C 
ENDBRANCH  14  15
ENDBRANCH  13  14
ENDBRANCH  12  13
ENDBRANCH  11  12
ENDBRANCH  10  11
ENDBRANCH   1  10
TORSDOF 12
ENDMDL
MODEL 9
REMARK VINA RESULT:    -3.677      1.590      3.319
REMARK INTER + INTRA:          -8.076
REMARK INTER:                  -6.141
REMARK INTRA:                  -1.936
REMARK UNBOUND:                -1.819
REMARK SMILES CCCCCCCCCCCCCC(=O)[O-]
REMARK SMILES IDX 8 1 9 2 10 3 11 4 12 5 13 6 14 7 15 8 16 9 7 10 6 11 5 12
REMARK SMILES IDX 4 13 3 14 2 15 1 16
REMARK H PARENT
REMARK Flexibility Score: inf
ROOT
ATOM      1  C   UNL     1      -3.456   9.261 -57.338  1.00  0.00     0.000 C 
ENDROOT
BRANCH   1   2
ATOM      2  C   UNL     1      -3.707   8.234 -56.218  1.00  0.00     0.000 C 
BRANCH   2   3
ATOM      3  C   UNL     1      -2.413   7.760 -55.535  1.00  0.00     0.000 C 
BRANCH   3   4
ATOM      4  C   UNL     1      -2.160   6.250 -55.712  1.00  0.00     0.000 C 
BRANCH   4   5
ATOM      5  C   UNL     1      -0.681   5.818 -55.660  1.00  0.00     0.006 C 
BRANCH   5   6
ATOM      6  C   UNL     1      -0.295   5.002 -54.416  1.00  0.00     0.053 C 
BRANCH   6   7
ATOM      7  C   UNL     1      -0.693   5.692 -53.148  1.00  0.00     0.041 C 
ATOM      8  O   UNL     1      -0.146   6.777 -52.817  1.00  0.00    -0.550 OA
ATOM      9  O   UNL     1      -1.692   5.153 -52.347  1.00  0.00    -0.550 OA
ENDBRANCH   6   7
ENDBRANCH   5   6
ENDBRANCH   4   5
ENDBRANCH   3   4
ENDBRANCH   2   3
ENDBRANCH   1   2
BRANCH   1  10
ATOM     10  C   UNL     1      -4.296   9.069 -58.615  1.00  0.00     0.000 C 
BRANCH  10  11
ATOM     11  C   UNL     1      -5.199   7.825 -58.561  1.00  0.00    -0.000 C 
BRANCH  11  12
ATOM     12  C   UNL     1      -4.730   6.700 -59.501  1.00  0.00    -0.000 C 
BRANCH  12  13
ATOM     13  C   UNL     1      -4.174   5.444 -58.805  1.00  0.00    -0.000 C 
BRANCH  13  14
ATOM     14  C   UNL     1      -2.667   5.244 -59.038  1.00  0.00    -0.000 C 
BRANCH  14  15
ATOM     15  C   UNL     1      -2.041   6.385 -59.855  1.00  0.00    -0.003 C 
ATOM     16  C   UNL     1      -0.967   7.149 -59.081  1.00  0.00     0.004 C 
ENDBRANCH  14  15
ENDBRANCH  13  14
ENDBRANCH  12  13
ENDBRANCH  11  12
ENDBRANCH  10  11
ENDBRANCH   1  10
TORSDOF 12
ENDMDL
