MODEL 1
REMARK VINA RESULT:    -8.913      0.000      0.000
REMARK INTER + INTRA:         -10.739
REMARK INTER:                 -10.476
REMARK INTRA:                  -0.263
REMARK UNBOUND:                -0.263
REMARK SMILES O=c1cc(-c2ccc(O)c(O)c2)oc2cc(O)cc(O)c12
REMARK SMILES IDX 4 1 3 2 2 3 1 4 21 5 19 6 18 7 16 8 15 9 14 10 13 11 5 12
REMARK SMILES IDX 6 13 7 14 8 15 12 16 10 17 9 18 11 20 20 22 17 24
REMARK H PARENT 9 19 11 21 20 23 17 25
REMARK Flexibility Score: inf
ROOT
ATOM      1  C   UNL     1       3.546 -71.415 208.905  1.00  0.00     0.138 A 
ATOM      2  C   UNL     1       3.733 -72.478 208.009  1.00  0.00     0.100 A 
ATOM      3  C   UNL     1       4.468 -72.275 206.840  1.00  0.00     0.197 A 
ATOM      4  O   UNL     1       4.567 -73.230 206.027  1.00  0.00    -0.289 OA
ATOM      5  C   UNL     1       5.044 -71.007 206.584  1.00  0.00     0.107 A 
ATOM      6  C   UNL     1       5.846 -70.696 205.445  1.00  0.00     0.134 A 
ATOM      7  C   UNL     1       6.266 -69.376 205.237  1.00  0.00     0.093 A 
ATOM      8  C   UNL     1       5.963 -68.371 206.155  1.00  0.00     0.123 A 
ATOM      9  C   UNL     1       5.225 -68.675 207.300  1.00  0.00     0.094 A 
ATOM     10  C   UNL     1       4.763 -69.975 207.518  1.00  0.00     0.146 A 
ATOM     11  O   UNL     1       4.051 -70.222 208.612  1.00  0.00    -0.456 OA
ENDROOT
BRANCH   1  12
ATOM     12  C   UNL     1       2.774 -71.577 210.162  1.00  0.00     0.021 A 
ATOM     13  C   UNL     1       3.456 -71.845 211.362  1.00  0.00     0.016 A 
ATOM     14  C   UNL     1       2.753 -72.009 212.558  1.00  0.00     0.051 A 
ATOM     15  C   UNL     1       1.356 -71.920 212.574  1.00  0.00     0.157 A 
ATOM     16  C   UNL     1       1.368 -71.503 210.184  1.00  0.00     0.062 A 
ATOM     17  C   UNL     1       0.661 -71.669 211.380  1.00  0.00     0.158 A 
BRANCH  15  18
ATOM     18  O   UNL     1       0.657 -72.083 213.770  1.00  0.00    -0.504 OA
ATOM     19  H   UNL     1      -0.345 -71.937 213.823  1.00  0.00     0.293 HD
ENDBRANCH  15  18
BRANCH  17  20
ATOM     20  O   UNL     1      -0.731 -71.586 211.361  1.00  0.00    -0.504 OA
ATOM     21  H   UNL     1      -1.264 -71.667 210.504  1.00  0.00     0.293 HD
ENDBRANCH  17  20
ENDBRANCH   1  12
BRANCH   6  22
ATOM     22  O   UNL     1       6.278 -71.642 204.510  1.00  0.00    -0.507 OA
ATOM     23  H   UNL     1       7.150 -72.146 204.561  1.00  0.00     0.293 HD
ENDBRANCH   6  22
BRANCH   8  24
ATOM     24  O   UNL     1       6.410 -67.071 205.923  1.00  0.00    -0.508 OA
ATOM     25  H   UNL     1       6.916 -66.551 206.631  1.00  0.00     0.293 HD
ENDBRANCH   8  24
TORSDOF 5
ENDMDL
MODEL 2
REMARK VINA RESULT:    -8.574      1.122      2.664
REMARK INTER + INTRA:         -10.341
REMARK INTER:                 -10.077
REMARK INTRA:                  -0.264
REMARK UNBOUND:                -0.263
REMARK SMILES O=c1cc(-c2ccc(O)c(O)c2)oc2cc(O)cc(O)c12
REMARK SMILES IDX 4 1 3 2 2 3 1 4 21 5 19 6 18 7 16 8 15 9 14 10 13 11 5 12
REMARK SMILES IDX 6 13 7 14 8 15 12 16 10 17 9 18 11 20 20 22 17 24
REMARK H PARENT 9 19 11 21 20 23 17 25
REMARK Flexibility Score: inf
ROOT
ATOM      1  C   UNL     1       3.580 -70.694 208.981  1.00  0.00     0.138 A 
ATOM      2  C   UNL     1       4.045 -69.390 208.758  1.00  0.00     0.100 A 
ATOM      3  C   UNL     1       4.736 -69.096 207.581  1.00  0.00     0.197 A 
ATOM      4  O   UNL     1       5.195 -67.933 207.437  1.00  0.00    -0.289 OA
ATOM      5  C   UNL     1       4.934 -70.107 206.611  1.00  0.00     0.107 A 
ATOM      6  C   UNL     1       5.589 -69.913 205.358  1.00  0.00     0.134 A 
ATOM      7  C   UNL     1       5.830 -71.014 204.527  1.00  0.00     0.093 A 
ATOM      8  C   UNL     1       5.389 -72.290 204.877  1.00  0.00     0.123 A 
ATOM      9  C   UNL     1       4.701 -72.483 206.075  1.00  0.00     0.094 A 
ATOM     10  C   UNL     1       4.475 -71.410 206.941  1.00  0.00     0.146 A 
ATOM     11  O   UNL     1       3.828 -71.637 208.078  1.00  0.00    -0.456 OA
ENDROOT
BRANCH   1  12
ATOM     12  C   UNL     1       2.839 -71.060 210.214  1.00  0.00     0.021 A 
ATOM     13  C   UNL     1       3.552 -71.491 211.347  1.00  0.00     0.016 A 
ATOM     14  C   UNL     1       2.878 -71.849 212.517  1.00  0.00     0.051 A 
ATOM     15  C   UNL     1       1.480 -71.793 212.573  1.00  0.00     0.157 A 
ATOM     16  C   UNL     1       1.432 -71.019 210.273  1.00  0.00     0.062 A 
ATOM     17  C   UNL     1       0.755 -71.378 211.444  1.00  0.00     0.158 A 
BRANCH  15  18
ATOM     18  O   UNL     1       0.810 -72.149 213.743  1.00  0.00    -0.504 OA
ATOM     19  H   UNL     1       1.269 -72.122 214.646  1.00  0.00     0.293 HD
ENDBRANCH  15  18
BRANCH  17  20
ATOM     20  O   UNL     1      -0.638 -71.323 211.464  1.00  0.00    -0.504 OA
ATOM     21  H   UNL     1      -1.143 -70.642 212.020  1.00  0.00     0.293 HD
ENDBRANCH  17  20
ENDBRANCH   1  12
BRANCH   6  22
ATOM     22  O   UNL     1       5.995 -68.666 204.873  1.00  0.00    -0.507 OA
ATOM     23  H   UNL     1       5.437 -68.067 204.282  1.00  0.00     0.293 HD
ENDBRANCH   6  22
BRANCH   8  24
ATOM     24  O   UNL     1       5.634 -73.361 204.018  1.00  0.00    -0.508 OA
ATOM     25  H   UNL     1       4.904 -74.019 203.771  1.00  0.00     0.293 HD
ENDBRANCH   8  24
TORSDOF 5
ENDMDL
MODEL 3
REMARK VINA RESULT:    -6.861      1.324      7.057
REMARK INTER + INTRA:          -8.328
REMARK INTER:                  -8.065
REMARK INTRA:                  -0.263
REMARK UNBOUND:                -0.263
REMARK SMILES O=c1cc(-c2ccc(O)c(O)c2)oc2cc(O)cc(O)c12
REMARK SMILES IDX 4 1 3 2 2 3 1 4 21 5 19 6 18 7 16 8 15 9 14 10 13 11 5 12
REMARK SMILES IDX 6 13 7 14 8 15 12 16 10 17 9 18 11 20 20 22 17 24
REMARK H PARENT 9 19 11 21 20 23 17 25
REMARK Flexibility Score: inf
ROOT
ATOM      1  C   UNL     1       3.368 -70.426 208.274  1.00  0.00     0.138 A 
ATOM      2  C   UNL     1       2.123 -70.755 207.717  1.00  0.00     0.100 A 
ATOM      3  C   UNL     1       1.076 -71.148 208.551  1.00  0.00     0.197 A 
ATOM      4  O   UNL     1      -0.009 -71.497 208.018  1.00  0.00    -0.289 OA
ATOM      5  C   UNL     1       1.269 -71.182 209.953  1.00  0.00     0.107 A 
ATOM      6  C   UNL     1       0.261 -71.528 210.903  1.00  0.00     0.134 A 
ATOM      7  C   UNL     1       0.598 -71.639 212.257  1.00  0.00     0.093 A 
ATOM      8  C   UNL     1       1.890 -71.360 212.703  1.00  0.00     0.123 A 
ATOM      9  C   UNL     1       2.870 -70.968 211.790  1.00  0.00     0.094 A 
ATOM     10  C   UNL     1       2.573 -70.881 210.428  1.00  0.00     0.146 A 
ATOM     11  O   UNL     1       3.536 -70.518 209.589  1.00  0.00    -0.456 OA
ENDROOT
BRANCH   1  12
ATOM     12  C   UNL     1       4.514 -70.000 207.434  1.00  0.00     0.021 A 
ATOM     13  C   UNL     1       4.797 -68.630 207.292  1.00  0.00     0.016 A 
ATOM     14  C   UNL     1       5.865 -68.203 206.500  1.00  0.00     0.051 A 
ATOM     15  C   UNL     1       6.664 -69.135 205.828  1.00  0.00     0.157 A 
ATOM     16  C   UNL     1       5.314 -70.932 206.744  1.00  0.00     0.062 A 
ATOM     17  C   UNL     1       6.384 -70.507 205.948  1.00  0.00     0.158 A 
BRANCH  15  18
ATOM     18  O   UNL     1       7.731 -68.706 205.040  1.00  0.00    -0.504 OA
ATOM     19  H   UNL     1       7.746 -68.859 204.037  1.00  0.00     0.293 HD
ENDBRANCH  15  18
BRANCH  17  20
ATOM     20  O   UNL     1       7.154 -71.460 205.282  1.00  0.00    -0.504 OA
ATOM     21  H   UNL     1       6.736 -72.227 204.769  1.00  0.00     0.293 HD
ENDBRANCH  17  20
ENDBRANCH   1  12
BRANCH   6  22
ATOM     22  O   UNL     1      -1.081 -71.744 210.575  1.00  0.00    -0.507 OA
ATOM     23  H   UNL     1      -1.802 -71.038 210.598  1.00  0.00     0.293 HD
ENDBRANCH   6  22
BRANCH   8  24
ATOM     24  O   UNL     1       2.186 -71.467 214.061  1.00  0.00    -0.508 OA
ATOM     25  H   UNL     1       2.354 -72.366 214.497  1.00  0.00     0.293 HD
ENDBRANCH   8  24
TORSDOF 5
ENDMDL
MODEL 4
REMARK VINA RESULT:    -6.227      3.016      5.440
REMARK INTER + INTRA:          -7.583
REMARK INTER:                  -7.268
REMARK INTRA:                  -0.315
REMARK UNBOUND:                -0.263
REMARK SMILES O=c1cc(-c2ccc(O)c(O)c2)oc2cc(O)cc(O)c12
REMARK SMILES IDX 4 1 3 2 2 3 1 4 21 5 19 6 18 7 16 8 15 9 14 10 13 11 5 12
REMARK SMILES IDX 6 13 7 14 8 15 12 16 10 17 9 18 11 20 20 22 17 24
REMARK H PARENT 9 19 11 21 20 23 17 25
REMARK Flexibility Score: inf
ROOT
ATOM      1  C   UNL     1       3.899 -73.481 206.817  1.00  0.00     0.138 A 
ATOM      2  C   UNL     1       3.908 -73.131 208.175  1.00  0.00     0.100 A 
ATOM      3  C   UNL     1       4.494 -71.928 208.573  1.00  0.00     0.197 A 
ATOM      4  O   UNL     1       4.542 -71.671 209.804  1.00  0.00    -0.289 OA
ATOM      5  C   UNL     1       5.047 -71.060 207.602  1.00  0.00     0.107 A 
ATOM      6  C   UNL     1       5.634 -69.791 207.888  1.00  0.00     0.134 A 
ATOM      7  C   UNL     1       6.254 -69.070 206.860  1.00  0.00     0.093 A 
ATOM      8  C   UNL     1       6.254 -69.543 205.548  1.00  0.00     0.123 A 
ATOM      9  C   UNL     1       5.636 -70.757 205.247  1.00  0.00     0.094 A 
ATOM     10  C   UNL     1       5.040 -71.516 206.257  1.00  0.00     0.146 A 
ATOM     11  O   UNL     1       4.474 -72.673 205.932  1.00  0.00    -0.456 OA
ENDROOT
BRANCH   1  12
ATOM     12  C   UNL     1       3.288 -74.746 206.338  1.00  0.00     0.021 A 
ATOM     13  C   UNL     1       2.968 -75.754 207.266  1.00  0.00     0.016 A 
ATOM     14  C   UNL     1       2.399 -76.956 206.841  1.00  0.00     0.051 A 
ATOM     15  C   UNL     1       2.149 -77.179 205.482  1.00  0.00     0.157 A 
ATOM     16  C   UNL     1       3.046 -74.982 204.971  1.00  0.00     0.062 A 
ATOM     17  C   UNL     1       2.478 -76.187 204.543  1.00  0.00     0.158 A 
BRANCH  15  18
ATOM     18  O   UNL     1       1.579 -78.380 205.061  1.00  0.00    -0.504 OA
ATOM     19  H   UNL     1       0.588 -78.563 205.166  1.00  0.00     0.293 HD
ENDBRANCH  15  18
BRANCH  17  20
ATOM     20  O   UNL     1       2.252 -76.383 203.181  1.00  0.00    -0.504 OA
ATOM     21  H   UNL     1       1.450 -76.898 202.836  1.00  0.00     0.293 HD
ENDBRANCH  17  20
ENDBRANCH   1  12
BRANCH   6  22
ATOM     22  O   UNL     1       5.614 -69.187 209.148  1.00  0.00    -0.507 OA
ATOM     23  H   UNL     1       5.883 -68.232 209.335  1.00  0.00     0.293 HD
ENDBRANCH   6  22
BRANCH   8  24
ATOM     24  O   UNL     1       6.868 -68.791 204.547  1.00  0.00    -0.508 OA
ATOM     25  H   UNL     1       6.452 -68.694 203.627  1.00  0.00     0.293 HD
ENDBRANCH   8  24
TORSDOF 5
ENDMDL
MODEL 5
REMARK VINA RESULT:    -6.161      3.319      6.166
REMARK INTER + INTRA:          -7.504
REMARK INTER:                  -7.236
REMARK INTRA:                  -0.268
REMARK UNBOUND:                -0.263
REMARK SMILES O=c1cc(-c2ccc(O)c(O)c2)oc2cc(O)cc(O)c12
REMARK SMILES IDX 4 1 3 2 2 3 1 4 21 5 19 6 18 7 16 8 15 9 14 10 13 11 5 12
REMARK SMILES IDX 6 13 7 14 8 15 12 16 10 17 9 18 11 20 20 22 17 24
REMARK H PARENT 9 19 11 21 20 23 17 25
REMARK Flexibility Score: inf
ROOT
ATOM      1  C   UNL     1       3.398 -73.735 206.945  1.00  0.00     0.138 A 
ATOM      2  C   UNL     1       4.606 -73.110 206.604  1.00  0.00     0.100 A 
ATOM      3  C   UNL     1       4.996 -71.949 207.274  1.00  0.00     0.197 A 
ATOM      4  O   UNL     1       6.053 -71.376 206.903  1.00  0.00    -0.289 OA
ATOM      5  C   UNL     1       4.185 -71.430 208.311  1.00  0.00     0.107 A 
ATOM      6  C   UNL     1       4.501 -70.276 209.089  1.00  0.00     0.134 A 
ATOM      7  C   UNL     1       3.567 -69.787 210.011  1.00  0.00     0.093 A 
ATOM      8  C   UNL     1       2.356 -70.444 210.225  1.00  0.00     0.123 A 
ATOM      9  C   UNL     1       2.058 -71.604 209.508  1.00  0.00     0.094 A 
ATOM     10  C   UNL     1       2.955 -72.096 208.557  1.00  0.00     0.146 A 
ATOM     11  O   UNL     1       2.629 -73.195 207.885  1.00  0.00    -0.456 OA
ENDROOT
BRANCH   1  12
ATOM     12  C   UNL     1       2.937 -74.971 206.266  1.00  0.00     0.021 A 
ATOM     13  C   UNL     1       2.684 -76.125 207.029  1.00  0.00     0.016 A 
ATOM     14  C   UNL     1       2.256 -77.304 206.413  1.00  0.00     0.051 A 
ATOM     15  C   UNL     1       2.085 -77.355 205.025  1.00  0.00     0.157 A 
ATOM     16  C   UNL     1       2.775 -75.033 204.868  1.00  0.00     0.062 A 
ATOM     17  C   UNL     1       2.349 -76.214 204.249  1.00  0.00     0.158 A 
BRANCH  15  18
ATOM     18  O   UNL     1       1.657 -78.532 204.413  1.00  0.00    -0.504 OA
ATOM     19  H   UNL     1       0.722 -78.622 204.031  1.00  0.00     0.293 HD
ENDBRANCH  15  18
BRANCH  17  20
ATOM     20  O   UNL     1       2.199 -76.235 202.863  1.00  0.00    -0.504 OA
ATOM     21  H   UNL     1       1.524 -75.650 202.385  1.00  0.00     0.293 HD
ENDBRANCH  17  20
ENDBRANCH   1  12
BRANCH   6  22
ATOM     22  O   UNL     1       5.720 -69.594 209.015  1.00  0.00    -0.507 OA
ATOM     23  H   UNL     1       5.878 -68.752 208.481  1.00  0.00     0.293 HD
ENDBRANCH   6  22
BRANCH   8  24
ATOM     24  O   UNL     1       1.456 -69.938 211.161  1.00  0.00    -0.508 OA
ATOM     25  H   UNL     1       1.544 -68.995 211.525  1.00  0.00     0.293 HD
ENDBRANCH   8  24
TORSDOF 5
ENDMDL
