MODEL 1
REMARK VINA RESULT:    -4.906      0.000      0.000
REMARK INTER + INTRA:         -12.374
REMARK INTER:                 -10.642
REMARK INTRA:                  -1.732
REMARK UNBOUND:                -1.732
REMARK SMILES CCCCCCCCCCCCCCCCCCCCCC(=O)[O-]
REMARK SMILES IDX 12 1 11 2 10 3 9 4 8 5 7 6 6 7 5 8 4 9 3 10 2 11 1 12 13 13
REMARK SMILES IDX 14 14 15 15 16 16 17 17 18 18 19 19 20 20 21 21 22 22 23 23
REMARK SMILES IDX 24 24
REMARK H PARENT
REMARK Flexibility Score: inf
ROOT
ATOM      1  C   UNL     1      55.137  -3.509  82.380  1.00  0.00     0.000 C 
ENDROOT
BRANCH   1   2
ATOM      2  C   UNL     1      54.224  -2.275  82.309  1.00  0.00     0.000 C 
BRANCH   2   3
ATOM      3  C   UNL     1      52.765  -2.636  81.995  1.00  0.00     0.000 C 
BRANCH   3   4
ATOM      4  C   UNL     1      52.668  -4.049  81.398  1.00  0.00    -0.000 C 
BRANCH   4   5
ATOM      5  C   UNL     1      51.517  -4.193  80.392  1.00  0.00    -0.000 C 
BRANCH   5   6
ATOM      6  C   UNL     1      50.487  -3.053  80.499  1.00  0.00    -0.000 C 
BRANCH   6   7
ATOM      7  C   UNL     1      49.215  -3.482  81.262  1.00  0.00    -0.000 C 
BRANCH   7   8
ATOM      8  C   UNL     1      48.078  -2.441  81.217  1.00  0.00    -0.000 C 
BRANCH   8   9
ATOM      9  C   UNL     1      48.017  -1.488  82.423  1.00  0.00    -0.000 C 
BRANCH   9  10
ATOM     10  C   UNL     1      48.798  -2.015  83.639  1.00  0.00    -0.000 C 
BRANCH  10  11
ATOM     11  C   UNL     1      47.904  -2.204  84.875  1.00  0.00    -0.003 C 
ATOM     12  C   UNL     1      47.450  -3.652  85.065  1.00  0.00     0.004 C 
ENDBRANCH  10  11
ENDBRANCH   9  10
ENDBRANCH   8   9
ENDBRANCH   7   8
ENDBRANCH   6   7
ENDBRANCH   5   6
ENDBRANCH   4   5
ENDBRANCH   3   4
ENDBRANCH   2   3
ENDBRANCH   1   2
BRANCH   1  13
ATOM     13  C   UNL     1      56.622  -3.139  82.529  1.00  0.00     0.000 C 
BRANCH  13  14
ATOM     14  C   UNL     1      56.910  -2.570  83.924  1.00  0.00     0.000 C 
BRANCH  14  15
ATOM     15  C   UNL     1      57.098  -1.046  83.870  1.00  0.00     0.000 C 
BRANCH  15  16
ATOM     16  C   UNL     1      58.120  -0.543  84.901  1.00  0.00     0.000 C 
BRANCH  16  17
ATOM     17  C   UNL     1      59.481  -0.201  84.268  1.00  0.00     0.000 C 
BRANCH  17  18
ATOM     18  C   UNL     1      60.352  -1.447  84.039  1.00  0.00     0.000 C 
BRANCH  18  19
ATOM     19  C   UNL     1      60.602  -1.723  82.546  1.00  0.00     0.000 C 
BRANCH  19  20
ATOM     20  C   UNL     1      60.106  -3.110  82.099  1.00  0.00     0.006 C 
BRANCH  20  21
ATOM     21  C   UNL     1      60.903  -4.281  82.700  1.00  0.00     0.053 C 
BRANCH  21  22
ATOM     22  C   UNL     1      60.090  -5.106  83.649  1.00  0.00     0.041 C 
ATOM     23  O   UNL     1      60.522  -5.357  84.804  1.00  0.00    -0.550 OA
ATOM     24  O   UNL     1      58.839  -5.576  83.265  1.00  0.00    -0.550 OA
ENDBRANCH  21  22
ENDBRANCH  20  21
ENDBRANCH  19  20
ENDBRANCH  18  19
ENDBRANCH  17  18
ENDBRANCH  16  17
ENDBRANCH  15  16
ENDBRANCH  14  15
ENDBRANCH  13  14
ENDBRANCH   1  13
TORSDOF 20
ENDMDL
MODEL 2
REMARK VINA RESULT:    -4.878      1.480      2.802
REMARK INTER + INTRA:         -12.314
REMARK INTER:                 -10.289
REMARK INTRA:                  -2.025
REMARK UNBOUND:                -1.732
REMARK SMILES CCCCCCCCCCCCCCCCCCCCCC(=O)[O-]
REMARK SMILES IDX 12 1 11 2 10 3 9 4 8 5 7 6 6 7 5 8 4 9 3 10 2 11 1 12 13 13
REMARK SMILES IDX 14 14 15 15 16 16 17 17 18 18 19 19 20 20 21 21 22 22 23 23
REMARK SMILES IDX 24 24
REMARK H PARENT
REMARK Flexibility Score: inf
ROOT
ATOM      1  C   UNL     1      55.227  -3.760  82.384  1.00  0.00     0.000 C 
ENDROOT
BRANCH   1   2
ATOM      2  C   UNL     1      54.112  -2.727  82.159  1.00  0.00     0.000 C 
BRANCH   2   3
ATOM      3  C   UNL     1      52.711  -3.307  82.402  1.00  0.00     0.000 C 
BRANCH   3   4
ATOM      4  C   UNL     1      51.643  -2.203  82.333  1.00  0.00    -0.000 C 
BRANCH   4   5
ATOM      5  C   UNL     1      50.562  -2.486  81.280  1.00  0.00    -0.000 C 
BRANCH   5   6
ATOM      6  C   UNL     1      49.289  -3.105  81.886  1.00  0.00    -0.000 C 
BRANCH   6   7
ATOM      7  C   UNL     1      48.035  -2.823  81.029  1.00  0.00    -0.000 C 
BRANCH   7   8
ATOM      8  C   UNL     1      47.550  -4.037  80.213  1.00  0.00    -0.000 C 
BRANCH   8   9
ATOM      9  C   UNL     1      47.922  -4.013  78.720  1.00  0.00    -0.000 C 
BRANCH   9  10
ATOM     10  C   UNL     1      48.638  -5.295  78.263  1.00  0.00    -0.000 C 
BRANCH  10  11
ATOM     11  C   UNL     1      49.423  -5.967  79.400  1.00  0.00    -0.003 C 
ATOM     12  C   UNL     1      50.904  -5.585  79.409  1.00  0.00     0.004 C 
ENDBRANCH  10  11
ENDBRANCH   9  10
ENDBRANCH   8   9
ENDBRANCH   7   8
ENDBRANCH   6   7
ENDBRANCH   5   6
ENDBRANCH   4   5
ENDBRANCH   3   4
ENDBRANCH   2   3
ENDBRANCH   1   2
BRANCH   1  13
ATOM     13  C   UNL     1      56.619  -3.115  82.496  1.00  0.00     0.000 C 
BRANCH  13  14
ATOM     14  C   UNL     1      56.900  -2.661  83.934  1.00  0.00     0.000 C 
BRANCH  14  15
ATOM     15  C   UNL     1      56.895  -1.128  84.040  1.00  0.00     0.000 C 
BRANCH  15  16
ATOM     16  C   UNL     1      58.236  -0.568  84.537  1.00  0.00     0.000 C 
BRANCH  16  17
ATOM     17  C   UNL     1      59.345  -0.655  83.472  1.00  0.00     0.000 C 
BRANCH  17  18
ATOM     18  C   UNL     1      60.497  -1.578  83.899  1.00  0.00     0.000 C 
BRANCH  18  19
ATOM     19  C   UNL     1      60.954  -2.512  82.765  1.00  0.00     0.000 C 
BRANCH  19  20
ATOM     20  C   UNL     1      60.162  -3.832  82.716  1.00  0.00     0.006 C 
BRANCH  20  21
ATOM     21  C   UNL     1      60.271  -4.672  84.000  1.00  0.00     0.053 C 
BRANCH  21  22
ATOM     22  C   UNL     1      59.312  -5.823  84.020  1.00  0.00     0.041 C 
ATOM     23  O   UNL     1      59.538  -6.850  83.328  1.00  0.00    -0.550 OA
ATOM     24  O   UNL     1      58.182  -5.772  84.827  1.00  0.00    -0.550 OA
ENDBRANCH  21  22
ENDBRANCH  20  21
ENDBRANCH  19  20
ENDBRANCH  18  19
ENDBRANCH  17  18
ENDBRANCH  16  17
ENDBRANCH  15  16
ENDBRANCH  14  15
ENDBRANCH  13  14
ENDBRANCH   1  13
TORSDOF 20
ENDMDL
MODEL 3
REMARK VINA RESULT:    -4.853      6.932      9.679
REMARK INTER + INTRA:         -12.259
REMARK INTER:                  -8.709
REMARK INTRA:                  -3.549
REMARK UNBOUND:                -1.732
REMARK SMILES CCCCCCCCCCCCCCCCCCCCCC(=O)[O-]
REMARK SMILES IDX 12 1 11 2 10 3 9 4 8 5 7 6 6 7 5 8 4 9 3 10 2 11 1 12 13 13
REMARK SMILES IDX 14 14 15 15 16 16 17 17 18 18 19 19 20 20 21 21 22 22 23 23
REMARK SMILES IDX 24 24
REMARK H PARENT
REMARK Flexibility Score: inf
ROOT
ATOM      1  C   UNL     1      49.765  -4.061  74.863  1.00  0.00     0.000 C 
ENDROOT
BRANCH   1   2
ATOM      2  C   UNL     1      48.875  -2.969  75.477  1.00  0.00     0.000 C 
BRANCH   2   3
ATOM      3  C   UNL     1      49.670  -1.963  76.323  1.00  0.00     0.000 C 
BRANCH   3   4
ATOM      4  C   UNL     1      50.782  -2.673  77.113  1.00  0.00    -0.000 C 
BRANCH   4   5
ATOM      5  C   UNL     1      50.891  -2.177  78.562  1.00  0.00    -0.000 C 
BRANCH   5   6
ATOM      6  C   UNL     1      51.043  -3.327  79.575  1.00  0.00    -0.000 C 
BRANCH   6   7
ATOM      7  C   UNL     1      50.928  -4.715  78.907  1.00  0.00    -0.000 C 
BRANCH   7   8
ATOM      8  C   UNL     1      49.621  -5.462  79.240  1.00  0.00    -0.000 C 
BRANCH   8   9
ATOM      9  C   UNL     1      48.366  -4.935  78.523  1.00  0.00    -0.000 C 
BRANCH   9  10
ATOM     10  C   UNL     1      47.526  -3.995  79.405  1.00  0.00    -0.000 C 
BRANCH  10  11
ATOM     11  C   UNL     1      47.574  -4.384  80.891  1.00  0.00    -0.003 C 
ATOM     12  C   UNL     1      48.128  -3.269  81.780  1.00  0.00     0.004 C 
ENDBRANCH  10  11
ENDBRANCH   9  10
ENDBRANCH   8   9
ENDBRANCH   7   8
ENDBRANCH   6   7
ENDBRANCH   5   6
ENDBRANCH   4   5
ENDBRANCH   3   4
ENDBRANCH   2   3
ENDBRANCH   1   2
BRANCH   1  13
ATOM     13  C   UNL     1      49.423  -4.345  73.391  1.00  0.00     0.000 C 
BRANCH  13  14
ATOM     14  C   UNL     1      48.725  -3.141  72.746  1.00  0.00     0.000 C 
BRANCH  14  15
ATOM     15  C   UNL     1      49.691  -2.364  71.839  1.00  0.00     0.000 C 
BRANCH  15  16
ATOM     16  C   UNL     1      49.723  -0.863  72.162  1.00  0.00     0.000 C 
BRANCH  16  17
ATOM     17  C   UNL     1      50.871  -0.486  73.117  1.00  0.00     0.000 C 
BRANCH  17  18
ATOM     18  C   UNL     1      52.246  -0.914  72.579  1.00  0.00     0.000 C 
BRANCH  18  19
ATOM     19  C   UNL     1      52.968  -1.893  73.521  1.00  0.00     0.000 C 
BRANCH  19  20
ATOM     20  C   UNL     1      52.996  -3.336  72.983  1.00  0.00     0.006 C 
BRANCH  20  21
ATOM     21  C   UNL     1      53.381  -4.387  74.038  1.00  0.00     0.053 C 
BRANCH  21  22
ATOM     22  C   UNL     1      54.851  -4.406  74.325  1.00  0.00     0.041 C 
ATOM     23  O   UNL     1      55.344  -3.612  75.169  1.00  0.00    -0.550 OA
ATOM     24  O   UNL     1      55.674  -5.323  73.681  1.00  0.00    -0.550 OA
ENDBRANCH  21  22
ENDBRANCH  20  21
ENDBRANCH  19  20
ENDBRANCH  18  19
ENDBRANCH  17  18
ENDBRANCH  16  17
ENDBRANCH  15  16
ENDBRANCH  14  15
ENDBRANCH  13  14
ENDBRANCH   1  13
TORSDOF 20
ENDMDL
MODEL 4
REMARK VINA RESULT:    -4.745      8.404     10.818
REMARK INTER + INTRA:         -12.025
REMARK INTER:                  -8.532
REMARK INTRA:                  -3.493
REMARK UNBOUND:                -1.732
REMARK SMILES CCCCCCCCCCCCCCCCCCCCCC(=O)[O-]
REMARK SMILES IDX 12 1 11 2 10 3 9 4 8 5 7 6 6 7 5 8 4 9 3 10 2 11 1 12 13 13
REMARK SMILES IDX 14 14 15 15 16 16 17 17 18 18 19 19 20 20 21 21 22 22 23 23
REMARK SMILES IDX 24 24
REMARK H PARENT
REMARK Flexibility Score: inf
ROOT
ATOM      1  C   UNL     1      53.023  -5.553  74.491  1.00  0.00     0.000 C 
ENDROOT
BRANCH   1   2
ATOM      2  C   UNL     1      53.011  -5.878  75.993  1.00  0.00     0.000 C 
BRANCH   2   3
ATOM      3  C   UNL     1      51.836  -5.221  76.732  1.00  0.00     0.000 C 
BRANCH   3   4
ATOM      4  C   UNL     1      50.570  -5.227  75.860  1.00  0.00    -0.000 C 
BRANCH   4   5
ATOM      5  C   UNL     1      49.608  -4.079  76.200  1.00  0.00    -0.000 C 
BRANCH   5   6
ATOM      6  C   UNL     1      50.315  -2.713  76.275  1.00  0.00    -0.000 C 
BRANCH   6   7
ATOM      7  C   UNL     1      50.211  -2.076  77.678  1.00  0.00    -0.000 C 
BRANCH   7   8
ATOM      8  C   UNL     1      49.214  -2.788  78.615  1.00  0.00    -0.000 C 
BRANCH   8   9
ATOM      9  C   UNL     1      49.805  -3.277  79.949  1.00  0.00    -0.000 C 
BRANCH   9  10
ATOM     10  C   UNL     1      50.172  -4.771  79.926  1.00  0.00    -0.000 C 
BRANCH  10  11
ATOM     11  C   UNL     1      49.001  -5.658  79.476  1.00  0.00    -0.003 C 
ATOM     12  C   UNL     1      49.402  -7.120  79.280  1.00  0.00     0.004 C 
ENDBRANCH  10  11
ENDBRANCH   9  10
ENDBRANCH   8   9
ENDBRANCH   7   8
ENDBRANCH   6   7
ENDBRANCH   5   6
ENDBRANCH   4   5
ENDBRANCH   3   4
ENDBRANCH   2   3
ENDBRANCH   1   2
BRANCH   1  13
ATOM     13  C   UNL     1      53.880  -4.320  74.159  1.00  0.00     0.000 C 
BRANCH  13  14
ATOM     14  C   UNL     1      53.185  -3.433  73.119  1.00  0.00     0.000 C 
BRANCH  14  15
ATOM     15  C   UNL     1      52.926  -2.026  73.679  1.00  0.00     0.000 C 
BRANCH  15  16
ATOM     16  C   UNL     1      53.067  -0.931  72.610  1.00  0.00     0.000 C 
BRANCH  16  17
ATOM     17  C   UNL     1      51.714  -0.314  72.210  1.00  0.00     0.000 C 
BRANCH  17  18
ATOM     18  C   UNL     1      50.542  -0.900  73.013  1.00  0.00     0.000 C 
BRANCH  18  19
ATOM     19  C   UNL     1      49.498  -1.586  72.115  1.00  0.00     0.000 C 
BRANCH  19  20
ATOM     20  C   UNL     1      48.651  -2.631  72.865  1.00  0.00     0.006 C 
BRANCH  20  21
ATOM     21  C   UNL     1      49.080  -4.085  72.605  1.00  0.00     0.053 C 
BRANCH  21  22
ATOM     22  C   UNL     1      48.015  -5.075  72.965  1.00  0.00     0.041 C 
ATOM     23  O   UNL     1      48.079  -6.259  72.543  1.00  0.00    -0.550 OA
ATOM     24  O   UNL     1      46.964  -4.695  73.791  1.00  0.00    -0.550 OA
ENDBRANCH  21  22
ENDBRANCH  20  21
ENDBRANCH  19  20
ENDBRANCH  18  19
ENDBRANCH  17  18
ENDBRANCH  16  17
ENDBRANCH  15  16
ENDBRANCH  14  15
ENDBRANCH  13  14
ENDBRANCH   1  13
TORSDOF 20
ENDMDL
MODEL 5
REMARK VINA RESULT:    -4.708      8.613     11.175
REMARK INTER + INTRA:         -11.945
REMARK INTER:                  -8.878
REMARK INTRA:                  -3.067
REMARK UNBOUND:                -1.732
REMARK SMILES CCCCCCCCCCCCCCCCCCCCCC(=O)[O-]
REMARK SMILES IDX 12 1 11 2 10 3 9 4 8 5 7 6 6 7 5 8 4 9 3 10 2 11 1 12 13 13
REMARK SMILES IDX 14 14 15 15 16 16 17 17 18 18 19 19 20 20 21 21 22 22 23 23
REMARK SMILES IDX 24 24
REMARK H PARENT
REMARK Flexibility Score: inf
ROOT
ATOM      1  C   UNL     1      51.685  -0.596  72.260  1.00  0.00     0.000 C 
ENDROOT
BRANCH   1   2
ATOM      2  C   UNL     1      50.665  -0.006  73.246  1.00  0.00     0.000 C 
BRANCH   2   3
ATOM      3  C   UNL     1      49.214  -0.339  72.867  1.00  0.00     0.000 C 
BRANCH   3   4
ATOM      4  C   UNL     1      49.145  -1.654  72.074  1.00  0.00    -0.000 C 
BRANCH   4   5
ATOM      5  C   UNL     1      48.696  -2.844  72.935  1.00  0.00    -0.000 C 
BRANCH   5   6
ATOM      6  C   UNL     1      49.434  -4.148  72.579  1.00  0.00    -0.000 C 
BRANCH   6   7
ATOM      7  C   UNL     1      48.765  -5.390  73.206  1.00  0.00    -0.000 C 
BRANCH   7   8
ATOM      8  C   UNL     1      47.427  -5.089  73.912  1.00  0.00    -0.000 C 
BRANCH   8   9
ATOM      9  C   UNL     1      46.200  -5.802  73.318  1.00  0.00    -0.000 C 
BRANCH   9  10
ATOM     10  C   UNL     1      45.891  -7.138  74.015  1.00  0.00    -0.000 C 
BRANCH  10  11
ATOM     11  C   UNL     1      45.878  -8.323  73.037  1.00  0.00    -0.003 C 
ATOM     12  C   UNL     1      46.498  -7.982  71.681  1.00  0.00     0.004 C 
ENDBRANCH  10  11
ENDBRANCH   9  10
ENDBRANCH   8   9
ENDBRANCH   7   8
ENDBRANCH   6   7
ENDBRANCH   5   6
ENDBRANCH   4   5
ENDBRANCH   3   4
ENDBRANCH   2   3
ENDBRANCH   1   2
BRANCH   1  13
ATOM     13  C   UNL     1      52.880  -1.257  72.967  1.00  0.00     0.000 C 
BRANCH  13  14
ATOM     14  C   UNL     1      52.966  -2.748  72.622  1.00  0.00     0.000 C 
BRANCH  14  15
ATOM     15  C   UNL     1      52.896  -3.614  73.890  1.00  0.00     0.000 C 
BRANCH  15  16
ATOM     16  C   UNL     1      52.620  -2.785  75.154  1.00  0.00     0.000 C 
BRANCH  16  17
ATOM     17  C   UNL     1      51.152  -2.872  75.610  1.00  0.00     0.000 C 
BRANCH  17  18
ATOM     18  C   UNL     1      50.801  -4.246  76.202  1.00  0.00     0.000 C 
BRANCH  18  19
ATOM     19  C   UNL     1      49.519  -4.210  77.052  1.00  0.00     0.000 C 
BRANCH  19  20
ATOM     20  C   UNL     1      48.955  -5.612  77.349  1.00  0.00     0.006 C 
BRANCH  20  21
ATOM     21  C   UNL     1      48.974  -5.989  78.840  1.00  0.00     0.053 C 
BRANCH  21  22
ATOM     22  C   UNL     1      49.469  -7.383  79.077  1.00  0.00     0.041 C 
ATOM     23  O   UNL     1      48.685  -8.272  79.501  1.00  0.00    -0.550 OA
ATOM     24  O   UNL     1      50.792  -7.707  78.801  1.00  0.00    -0.550 OA
ENDBRANCH  21  22
ENDBRANCH  20  21
ENDBRANCH  19  20
ENDBRANCH  18  19
ENDBRANCH  17  18
ENDBRANCH  16  17
ENDBRANCH  15  16
ENDBRANCH  14  15
ENDBRANCH  13  14
ENDBRANCH   1  13
TORSDOF 20
ENDMDL
MODEL 6
REMARK VINA RESULT:    -4.708      8.793     11.785
REMARK INTER + INTRA:         -11.944
REMARK INTER:                  -8.578
REMARK INTRA:                  -3.366
REMARK UNBOUND:                -1.732
REMARK SMILES CCCCCCCCCCCCCCCCCCCCCC(=O)[O-]
REMARK SMILES IDX 12 1 11 2 10 3 9 4 8 5 7 6 6 7 5 8 4 9 3 10 2 11 1 12 13 13
REMARK SMILES IDX 14 14 15 15 16 16 17 17 18 18 19 19 20 20 21 21 22 22 23 23
REMARK SMILES IDX 24 24
REMARK H PARENT
REMARK Flexibility Score: inf
ROOT
ATOM      1  C   UNL     1      49.967  -1.010  71.823  1.00  0.00     0.000 C 
ENDROOT
BRANCH   1   2
ATOM      2  C   UNL     1      48.649  -0.506  72.431  1.00  0.00     0.000 C 
BRANCH   2   3
ATOM      3  C   UNL     1      48.870   0.453  73.611  1.00  0.00     0.000 C 
BRANCH   3   4
ATOM      4  C   UNL     1      48.140  -0.049  74.866  1.00  0.00    -0.000 C 
BRANCH   4   5
ATOM      5  C   UNL     1      48.477  -1.507  75.208  1.00  0.00    -0.000 C 
BRANCH   5   6
ATOM      6  C   UNL     1      47.537  -2.102  76.273  1.00  0.00    -0.000 C 
BRANCH   6   7
ATOM      7  C   UNL     1      48.257  -3.116  77.189  1.00  0.00    -0.000 C 
BRANCH   7   8
ATOM      8  C   UNL     1      49.684  -2.693  77.590  1.00  0.00    -0.000 C 
BRANCH   8   9
ATOM      9  C   UNL     1      50.593  -3.835  78.075  1.00  0.00    -0.000 C 
BRANCH   9  10
ATOM     10  C   UNL     1      50.121  -4.448  79.405  1.00  0.00    -0.000 C 
BRANCH  10  11
ATOM     11  C   UNL     1      49.753  -5.934  79.269  1.00  0.00    -0.003 C 
ATOM     12  C   UNL     1      50.963  -6.823  78.980  1.00  0.00     0.004 C 
ENDBRANCH  10  11
ENDBRANCH   9  10
ENDBRANCH   8   9
ENDBRANCH   7   8
ENDBRANCH   6   7
ENDBRANCH   5   6
ENDBRANCH   4   5
ENDBRANCH   3   4
ENDBRANCH   2   3
ENDBRANCH   1   2
BRANCH   1  13
ATOM     13  C   UNL     1      51.196  -0.266  72.371  1.00  0.00     0.000 C 
BRANCH  13  14
ATOM     14  C   UNL     1      52.354  -1.237  72.633  1.00  0.00     0.000 C 
BRANCH  14  15
ATOM     15  C   UNL     1      52.042  -2.162  73.819  1.00  0.00     0.000 C 
BRANCH  15  16
ATOM     16  C   UNL     1      52.095  -3.649  73.436  1.00  0.00     0.000 C 
BRANCH  16  17
ATOM     17  C   UNL     1      51.435  -4.557  74.490  1.00  0.00     0.000 C 
BRANCH  17  18
ATOM     18  C   UNL     1      49.916  -4.678  74.292  1.00  0.00     0.000 C 
BRANCH  18  19
ATOM     19  C   UNL     1      49.477  -4.307  72.865  1.00  0.00     0.000 C 
BRANCH  19  20
ATOM     20  C   UNL     1      47.951  -4.368  72.669  1.00  0.00     0.006 C 
BRANCH  20  21
ATOM     21  C   UNL     1      47.193  -4.976  73.862  1.00  0.00     0.053 C 
BRANCH  21  22
ATOM     22  C   UNL     1      46.450  -6.225  73.498  1.00  0.00     0.041 C 
ATOM     23  O   UNL     1      47.040  -7.165  72.904  1.00  0.00    -0.550 OA
ATOM     24  O   UNL     1      45.111  -6.362  73.841  1.00  0.00    -0.550 OA
ENDBRANCH  21  22
ENDBRANCH  20  21
ENDBRANCH  19  20
ENDBRANCH  18  19
ENDBRANCH  17  18
ENDBRANCH  16  17
ENDBRANCH  15  16
ENDBRANCH  14  15
ENDBRANCH  13  14
ENDBRANCH   1  13
TORSDOF 20
ENDMDL
MODEL 7
REMARK VINA RESULT:    -4.704      8.779     11.569
REMARK INTER + INTRA:         -11.935
REMARK INTER:                  -8.393
REMARK INTRA:                  -3.543
REMARK UNBOUND:                -1.732
REMARK SMILES CCCCCCCCCCCCCCCCCCCCCC(=O)[O-]
REMARK SMILES IDX 12 1 11 2 10 3 9 4 8 5 7 6 6 7 5 8 4 9 3 10 2 11 1 12 13 13
REMARK SMILES IDX 14 14 15 15 16 16 17 17 18 18 19 19 20 20 21 21 22 22 23 23
REMARK SMILES IDX 24 24
REMARK H PARENT
REMARK Flexibility Score: inf
ROOT
ATOM      1  C   UNL     1      50.887  -0.979  72.333  1.00  0.00     0.000 C 
ENDROOT
BRANCH   1   2
ATOM      2  C   UNL     1      49.890  -2.119  72.072  1.00  0.00     0.000 C 
BRANCH   2   3
ATOM      3  C   UNL     1      50.529  -3.509  72.211  1.00  0.00     0.000 C 
BRANCH   3   4
ATOM      4  C   UNL     1      49.506  -4.531  72.731  1.00  0.00    -0.000 C 
BRANCH   4   5
ATOM      5  C   UNL     1      48.097  -3.937  72.884  1.00  0.00    -0.000 C 
BRANCH   5   6
ATOM      6  C   UNL     1      47.357  -4.473  74.124  1.00  0.00    -0.000 C 
BRANCH   6   7
ATOM      7  C   UNL     1      47.025  -5.976  74.004  1.00  0.00    -0.000 C 
BRANCH   7   8
ATOM      8  C   UNL     1      46.291  -6.351  72.700  1.00  0.00    -0.000 C 
BRANCH   8   9
ATOM      9  C   UNL     1      46.991  -7.418  71.840  1.00  0.00    -0.000 C 
BRANCH   9  10
ATOM     10  C   UNL     1      48.280  -7.954  72.486  1.00  0.00    -0.000 C 
BRANCH  10  11
ATOM     11  C   UNL     1      48.295  -9.487  72.583  1.00  0.00    -0.003 C 
ATOM     12  C   UNL     1      46.905 -10.084  72.807  1.00  0.00     0.004 C 
ENDBRANCH  10  11
ENDBRANCH   9  10
ENDBRANCH   8   9
ENDBRANCH   7   8
ENDBRANCH   6   7
ENDBRANCH   5   6
ENDBRANCH   4   5
ENDBRANCH   3   4
ENDBRANCH   2   3
ENDBRANCH   1   2
BRANCH   1  13
ATOM     13  C   UNL     1      50.219   0.266  72.937  1.00  0.00     0.000 C 
BRANCH  13  14
ATOM     14  C   UNL     1      48.739   0.003  73.240  1.00  0.00     0.000 C 
BRANCH  14  15
ATOM     15  C   UNL     1      48.447   0.153  74.741  1.00  0.00     0.000 C 
BRANCH  15  16
ATOM     16  C   UNL     1      48.336  -1.201  75.458  1.00  0.00     0.000 C 
BRANCH  16  17
ATOM     17  C   UNL     1      49.710  -1.803  75.807  1.00  0.00     0.000 C 
BRANCH  17  18
ATOM     18  C   UNL     1      49.594  -3.076  76.659  1.00  0.00     0.000 C 
BRANCH  18  19
ATOM     19  C   UNL     1      50.566  -4.179  76.206  1.00  0.00     0.000 C 
BRANCH  19  20
ATOM     20  C   UNL     1      51.898  -3.623  75.668  1.00  0.00     0.006 C 
BRANCH  20  21
ATOM     21  C   UNL     1      52.757  -4.667  74.934  1.00  0.00     0.053 C 
BRANCH  21  22
ATOM     22  C   UNL     1      53.967  -4.066  74.286  1.00  0.00     0.041 C 
ATOM     23  O   UNL     1      53.901  -3.617  73.111  1.00  0.00    -0.550 OA
ATOM     24  O   UNL     1      55.161  -3.976  74.991  1.00  0.00    -0.550 OA
ENDBRANCH  21  22
ENDBRANCH  20  21
ENDBRANCH  19  20
ENDBRANCH  18  19
ENDBRANCH  17  18
ENDBRANCH  16  17
ENDBRANCH  15  16
ENDBRANCH  14  15
ENDBRANCH  13  14
ENDBRANCH   1  13
TORSDOF 20
ENDMDL
MODEL 8
REMARK VINA RESULT:    -4.693      8.408     11.481
REMARK INTER + INTRA:         -11.911
REMARK INTER:                  -8.782
REMARK INTRA:                  -3.129
REMARK UNBOUND:                -1.732
REMARK SMILES CCCCCCCCCCCCCCCCCCCCCC(=O)[O-]
REMARK SMILES IDX 12 1 11 2 10 3 9 4 8 5 7 6 6 7 5 8 4 9 3 10 2 11 1 12 13 13
REMARK SMILES IDX 14 14 15 15 16 16 17 17 18 18 19 19 20 20 21 21 22 22 23 23
REMARK SMILES IDX 24 24
REMARK H PARENT
REMARK Flexibility Score: inf
ROOT
ATOM      1  C   UNL     1      52.918  -3.656  73.609  1.00  0.00     0.000 C 
ENDROOT
BRANCH   1   2
ATOM      2  C   UNL     1      51.997  -4.124  74.746  1.00  0.00     0.000 C 
BRANCH   2   3
ATOM      3  C   UNL     1      51.553  -2.973  75.661  1.00  0.00     0.000 C 
BRANCH   3   4
ATOM      4  C   UNL     1      50.741  -3.504  76.853  1.00  0.00    -0.000 C 
BRANCH   4   5
ATOM      5  C   UNL     1      49.979  -4.797  76.525  1.00  0.00    -0.000 C 
BRANCH   5   6
ATOM      6  C   UNL     1      48.641  -4.907  77.279  1.00  0.00    -0.000 C 
BRANCH   6   7
ATOM      7  C   UNL     1      48.745  -4.397  78.733  1.00  0.00    -0.000 C 
BRANCH   7   8
ATOM      8  C   UNL     1      49.329  -5.431  79.717  1.00  0.00    -0.000 C 
BRANCH   8   9
ATOM      9  C   UNL     1      49.077  -6.903  79.346  1.00  0.00    -0.000 C 
BRANCH   9  10
ATOM     10  C   UNL     1      50.366  -7.651  78.967  1.00  0.00    -0.000 C 
BRANCH  10  11
ATOM     11  C   UNL     1      51.620  -6.776  79.116  1.00  0.00    -0.003 C 
ATOM     12  C   UNL     1      52.915  -7.589  79.131  1.00  0.00     0.004 C 
ENDBRANCH  10  11
ENDBRANCH   9  10
ENDBRANCH   8   9
ENDBRANCH   7   8
ENDBRANCH   6   7
ENDBRANCH   5   6
ENDBRANCH   4   5
ENDBRANCH   3   4
ENDBRANCH   2   3
ENDBRANCH   1   2
BRANCH   1  13
ATOM     13  C   UNL     1      53.204  -2.146  73.661  1.00  0.00     0.000 C 
BRANCH  13  14
ATOM     14  C   UNL     1      53.131  -1.524  72.261  1.00  0.00     0.000 C 
BRANCH  14  15
ATOM     15  C   UNL     1      52.259  -0.260  72.264  1.00  0.00     0.000 C 
BRANCH  15  16
ATOM     16  C   UNL     1      50.859  -0.511  72.843  1.00  0.00     0.000 C 
BRANCH  16  17
ATOM     17  C   UNL     1      50.041  -1.512  72.006  1.00  0.00     0.000 C 
BRANCH  17  18
ATOM     18  C   UNL     1      48.669  -1.814  72.628  1.00  0.00     0.000 C 
BRANCH  18  19
ATOM     19  C   UNL     1      48.660  -3.130  73.425  1.00  0.00     0.000 C 
BRANCH  19  20
ATOM     20  C   UNL     1      48.941  -4.366  72.549  1.00  0.00     0.006 C 
BRANCH  20  21
ATOM     21  C   UNL     1      48.764  -5.705  73.286  1.00  0.00     0.053 C 
BRANCH  21  22
ATOM     22  C   UNL     1      47.420  -6.321  73.049  1.00  0.00     0.041 C 
ATOM     23  O   UNL     1      46.728  -5.974  72.056  1.00  0.00    -0.550 OA
ATOM     24  O   UNL     1      46.943  -7.303  73.910  1.00  0.00    -0.550 OA
ENDBRANCH  21  22
ENDBRANCH  20  21
ENDBRANCH  19  20
ENDBRANCH  18  19
ENDBRANCH  17  18
ENDBRANCH  16  17
ENDBRANCH  15  16
ENDBRANCH  14  15
ENDBRANCH  13  14
ENDBRANCH   1  13
TORSDOF 20
ENDMDL
MODEL 9
REMARK VINA RESULT:    -4.671      5.734     10.166
REMARK INTER + INTRA:         -11.865
REMARK INTER:                  -7.818
REMARK INTRA:                  -4.047
REMARK UNBOUND:                -1.732
REMARK SMILES CCCCCCCCCCCCCCCCCCCCCC(=O)[O-]
REMARK SMILES IDX 12 1 11 2 10 3 9 4 8 5 7 6 6 7 5 8 4 9 3 10 2 11 1 12 13 13
REMARK SMILES IDX 14 14 15 15 16 16 17 17 18 18 19 19 20 20 21 21 22 22 23 23
REMARK SMILES IDX 24 24
REMARK H PARENT
REMARK Flexibility Score: inf
ROOT
ATOM      1  C   UNL     1      50.290  -2.549  76.744  1.00  0.00     0.000 C 
ENDROOT
BRANCH   1   2
ATOM      2  C   UNL     1      50.371  -4.002  76.250  1.00  0.00     0.000 C 
BRANCH   2   3
ATOM      3  C   UNL     1      49.497  -4.958  77.075  1.00  0.00     0.000 C 
BRANCH   3   4
ATOM      4  C   UNL     1      48.186  -5.273  76.337  1.00  0.00    -0.000 C 
BRANCH   4   5
ATOM      5  C   UNL     1      48.375  -5.406  74.819  1.00  0.00    -0.000 C 
BRANCH   5   6
ATOM      6  C   UNL     1      47.417  -4.505  74.019  1.00  0.00    -0.000 C 
BRANCH   6   7
ATOM      7  C   UNL     1      48.154  -3.670  72.950  1.00  0.00    -0.000 C 
BRANCH   7   8
ATOM      8  C   UNL     1      49.545  -4.221  72.576  1.00  0.00    -0.000 C 
BRANCH   8   9
ATOM      9  C   UNL     1      50.663  -3.168  72.486  1.00  0.00    -0.000 C 
BRANCH   9  10
ATOM     10  C   UNL     1      50.129  -1.756  72.187  1.00  0.00    -0.000 C 
BRANCH  10  11
ATOM     11  C   UNL     1      51.203  -0.671  72.365  1.00  0.00    -0.003 C 
ATOM     12  C   UNL     1      52.558  -1.239  72.790  1.00  0.00     0.004 C 
ENDBRANCH  10  11
ENDBRANCH   9  10
ENDBRANCH   8   9
ENDBRANCH   7   8
ENDBRANCH   6   7
ENDBRANCH   5   6
ENDBRANCH   4   5
ENDBRANCH   3   4
ENDBRANCH   2   3
ENDBRANCH   1   2
BRANCH   1  13
ATOM     13  C   UNL     1      49.567  -1.625  75.751  1.00  0.00     0.000 C 
BRANCH  13  14
ATOM     14  C   UNL     1      48.099  -1.430  76.150  1.00  0.00     0.000 C 
BRANCH  14  15
ATOM     15  C   UNL     1      47.935  -1.448  77.677  1.00  0.00     0.000 C 
BRANCH  15  16
ATOM     16  C   UNL     1      46.791  -2.366  78.136  1.00  0.00     0.000 C 
BRANCH  16  17
ATOM     17  C   UNL     1      47.170  -3.217  79.362  1.00  0.00     0.000 C 
BRANCH  17  18
ATOM     18  C   UNL     1      48.134  -2.486  80.309  1.00  0.00     0.000 C 
BRANCH  18  19
ATOM     19  C   UNL     1      49.071  -3.451  81.056  1.00  0.00     0.000 C 
BRANCH  19  20
ATOM     20  C   UNL     1      50.411  -3.671  80.329  1.00  0.00     0.006 C 
BRANCH  20  21
ATOM     21  C   UNL     1      51.452  -2.571  80.595  1.00  0.00     0.053 C 
BRANCH  21  22
ATOM     22  C   UNL     1      51.826  -2.466  82.041  1.00  0.00     0.041 C 
ATOM     23  O   UNL     1      51.552  -1.426  82.696  1.00  0.00    -0.550 OA
ATOM     24  O   UNL     1      52.454  -3.532  82.676  1.00  0.00    -0.550 OA
ENDBRANCH  21  22
ENDBRANCH  20  21
ENDBRANCH  19  20
ENDBRANCH  18  19
ENDBRANCH  17  18
ENDBRANCH  16  17
ENDBRANCH  15  16
ENDBRANCH  14  15
ENDBRANCH  13  14
ENDBRANCH   1  13
TORSDOF 20
ENDMDL
