MODEL 1
REMARK VINA RESULT:     5.982      0.000      0.000
REMARK INTER + INTRA:           8.115
REMARK INTER:                   9.130
REMARK INTRA:                  -1.014
REMARK UNBOUND:                -1.014
REMARK SMILES CC(=O)CCC=C(C)CCC=C(C)CCC=C(C)C
REMARK SMILES IDX 10 1 11 2 12 3 13 4 14 5 15 6 16 7 18 8 17 9 19 10 9 11 7 12
REMARK SMILES IDX 6 13 8 14 5 15 4 16 2 17 3 18 1 19
REMARK H PARENT
REMARK Flexibility Score: inf
ROOT
ATOM      1  C   UNL     1      -5.992  15.140   6.035  1.00  0.00     0.032 C 
ENDROOT
BRANCH   1   2
ATOM      2  C   UNL     1      -5.550  14.465   7.312  1.00  0.00    -0.028 C 
ATOM      3  C   UNL     1      -5.543  13.128   7.513  1.00  0.00    -0.077 C 
ATOM      4  C   UNL     1      -6.047  12.159   6.468  1.00  0.00     0.039 C 
BRANCH   3   5
ATOM      5  C   UNL     1      -5.047  12.587   8.837  1.00  0.00     0.034 C 
BRANCH   5   6
ATOM      6  C   UNL     1      -4.857  11.066   8.794  1.00  0.00     0.032 C 
BRANCH   6   7
ATOM      7  C   UNL     1      -3.431  10.687   9.120  1.00  0.00    -0.028 C 
ATOM      8  C   UNL     1      -2.552  11.300   6.854  1.00  0.00     0.039 C 
ATOM      9  C   UNL     1      -2.385  10.811   8.272  1.00  0.00    -0.080 C 
ATOM     10  C   UNL     1      -1.011  10.445   8.773  1.00  0.00     0.039 C 
ENDBRANCH   6   7
ENDBRANCH   5   6
ENDBRANCH   3   5
ENDBRANCH   1   2
BRANCH   1  11
ATOM     11  C   UNL     1      -4.917  16.094   5.493  1.00  0.00     0.034 C 
BRANCH  11  12
ATOM     12  C   UNL     1      -4.148  15.481   4.339  1.00  0.00    -0.077 C 
ATOM     13  C   UNL     1      -4.509  15.787   3.072  1.00  0.00    -0.028 C 
ATOM     14  C   UNL     1      -2.985  14.564   4.639  1.00  0.00     0.039 C 
BRANCH  13  15
ATOM     15  C   UNL     1      -3.851  15.224   1.836  1.00  0.00     0.035 C 
BRANCH  15  16
ATOM     16  C   UNL     1      -4.905  14.665   0.868  1.00  0.00     0.079 C 
BRANCH  16  17
ATOM     17  C   UNL     1      -5.463  13.316   1.262  1.00  0.00     0.130 C 
ATOM     18  O   UNL     1      -5.878  13.171   2.401  1.00  0.00    -0.300 OA
ATOM     19  C   UNL     1      -5.523  12.146   0.318  1.00  0.00     0.087 C 
ENDBRANCH  16  17
ENDBRANCH  15  16
ENDBRANCH  13  15
ENDBRANCH  11  12
ENDBRANCH   1  11
TORSDOF 9
ENDMDL
MODEL 2
REMARK VINA RESULT:     6.188      1.569      3.207
REMARK INTER + INTRA:           8.429
REMARK INTER:                   8.386
REMARK INTRA:                   0.043
REMARK UNBOUND:                -1.014
REMARK SMILES CC(=O)CCC=C(C)CCC=C(C)CCC=C(C)C
REMARK SMILES IDX 10 1 11 2 12 3 13 4 14 5 15 6 16 7 18 8 17 9 19 10 9 11 7 12
REMARK SMILES IDX 6 13 8 14 5 15 4 16 2 17 3 18 1 19
REMARK H PARENT
REMARK Flexibility Score: inf
ROOT
ATOM      1  C   UNL     1      -6.413  12.939   8.649  1.00  0.00     0.032 C 
ENDROOT
BRANCH   1   2
ATOM      2  C   UNL     1      -5.227  12.134   9.123  1.00  0.00    -0.028 C 
ATOM      3  C   UNL     1      -4.619  11.163   8.405  1.00  0.00    -0.077 C 
ATOM      4  C   UNL     1      -5.121  10.742   7.044  1.00  0.00     0.039 C 
BRANCH   3   5
ATOM      5  C   UNL     1      -3.419  10.455   8.998  1.00  0.00     0.034 C 
BRANCH   5   6
ATOM      6  C   UNL     1      -2.189  10.566   8.089  1.00  0.00     0.032 C 
BRANCH   6   7
ATOM      7  C   UNL     1      -2.462  11.472   6.912  1.00  0.00    -0.028 C 
ATOM      8  C   UNL     1      -2.220  13.584   8.241  1.00  0.00     0.039 C 
ATOM      9  C   UNL     1      -2.453  12.823   6.957  1.00  0.00    -0.080 C 
ATOM     10  C   UNL     1      -2.685  13.584   5.678  1.00  0.00     0.039 C 
ENDBRANCH   6   7
ENDBRANCH   5   6
ENDBRANCH   3   5
ENDBRANCH   1   2
BRANCH   1  11
ATOM     11  C   UNL     1      -5.992  14.321   8.127  1.00  0.00     0.034 C 
BRANCH  11  12
ATOM     12  C   UNL     1      -5.992  14.377   6.612  1.00  0.00    -0.077 C 
ATOM     13  C   UNL     1      -5.503  15.476   5.995  1.00  0.00    -0.028 C 
ATOM     14  C   UNL     1      -6.516  13.191   5.836  1.00  0.00     0.039 C 
BRANCH  13  15
ATOM     15  C   UNL     1      -5.471  15.674   4.499  1.00  0.00     0.035 C 
BRANCH  15  16
ATOM     16  C   UNL     1      -4.086  16.160   4.045  1.00  0.00     0.079 C 
BRANCH  16  17
ATOM     17  C   UNL     1      -3.649  15.630   2.698  1.00  0.00     0.130 C 
ATOM     18  O   UNL     1      -2.457  15.629   2.435  1.00  0.00    -0.300 OA
ATOM     19  C   UNL     1      -4.615  15.112   1.667  1.00  0.00     0.087 C 
ENDBRANCH  16  17
ENDBRANCH  15  16
ENDBRANCH  13  15
ENDBRANCH  11  12
ENDBRANCH   1  11
TORSDOF 9
ENDMDL
MODEL 3
REMARK VINA RESULT:     6.214      2.184      6.843
REMARK INTER + INTRA:           8.469
REMARK INTER:                   9.753
REMARK INTRA:                  -1.284
REMARK UNBOUND:                -1.014
REMARK SMILES CC(=O)CCC=C(C)CCC=C(C)CCC=C(C)C
REMARK SMILES IDX 10 1 11 2 12 3 13 4 14 5 15 6 16 7 18 8 17 9 19 10 9 11 7 12
REMARK SMILES IDX 6 13 8 14 5 15 4 16 2 17 3 18 1 19
REMARK H PARENT
REMARK Flexibility Score: inf
ROOT
ATOM      1  C   UNL     1      -5.455  15.394   6.324  1.00  0.00     0.032 C 
ENDROOT
BRANCH   1   2
ATOM      2  C   UNL     1      -4.883  15.619   4.944  1.00  0.00    -0.028 C 
ATOM      3  C   UNL     1      -3.731  15.075   4.491  1.00  0.00    -0.077 C 
ATOM      4  C   UNL     1      -2.854  14.213   5.369  1.00  0.00     0.039 C 
BRANCH   3   5
ATOM      5  C   UNL     1      -3.291  15.366   3.072  1.00  0.00     0.034 C 
BRANCH   5   6
ATOM      6  C   UNL     1      -4.487  15.512   2.125  1.00  0.00     0.032 C 
BRANCH   6   7
ATOM      7  C   UNL     1      -4.640  14.290   1.250  1.00  0.00    -0.028 C 
ATOM      8  C   UNL     1      -6.236  13.144   2.806  1.00  0.00     0.039 C 
ATOM      9  C   UNL     1      -5.438  13.234   1.528  1.00  0.00    -0.080 C 
ATOM     10  C   UNL     1      -5.526  12.118   0.519  1.00  0.00     0.039 C 
ENDBRANCH   6   7
ENDBRANCH   5   6
ENDBRANCH   3   5
ENDBRANCH   1   2
BRANCH   1  11
ATOM     11  C   UNL     1      -6.037  13.980   6.476  1.00  0.00     0.034 C 
BRANCH  11  12
ATOM     12  C   UNL     1      -5.692  13.370   7.820  1.00  0.00    -0.077 C 
ATOM     13  C   UNL     1      -4.950  12.240   7.859  1.00  0.00    -0.028 C 
ATOM     14  C   UNL     1      -6.168  14.056   9.080  1.00  0.00     0.039 C 
BRANCH  13  15
ATOM     15  C   UNL     1      -4.564  11.514   9.124  1.00  0.00     0.035 C 
BRANCH  15  16
ATOM     16  C   UNL     1      -3.405  10.541   8.858  1.00  0.00     0.079 C 
BRANCH  16  17
ATOM     17  C   UNL     1      -2.033  11.172   8.915  1.00  0.00     0.130 C 
ATOM     18  O   UNL     1      -1.057  10.450   8.790  1.00  0.00    -0.300 OA
ATOM     19  C   UNL     1      -1.817  12.647   9.125  1.00  0.00     0.087 C 
ENDBRANCH  16  17
ENDBRANCH  15  16
ENDBRANCH  13  15
ENDBRANCH  11  12
ENDBRANCH   1  11
TORSDOF 9
ENDMDL
MODEL 4
REMARK VINA RESULT:     6.269      0.983      2.929
REMARK INTER + INTRA:           8.553
REMARK INTER:                   8.978
REMARK INTRA:                  -0.425
REMARK UNBOUND:                -1.014
REMARK SMILES CC(=O)CCC=C(C)CCC=C(C)CCC=C(C)C
REMARK SMILES IDX 10 1 11 2 12 3 13 4 14 5 15 6 16 7 18 8 17 9 19 10 9 11 7 12
REMARK SMILES IDX 6 13 8 14 5 15 4 16 2 17 3 18 1 19
REMARK H PARENT
REMARK Flexibility Score: inf
ROOT
ATOM      1  C   UNL     1      -2.542  13.226   5.494  1.00  0.00     0.032 C 
ENDROOT
BRANCH   1   2
ATOM      2  C   UNL     1      -2.948  12.939   6.920  1.00  0.00    -0.028 C 
ATOM      3  C   UNL     1      -2.796  11.746   7.538  1.00  0.00    -0.077 C 
ATOM      4  C   UNL     1      -2.243  10.538   6.819  1.00  0.00     0.039 C 
BRANCH   3   5
ATOM      5  C   UNL     1      -3.224  11.609   8.984  1.00  0.00     0.034 C 
BRANCH   5   6
ATOM      6  C   UNL     1      -4.751  11.579   9.124  1.00  0.00     0.032 C 
BRANCH   6   7
ATOM      7  C   UNL     1      -5.423  11.674   7.774  1.00  0.00    -0.028 C 
ATOM      8  C   UNL     1      -6.101  14.069   8.069  1.00  0.00     0.039 C 
ATOM      9  C   UNL     1      -6.007  12.787   7.277  1.00  0.00    -0.080 C 
ATOM     10  C   UNL     1      -6.580  12.734   5.884  1.00  0.00     0.039 C 
ENDBRANCH   6   7
ENDBRANCH   5   6
ENDBRANCH   3   5
ENDBRANCH   1   2
BRANCH   1  11
ATOM     11  C   UNL     1      -2.488  14.735   5.209  1.00  0.00     0.034 C 
BRANCH  11  12
ATOM     12  C   UNL     1      -3.641  15.187   4.335  1.00  0.00    -0.077 C 
ATOM     13  C   UNL     1      -3.517  15.107   2.991  1.00  0.00    -0.028 C 
ATOM     14  C   UNL     1      -4.905  15.691   4.992  1.00  0.00     0.039 C 
BRANCH  13  15
ATOM     15  C   UNL     1      -4.572  15.550   2.007  1.00  0.00     0.035 C 
BRANCH  15  16
ATOM     16  C   UNL     1      -4.748  14.506   0.894  1.00  0.00     0.079 C 
BRANCH  16  17
ATOM     17  C   UNL     1      -5.496  13.261   1.318  1.00  0.00     0.130 C 
ATOM     18  O   UNL     1      -6.000  13.239   2.430  1.00  0.00    -0.300 OA
ATOM     19  C   UNL     1      -5.639  12.051   0.436  1.00  0.00     0.087 C 
ENDBRANCH  16  17
ENDBRANCH  15  16
ENDBRANCH  13  15
ENDBRANCH  11  12
ENDBRANCH   1  11
TORSDOF 9
ENDMDL
MODEL 5
REMARK VINA RESULT:     6.301      3.227      5.030
REMARK INTER + INTRA:           8.601
REMARK INTER:                   9.160
REMARK INTRA:                  -0.558
REMARK UNBOUND:                -1.014
REMARK SMILES CC(=O)CCC=C(C)CCC=C(C)CCC=C(C)C
REMARK SMILES IDX 10 1 11 2 12 3 13 4 14 5 15 6 16 7 18 8 17 9 19 10 9 11 7 12
REMARK SMILES IDX 6 13 8 14 5 15 4 16 2 17 3 18 1 19
REMARK H PARENT
REMARK Flexibility Score: inf
ROOT
ATOM      1  C   UNL     1      -2.221  13.521   5.930  1.00  0.00     0.032 C 
ENDROOT
BRANCH   1   2
ATOM      2  C   UNL     1      -2.772  13.072   7.262  1.00  0.00    -0.028 C 
ATOM      3  C   UNL     1      -2.792  11.791   7.694  1.00  0.00    -0.077 C 
ATOM      4  C   UNL     1      -2.302  10.649   6.834  1.00  0.00     0.039 C 
BRANCH   3   5
ATOM      5  C   UNL     1      -3.351  11.488   9.068  1.00  0.00     0.034 C 
BRANCH   5   6
ATOM      6  C   UNL     1      -4.867  11.711   9.125  1.00  0.00     0.032 C 
BRANCH   6   7
ATOM      7  C   UNL     1      -5.469  11.711   7.739  1.00  0.00    -0.028 C 
ATOM      8  C   UNL     1      -6.033  14.153   7.779  1.00  0.00     0.039 C 
ATOM      9  C   UNL     1      -5.970  12.799   7.113  1.00  0.00    -0.080 C 
ATOM     10  C   UNL     1      -6.479  12.643   5.703  1.00  0.00     0.039 C 
ENDBRANCH   6   7
ENDBRANCH   5   6
ENDBRANCH   3   5
ENDBRANCH   1   2
BRANCH   1  11
ATOM     11  C   UNL     1      -3.275  14.268   5.099  1.00  0.00     0.034 C 
BRANCH  11  12
ATOM     12  C   UNL     1      -2.650  15.041   3.956  1.00  0.00    -0.077 C 
ATOM     13  C   UNL     1      -1.305  15.175   3.910  1.00  0.00    -0.028 C 
ATOM     14  C   UNL     1      -3.547  15.621   2.886  1.00  0.00     0.039 C 
BRANCH  13  15
ATOM     15  C   UNL     1      -0.558  15.944   2.848  1.00  0.00     0.035 C 
BRANCH  15  16
ATOM     16  C   UNL     1       0.959  15.829   3.063  1.00  0.00     0.079 C 
BRANCH  16  17
ATOM     17  C   UNL     1       1.663  17.152   3.271  1.00  0.00     0.130 C 
ATOM     18  O   UNL     1       1.102  18.171   2.899  1.00  0.00    -0.300 OA
ATOM     19  C   UNL     1       3.021  17.266   3.907  1.00  0.00     0.087 C 
ENDBRANCH  16  17
ENDBRANCH  15  16
ENDBRANCH  13  15
ENDBRANCH  11  12
ENDBRANCH   1  11
TORSDOF 9
ENDMDL
MODEL 6
REMARK VINA RESULT:     6.399      3.193      4.231
REMARK INTER + INTRA:           8.751
REMARK INTER:                  10.110
REMARK INTRA:                  -1.359
REMARK UNBOUND:                -1.014
REMARK SMILES CC(=O)CCC=C(C)CCC=C(C)CCC=C(C)C
REMARK SMILES IDX 10 1 11 2 12 3 13 4 14 5 15 6 16 7 18 8 17 9 19 10 9 11 7 12
REMARK SMILES IDX 6 13 8 14 5 15 4 16 2 17 3 18 1 19
REMARK H PARENT
REMARK Flexibility Score: inf
ROOT
ATOM      1  C   UNL     1      -4.593  15.042   5.446  1.00  0.00     0.032 C 
ENDROOT
BRANCH   1   2
ATOM      2  C   UNL     1      -5.113  14.463   6.740  1.00  0.00    -0.028 C 
ATOM      3  C   UNL     1      -5.844  13.330   6.838  1.00  0.00    -0.077 C 
ATOM      4  C   UNL     1      -6.269  12.545   5.618  1.00  0.00     0.039 C 
BRANCH   3   5
ATOM      5  C   UNL     1      -6.277  12.852   8.207  1.00  0.00     0.034 C 
BRANCH   5   6
ATOM      6  C   UNL     1      -5.076  12.594   9.125  1.00  0.00     0.032 C 
BRANCH   6   7
ATOM      7  C   UNL     1      -4.235  11.449   8.610  1.00  0.00    -0.028 C 
ATOM      8  C   UNL     1      -2.202  12.866   8.230  1.00  0.00     0.039 C 
ATOM      9  C   UNL     1      -2.941  11.549   8.231  1.00  0.00    -0.080 C 
ATOM     10  C   UNL     1      -2.223  10.297   7.799  1.00  0.00     0.039 C 
ENDBRANCH   6   7
ENDBRANCH   5   6
ENDBRANCH   3   5
ENDBRANCH   1   2
BRANCH   1  11
ATOM     11  C   UNL     1      -3.146  14.606   5.168  1.00  0.00     0.034 C 
BRANCH  11  12
ATOM     12  C   UNL     1      -2.611  15.210   3.885  1.00  0.00    -0.077 C 
ATOM     13  C   UNL     1      -1.275  15.347   3.730  1.00  0.00    -0.028 C 
ATOM     14  C   UNL     1      -3.587  15.619   2.805  1.00  0.00     0.039 C 
BRANCH  13  15
ATOM     15  C   UNL     1      -0.613  15.959   2.519  1.00  0.00     0.035 C 
BRANCH  15  16
ATOM     16  C   UNL     1       0.916  15.898   2.649  1.00  0.00     0.079 C 
BRANCH  16  17
ATOM     17  C   UNL     1       1.547  17.152   3.211  1.00  0.00     0.130 C 
ATOM     18  O   UNL     1       0.861  18.158   3.294  1.00  0.00    -0.300 OA
ATOM     19  C   UNL     1       2.980  17.216   3.666  1.00  0.00     0.087 C 
ENDBRANCH  16  17
ENDBRANCH  15  16
ENDBRANCH  13  15
ENDBRANCH  11  12
ENDBRANCH   1  11
TORSDOF 9
ENDMDL
MODEL 7
REMARK VINA RESULT:     6.622      1.367      2.574
REMARK INTER + INTRA:           9.091
REMARK INTER:                  10.078
REMARK INTRA:                  -0.986
REMARK UNBOUND:                -1.014
REMARK SMILES CC(=O)CCC=C(C)CCC=C(C)CCC=C(C)C
REMARK SMILES IDX 10 1 11 2 12 3 13 4 14 5 15 6 16 7 18 8 17 9 19 10 9 11 7 12
REMARK SMILES IDX 6 13 8 14 5 15 4 16 2 17 3 18 1 19
REMARK H PARENT
REMARK Flexibility Score: inf
ROOT
ATOM      1  C   UNL     1      -6.009  14.007   8.309  1.00  0.00     0.032 C 
ENDROOT
BRANCH   1   2
ATOM      2  C   UNL     1      -5.182  12.899   8.917  1.00  0.00    -0.028 C 
ATOM      3  C   UNL     1      -5.100  11.642   8.425  1.00  0.00    -0.077 C 
ATOM      4  C   UNL     1      -5.896  11.201   7.219  1.00  0.00     0.039 C 
BRANCH   3   5
ATOM      5  C   UNL     1      -4.208  10.638   9.124  1.00  0.00     0.034 C 
BRANCH   5   6
ATOM      6  C   UNL     1      -2.783  10.653   8.559  1.00  0.00     0.032 C 
BRANCH   6   7
ATOM      7  C   UNL     1      -2.741  11.330   7.209  1.00  0.00    -0.028 C 
ATOM      8  C   UNL     1      -1.987  13.537   8.127  1.00  0.00     0.039 C 
ATOM      9  C   UNL     1      -2.362  12.610   6.996  1.00  0.00    -0.080 C 
ATOM     10  C   UNL     1      -2.316  13.117   5.578  1.00  0.00     0.039 C 
ENDBRANCH   6   7
ENDBRANCH   5   6
ENDBRANCH   3   5
ENDBRANCH   1   2
BRANCH   1  11
ATOM     11  C   UNL     1      -5.183  14.871   7.344  1.00  0.00     0.034 C 
BRANCH  11  12
ATOM     12  C   UNL     1      -5.700  14.782   5.922  1.00  0.00    -0.077 C 
ATOM     13  C   UNL     1      -6.379  13.678   5.537  1.00  0.00    -0.028 C 
ATOM     14  C   UNL     1      -5.463  15.942   4.982  1.00  0.00     0.039 C 
BRANCH  13  15
ATOM     15  C   UNL     1      -6.919  13.448   4.147  1.00  0.00     0.035 C 
BRANCH  15  16
ATOM     16  C   UNL     1      -6.001  12.503   3.357  1.00  0.00     0.079 C 
BRANCH  16  17
ATOM     17  C   UNL     1      -5.660  12.983   1.964  1.00  0.00     0.130 C 
ATOM     18  O   UNL     1      -5.301  14.141   1.821  1.00  0.00    -0.300 OA
ATOM     19  C   UNL     1      -5.750  12.101   0.748  1.00  0.00     0.087 C 
ENDBRANCH  16  17
ENDBRANCH  15  16
ENDBRANCH  13  15
ENDBRANCH  11  12
ENDBRANCH   1  11
TORSDOF 9
ENDMDL
MODEL 8
REMARK VINA RESULT:     7.204      2.480      4.604
REMARK INTER + INTRA:           9.980
REMARK INTER:                  10.976
REMARK INTRA:                  -0.996
REMARK UNBOUND:                -1.014
REMARK SMILES CC(=O)CCC=C(C)CCC=C(C)CCC=C(C)C
REMARK SMILES IDX 10 1 11 2 12 3 13 4 14 5 15 6 16 7 18 8 17 9 19 10 9 11 7 12
REMARK SMILES IDX 6 13 8 14 5 15 4 16 2 17 3 18 1 19
REMARK H PARENT
REMARK Flexibility Score: inf
ROOT
ATOM      1  C   UNL     1      -2.245  13.622   6.323  1.00  0.00     0.032 C 
ENDROOT
BRANCH   1   2
ATOM      2  C   UNL     1      -2.845  12.967   7.543  1.00  0.00    -0.028 C 
ATOM      3  C   UNL     1      -2.791  11.642   7.811  1.00  0.00    -0.077 C 
ATOM      4  C   UNL     1      -2.156  10.659   6.856  1.00  0.00     0.039 C 
BRANCH   3   5
ATOM      5  C   UNL     1      -3.415  11.126   9.090  1.00  0.00     0.034 C 
BRANCH   5   6
ATOM      6  C   UNL     1      -4.928  11.372   9.124  1.00  0.00     0.032 C 
BRANCH   6   7
ATOM      7  C   UNL     1      -5.491  11.488   7.727  1.00  0.00    -0.028 C 
ATOM      8  C   UNL     1      -6.227  13.866   8.016  1.00  0.00     0.039 C 
ATOM      9  C   UNL     1      -6.051  12.604   7.207  1.00  0.00    -0.080 C 
ATOM     10  C   UNL     1      -6.510  12.573   5.773  1.00  0.00     0.039 C 
ENDBRANCH   6   7
ENDBRANCH   5   6
ENDBRANCH   3   5
ENDBRANCH   1   2
BRANCH   1  11
ATOM     11  C   UNL     1      -3.161  13.492   5.096  1.00  0.00     0.034 C 
BRANCH  11  12
ATOM     12  C   UNL     1      -3.651  14.842   4.612  1.00  0.00    -0.077 C 
ATOM     13  C   UNL     1      -4.614  15.482   5.311  1.00  0.00    -0.028 C 
ATOM     14  C   UNL     1      -3.030  15.444   3.372  1.00  0.00     0.039 C 
BRANCH  13  15
ATOM     15  C   UNL     1      -5.212  16.812   4.923  1.00  0.00     0.035 C 
BRANCH  15  16
ATOM     16  C   UNL     1      -4.627  17.942   5.785  1.00  0.00     0.079 C 
BRANCH  16  17
ATOM     17  C   UNL     1      -4.252  19.187   5.012  1.00  0.00     0.130 C 
ATOM     18  O   UNL     1      -4.967  19.530   4.084  1.00  0.00    -0.300 OA
ATOM     19  C   UNL     1      -3.038  20.015   5.332  1.00  0.00     0.087 C 
ENDBRANCH  16  17
ENDBRANCH  15  16
ENDBRANCH  13  15
ENDBRANCH  11  12
ENDBRANCH   1  11
TORSDOF 9
ENDMDL
MODEL 9
REMARK VINA RESULT:     7.330      2.254      4.917
REMARK INTER + INTRA:          10.172
REMARK INTER:                  10.602
REMARK INTRA:                  -0.430
REMARK UNBOUND:                -1.014
REMARK SMILES CC(=O)CCC=C(C)CCC=C(C)CCC=C(C)C
REMARK SMILES IDX 10 1 11 2 12 3 13 4 14 5 15 6 16 7 18 8 17 9 19 10 9 11 7 12
REMARK SMILES IDX 6 13 8 14 5 15 4 16 2 17 3 18 1 19
REMARK H PARENT
REMARK Flexibility Score: inf
ROOT
ATOM      1  C   UNL     1      -1.732  10.493   8.987  1.00  0.00     0.032 C 
ENDROOT
BRANCH   1   2
ATOM      2  C   UNL     1      -3.106  11.115   9.063  1.00  0.00    -0.028 C 
ATOM      3  C   UNL     1      -3.348  12.446   9.074  1.00  0.00    -0.077 C 
ATOM      4  C   UNL     1      -2.230  13.462   9.070  1.00  0.00     0.039 C 
BRANCH   3   5
ATOM      5  C   UNL     1      -4.782  12.930   9.125  1.00  0.00     0.034 C 
BRANCH   5   6
ATOM      6  C   UNL     1      -5.774  11.802   8.814  1.00  0.00     0.032 C 
BRANCH   6   7
ATOM      7  C   UNL     1      -6.061  11.723   7.333  1.00  0.00    -0.028 C 
ATOM      8  C   UNL     1      -6.491  14.181   7.093  1.00  0.00     0.039 C 
ATOM      9  C   UNL     1      -6.357  12.781   6.545  1.00  0.00    -0.080 C 
ATOM     10  C   UNL     1      -6.556  12.541   5.071  1.00  0.00     0.039 C 
ENDBRANCH   6   7
ENDBRANCH   5   6
ENDBRANCH   3   5
ENDBRANCH   1   2
BRANCH   1  11
ATOM     11  C   UNL     1      -1.370  10.082   7.552  1.00  0.00     0.034 C 
BRANCH  11  12
ATOM     12  C   UNL     1      -2.241  10.781   6.528  1.00  0.00    -0.077 C 
ATOM     13  C   UNL     1      -1.927  12.040   6.148  1.00  0.00    -0.028 C 
ATOM     14  C   UNL     1      -3.421  10.040   5.942  1.00  0.00     0.039 C 
BRANCH  13  15
ATOM     15  C   UNL     1      -2.725  12.860   5.164  1.00  0.00     0.035 C 
BRANCH  15  16
ATOM     16  C   UNL     1      -3.193  14.174   5.807  1.00  0.00     0.079 C 
BRANCH  16  17
ATOM     17  C   UNL     1      -3.769  15.177   4.832  1.00  0.00     0.130 C 
ATOM     18  O   UNL     1      -3.122  15.451   3.833  1.00  0.00    -0.300 OA
ATOM     19  C   UNL     1      -5.097  15.854   5.040  1.00  0.00     0.087 C 
ENDBRANCH  16  17
ENDBRANCH  15  16
ENDBRANCH  13  15
ENDBRANCH  11  12
ENDBRANCH   1  11
TORSDOF 9
ENDMDL
