MODEL 1
REMARK VINA RESULT:    -2.750      0.000      0.000
REMARK INTER + INTRA:          -6.038
REMARK INTER:                  -4.680
REMARK INTRA:                  -1.358
REMARK UNBOUND:                -1.358
REMARK SMILES CCCCCCCCCCCCCC(=O)[O-]
REMARK SMILES IDX 8 1 9 2 10 3 11 4 12 5 13 6 14 7 15 8 16 9 7 10 6 11 5 12
REMARK SMILES IDX 4 13 3 14 2 15 1 16
REMARK H PARENT
REMARK Flexibility Score: inf
ROOT
ATOM      1  C   UNL     1     -23.115   1.930 -33.623  1.00  0.00     0.000 C 
ENDROOT
BRANCH   1   2
ATOM      2  C   UNL     1     -24.432   2.445 -33.022  1.00  0.00     0.000 C 
BRANCH   2   3
ATOM      3  C   UNL     1     -24.240   3.717 -32.180  1.00  0.00     0.000 C 
BRANCH   3   4
ATOM      4  C   UNL     1     -25.515   4.573 -32.181  1.00  0.00     0.000 C 
BRANCH   4   5
ATOM      5  C   UNL     1     -26.593   4.028 -33.131  1.00  0.00     0.006 C 
BRANCH   5   6
ATOM      6  C   UNL     1     -27.109   5.090 -34.110  1.00  0.00     0.053 C 
BRANCH   6   7
ATOM      7  C   UNL     1     -28.177   4.516 -34.987  1.00  0.00     0.041 C 
ATOM      8  O   UNL     1     -28.195   4.779 -36.218  1.00  0.00    -0.550 OA
ATOM      9  O   UNL     1     -29.125   3.652 -34.454  1.00  0.00    -0.550 OA
ENDBRANCH   6   7
ENDBRANCH   5   6
ENDBRANCH   4   5
ENDBRANCH   3   4
ENDBRANCH   2   3
ENDBRANCH   1   2
BRANCH   1  10
ATOM     10  C   UNL     1     -22.964   2.288 -35.112  1.00  0.00     0.000 C 
BRANCH  10  11
ATOM     11  C   UNL     1     -24.280   2.779 -35.738  1.00  0.00    -0.000 C 
BRANCH  11  12
ATOM     12  C   UNL     1     -24.216   4.252 -36.168  1.00  0.00    -0.000 C 
BRANCH  12  13
ATOM     13  C   UNL     1     -22.762   4.715 -36.327  1.00  0.00    -0.000 C 
BRANCH  13  14
ATOM     14  C   UNL     1     -22.406   4.903 -37.809  1.00  0.00    -0.000 C 
BRANCH  14  15
ATOM     15  C   UNL     1     -23.423   4.237 -38.750  1.00  0.00    -0.003 C 
ATOM     16  C   UNL     1     -23.034   2.806 -39.123  1.00  0.00     0.004 C 
ENDBRANCH  14  15
ENDBRANCH  13  14
ENDBRANCH  12  13
ENDBRANCH  11  12
ENDBRANCH  10  11
ENDBRANCH   1  10
TORSDOF 12
ENDMDL
MODEL 2
REMARK VINA RESULT:    -2.732     14.272     16.246
REMARK INTER + INTRA:          -6.006
REMARK INTER:                  -5.048
REMARK INTRA:                  -0.958
REMARK UNBOUND:                -1.358
REMARK SMILES CCCCCCCCCCCCCC(=O)[O-]
REMARK SMILES IDX 8 1 9 2 10 3 11 4 12 5 13 6 14 7 15 8 16 9 7 10 6 11 5 12
REMARK SMILES IDX 4 13 3 14 2 15 1 16
REMARK H PARENT
REMARK Flexibility Score: inf
ROOT
ATOM      1  C   UNL     1      -9.549   0.576 -35.583  1.00  0.00     0.000 C 
ENDROOT
BRANCH   1   2
ATOM      2  C   UNL     1      -9.990   0.364 -37.039  1.00  0.00     0.000 C 
BRANCH   2   3
ATOM      3  C   UNL     1      -8.906  -0.315 -37.891  1.00  0.00     0.000 C 
BRANCH   3   4
ATOM      4  C   UNL     1      -9.526  -1.020 -39.107  1.00  0.00     0.000 C 
BRANCH   4   5
ATOM      5  C   UNL     1      -9.239  -2.530 -39.125  1.00  0.00     0.006 C 
BRANCH   5   6
ATOM      6  C   UNL     1      -9.524  -3.201 -37.776  1.00  0.00     0.053 C 
BRANCH   6   7
ATOM      7  C   UNL     1     -10.264  -4.486 -37.978  1.00  0.00     0.041 C 
ATOM      8  O   UNL     1     -11.217  -4.796 -37.215  1.00  0.00    -0.550 OA
ATOM      9  O   UNL     1      -9.934  -5.319 -39.040  1.00  0.00    -0.550 OA
ENDBRANCH   6   7
ENDBRANCH   5   6
ENDBRANCH   4   5
ENDBRANCH   3   4
ENDBRANCH   2   3
ENDBRANCH   1   2
BRANCH   1  10
ATOM     10  C   UNL     1      -9.279   2.056 -35.255  1.00  0.00     0.000 C 
BRANCH  10  11
ATOM     11  C   UNL     1      -8.894   2.875 -36.498  1.00  0.00    -0.000 C 
BRANCH  11  12
ATOM     12  C   UNL     1      -9.279   4.357 -36.371  1.00  0.00    -0.000 C 
BRANCH  12  13
ATOM     13  C   UNL     1     -10.781   4.556 -36.607  1.00  0.00    -0.000 C 
BRANCH  13  14
ATOM     14  C   UNL     1     -11.088   4.694 -38.106  1.00  0.00    -0.000 C 
BRANCH  14  15
ATOM     15  C   UNL     1     -12.381   3.969 -38.512  1.00  0.00    -0.003 C 
ATOM     16  C   UNL     1     -12.623   2.694 -37.704  1.00  0.00     0.004 C 
ENDBRANCH  14  15
ENDBRANCH  13  14
ENDBRANCH  12  13
ENDBRANCH  11  12
ENDBRANCH  10  11
ENDBRANCH   1  10
TORSDOF 12
ENDMDL
MODEL 3
REMARK VINA RESULT:    -2.542      2.113      4.752
REMARK INTER + INTRA:          -5.682
REMARK INTER:                  -4.803
REMARK INTRA:                  -0.880
REMARK UNBOUND:                -1.358
REMARK SMILES CCCCCCCCCCCCCC(=O)[O-]
REMARK SMILES IDX 8 1 9 2 10 3 11 4 12 5 13 6 14 7 15 8 16 9 7 10 6 11 5 12
REMARK SMILES IDX 4 13 3 14 2 15 1 16
REMARK H PARENT
REMARK Flexibility Score: inf
ROOT
ATOM      1  C   UNL     1     -24.882   2.244 -33.750  1.00  0.00     0.000 C 
ENDROOT
BRANCH   1   2
ATOM      2  C   UNL     1     -23.553   2.851 -33.275  1.00  0.00     0.000 C 
BRANCH   2   3
ATOM      3  C   UNL     1     -22.558   3.069 -34.426  1.00  0.00     0.000 C 
BRANCH   3   4
ATOM      4  C   UNL     1     -23.038   2.367 -35.706  1.00  0.00     0.000 C 
BRANCH   4   5
ATOM      5  C   UNL     1     -22.330   2.887 -36.967  1.00  0.00     0.006 C 
BRANCH   5   6
ATOM      6  C   UNL     1     -22.573   4.382 -37.207  1.00  0.00     0.053 C 
BRANCH   6   7
ATOM      7  C   UNL     1     -24.030   4.644 -37.428  1.00  0.00     0.041 C 
ATOM      8  O   UNL     1     -24.735   5.124 -36.501  1.00  0.00    -0.550 OA
ATOM      9  O   UNL     1     -24.600   4.403 -38.672  1.00  0.00    -0.550 OA
ENDBRANCH   6   7
ENDBRANCH   5   6
ENDBRANCH   4   5
ENDBRANCH   3   4
ENDBRANCH   2   3
ENDBRANCH   1   2
BRANCH   1  10
ATOM     10  C   UNL     1     -26.106   3.021 -33.232  1.00  0.00     0.000 C 
BRANCH  10  11
ATOM     11  C   UNL     1     -26.893   3.704 -34.362  1.00  0.00    -0.000 C 
BRANCH  11  12
ATOM     12  C   UNL     1     -28.374   3.914 -34.007  1.00  0.00    -0.000 C 
BRANCH  12  13
ATOM     13  C   UNL     1     -29.087   4.730 -35.090  1.00  0.00    -0.000 C 
BRANCH  13  14
ATOM     14  C   UNL     1     -28.237   4.811 -36.367  1.00  0.00    -0.000 C 
BRANCH  14  15
ATOM     15  C   UNL     1     -29.077   4.663 -37.645  1.00  0.00    -0.003 C 
ATOM     16  C   UNL     1     -28.219   4.470 -38.897  1.00  0.00     0.004 C 
ENDBRANCH  14  15
ENDBRANCH  13  14
ENDBRANCH  12  13
ENDBRANCH  11  12
ENDBRANCH  10  11
ENDBRANCH   1  10
TORSDOF 12
ENDMDL
MODEL 4
REMARK VINA RESULT:    -2.360      2.872      5.383
REMARK INTER + INTRA:          -5.373
REMARK INTER:                  -4.153
REMARK INTRA:                  -1.221
REMARK UNBOUND:                -1.358
REMARK SMILES CCCCCCCCCCCCCC(=O)[O-]
REMARK SMILES IDX 8 1 9 2 10 3 11 4 12 5 13 6 14 7 15 8 16 9 7 10 6 11 5 12
REMARK SMILES IDX 4 13 3 14 2 15 1 16
REMARK H PARENT
REMARK Flexibility Score: inf
ROOT
ATOM      1  C   UNL     1     -24.129   2.623 -34.674  1.00  0.00     0.000 C 
ENDROOT
BRANCH   1   2
ATOM      2  C   UNL     1     -22.993   3.654 -34.588  1.00  0.00     0.000 C 
BRANCH   2   3
ATOM      3  C   UNL     1     -23.172   4.814 -35.580  1.00  0.00     0.000 C 
BRANCH   3   4
ATOM      4  C   UNL     1     -23.760   4.315 -36.908  1.00  0.00     0.000 C 
BRANCH   4   5
ATOM      5  C   UNL     1     -22.756   3.487 -37.726  1.00  0.00     0.006 C 
BRANCH   5   6
ATOM      6  C   UNL     1     -23.423   2.341 -38.496  1.00  0.00     0.053 C 
BRANCH   6   7
ATOM      7  C   UNL     1     -22.772   1.037 -38.158  1.00  0.00     0.041 C 
ATOM      8  O   UNL     1     -22.367   0.816 -36.987  1.00  0.00    -0.550 OA
ATOM      9  O   UNL     1     -22.656   0.046 -39.125  1.00  0.00    -0.550 OA
ENDBRANCH   6   7
ENDBRANCH   5   6
ENDBRANCH   4   5
ENDBRANCH   3   4
ENDBRANCH   2   3
ENDBRANCH   1   2
BRANCH   1  10
ATOM     10  C   UNL     1     -24.759   2.321 -33.302  1.00  0.00     0.000 C 
BRANCH  10  11
ATOM     11  C   UNL     1     -24.865   3.571 -32.413  1.00  0.00    -0.000 C 
BRANCH  11  12
ATOM     12  C   UNL     1     -26.075   4.448 -32.769  1.00  0.00    -0.000 C 
BRANCH  12  13
ATOM     13  C   UNL     1     -27.107   3.655 -33.580  1.00  0.00    -0.000 C 
BRANCH  13  14
ATOM     14  C   UNL     1     -27.924   4.586 -34.489  1.00  0.00    -0.000 C 
BRANCH  14  15
ATOM     15  C   UNL     1     -27.136   5.040 -35.728  1.00  0.00    -0.003 C 
ATOM     16  C   UNL     1     -28.002   5.110 -36.986  1.00  0.00     0.004 C 
ENDBRANCH  14  15
ENDBRANCH  13  14
ENDBRANCH  12  13
ENDBRANCH  11  12
ENDBRANCH  10  11
ENDBRANCH   1  10
TORSDOF 12
ENDMDL
MODEL 5
REMARK VINA RESULT:    -2.183     15.103     16.463
REMARK INTER + INTRA:          -5.072
REMARK INTER:                  -4.409
REMARK INTRA:                  -0.663
REMARK UNBOUND:                -1.358
REMARK SMILES CCCCCCCCCCCCCC(=O)[O-]
REMARK SMILES IDX 8 1 9 2 10 3 11 4 12 5 13 6 14 7 15 8 16 9 7 10 6 11 5 12
REMARK SMILES IDX 4 13 3 14 2 15 1 16
REMARK H PARENT
REMARK Flexibility Score: inf
ROOT
ATOM      1  C   UNL     1     -10.310   0.625 -36.413  1.00  0.00     0.000 C 
ENDROOT
BRANCH   1   2
ATOM      2  C   UNL     1     -10.392   0.267 -37.905  1.00  0.00     0.000 C 
BRANCH   2   3
ATOM      3  C   UNL     1      -9.061  -0.267 -38.458  1.00  0.00     0.000 C 
BRANCH   3   4
ATOM      4  C   UNL     1      -9.220  -1.703 -38.978  1.00  0.00     0.000 C 
BRANCH   4   5
ATOM      5  C   UNL     1      -8.875  -2.759 -37.916  1.00  0.00     0.006 C 
BRANCH   5   6
ATOM      6  C   UNL     1      -9.536  -4.115 -38.195  1.00  0.00     0.053 C 
BRANCH   6   7
ATOM      7  C   UNL     1     -10.806  -4.246 -37.414  1.00  0.00     0.041 C 
ATOM      8  O   UNL     1     -11.588  -5.208 -37.633  1.00  0.00    -0.550 OA
ATOM      9  O   UNL     1     -11.103  -3.331 -36.411  1.00  0.00    -0.550 OA
ENDBRANCH   6   7
ENDBRANCH   5   6
ENDBRANCH   4   5
ENDBRANCH   3   4
ENDBRANCH   2   3
ENDBRANCH   1   2
BRANCH   1  10
ATOM     10  C   UNL     1      -9.814   2.063 -36.177  1.00  0.00     0.000 C 
BRANCH  10  11
ATOM     11  C   UNL     1     -10.227   3.023 -37.304  1.00  0.00    -0.000 C 
BRANCH  11  12
ATOM     12  C   UNL     1      -9.717   4.455 -37.077  1.00  0.00    -0.000 C 
BRANCH  12  13
ATOM     13  C   UNL     1     -10.351   5.070 -35.824  1.00  0.00    -0.000 C 
BRANCH  13  14
ATOM     14  C   UNL     1      -9.341   5.122 -34.667  1.00  0.00    -0.000 C 
BRANCH  14  15
ATOM     15  C   UNL     1     -10.007   4.943 -33.294  1.00  0.00    -0.003 C 
ATOM     16  C   UNL     1      -9.222   4.009 -32.373  1.00  0.00     0.004 C 
ENDBRANCH  14  15
ENDBRANCH  13  14
ENDBRANCH  12  13
ENDBRANCH  11  12
ENDBRANCH  10  11
ENDBRANCH   1  10
TORSDOF 12
ENDMDL
MODEL 6
REMARK VINA RESULT:    -1.989      2.654      3.896
REMARK INTER + INTRA:          -4.743
REMARK INTER:                  -4.225
REMARK INTRA:                  -0.518
REMARK UNBOUND:                -1.358
REMARK SMILES CCCCCCCCCCCCCC(=O)[O-]
REMARK SMILES IDX 8 1 9 2 10 3 11 4 12 5 13 6 14 7 15 8 16 9 7 10 6 11 5 12
REMARK SMILES IDX 4 13 3 14 2 15 1 16
REMARK H PARENT
REMARK Flexibility Score: inf
ROOT
ATOM      1  C   UNL     1     -25.959   3.900 -35.560  1.00  0.00     0.000 C 
ENDROOT
BRANCH   1   2
ATOM      2  C   UNL     1     -27.000   4.646 -34.712  1.00  0.00     0.000 C 
BRANCH   2   3
ATOM      3  C   UNL     1     -26.838   4.377 -33.207  1.00  0.00     0.000 C 
BRANCH   3   4
ATOM      4  C   UNL     1     -25.455   4.830 -32.716  1.00  0.00     0.000 C 
BRANCH   4   5
ATOM      5  C   UNL     1     -24.582   3.658 -32.240  1.00  0.00     0.006 C 
BRANCH   5   6
ATOM      6  C   UNL     1     -24.485   2.535 -33.280  1.00  0.00     0.053 C 
BRANCH   6   7
ATOM      7  C   UNL     1     -23.052   2.234 -33.589  1.00  0.00     0.041 C 
ATOM      8  O   UNL     1     -22.655   1.041 -33.656  1.00  0.00    -0.550 OA
ATOM      9  O   UNL     1     -22.165   3.270 -33.852  1.00  0.00    -0.550 OA
ENDBRANCH   6   7
ENDBRANCH   5   6
ENDBRANCH   4   5
ENDBRANCH   3   4
ENDBRANCH   2   3
ENDBRANCH   1   2
BRANCH   1  10
ATOM     10  C   UNL     1     -25.135   4.846 -36.452  1.00  0.00     0.000 C 
BRANCH  10  11
ATOM     11  C   UNL     1     -23.658   4.432 -36.546  1.00  0.00    -0.000 C 
BRANCH  11  12
ATOM     12  C   UNL     1     -22.975   4.963 -37.817  1.00  0.00    -0.000 C 
BRANCH  12  13
ATOM     13  C   UNL     1     -22.731   3.831 -38.822  1.00  0.00    -0.000 C 
BRANCH  13  14
ATOM     14  C   UNL     1     -22.858   2.458 -38.144  1.00  0.00    -0.000 C 
BRANCH  14  15
ATOM     15  C   UNL     1     -23.289   1.355 -39.123  1.00  0.00    -0.003 C 
ATOM     16  C   UNL     1     -22.697  -0.011 -38.772  1.00  0.00     0.004 C 
ENDBRANCH  14  15
ENDBRANCH  13  14
ENDBRANCH  12  13
ENDBRANCH  11  12
ENDBRANCH  10  11
ENDBRANCH   1  10
TORSDOF 12
ENDMDL
MODEL 7
REMARK VINA RESULT:    -0.809      2.130      4.646
REMARK INTER + INTRA:          -2.734
REMARK INTER:                  -1.830
REMARK INTRA:                  -0.903
REMARK UNBOUND:                -1.358
REMARK SMILES CCCCCCCCCCCCCC(=O)[O-]
REMARK SMILES IDX 8 1 9 2 10 3 11 4 12 5 13 6 14 7 15 8 16 9 7 10 6 11 5 12
REMARK SMILES IDX 4 13 3 14 2 15 1 16
REMARK H PARENT
REMARK Flexibility Score: inf
ROOT
ATOM      1  C   UNL     1     -22.405   3.453 -38.155  1.00  0.00     0.000 C 
ENDROOT
BRANCH   1   2
ATOM      2  C   UNL     1     -22.968   2.121 -37.636  1.00  0.00     0.000 C 
BRANCH   2   3
ATOM      3  C   UNL     1     -23.409   2.199 -36.166  1.00  0.00     0.000 C 
BRANCH   3   4
ATOM      4  C   UNL     1     -22.546   3.204 -35.387  1.00  0.00     0.000 C 
BRANCH   4   5
ATOM      5  C   UNL     1     -22.734   3.093 -33.866  1.00  0.00     0.006 C 
BRANCH   5   6
ATOM      6  C   UNL     1     -23.699   4.148 -33.312  1.00  0.00     0.053 C 
BRANCH   6   7
ATOM      7  C   UNL     1     -24.775   3.496 -32.502  1.00  0.00     0.041 C 
ATOM      8  O   UNL     1     -25.398   2.501 -32.959  1.00  0.00    -0.550 OA
ATOM      9  O   UNL     1     -25.058   3.957 -31.222  1.00  0.00    -0.550 OA
ENDBRANCH   6   7
ENDBRANCH   5   6
ENDBRANCH   4   5
ENDBRANCH   3   4
ENDBRANCH   2   3
ENDBRANCH   1   2
BRANCH   1  10
ATOM     10  C   UNL     1     -23.416   4.608 -38.041  1.00  0.00     0.000 C 
BRANCH  10  11
ATOM     11  C   UNL     1     -24.740   4.307 -38.762  1.00  0.00    -0.000 C 
BRANCH  11  12
ATOM     12  C   UNL     1     -25.930   5.062 -38.150  1.00  0.00    -0.000 C 
BRANCH  12  13
ATOM     13  C   UNL     1     -26.020   4.813 -36.640  1.00  0.00    -0.000 C 
BRANCH  13  14
ATOM     14  C   UNL     1     -27.430   5.125 -36.116  1.00  0.00    -0.000 C 
BRANCH  14  15
ATOM     15  C   UNL     1     -27.557   4.905 -34.600  1.00  0.00    -0.003 C 
ATOM     16  C   UNL     1     -28.345   3.643 -34.250  1.00  0.00     0.004 C 
ENDBRANCH  14  15
ENDBRANCH  13  14
ENDBRANCH  12  13
ENDBRANCH  11  12
ENDBRANCH  10  11
ENDBRANCH   1  10
TORSDOF 12
ENDMDL
