MODEL 1
REMARK VINA RESULT:    -5.358      0.000      0.000
REMARK INTER + INTRA:          -6.918
REMARK INTER:                  -6.611
REMARK INTRA:                  -0.306
REMARK UNBOUND:                -0.306
REMARK SMILES O=c1c(O)c(-c2cc(O)c(O)c(O)c2)oc2cc(O)cc(O)c12
REMARK SMILES IDX 5 1 3 2 2 3 1 4 23 5 21 6 20 7 18 8 17 9 16 10 15 11 6 12
REMARK SMILES IDX 7 13 8 14 14 15 10 16 12 17 9 18 11 20 13 22 4 24 22 26
REMARK SMILES IDX 19 28
REMARK H PARENT 9 19 11 21 13 23 4 25 22 27 19 29
REMARK Flexibility Score: inf
ROOT
ATOM      1  C   UNL     1      15.133  -1.997   6.219  1.00  0.00     0.180 A 
ATOM      2  C   UNL     1      14.357  -1.252   7.124  1.00  0.00     0.208 A 
ATOM      3  C   UNL     1      13.910   0.024   6.749  1.00  0.00     0.238 A 
ATOM      4  O   UNL     1      13.280   0.714   7.592  1.00  0.00    -0.285 OA
ATOM      5  C   UNL     1      14.194   0.519   5.452  1.00  0.00     0.111 A 
ATOM      6  C   UNL     1      13.752   1.779   4.948  1.00  0.00     0.134 A 
ATOM      7  C   UNL     1      14.184   2.209   3.687  1.00  0.00     0.093 A 
ATOM      8  C   UNL     1      14.989   1.396   2.886  1.00  0.00     0.123 A 
ATOM      9  C   UNL     1      15.381   0.142   3.346  1.00  0.00     0.094 A 
ATOM     10  C   UNL     1      14.997  -0.299   4.615  1.00  0.00     0.146 A 
ATOM     11  O   UNL     1      15.411  -1.493   5.022  1.00  0.00    -0.452 OA
ENDROOT
BRANCH   1  12
ATOM     12  C   UNL     1      15.654  -3.342   6.548  1.00  0.00     0.029 A 
ATOM     13  C   UNL     1      16.995  -3.487   6.934  1.00  0.00     0.062 A 
ATOM     14  C   UNL     1      17.510  -4.743   7.270  1.00  0.00     0.162 A 
ATOM     15  C   UNL     1      14.820  -4.473   6.537  1.00  0.00     0.062 A 
ATOM     16  C   UNL     1      16.678  -5.874   7.238  1.00  0.00     0.200 A 
ATOM     17  C   UNL     1      15.328  -5.736   6.875  1.00  0.00     0.162 A 
BRANCH  14  18
ATOM     18  O   UNL     1      18.852  -4.846   7.636  1.00  0.00    -0.504 OA
ATOM     19  H   UNL     1      19.167  -5.483   8.358  1.00  0.00     0.293 HD
ENDBRANCH  14  18
BRANCH  16  20
ATOM     20  O   UNL     1      17.201  -7.125   7.573  1.00  0.00    -0.502 OA
ATOM     21  H   UNL     1      17.569  -7.326   8.494  1.00  0.00     0.293 HD
ENDBRANCH  16  20
BRANCH  17  22
ATOM     22  O   UNL     1      14.492  -6.851   6.854  1.00  0.00    -0.504 OA
ATOM     23  H   UNL     1      14.443  -7.495   7.636  1.00  0.00     0.293 HD
ENDBRANCH  17  22
ENDBRANCH   1  12
BRANCH   2  24
ATOM     24  O   UNL     1      14.024  -1.789   8.371  1.00  0.00    -0.502 OA
ATOM     25  H   UNL     1      14.659  -1.766   9.160  1.00  0.00     0.293 HD
ENDBRANCH   2  24
BRANCH   6  26
ATOM     26  O   UNL     1      12.875   2.631   5.628  1.00  0.00    -0.507 OA
ATOM     27  H   UNL     1      12.589   2.519   6.588  1.00  0.00     0.293 HD
ENDBRANCH   6  26
BRANCH   8  28
ATOM     28  O   UNL     1      15.400   1.825   1.626  1.00  0.00    -0.508 OA
ATOM     29  H   UNL     1      15.588   1.169   0.877  1.00  0.00     0.293 HD
ENDBRANCH   8  28
TORSDOF 7
ENDMDL
MODEL 2
REMARK VINA RESULT:    -5.146      1.622      7.088
REMARK INTER + INTRA:          -6.656
REMARK INTER:                  -6.424
REMARK INTRA:                  -0.232
REMARK UNBOUND:                -0.306
REMARK SMILES O=c1c(O)c(-c2cc(O)c(O)c(O)c2)oc2cc(O)cc(O)c12
REMARK SMILES IDX 5 1 3 2 2 3 1 4 23 5 21 6 20 7 18 8 17 9 16 10 15 11 6 12
REMARK SMILES IDX 7 13 8 14 14 15 10 16 12 17 9 18 11 20 13 22 4 24 22 26
REMARK SMILES IDX 19 28
REMARK H PARENT 9 19 11 21 13 23 4 25 22 27 19 29
REMARK Flexibility Score: inf
ROOT
ATOM      1  C   UNL     1      15.437  -2.243   5.056  1.00  0.00     0.180 A 
ATOM      2  C   UNL     1      14.284  -3.003   5.322  1.00  0.00     0.208 A 
ATOM      3  C   UNL     1      14.421  -4.254   5.941  1.00  0.00     0.238 A 
ATOM      4  O   UNL     1      13.393  -4.961   6.108  1.00  0.00    -0.285 OA
ATOM      5  C   UNL     1      15.702  -4.708   6.340  1.00  0.00     0.111 A 
ATOM      6  C   UNL     1      15.955  -5.940   7.015  1.00  0.00     0.134 A 
ATOM      7  C   UNL     1      17.276  -6.334   7.265  1.00  0.00     0.093 A 
ATOM      8  C   UNL     1      18.350  -5.510   6.920  1.00  0.00     0.123 A 
ATOM      9  C   UNL     1      18.111  -4.282   6.309  1.00  0.00     0.094 A 
ATOM     10  C   UNL     1      16.808  -3.879   6.013  1.00  0.00     0.146 A 
ATOM     11  O   UNL     1      16.628  -2.709   5.411  1.00  0.00    -0.452 OA
ENDROOT
BRANCH   1  12
ATOM     12  C   UNL     1      15.374  -0.922   4.392  1.00  0.00     0.029 A 
ATOM     13  C   UNL     1      14.827   0.171   5.081  1.00  0.00     0.062 A 
ATOM     14  C   UNL     1      14.773   1.436   4.487  1.00  0.00     0.162 A 
ATOM     15  C   UNL     1      15.904  -0.722   3.105  1.00  0.00     0.062 A 
ATOM     16  C   UNL     1      15.284   1.626   3.193  1.00  0.00     0.200 A 
ATOM     17  C   UNL     1      15.856   0.543   2.503  1.00  0.00     0.162 A 
BRANCH  14  18
ATOM     18  O   UNL     1      14.209   2.493   5.201  1.00  0.00    -0.504 OA
ATOM     19  H   UNL     1      14.639   3.409   5.238  1.00  0.00     0.293 HD
ENDBRANCH  14  18
BRANCH  16  20
ATOM     20  O   UNL     1      15.224   2.891   2.606  1.00  0.00    -0.502 OA
ATOM     21  H   UNL     1      14.393   3.468   2.651  1.00  0.00     0.293 HD
ENDBRANCH  16  20
BRANCH  17  22
ATOM     22  O   UNL     1      16.378   0.726   1.224  1.00  0.00    -0.504 OA
ATOM     23  H   UNL     1      16.205   1.573   0.695  1.00  0.00     0.293 HD
ENDBRANCH  17  22
ENDBRANCH   1  12
BRANCH   2  24
ATOM     24  O   UNL     1      13.021  -2.504   4.989  1.00  0.00    -0.502 OA
ATOM     25  H   UNL     1      12.377  -3.009   4.392  1.00  0.00     0.293 HD
ENDBRANCH   2  24
BRANCH   6  26
ATOM     26  O   UNL     1      14.953  -6.796   7.484  1.00  0.00    -0.507 OA
ATOM     27  H   UNL     1      15.110  -7.723   7.849  1.00  0.00     0.293 HD
ENDBRANCH   6  26
BRANCH   8  28
ATOM     28  O   UNL     1      19.660  -5.903   7.188  1.00  0.00    -0.508 OA
ATOM     29  H   UNL     1      20.293  -6.180   6.446  1.00  0.00     0.293 HD
ENDBRANCH   8  28
TORSDOF 7
ENDMDL
MODEL 3
REMARK VINA RESULT:    -5.120      1.696      7.127
REMARK INTER + INTRA:          -6.623
REMARK INTER:                  -6.353
REMARK INTRA:                  -0.270
REMARK UNBOUND:                -0.306
REMARK SMILES O=c1c(O)c(-c2cc(O)c(O)c(O)c2)oc2cc(O)cc(O)c12
REMARK SMILES IDX 5 1 3 2 2 3 1 4 23 5 21 6 20 7 18 8 17 9 16 10 15 11 6 12
REMARK SMILES IDX 7 13 8 14 14 15 10 16 12 17 9 18 11 20 13 22 4 24 22 26
REMARK SMILES IDX 19 28
REMARK H PARENT 9 19 11 21 13 23 4 25 22 27 19 29
REMARK Flexibility Score: inf
ROOT
ATOM      1  C   UNL     1      15.502  -2.373   4.927  1.00  0.00     0.180 A 
ATOM      2  C   UNL     1      14.364  -3.196   4.990  1.00  0.00     0.208 A 
ATOM      3  C   UNL     1      14.486  -4.487   5.525  1.00  0.00     0.238 A 
ATOM      4  O   UNL     1      13.480  -5.244   5.509  1.00  0.00    -0.285 OA
ATOM      5  C   UNL     1      15.730  -4.923   6.042  1.00  0.00     0.111 A 
ATOM      6  C   UNL     1      15.958  -6.195   6.647  1.00  0.00     0.134 A 
ATOM      7  C   UNL     1      17.257  -6.557   7.027  1.00  0.00     0.093 A 
ATOM      8  C   UNL     1      18.325  -5.668   6.881  1.00  0.00     0.123 A 
ATOM      9  C   UNL     1      18.102  -4.404   6.341  1.00  0.00     0.094 A 
ATOM     10  C   UNL     1      16.825  -4.028   5.918  1.00  0.00     0.146 A 
ATOM     11  O   UNL     1      16.663  -2.821   5.390  1.00  0.00    -0.452 OA
ENDROOT
BRANCH   1  12
ATOM     12  C   UNL     1      15.456  -1.005   4.364  1.00  0.00     0.029 A 
ATOM     13  C   UNL     1      16.012  -0.762   3.099  1.00  0.00     0.062 A 
ATOM     14  C   UNL     1      15.965   0.517   2.532  1.00  0.00     0.162 A 
ATOM     15  C   UNL     1      14.817   0.046   5.044  1.00  0.00     0.062 A 
ATOM     16  C   UNL     1      15.344   1.569   3.225  1.00  0.00     0.200 A 
ATOM     17  C   UNL     1      14.764   1.329   4.483  1.00  0.00     0.162 A 
BRANCH  14  18
ATOM     18  O   UNL     1      16.541   0.720   1.279  1.00  0.00    -0.504 OA
ATOM     19  H   UNL     1      16.617  -0.022   0.594  1.00  0.00     0.293 HD
ENDBRANCH  14  18
BRANCH  16  20
ATOM     20  O   UNL     1      15.304   2.842   2.654  1.00  0.00    -0.502 OA
ATOM     21  H   UNL     1      15.301   2.983   1.651  1.00  0.00     0.293 HD
ENDBRANCH  16  20
BRANCH  17  22
ATOM     22  O   UNL     1      14.133   2.365   5.170  1.00  0.00    -0.504 OA
ATOM     23  H   UNL     1      13.710   3.147   4.683  1.00  0.00     0.293 HD
ENDBRANCH  17  22
ENDBRANCH   1  12
BRANCH   2  24
ATOM     24  O   UNL     1      13.127  -2.720   4.544  1.00  0.00    -0.502 OA
ATOM     25  H   UNL     1      12.263  -3.225   4.697  1.00  0.00     0.293 HD
ENDBRANCH   2  24
BRANCH   6  26
ATOM     26  O   UNL     1      14.950  -7.125   6.921  1.00  0.00    -0.507 OA
ATOM     27  H   UNL     1      14.465  -7.673   6.227  1.00  0.00     0.293 HD
ENDBRANCH   6  26
BRANCH   8  28
ATOM     28  O   UNL     1      19.610  -6.031   7.277  1.00  0.00    -0.508 OA
ATOM     29  H   UNL     1      20.027  -6.908   6.988  1.00  0.00     0.293 HD
ENDBRANCH   8  28
TORSDOF 7
ENDMDL
MODEL 4
REMARK VINA RESULT:    -4.721      1.731      3.346
REMARK INTER + INTRA:          -6.131
REMARK INTER:                  -5.901
REMARK INTRA:                  -0.231
REMARK UNBOUND:                -0.306
REMARK SMILES O=c1c(O)c(-c2cc(O)c(O)c(O)c2)oc2cc(O)cc(O)c12
REMARK SMILES IDX 5 1 3 2 2 3 1 4 23 5 21 6 20 7 18 8 17 9 16 10 15 11 6 12
REMARK SMILES IDX 7 13 8 14 14 15 10 16 12 17 9 18 11 20 13 22 4 24 22 26
REMARK SMILES IDX 19 28
REMARK H PARENT 9 19 11 21 13 23 4 25 22 27 19 29
REMARK Flexibility Score: inf
ROOT
ATOM      1  C   UNL     1      15.443  -2.869   4.889  1.00  0.00     0.180 A 
ATOM      2  C   UNL     1      14.928  -3.226   3.631  1.00  0.00     0.208 A 
ATOM      3  C   UNL     1      14.342  -2.235   2.829  1.00  0.00     0.238 A 
ATOM      4  O   UNL     1      13.816  -2.576   1.737  1.00  0.00    -0.285 OA
ATOM      5  C   UNL     1      14.328  -0.889   3.267  1.00  0.00     0.111 A 
ATOM      6  C   UNL     1      13.801   0.205   2.517  1.00  0.00     0.134 A 
ATOM      7  C   UNL     1      13.745   1.479   3.097  1.00  0.00     0.093 A 
ATOM      8  C   UNL     1      14.256   1.710   4.377  1.00  0.00     0.123 A 
ATOM      9  C   UNL     1      14.821   0.660   5.095  1.00  0.00     0.094 A 
ATOM     10  C   UNL     1      14.857  -0.629   4.559  1.00  0.00     0.146 A 
ATOM     11  O   UNL     1      15.387  -1.604   5.288  1.00  0.00    -0.452 OA
ENDROOT
BRANCH   1  12
ATOM     12  C   UNL     1      16.062  -3.859   5.798  1.00  0.00     0.029 A 
ATOM     13  C   UNL     1      15.262  -4.851   6.385  1.00  0.00     0.062 A 
ATOM     14  C   UNL     1      15.822  -5.813   7.232  1.00  0.00     0.162 A 
ATOM     15  C   UNL     1      17.446  -3.865   6.043  1.00  0.00     0.062 A 
ATOM     16  C   UNL     1      17.203  -5.802   7.490  1.00  0.00     0.200 A 
ATOM     17  C   UNL     1      18.016  -4.826   6.889  1.00  0.00     0.162 A 
BRANCH  14  18
ATOM     18  O   UNL     1      14.990  -6.773   7.806  1.00  0.00    -0.504 OA
ATOM     19  H   UNL     1      15.288  -7.732   7.945  1.00  0.00     0.293 HD
ENDBRANCH  14  18
BRANCH  16  20
ATOM     20  O   UNL     1      17.754  -6.763   8.339  1.00  0.00    -0.502 OA
ATOM     21  H   UNL     1      17.386  -6.939   9.266  1.00  0.00     0.293 HD
ENDBRANCH  16  20
BRANCH  17  22
ATOM     22  O   UNL     1      19.390  -4.817   7.129  1.00  0.00    -0.504 OA
ATOM     23  H   UNL     1      19.975  -5.613   6.903  1.00  0.00     0.293 HD
ENDBRANCH  17  22
ENDBRANCH   1  12
BRANCH   2  24
ATOM     24  O   UNL     1      15.019  -4.547   3.184  1.00  0.00    -0.502 OA
ATOM     25  H   UNL     1      15.458  -5.278   3.732  1.00  0.00     0.293 HD
ENDBRANCH   2  24
BRANCH   6  26
ATOM     26  O   UNL     1      13.346   0.104   1.198  1.00  0.00    -0.507 OA
ATOM     27  H   UNL     1      13.939   0.079   0.383  1.00  0.00     0.293 HD
ENDBRANCH   6  26
BRANCH   8  28
ATOM     28  O   UNL     1      14.211   2.984   4.939  1.00  0.00    -0.508 OA
ATOM     29  H   UNL     1      13.352   3.368   5.315  1.00  0.00     0.293 HD
ENDBRANCH   8  28
TORSDOF 7
ENDMDL
MODEL 5
REMARK VINA RESULT:    -4.716      1.753      2.902
REMARK INTER + INTRA:          -6.124
REMARK INTER:                  -5.851
REMARK INTRA:                  -0.274
REMARK UNBOUND:                -0.306
REMARK SMILES O=c1c(O)c(-c2cc(O)c(O)c(O)c2)oc2cc(O)cc(O)c12
REMARK SMILES IDX 5 1 3 2 2 3 1 4 23 5 21 6 20 7 18 8 17 9 16 10 15 11 6 12
REMARK SMILES IDX 7 13 8 14 14 15 10 16 12 17 9 18 11 20 13 22 4 24 22 26
REMARK SMILES IDX 19 28
REMARK H PARENT 9 19 11 21 13 23 4 25 22 27 19 29
REMARK Flexibility Score: inf
ROOT
ATOM      1  C   UNL     1      15.414  -2.947   4.852  1.00  0.00     0.180 A 
ATOM      2  C   UNL     1      14.912  -3.278   3.581  1.00  0.00     0.208 A 
ATOM      3  C   UNL     1      14.345  -2.268   2.789  1.00  0.00     0.238 A 
ATOM      4  O   UNL     1      13.831  -2.584   1.684  1.00  0.00    -0.285 OA
ATOM      5  C   UNL     1      14.335  -0.929   3.252  1.00  0.00     0.111 A 
ATOM      6  C   UNL     1      13.827   0.182   2.515  1.00  0.00     0.134 A 
ATOM      7  C   UNL     1      13.773   1.446   3.118  1.00  0.00     0.093 A 
ATOM      8  C   UNL     1      14.268   1.649   4.409  1.00  0.00     0.123 A 
ATOM      9  C   UNL     1      14.816   0.582   5.115  1.00  0.00     0.094 A 
ATOM     10  C   UNL     1      14.849  -0.697   4.555  1.00  0.00     0.146 A 
ATOM     11  O   UNL     1      15.361  -1.690   5.273  1.00  0.00    -0.452 OA
ENDROOT
BRANCH   1  12
ATOM     12  C   UNL     1      16.013  -3.959   5.750  1.00  0.00     0.029 A 
ATOM     13  C   UNL     1      17.386  -3.903   6.034  1.00  0.00     0.062 A 
ATOM     14  C   UNL     1      17.976  -4.834   6.896  1.00  0.00     0.162 A 
ATOM     15  C   UNL     1      15.226  -4.944   6.373  1.00  0.00     0.062 A 
ATOM     16  C   UNL     1      17.189  -5.829   7.499  1.00  0.00     0.200 A 
ATOM     17  C   UNL     1      15.809  -5.879   7.239  1.00  0.00     0.162 A 
BRANCH  14  18
ATOM     18  O   UNL     1      19.346  -4.751   7.141  1.00  0.00    -0.504 OA
ATOM     19  H   UNL     1      19.914  -3.995   6.780  1.00  0.00     0.293 HD
ENDBRANCH  14  18
BRANCH  16  20
ATOM     20  O   UNL     1      17.786  -6.756   8.355  1.00  0.00    -0.502 OA
ATOM     21  H   UNL     1      18.665  -6.569   8.824  1.00  0.00     0.293 HD
ENDBRANCH  16  20
BRANCH  17  22
ATOM     22  O   UNL     1      15.020  -6.856   7.845  1.00  0.00    -0.504 OA
ATOM     23  H   UNL     1      14.030  -6.941   7.643  1.00  0.00     0.293 HD
ENDBRANCH  17  22
ENDBRANCH   1  12
BRANCH   2  24
ATOM     24  O   UNL     1      15.000  -4.591   3.110  1.00  0.00    -0.502 OA
ATOM     25  H   UNL     1      14.786  -5.392   3.692  1.00  0.00     0.293 HD
ENDBRANCH   2  24
BRANCH   6  26
ATOM     26  O   UNL     1      13.389   0.109   1.189  1.00  0.00    -0.507 OA
ATOM     27  H   UNL     1      12.977  -0.706   0.761  1.00  0.00     0.293 HD
ENDBRANCH   6  26
BRANCH   8  28
ATOM     28  O   UNL     1      14.225   2.913   4.994  1.00  0.00    -0.508 OA
ATOM     29  H   UNL     1      14.339   3.756   4.444  1.00  0.00     0.293 HD
ENDBRANCH   8  28
TORSDOF 7
ENDMDL
MODEL 6
REMARK VINA RESULT:    -4.611      1.776      7.350
REMARK INTER + INTRA:          -5.995
REMARK INTER:                  -5.727
REMARK INTRA:                  -0.268
REMARK UNBOUND:                -0.306
REMARK SMILES O=c1c(O)c(-c2cc(O)c(O)c(O)c2)oc2cc(O)cc(O)c12
REMARK SMILES IDX 5 1 3 2 2 3 1 4 23 5 21 6 20 7 18 8 17 9 16 10 15 11 6 12
REMARK SMILES IDX 7 13 8 14 14 15 10 16 12 17 9 18 11 20 13 22 4 24 22 26
REMARK SMILES IDX 19 28
REMARK H PARENT 9 19 11 21 13 23 4 25 22 27 19 29
REMARK Flexibility Score: inf
ROOT
ATOM      1  C   UNL     1      14.961  -1.840   4.492  1.00  0.00     0.180 A 
ATOM      2  C   UNL     1      14.430  -2.762   3.573  1.00  0.00     0.208 A 
ATOM      3  C   UNL     1      14.753  -4.121   3.707  1.00  0.00     0.238 A 
ATOM      4  O   UNL     1      14.335  -4.929   2.837  1.00  0.00    -0.285 OA
ATOM      5  C   UNL     1      15.556  -4.552   4.791  1.00  0.00     0.111 A 
ATOM      6  C   UNL     1      15.910  -5.910   5.051  1.00  0.00     0.134 A 
ATOM      7  C   UNL     1      16.799  -6.206   6.093  1.00  0.00     0.093 A 
ATOM      8  C   UNL     1      17.296  -5.198   6.923  1.00  0.00     0.123 A 
ATOM      9  C   UNL     1      16.914  -3.877   6.711  1.00  0.00     0.094 A 
ATOM     10  C   UNL     1      16.059  -3.545   5.657  1.00  0.00     0.146 A 
ATOM     11  O   UNL     1      15.739  -2.269   5.479  1.00  0.00    -0.452 OA
ENDROOT
BRANCH   1  12
ATOM     12  C   UNL     1      14.679  -0.390   4.407  1.00  0.00     0.029 A 
ATOM     13  C   UNL     1      13.915   0.224   5.412  1.00  0.00     0.062 A 
ATOM     14  C   UNL     1      13.649   1.597   5.368  1.00  0.00     0.162 A 
ATOM     15  C   UNL     1      15.206   0.400   3.371  1.00  0.00     0.062 A 
ATOM     16  C   UNL     1      14.161   2.378   4.319  1.00  0.00     0.200 A 
ATOM     17  C   UNL     1      14.946   1.776   3.321  1.00  0.00     0.162 A 
BRANCH  14  18
ATOM     18  O   UNL     1      12.875   2.166   6.379  1.00  0.00    -0.504 OA
ATOM     19  H   UNL     1      11.927   1.863   6.567  1.00  0.00     0.293 HD
ENDBRANCH  14  18
BRANCH  16  20
ATOM     20  O   UNL     1      13.889   3.747   4.282  1.00  0.00    -0.502 OA
ATOM     21  H   UNL     1      14.534   4.435   4.650  1.00  0.00     0.293 HD
ENDBRANCH  16  20
BRANCH  17  22
ATOM     22  O   UNL     1      15.470   2.548   2.284  1.00  0.00    -0.504 OA
ATOM     23  H   UNL     1      15.904   2.124   1.473  1.00  0.00     0.293 HD
ENDBRANCH  17  22
ENDBRANCH   1  12
BRANCH   2  24
ATOM     24  O   UNL     1      13.577  -2.326   2.554  1.00  0.00    -0.502 OA
ATOM     25  H   UNL     1      13.807  -2.426   1.573  1.00  0.00     0.293 HD
ENDBRANCH   2  24
BRANCH   6  26
ATOM     26  O   UNL     1      15.402  -7.002   4.340  1.00  0.00    -0.507 OA
ATOM     27  H   UNL     1      15.701  -7.957   4.458  1.00  0.00     0.293 HD
ENDBRANCH   6  26
BRANCH   8  28
ATOM     28  O   UNL     1      18.166  -5.504   7.967  1.00  0.00    -0.508 OA
ATOM     29  H   UNL     1      19.172  -5.467   7.848  1.00  0.00     0.293 HD
ENDBRANCH   8  28
TORSDOF 7
ENDMDL
MODEL 7
REMARK VINA RESULT:    -4.602      1.784      7.279
REMARK INTER + INTRA:          -5.984
REMARK INTER:                  -5.781
REMARK INTRA:                  -0.203
REMARK UNBOUND:                -0.306
REMARK SMILES O=c1c(O)c(-c2cc(O)c(O)c(O)c2)oc2cc(O)cc(O)c12
REMARK SMILES IDX 5 1 3 2 2 3 1 4 23 5 21 6 20 7 18 8 17 9 16 10 15 11 6 12
REMARK SMILES IDX 7 13 8 14 14 15 10 16 12 17 9 18 11 20 13 22 4 24 22 26
REMARK SMILES IDX 19 28
REMARK H PARENT 9 19 11 21 13 23 4 25 22 27 19 29
REMARK Flexibility Score: inf
ROOT
ATOM      1  C   UNL     1      15.017  -1.869   4.556  1.00  0.00     0.180 A 
ATOM      2  C   UNL     1      14.507  -2.762   3.597  1.00  0.00     0.208 A 
ATOM      3  C   UNL     1      14.825  -4.125   3.699  1.00  0.00     0.238 A 
ATOM      4  O   UNL     1      14.428  -4.906   2.795  1.00  0.00    -0.285 OA
ATOM      5  C   UNL     1      15.601  -4.590   4.789  1.00  0.00     0.111 A 
ATOM      6  C   UNL     1      15.946  -5.955   5.018  1.00  0.00     0.134 A 
ATOM      7  C   UNL     1      16.808  -6.284   6.072  1.00  0.00     0.093 A 
ATOM      8  C   UNL     1      17.286  -5.302   6.944  1.00  0.00     0.123 A 
ATOM      9  C   UNL     1      16.911  -3.974   6.761  1.00  0.00     0.094 A 
ATOM     10  C   UNL     1      16.083  -3.610   5.697  1.00  0.00     0.146 A 
ATOM     11  O   UNL     1      15.769  -2.329   5.549  1.00  0.00    -0.452 OA
ENDROOT
BRANCH   1  12
ATOM     12  C   UNL     1      14.738  -0.416   4.507  1.00  0.00     0.029 A 
ATOM     13  C   UNL     1      15.235   0.345   3.438  1.00  0.00     0.062 A 
ATOM     14  C   UNL     1      14.971   1.716   3.354  1.00  0.00     0.162 A 
ATOM     15  C   UNL     1      13.937   0.209   5.477  1.00  0.00     0.062 A 
ATOM     16  C   UNL     1      14.187   2.341   4.338  1.00  0.00     0.200 A 
ATOM     17  C   UNL     1      13.665   1.582   5.400  1.00  0.00     0.162 A 
BRANCH  14  18
ATOM     18  O   UNL     1      15.495   2.440   2.284  1.00  0.00    -0.504 OA
ATOM     19  H   UNL     1      16.403   2.232   1.885  1.00  0.00     0.293 HD
ENDBRANCH  14  18
BRANCH  16  20
ATOM     20  O   UNL     1      13.931   3.711   4.249  1.00  0.00    -0.502 OA
ATOM     21  H   UNL     1      14.667   4.388   4.094  1.00  0.00     0.293 HD
ENDBRANCH  16  20
BRANCH  17  22
ATOM     22  O   UNL     1      12.875   2.193   6.372  1.00  0.00    -0.504 OA
ATOM     23  H   UNL     1      12.915   1.912   7.345  1.00  0.00     0.293 HD
ENDBRANCH  17  22
ENDBRANCH   1  12
BRANCH   2  24
ATOM     24  O   UNL     1      13.681  -2.295   2.571  1.00  0.00    -0.502 OA
ATOM     25  H   UNL     1      12.671  -2.337   2.625  1.00  0.00     0.293 HD
ENDBRANCH   2  24
BRANCH   6  26
ATOM     26  O   UNL     1      15.455  -7.025   4.262  1.00  0.00    -0.507 OA
ATOM     27  H   UNL     1      14.873  -6.934   3.444  1.00  0.00     0.293 HD
ENDBRANCH   6  26
BRANCH   8  28
ATOM     28  O   UNL     1      18.129  -5.640   8.000  1.00  0.00    -0.508 OA
ATOM     29  H   UNL     1      19.133  -5.707   7.877  1.00  0.00     0.293 HD
ENDBRANCH   8  28
TORSDOF 7
ENDMDL
MODEL 8
REMARK VINA RESULT:    -4.195      1.711      6.947
REMARK INTER + INTRA:          -5.482
REMARK INTER:                  -5.390
REMARK INTRA:                  -0.093
REMARK UNBOUND:                -0.306
REMARK SMILES O=c1c(O)c(-c2cc(O)c(O)c(O)c2)oc2cc(O)cc(O)c12
REMARK SMILES IDX 5 1 3 2 2 3 1 4 23 5 21 6 20 7 18 8 17 9 16 10 15 11 6 12
REMARK SMILES IDX 7 13 8 14 14 15 10 16 12 17 9 18 11 20 13 22 4 24 22 26
REMARK SMILES IDX 19 28
REMARK H PARENT 9 19 11 21 13 23 4 25 22 27 19 29
REMARK Flexibility Score: inf
ROOT
ATOM      1  C   UNL     1      14.812  -1.782   5.123  1.00  0.00     0.180 A 
ATOM      2  C   UNL     1      13.839  -2.003   6.113  1.00  0.00     0.208 A 
ATOM      3  C   UNL     1      13.795  -3.247   6.760  1.00  0.00     0.238 A 
ATOM      4  O   UNL     1      12.875  -3.464   7.590  1.00  0.00    -0.285 OA
ATOM      5  C   UNL     1      14.760  -4.237   6.452  1.00  0.00     0.111 A 
ATOM      6  C   UNL     1      14.840  -5.518   7.077  1.00  0.00     0.134 A 
ATOM      7  C   UNL     1      15.772  -6.456   6.615  1.00  0.00     0.093 A 
ATOM      8  C   UNL     1      16.670  -6.137   5.594  1.00  0.00     0.123 A 
ATOM      9  C   UNL     1      16.636  -4.872   5.014  1.00  0.00     0.094 A 
ATOM     10  C   UNL     1      15.693  -3.927   5.427  1.00  0.00     0.146 A 
ATOM     11  O   UNL     1      15.684  -2.740   4.832  1.00  0.00    -0.452 OA
ENDROOT
BRANCH   1  12
ATOM     12  C   UNL     1      14.911  -0.502   4.387  1.00  0.00     0.029 A 
ATOM     13  C   UNL     1      14.802  -0.501   2.988  1.00  0.00     0.062 A 
ATOM     14  C   UNL     1      14.871   0.695   2.266  1.00  0.00     0.162 A 
ATOM     15  C   UNL     1      15.056   0.722   5.061  1.00  0.00     0.062 A 
ATOM     16  C   UNL     1      15.037   1.915   2.944  1.00  0.00     0.200 A 
ATOM     17  C   UNL     1      15.124   1.926   4.347  1.00  0.00     0.162 A 
BRANCH  14  18
ATOM     18  O   UNL     1      14.771   0.652   0.876  1.00  0.00    -0.504 OA
ATOM     19  H   UNL     1      15.151   1.382   0.285  1.00  0.00     0.293 HD
ENDBRANCH  14  18
BRANCH  16  20
ATOM     20  O   UNL     1      15.108   3.104   2.217  1.00  0.00    -0.502 OA
ATOM     21  H   UNL     1      14.455   3.865   2.362  1.00  0.00     0.293 HD
ENDBRANCH  16  20
BRANCH  17  22
ATOM     22  O   UNL     1      15.275   3.134   5.027  1.00  0.00    -0.504 OA
ATOM     23  H   UNL     1      14.823   3.983   4.709  1.00  0.00     0.293 HD
ENDBRANCH  17  22
ENDBRANCH   1  12
BRANCH   2  24
ATOM     24  O   UNL     1      12.942  -0.987   6.456  1.00  0.00    -0.502 OA
ATOM     25  H   UNL     1      12.875  -0.122   5.934  1.00  0.00     0.293 HD
ENDBRANCH   2  24
BRANCH   6  26
ATOM     26  O   UNL     1      14.052  -5.909   8.164  1.00  0.00    -0.507 OA
ATOM     27  H   UNL     1      13.881  -5.349   8.984  1.00  0.00     0.293 HD
ENDBRANCH   6  26
BRANCH   8  28
ATOM     28  O   UNL     1      17.605  -7.071   5.153  1.00  0.00    -0.508 OA
ATOM     29  H   UNL     1      17.547  -7.485   4.230  1.00  0.00     0.293 HD
ENDBRANCH   8  28
TORSDOF 7
ENDMDL
MODEL 9
REMARK VINA RESULT:    -3.814      2.199      6.918
REMARK INTER + INTRA:          -5.012
REMARK INTER:                  -5.052
REMARK INTRA:                   0.040
REMARK UNBOUND:                -0.306
REMARK SMILES O=c1c(O)c(-c2cc(O)c(O)c(O)c2)oc2cc(O)cc(O)c12
REMARK SMILES IDX 5 1 3 2 2 3 1 4 23 5 21 6 20 7 18 8 17 9 16 10 15 11 6 12
REMARK SMILES IDX 7 13 8 14 14 15 10 16 12 17 9 18 11 20 13 22 4 24 22 26
REMARK SMILES IDX 19 28
REMARK H PARENT 9 19 11 21 13 23 4 25 22 27 19 29
REMARK Flexibility Score: inf
ROOT
ATOM      1  C   UNL     1      15.032  -2.196   5.087  1.00  0.00     0.180 A 
ATOM      2  C   UNL     1      15.367  -2.782   6.320  1.00  0.00     0.208 A 
ATOM      3  C   UNL     1      15.570  -4.169   6.382  1.00  0.00     0.238 A 
ATOM      4  O   UNL     1      15.795  -4.697   7.502  1.00  0.00    -0.285 OA
ATOM      5  C   UNL     1      15.493  -4.947   5.201  1.00  0.00     0.111 A 
ATOM      6  C   UNL     1      15.724  -6.354   5.137  1.00  0.00     0.134 A 
ATOM      7  C   UNL     1      15.515  -7.036   3.931  1.00  0.00     0.093 A 
ATOM      8  C   UNL     1      15.145  -6.351   2.771  1.00  0.00     0.123 A 
ATOM      9  C   UNL     1      14.969  -4.970   2.811  1.00  0.00     0.094 A 
ATOM     10  C   UNL     1      15.133  -4.268   4.007  1.00  0.00     0.146 A 
ATOM     11  O   UNL     1      14.934  -2.955   4.002  1.00  0.00    -0.452 OA
ENDROOT
BRANCH   1  12
ATOM     12  C   UNL     1      14.788  -0.743   4.946  1.00  0.00     0.029 A 
ATOM     13  C   UNL     1      13.954  -0.091   5.867  1.00  0.00     0.062 A 
ATOM     14  C   UNL     1      13.721   1.285   5.771  1.00  0.00     0.162 A 
ATOM     15  C   UNL     1      15.418   0.012   3.942  1.00  0.00     0.062 A 
ATOM     16  C   UNL     1      14.337   2.031   4.753  1.00  0.00     0.200 A 
ATOM     17  C   UNL     1      15.192   1.392   3.839  1.00  0.00     0.162 A 
BRANCH  14  18
ATOM     18  O   UNL     1      12.875   1.892   6.698  1.00  0.00    -0.504 OA
ATOM     19  H   UNL     1      12.935   2.879   6.917  1.00  0.00     0.293 HD
ENDBRANCH  14  18
BRANCH  16  20
ATOM     20  O   UNL     1      14.097   3.404   4.662  1.00  0.00    -0.502 OA
ATOM     21  H   UNL     1      13.199   3.811   4.895  1.00  0.00     0.293 HD
ENDBRANCH  16  20
BRANCH  17  22
ATOM     22  O   UNL     1      15.818   2.128   2.835  1.00  0.00    -0.504 OA
ATOM     23  H   UNL     1      16.525   1.718   2.236  1.00  0.00     0.293 HD
ENDBRANCH  17  22
ENDBRANCH   1  12
BRANCH   2  24
ATOM     24  O   UNL     1      15.513  -1.987   7.460  1.00  0.00    -0.502 OA
ATOM     25  H   UNL     1      15.275  -1.002   7.470  1.00  0.00     0.293 HD
ENDBRANCH   2  24
BRANCH   6  26
ATOM     26  O   UNL     1      16.182  -7.122   6.212  1.00  0.00    -0.507 OA
ATOM     27  H   UNL     1      16.863  -6.818   6.891  1.00  0.00     0.293 HD
ENDBRANCH   6  26
BRANCH   8  28
ATOM     28  O   UNL     1      14.955  -7.035   1.573  1.00  0.00    -0.508 OA
ATOM     29  H   UNL     1      15.568  -6.893   0.778  1.00  0.00     0.293 HD
ENDBRANCH   8  28
TORSDOF 7
ENDMDL
