MODEL 1
REMARK VINA RESULT:    14.145      0.000      0.000
REMARK INTER + INTRA:          37.250
REMARK INTER:                  37.299
REMARK INTRA:                  -0.049
REMARK UNBOUND:                -0.049
REMARK SMILES CCCCCCCCCCCCCCCCCCCCCCCCCCCCCC(=O)[O-]
REMARK SMILES IDX 16 1 17 2 18 3 19 4 20 5 21 6 22 7 23 8 24 9 25 10 26 11
REMARK SMILES IDX 27 12 28 13 29 14 30 15 31 16 32 17 15 18 14 19 13 20 12 21
REMARK SMILES IDX 11 22 10 23 9 24 8 25 7 26 6 27 5 28 4 29 3 30 2 31 1 32
REMARK H PARENT
REMARK Flexibility Score: inf
ROOT
ATOM      1  C   UNL     1       1.937   6.924   9.040  1.00  0.00     0.000 C 
ENDROOT
BRANCH   1   2
ATOM      2  C   UNL     1       1.766   6.731  10.556  1.00  0.00     0.000 C 
BRANCH   2   3
ATOM      3  C   UNL     1       2.863   5.844  11.172  1.00  0.00     0.000 C 
BRANCH   3   4
ATOM      4  C   UNL     1       2.885   5.864  12.716  1.00  0.00     0.000 C 
BRANCH   4   5
ATOM      5  C   UNL     1       2.104   4.683  13.320  1.00  0.00     0.000 C 
BRANCH   5   6
ATOM      6  C   UNL     1       3.005   3.724  14.115  1.00  0.00     0.000 C 
BRANCH   6   7
ATOM      7  C   UNL     1       2.769   3.815  15.633  1.00  0.00     0.000 C 
BRANCH   7   8
ATOM      8  C   UNL     1       3.340   2.605  16.388  1.00  0.00     0.000 C 
BRANCH   8   9
ATOM      9  C   UNL     1       3.939   2.985  17.754  1.00  0.00     0.000 C 
BRANCH   9  10
ATOM     10  C   UNL     1       3.109   4.055  18.481  1.00  0.00     0.000 C 
BRANCH  10  11
ATOM     11  C   UNL     1       3.290   3.999  20.009  1.00  0.00     0.000 C 
BRANCH  11  12
ATOM     12  C   UNL     1       3.249   5.389  20.661  1.00  0.00     0.000 C 
BRANCH  12  13
ATOM     13  C   UNL     1       1.920   5.665  21.382  1.00  0.00     0.006 C 
BRANCH  13  14
ATOM     14  C   UNL     1       1.864   7.106  21.901  1.00  0.00     0.053 C 
BRANCH  14  15
ATOM     15  C   UNL     1       0.739   7.856  21.258  1.00  0.00     0.041 C 
ATOM     16  O   UNL     1       0.844   9.093  21.044  1.00  0.00    -0.550 OA
ATOM     17  O   UNL     1      -0.437   7.195  20.921  1.00  0.00    -0.550 OA
ENDBRANCH  14  15
ENDBRANCH  13  14
ENDBRANCH  12  13
ENDBRANCH  11  12
ENDBRANCH  10  11
ENDBRANCH   9  10
ENDBRANCH   8   9
ENDBRANCH   7   8
ENDBRANCH   6   7
ENDBRANCH   5   6
ENDBRANCH   4   5
ENDBRANCH   3   4
ENDBRANCH   2   3
ENDBRANCH   1   2
BRANCH   1  18
ATOM     18  C   UNL     1       1.694   8.379   8.603  1.00  0.00     0.000 C 
BRANCH  18  19
ATOM     19  C   UNL     1       2.011   8.609   7.115  1.00  0.00     0.000 C 
BRANCH  19  20
ATOM     20  C   UNL     1       1.377   9.897   6.565  1.00  0.00     0.000 C 
BRANCH  20  21
ATOM     21  C   UNL     1       1.690  10.122   5.077  1.00  0.00     0.000 C 
BRANCH  21  22
ATOM     22  C   UNL     1       1.711   8.791   4.310  1.00  0.00     0.000 C 
BRANCH  22  23
ATOM     23  C   UNL     1       1.603   8.976   2.786  1.00  0.00     0.000 C 
BRANCH  23  24
ATOM     24  C   UNL     1       2.877   8.626   1.991  1.00  0.00    -0.000 C 
BRANCH  24  25
ATOM     25  C   UNL     1       4.203   8.968   2.696  1.00  0.00    -0.000 C 
BRANCH  25  26
ATOM     26  C   UNL     1       5.437   8.553   1.877  1.00  0.00    -0.000 C 
BRANCH  26  27
ATOM     27  C   UNL     1       6.554   7.965   2.755  1.00  0.00    -0.000 C 
BRANCH  27  28
ATOM     28  C   UNL     1       6.051   6.831   3.667  1.00  0.00    -0.000 C 
BRANCH  28  29
ATOM     29  C   UNL     1       4.565   6.510   3.442  1.00  0.00    -0.000 C 
BRANCH  29  30
ATOM     30  C   UNL     1       4.353   5.185   2.695  1.00  0.00    -0.000 C 
BRANCH  30  31
ATOM     31  C   UNL     1       5.421   4.158   3.083  1.00  0.00    -0.003 C 
ATOM     32  C   UNL     1       5.854   3.330   1.876  1.00  0.00     0.004 C 
ENDBRANCH  30  31
ENDBRANCH  29  30
ENDBRANCH  28  29
ENDBRANCH  27  28
ENDBRANCH  26  27
ENDBRANCH  25  26
ENDBRANCH  24  25
ENDBRANCH  23  24
ENDBRANCH  22  23
ENDBRANCH  21  22
ENDBRANCH  20  21
ENDBRANCH  19  20
ENDBRANCH  18  19
ENDBRANCH   1  18
TORSDOF 28
ENDMDL
MODEL 2
REMARK VINA RESULT:    14.155      5.036     15.182
REMARK INTER + INTRA:          37.277
REMARK INTER:                  37.839
REMARK INTRA:                  -0.562
REMARK UNBOUND:                -0.049
REMARK SMILES CCCCCCCCCCCCCCCCCCCCCCCCCCCCCC(=O)[O-]
REMARK SMILES IDX 16 1 17 2 18 3 19 4 20 5 21 6 22 7 23 8 24 9 25 10 26 11
REMARK SMILES IDX 27 12 28 13 29 14 30 15 31 16 32 17 15 18 14 19 13 20 12 21
REMARK SMILES IDX 11 22 10 23 9 24 8 25 7 26 6 27 5 28 4 29 3 30 2 31 1 32
REMARK H PARENT
REMARK Flexibility Score: inf
ROOT
ATOM      1  C   UNL     1       2.606   5.196  12.744  1.00  0.00     0.000 C 
ENDROOT
BRANCH   1   2
ATOM      2  C   UNL     1       2.651   6.691  12.392  1.00  0.00     0.000 C 
BRANCH   2   3
ATOM      3  C   UNL     1       3.112   6.951  10.947  1.00  0.00     0.000 C 
BRANCH   3   4
ATOM      4  C   UNL     1       1.979   7.415  10.006  1.00  0.00     0.000 C 
BRANCH   4   5
ATOM      5  C   UNL     1       2.524   7.993   8.688  1.00  0.00     0.000 C 
BRANCH   5   6
ATOM      6  C   UNL     1       1.407   8.344   7.691  1.00  0.00     0.000 C 
BRANCH   6   7
ATOM      7  C   UNL     1       1.821   9.455   6.709  1.00  0.00     0.000 C 
BRANCH   7   8
ATOM      8  C   UNL     1       2.382   8.894   5.393  1.00  0.00     0.000 C 
BRANCH   8   9
ATOM      9  C   UNL     1       2.866   9.997   4.435  1.00  0.00     0.000 C 
BRANCH   9  10
ATOM     10  C   UNL     1       2.200   9.908   3.052  1.00  0.00     0.000 C 
BRANCH  10  11
ATOM     11  C   UNL     1       1.949   8.453   2.615  1.00  0.00     0.000 C 
BRANCH  11  12
ATOM     12  C   UNL     1       3.028   7.487   3.127  1.00  0.00     0.000 C 
BRANCH  12  13
ATOM     13  C   UNL     1       4.145   7.250   2.100  1.00  0.00     0.006 C 
BRANCH  13  14
ATOM     14  C   UNL     1       4.440   5.755   1.942  1.00  0.00     0.053 C 
BRANCH  14  15
ATOM     15  C   UNL     1       5.391   5.289   3.000  1.00  0.00     0.041 C 
ATOM     16  O   UNL     1       6.004   6.128   3.713  1.00  0.00    -0.550 OA
ATOM     17  O   UNL     1       5.622   3.930   3.182  1.00  0.00    -0.550 OA
ENDBRANCH  14  15
ENDBRANCH  13  14
ENDBRANCH  12  13
ENDBRANCH  11  12
ENDBRANCH  10  11
ENDBRANCH   9  10
ENDBRANCH   8   9
ENDBRANCH   7   8
ENDBRANCH   6   7
ENDBRANCH   5   6
ENDBRANCH   4   5
ENDBRANCH   3   4
ENDBRANCH   2   3
ENDBRANCH   1   2
BRANCH   1  18
ATOM     18  C   UNL     1       1.730   4.909  13.976  1.00  0.00     0.000 C 
BRANCH  18  19
ATOM     19  C   UNL     1       0.796   6.082  14.321  1.00  0.00     0.000 C 
BRANCH  19  20
ATOM     20  C   UNL     1       0.406   6.113  15.807  1.00  0.00     0.000 C 
BRANCH  20  21
ATOM     21  C   UNL     1      -0.751   5.155  16.136  1.00  0.00     0.000 C 
BRANCH  21  22
ATOM     22  C   UNL     1      -1.019   5.113  17.648  1.00  0.00     0.000 C 
BRANCH  22  23
ATOM     23  C   UNL     1      -0.246   6.195  18.425  1.00  0.00     0.000 C 
BRANCH  23  24
ATOM     24  C   UNL     1      -1.122   7.174  19.232  1.00  0.00    -0.000 C 
BRANCH  24  25
ATOM     25  C   UNL     1      -0.835   7.216  20.744  1.00  0.00    -0.000 C 
BRANCH  25  26
ATOM     26  C   UNL     1       0.403   8.059  21.092  1.00  0.00    -0.000 C 
BRANCH  26  27
ATOM     27  C   UNL     1       1.363   7.328  22.046  1.00  0.00    -0.000 C 
BRANCH  27  28
ATOM     28  C   UNL     1       2.026   6.103  21.390  1.00  0.00    -0.000 C 
BRANCH  28  29
ATOM     29  C   UNL     1       3.484   5.913  21.840  1.00  0.00    -0.000 C 
BRANCH  29  30
ATOM     30  C   UNL     1       4.160   4.713  21.161  1.00  0.00    -0.000 C 
BRANCH  30  31
ATOM     31  C   UNL     1       5.563   4.476  21.732  1.00  0.00    -0.003 C 
ATOM     32  C   UNL     1       6.636   4.708  20.674  1.00  0.00     0.004 C 
ENDBRANCH  30  31
ENDBRANCH  29  30
ENDBRANCH  28  29
ENDBRANCH  27  28
ENDBRANCH  26  27
ENDBRANCH  25  26
ENDBRANCH  24  25
ENDBRANCH  23  24
ENDBRANCH  22  23
ENDBRANCH  21  22
ENDBRANCH  20  21
ENDBRANCH  19  20
ENDBRANCH  18  19
ENDBRANCH   1  18
TORSDOF 28
ENDMDL
MODEL 3
REMARK VINA RESULT:    14.305      4.974     15.125
REMARK INTER + INTRA:          37.672
REMARK INTER:                  39.251
REMARK INTRA:                  -1.578
REMARK UNBOUND:                -0.049
REMARK SMILES CCCCCCCCCCCCCCCCCCCCCCCCCCCCCC(=O)[O-]
REMARK SMILES IDX 16 1 17 2 18 3 19 4 20 5 21 6 22 7 23 8 24 9 25 10 26 11
REMARK SMILES IDX 27 12 28 13 29 14 30 15 31 16 32 17 15 18 14 19 13 20 12 21
REMARK SMILES IDX 11 22 10 23 9 24 8 25 7 26 6 27 5 28 4 29 3 30 2 31 1 32
REMARK H PARENT
REMARK Flexibility Score: inf
ROOT
ATOM      1  C   UNL     1       2.587   5.212  12.736  1.00  0.00     0.000 C 
ENDROOT
BRANCH   1   2
ATOM      2  C   UNL     1       2.643   6.709  12.390  1.00  0.00     0.000 C 
BRANCH   2   3
ATOM      3  C   UNL     1       3.139   6.973  10.958  1.00  0.00     0.000 C 
BRANCH   3   4
ATOM      4  C   UNL     1       2.024   7.411   9.984  1.00  0.00     0.000 C 
BRANCH   4   5
ATOM      5  C   UNL     1       2.593   8.008   8.684  1.00  0.00     0.000 C 
BRANCH   5   6
ATOM      6  C   UNL     1       1.503   8.294   7.638  1.00  0.00     0.000 C 
BRANCH   6   7
ATOM      7  C   UNL     1       1.895   9.428   6.674  1.00  0.00     0.000 C 
BRANCH   7   8
ATOM      8  C   UNL     1       1.413   9.167   5.238  1.00  0.00     0.000 C 
BRANCH   8   9
ATOM      9  C   UNL     1       2.574   8.976   4.247  1.00  0.00     0.000 C 
BRANCH   9  10
ATOM     10  C   UNL     1       2.483   9.929   3.044  1.00  0.00     0.000 C 
BRANCH  10  11
ATOM     11  C   UNL     1       1.535   9.404   1.950  1.00  0.00     0.000 C 
BRANCH  11  12
ATOM     12  C   UNL     1       1.508   7.870   1.878  1.00  0.00     0.000 C 
BRANCH  12  13
ATOM     13  C   UNL     1       0.083   7.300   1.946  1.00  0.00     0.006 C 
BRANCH  13  14
ATOM     14  C   UNL     1       0.107   5.777   2.114  1.00  0.00     0.053 C 
BRANCH  14  15
ATOM     15  C   UNL     1      -0.366   5.388   3.480  1.00  0.00     0.041 C 
ATOM     16  O   UNL     1      -1.125   6.156   4.130  1.00  0.00    -0.550 OA
ATOM     17  O   UNL     1       0.052   4.190   4.049  1.00  0.00    -0.550 OA
ENDBRANCH  14  15
ENDBRANCH  13  14
ENDBRANCH  12  13
ENDBRANCH  11  12
ENDBRANCH  10  11
ENDBRANCH   9  10
ENDBRANCH   8   9
ENDBRANCH   7   8
ENDBRANCH   6   7
ENDBRANCH   5   6
ENDBRANCH   4   5
ENDBRANCH   3   4
ENDBRANCH   2   3
ENDBRANCH   1   2
BRANCH   1  18
ATOM     18  C   UNL     1       1.688   4.923  13.951  1.00  0.00     0.000 C 
BRANCH  18  19
ATOM     19  C   UNL     1       0.769   6.107  14.299  1.00  0.00     0.000 C 
BRANCH  19  20
ATOM     20  C   UNL     1       0.371   6.134  15.783  1.00  0.00     0.000 C 
BRANCH  20  21
ATOM     21  C   UNL     1      -0.753   5.138  16.113  1.00  0.00     0.000 C 
BRANCH  21  22
ATOM     22  C   UNL     1      -0.999   5.067  17.627  1.00  0.00     0.000 C 
BRANCH  22  23
ATOM     23  C   UNL     1      -0.213   6.131  18.414  1.00  0.00     0.000 C 
BRANCH  23  24
ATOM     24  C   UNL     1      -1.077   7.105  19.242  1.00  0.00    -0.000 C 
BRANCH  24  25
ATOM     25  C   UNL     1      -0.753   7.151  20.746  1.00  0.00    -0.000 C 
BRANCH  25  26
ATOM     26  C   UNL     1       0.517   7.961  21.057  1.00  0.00    -0.000 C 
BRANCH  26  27
ATOM     27  C   UNL     1       1.479   7.208  21.991  1.00  0.00    -0.000 C 
BRANCH  27  28
ATOM     28  C   UNL     1       2.055   5.936  21.343  1.00  0.00    -0.000 C 
BRANCH  28  29
ATOM     29  C   UNL     1       3.416   5.538  21.937  1.00  0.00    -0.000 C 
BRANCH  29  30
ATOM     30  C   UNL     1       3.994   4.270  21.291  1.00  0.00    -0.000 C 
BRANCH  30  31
ATOM     31  C   UNL     1       5.526   4.281  21.334  1.00  0.00    -0.003 C 
ATOM     32  C   UNL     1       6.072   5.696  21.173  1.00  0.00     0.004 C 
ENDBRANCH  30  31
ENDBRANCH  29  30
ENDBRANCH  28  29
ENDBRANCH  27  28
ENDBRANCH  26  27
ENDBRANCH  25  26
ENDBRANCH  24  25
ENDBRANCH  23  24
ENDBRANCH  22  23
ENDBRANCH  21  22
ENDBRANCH  20  21
ENDBRANCH  19  20
ENDBRANCH  18  19
ENDBRANCH   1  18
TORSDOF 28
ENDMDL
MODEL 4
REMARK VINA RESULT:    14.505      4.691     15.153
REMARK INTER + INTRA:          38.199
REMARK INTER:                  38.497
REMARK INTRA:                  -0.298
REMARK UNBOUND:                -0.049
REMARK SMILES CCCCCCCCCCCCCCCCCCCCCCCCCCCCCC(=O)[O-]
REMARK SMILES IDX 16 1 17 2 18 3 19 4 20 5 21 6 22 7 23 8 24 9 25 10 26 11
REMARK SMILES IDX 27 12 28 13 29 14 30 15 31 16 32 17 15 18 14 19 13 20 12 21
REMARK SMILES IDX 11 22 10 23 9 24 8 25 7 26 6 27 5 28 4 29 3 30 2 31 1 32
REMARK H PARENT
REMARK Flexibility Score: inf
ROOT
ATOM      1  C   UNL     1       2.343   6.718  10.160  1.00  0.00     0.000 C 
ENDROOT
BRANCH   1   2
ATOM      2  C   UNL     1       2.419   8.186   9.708  1.00  0.00     0.000 C 
BRANCH   2   3
ATOM      3  C   UNL     1       1.499   8.491   8.513  1.00  0.00     0.000 C 
BRANCH   3   4
ATOM      4  C   UNL     1       1.872   9.784   7.755  1.00  0.00     0.000 C 
BRANCH   4   5
ATOM      5  C   UNL     1       2.071   9.533   6.250  1.00  0.00     0.000 C 
BRANCH   5   6
ATOM      6  C   UNL     1       0.741   9.367   5.497  1.00  0.00     0.000 C 
BRANCH   6   7
ATOM      7  C   UNL     1       0.747  10.067   4.127  1.00  0.00     0.000 C 
BRANCH   7   8
ATOM      8  C   UNL     1       1.760   9.443   3.154  1.00  0.00     0.000 C 
BRANCH   8   9
ATOM      9  C   UNL     1       3.217   9.642   3.607  1.00  0.00     0.000 C 
BRANCH   9  10
ATOM     10  C   UNL     1       4.222   8.945   2.674  1.00  0.00     0.000 C 
BRANCH  10  11
ATOM     11  C   UNL     1       3.666   7.634   2.089  1.00  0.00     0.000 C 
BRANCH  11  12
ATOM     12  C   UNL     1       3.726   6.468   3.087  1.00  0.00     0.000 C 
BRANCH  12  13
ATOM     13  C   UNL     1       2.333   5.974   3.504  1.00  0.00     0.006 C 
BRANCH  13  14
ATOM     14  C   UNL     1       1.232   6.774   2.800  1.00  0.00     0.053 C 
BRANCH  14  15
ATOM     15  C   UNL     1      -0.107   6.141   3.022  1.00  0.00     0.041 C 
ATOM     16  O   UNL     1      -1.125   6.860   3.203  1.00  0.00    -0.550 OA
ATOM     17  O   UNL     1      -0.226   4.756   3.057  1.00  0.00    -0.550 OA
ENDBRANCH  14  15
ENDBRANCH  13  14
ENDBRANCH  12  13
ENDBRANCH  11  12
ENDBRANCH  10  11
ENDBRANCH   9  10
ENDBRANCH   8   9
ENDBRANCH   7   8
ENDBRANCH   6   7
ENDBRANCH   5   6
ENDBRANCH   4   5
ENDBRANCH   3   4
ENDBRANCH   2   3
ENDBRANCH   1   2
BRANCH   1  18
ATOM     18  C   UNL     1       2.642   6.549  11.659  1.00  0.00     0.000 C 
BRANCH  18  19
ATOM     19  C   UNL     1       2.628   5.075  12.102  1.00  0.00     0.000 C 
BRANCH  19  20
ATOM     20  C   UNL     1       2.051   4.884  13.513  1.00  0.00     0.000 C 
BRANCH  20  21
ATOM     21  C   UNL     1       2.928   3.981  14.394  1.00  0.00     0.000 C 
BRANCH  21  22
ATOM     22  C   UNL     1       2.282   3.756  15.770  1.00  0.00     0.000 C 
BRANCH  22  23
ATOM     23  C   UNL     1       3.315   3.530  16.888  1.00  0.00     0.000 C 
BRANCH  23  24
ATOM     24  C   UNL     1       2.831   3.884  18.309  1.00  0.00    -0.000 C 
BRANCH  24  25
ATOM     25  C   UNL     1       3.890   4.533  19.219  1.00  0.00    -0.000 C 
BRANCH  25  26
ATOM     26  C   UNL     1       3.483   4.532  20.702  1.00  0.00    -0.000 C 
BRANCH  26  27
ATOM     27  C   UNL     1       2.701   5.796  21.097  1.00  0.00    -0.000 C 
BRANCH  27  28
ATOM     28  C   UNL     1       1.370   5.470  21.798  1.00  0.00    -0.000 C 
BRANCH  28  29
ATOM     29  C   UNL     1       0.197   6.296  21.246  1.00  0.00    -0.000 C 
BRANCH  29  30
ATOM     30  C   UNL     1      -0.087   7.553  22.081  1.00  0.00    -0.000 C 
BRANCH  30  31
ATOM     31  C   UNL     1       0.214   8.825  21.280  1.00  0.00    -0.003 C 
ATOM     32  C   UNL     1       1.627   9.329  21.556  1.00  0.00     0.004 C 
ENDBRANCH  30  31
ENDBRANCH  29  30
ENDBRANCH  28  29
ENDBRANCH  27  28
ENDBRANCH  26  27
ENDBRANCH  25  26
ENDBRANCH  24  25
ENDBRANCH  23  24
ENDBRANCH  22  23
ENDBRANCH  21  22
ENDBRANCH  20  21
ENDBRANCH  19  20
ENDBRANCH  18  19
ENDBRANCH   1  18
TORSDOF 28
ENDMDL
MODEL 5
REMARK VINA RESULT:    14.731      4.983     15.468
REMARK INTER + INTRA:          38.795
REMARK INTER:                  39.508
REMARK INTRA:                  -0.713
REMARK UNBOUND:                -0.049
REMARK SMILES CCCCCCCCCCCCCCCCCCCCCCCCCCCCCC(=O)[O-]
REMARK SMILES IDX 16 1 17 2 18 3 19 4 20 5 21 6 22 7 23 8 24 9 25 10 26 11
REMARK SMILES IDX 27 12 28 13 29 14 30 15 31 16 32 17 15 18 14 19 13 20 12 21
REMARK SMILES IDX 11 22 10 23 9 24 8 25 7 26 6 27 5 28 4 29 3 30 2 31 1 32
REMARK H PARENT
REMARK Flexibility Score: inf
ROOT
ATOM      1  C   UNL     1       1.911   5.365  11.612  1.00  0.00     0.000 C 
ENDROOT
BRANCH   1   2
ATOM      2  C   UNL     1       2.434   6.717  11.100  1.00  0.00     0.000 C 
BRANCH   2   3
ATOM      3  C   UNL     1       2.291   6.875   9.576  1.00  0.00     0.000 C 
BRANCH   3   4
ATOM      4  C   UNL     1       1.666   8.220   9.146  1.00  0.00     0.000 C 
BRANCH   4   5
ATOM      5  C   UNL     1       2.220   8.709   7.796  1.00  0.00     0.000 C 
BRANCH   5   6
ATOM      6  C   UNL     1       1.164   9.445   6.955  1.00  0.00     0.000 C 
BRANCH   6   7
ATOM      7  C   UNL     1       1.501   9.446   5.454  1.00  0.00     0.000 C 
BRANCH   7   8
ATOM      8  C   UNL     1       0.791   8.314   4.694  1.00  0.00     0.000 C 
BRANCH   8   9
ATOM      9  C   UNL     1       1.590   7.826   3.473  1.00  0.00     0.000 C 
BRANCH   9  10
ATOM     10  C   UNL     1       1.017   6.530   2.876  1.00  0.00     0.000 C 
BRANCH  10  11
ATOM     11  C   UNL     1       1.919   5.312   3.144  1.00  0.00     0.000 C 
BRANCH  11  12
ATOM     12  C   UNL     1       3.349   5.710   3.540  1.00  0.00     0.000 C 
BRANCH  12  13
ATOM     13  C   UNL     1       4.310   5.733   2.342  1.00  0.00     0.006 C 
BRANCH  13  14
ATOM     14  C   UNL     1       4.708   7.168   1.983  1.00  0.00     0.053 C 
BRANCH  14  15
ATOM     15  C   UNL     1       6.070   7.488   2.515  1.00  0.00     0.041 C 
ATOM     16  O   UNL     1       6.290   8.603   3.060  1.00  0.00    -0.550 OA
ATOM     17  O   UNL     1       7.104   6.568   2.386  1.00  0.00    -0.550 OA
ENDBRANCH  14  15
ENDBRANCH  13  14
ENDBRANCH  12  13
ENDBRANCH  11  12
ENDBRANCH  10  11
ENDBRANCH   9  10
ENDBRANCH   8   9
ENDBRANCH   7   8
ENDBRANCH   6   7
ENDBRANCH   5   6
ENDBRANCH   4   5
ENDBRANCH   3   4
ENDBRANCH   2   3
ENDBRANCH   1   2
BRANCH   1  18
ATOM     18  C   UNL     1       1.976   5.253  13.145  1.00  0.00     0.000 C 
BRANCH  18  19
ATOM     19  C   UNL     1       2.832   4.063  13.614  1.00  0.00     0.000 C 
BRANCH  19  20
ATOM     20  C   UNL     1       2.565   3.681  15.078  1.00  0.00     0.000 C 
BRANCH  20  21
ATOM     21  C   UNL     1       3.851   3.323  15.840  1.00  0.00     0.000 C 
BRANCH  21  22
ATOM     22  C   UNL     1       3.569   3.133  17.339  1.00  0.00     0.000 C 
BRANCH  22  23
ATOM     23  C   UNL     1       4.255   4.194  18.217  1.00  0.00     0.000 C 
BRANCH  23  24
ATOM     24  C   UNL     1       4.253   3.894  19.730  1.00  0.00    -0.000 C 
BRANCH  24  25
ATOM     25  C   UNL     1       3.003   4.374  20.491  1.00  0.00    -0.000 C 
BRANCH  25  26
ATOM     26  C   UNL     1       3.346   5.109  21.797  1.00  0.00    -0.000 C 
BRANCH  26  27
ATOM     27  C   UNL     1       2.461   6.345  22.026  1.00  0.00    -0.000 C 
BRANCH  27  28
ATOM     28  C   UNL     1       1.166   6.305  21.195  1.00  0.00    -0.000 C 
BRANCH  28  29
ATOM     29  C   UNL     1      -0.074   6.683  22.021  1.00  0.00    -0.000 C 
BRANCH  29  30
ATOM     30  C   UNL     1      -0.275   8.202  22.125  1.00  0.00    -0.000 C 
BRANCH  30  31
ATOM     31  C   UNL     1      -0.981   8.751  20.880  1.00  0.00    -0.003 C 
ATOM     32  C   UNL     1      -1.054   7.697  19.779  1.00  0.00     0.004 C 
ENDBRANCH  30  31
ENDBRANCH  29  30
ENDBRANCH  28  29
ENDBRANCH  27  28
ENDBRANCH  26  27
ENDBRANCH  25  26
ENDBRANCH  24  25
ENDBRANCH  23  24
ENDBRANCH  22  23
ENDBRANCH  21  22
ENDBRANCH  20  21
ENDBRANCH  19  20
ENDBRANCH  18  19
ENDBRANCH   1  18
TORSDOF 28
ENDMDL
MODEL 6
REMARK VINA RESULT:    15.059      4.557     15.021
REMARK INTER + INTRA:          39.659
REMARK INTER:                  38.960
REMARK INTRA:                   0.699
REMARK UNBOUND:                -0.049
REMARK SMILES CCCCCCCCCCCCCCCCCCCCCCCCCCCCCC(=O)[O-]
REMARK SMILES IDX 16 1 17 2 18 3 19 4 20 5 21 6 22 7 23 8 24 9 25 10 26 11
REMARK SMILES IDX 27 12 28 13 29 14 30 15 31 16 32 17 15 18 14 19 13 20 12 21
REMARK SMILES IDX 11 22 10 23 9 24 8 25 7 26 6 27 5 28 4 29 3 30 2 31 1 32
REMARK H PARENT
REMARK Flexibility Score: inf
ROOT
ATOM      1  C   UNL     1       3.041   6.668  11.204  1.00  0.00     0.000 C 
ENDROOT
BRANCH   1   2
ATOM      2  C   UNL     1       1.896   7.058  10.255  1.00  0.00     0.000 C 
BRANCH   2   3
ATOM      3  C   UNL     1       2.251   8.250   9.348  1.00  0.00     0.000 C 
BRANCH   3   4
ATOM      4  C   UNL     1       1.514   8.241   7.991  1.00  0.00     0.000 C 
BRANCH   4   5
ATOM      5  C   UNL     1       2.238   9.093   6.935  1.00  0.00     0.000 C 
BRANCH   5   6
ATOM      6  C   UNL     1       1.546   9.047   5.562  1.00  0.00     0.000 C 
BRANCH   6   7
ATOM      7  C   UNL     1       2.545   9.133   4.395  1.00  0.00     0.000 C 
BRANCH   7   8
ATOM      8  C   UNL     1       2.095  10.125   3.311  1.00  0.00     0.000 C 
BRANCH   8   9
ATOM      9  C   UNL     1       2.681   9.798   1.926  1.00  0.00     0.000 C 
BRANCH   9  10
ATOM     10  C   UNL     1       4.203   9.583   1.968  1.00  0.00     0.000 C 
BRANCH  10  11
ATOM     11  C   UNL     1       4.582   8.156   2.406  1.00  0.00     0.000 C 
BRANCH  11  12
ATOM     12  C   UNL     1       3.442   7.149   2.189  1.00  0.00     0.000 C 
BRANCH  12  13
ATOM     13  C   UNL     1       3.522   5.951   3.147  1.00  0.00     0.006 C 
BRANCH  13  14
ATOM     14  C   UNL     1       2.296   5.043   2.996  1.00  0.00     0.053 C 
BRANCH  14  15
ATOM     15  C   UNL     1       1.185   5.503   3.887  1.00  0.00     0.041 C 
ATOM     16  O   UNL     1       1.259   6.619   4.467  1.00  0.00    -0.550 OA
ATOM     17  O   UNL     1       0.079   4.688   4.099  1.00  0.00    -0.550 OA
ENDBRANCH  14  15
ENDBRANCH  13  14
ENDBRANCH  12  13
ENDBRANCH  11  12
ENDBRANCH  10  11
ENDBRANCH   9  10
ENDBRANCH   8   9
ENDBRANCH   7   8
ENDBRANCH   6   7
ENDBRANCH   5   6
ENDBRANCH   4   5
ENDBRANCH   3   4
ENDBRANCH   2   3
ENDBRANCH   1   2
BRANCH   1  18
ATOM     18  C   UNL     1       2.579   5.719  12.322  1.00  0.00     0.000 C 
BRANCH  18  19
ATOM     19  C   UNL     1       2.497   6.416  13.692  1.00  0.00     0.000 C 
BRANCH  19  20
ATOM     20  C   UNL     1       1.979   5.486  14.801  1.00  0.00     0.000 C 
BRANCH  20  21
ATOM     21  C   UNL     1       0.445   5.485  14.905  1.00  0.00     0.000 C 
BRANCH  21  22
ATOM     22  C   UNL     1      -0.009   5.253  16.354  1.00  0.00     0.000 C 
BRANCH  22  23
ATOM     23  C   UNL     1      -0.703   6.482  16.969  1.00  0.00     0.000 C 
BRANCH  23  24
ATOM     24  C   UNL     1      -0.932   6.411  18.492  1.00  0.00    -0.000 C 
BRANCH  24  25
ATOM     25  C   UNL     1      -0.165   7.458  19.320  1.00  0.00    -0.000 C 
BRANCH  25  26
ATOM     26  C   UNL     1      -0.823   7.741  20.681  1.00  0.00    -0.000 C 
BRANCH  26  27
ATOM     27  C   UNL     1       0.125   7.468  21.860  1.00  0.00    -0.000 C 
BRANCH  27  28
ATOM     28  C   UNL     1       1.530   7.038  21.400  1.00  0.00    -0.000 C 
BRANCH  28  29
ATOM     29  C   UNL     1       1.849   5.581  21.769  1.00  0.00    -0.000 C 
BRANCH  29  30
ATOM     30  C   UNL     1       3.340   5.358  22.062  1.00  0.00    -0.000 C 
BRANCH  30  31
ATOM     31  C   UNL     1       4.016   4.590  20.921  1.00  0.00    -0.003 C 
ATOM     32  C   UNL     1       5.479   4.998  20.771  1.00  0.00     0.004 C 
ENDBRANCH  30  31
ENDBRANCH  29  30
ENDBRANCH  28  29
ENDBRANCH  27  28
ENDBRANCH  26  27
ENDBRANCH  25  26
ENDBRANCH  24  25
ENDBRANCH  23  24
ENDBRANCH  22  23
ENDBRANCH  21  22
ENDBRANCH  20  21
ENDBRANCH  19  20
ENDBRANCH  18  19
ENDBRANCH   1  18
TORSDOF 28
ENDMDL
