MODEL 1
REMARK VINA RESULT:    -3.968      0.000      0.000
REMARK INTER + INTRA:          -4.876
REMARK INTER:                  -4.780
REMARK INTRA:                  -0.095
REMARK UNBOUND:                -0.095
REMARK SMILES CC[C@H](C)[C@H]([NH3+])C(=O)[O-]
REMARK SMILES IDX 3 1 4 2 5 3 6 4 7 8 8 9 9 10 2 11 1 12
REMARK H PARENT 6 5 6 6 6 7
REMARK Flexibility Score: inf
ROOT
ATOM      1  C   UNL     1      14.811  -6.313 -33.775  1.00  0.00     0.050 C 
ATOM      2  C   UNL     1      15.383  -7.479 -34.602  1.00  0.00     0.014 C 
ENDROOT
BRANCH   1   3
ATOM      3  C   UNL     1      15.604  -6.148 -32.436  1.00  0.00     0.230 C 
BRANCH   3   4
ATOM      4  N   UNL     1      14.728  -6.127 -31.253  1.00  0.00    -0.350 N 
ATOM      5  H   UNL     1      14.828  -7.001 -30.689  1.00  0.00     0.345 HD
ATOM      6  H   UNL     1      13.730  -6.042 -31.558  1.00  0.00     0.345 HD
ATOM      7  H   UNL     1      14.944  -5.301 -30.651  1.00  0.00     0.345 HD
ENDBRANCH   3   4
BRANCH   3   8
ATOM      8  C   UNL     1      16.518  -4.943 -32.471  1.00  0.00     0.099 C 
ATOM      9  O   UNL     1      16.521  -4.155 -33.455  1.00  0.00    -0.544 OA
ATOM     10  O   UNL     1      17.346  -4.676 -31.387  1.00  0.00    -0.544 OA
ENDBRANCH   3   8
ENDBRANCH   1   3
BRANCH   1  11
ATOM     11  C   UNL     1      13.280  -6.497 -33.621  1.00  0.00     0.006 C 
ATOM     12  C   UNL     1      12.456  -5.604 -34.549  1.00  0.00     0.004 C 
ENDBRANCH   1  11
TORSDOF 4
ENDMDL
MODEL 2
REMARK VINA RESULT:    -3.961     15.535     16.382
REMARK INTER + INTRA:          -4.866
REMARK INTER:                  -4.800
REMARK INTRA:                  -0.066
REMARK UNBOUND:                -0.095
REMARK SMILES CC[C@H](C)[C@H]([NH3+])C(=O)[O-]
REMARK SMILES IDX 3 1 4 2 5 3 6 4 7 8 8 9 9 10 2 11 1 12
REMARK H PARENT 6 5 6 6 6 7
REMARK Flexibility Score: inf
ROOT
ATOM      1  C   UNL     1      14.877   1.859 -47.708  1.00  0.00     0.050 C 
ATOM      2  C   UNL     1      13.767   1.374 -48.658  1.00  0.00     0.014 C 
ENDROOT
BRANCH   1   3
ATOM      3  C   UNL     1      16.266   1.283 -48.144  1.00  0.00     0.230 C 
BRANCH   3   4
ATOM      4  N   UNL     1      16.475  -0.104 -47.697  1.00  0.00    -0.350 N 
ATOM      5  H   UNL     1      17.472  -0.274 -47.435  1.00  0.00     0.345 HD
ATOM      6  H   UNL     1      16.218  -0.762 -48.469  1.00  0.00     0.345 HD
ATOM      7  H   UNL     1      15.861  -0.322 -46.880  1.00  0.00     0.345 HD
ENDBRANCH   3   4
BRANCH   3   8
ATOM      8  C   UNL     1      17.405   2.182 -47.716  1.00  0.00     0.099 C 
ATOM      9  O   UNL     1      17.988   2.014 -46.611  1.00  0.00    -0.544 OA
ATOM     10  O   UNL     1      17.842   3.191 -48.565  1.00  0.00    -0.544 OA
ENDBRANCH   3   8
ENDBRANCH   1   3
BRANCH   1  11
ATOM     11  C   UNL     1      14.465   1.559 -46.243  1.00  0.00     0.006 C 
ATOM     12  C   UNL     1      12.956   1.611 -46.006  1.00  0.00     0.004 C 
ENDBRANCH   1  11
TORSDOF 4
ENDMDL
MODEL 3
REMARK VINA RESULT:    -3.937     16.031     16.799
REMARK INTER + INTRA:          -4.838
REMARK INTER:                  -4.746
REMARK INTRA:                  -0.092
REMARK UNBOUND:                -0.095
REMARK SMILES CC[C@H](C)[C@H]([NH3+])C(=O)[O-]
REMARK SMILES IDX 3 1 4 2 5 3 6 4 7 8 8 9 9 10 2 11 1 12
REMARK H PARENT 6 5 6 6 6 7
REMARK Flexibility Score: inf
ROOT
ATOM      1  C   UNL     1      15.529   1.477 -47.511  1.00  0.00     0.050 C 
ATOM      2  C   UNL     1      14.885   1.662 -46.125  1.00  0.00     0.014 C 
ENDROOT
BRANCH   1   3
ATOM      3  C   UNL     1      15.242   0.041 -48.064  1.00  0.00     0.230 C 
BRANCH   3   4
ATOM      4  N   UNL     1      16.471  -0.696 -48.401  1.00  0.00    -0.350 N 
ATOM      5  H   UNL     1      16.598  -1.528 -47.781  1.00  0.00     0.345 HD
ATOM      6  H   UNL     1      17.299  -0.067 -48.285  1.00  0.00     0.345 HD
ATOM      7  H   UNL     1      16.450  -1.008 -49.398  1.00  0.00     0.345 HD
ENDBRANCH   3   4
BRANCH   3   8
ATOM      8  C   UNL     1      14.276   0.071 -49.228  1.00  0.00     0.099 C 
ATOM      9  O   UNL     1      14.076  -0.952 -49.936  1.00  0.00    -0.544 OA
ATOM     10  O   UNL     1      13.570   1.235 -49.506  1.00  0.00    -0.544 OA
ENDBRANCH   3   8
ENDBRANCH   1   3
BRANCH   1  11
ATOM     11  C   UNL     1      17.026   1.873 -47.437  1.00  0.00     0.006 C 
ATOM     12  C   UNL     1      17.625   1.756 -46.036  1.00  0.00     0.004 C 
ENDBRANCH   1  11
TORSDOF 4
ENDMDL
MODEL 4
REMARK VINA RESULT:    -3.883     16.240     16.708
REMARK INTER + INTRA:          -4.773
REMARK INTER:                  -4.722
REMARK INTRA:                  -0.051
REMARK UNBOUND:                -0.095
REMARK SMILES CC[C@H](C)[C@H]([NH3+])C(=O)[O-]
REMARK SMILES IDX 3 1 4 2 5 3 6 4 7 8 8 9 9 10 2 11 1 12
REMARK H PARENT 6 5 6 6 6 7
REMARK Flexibility Score: inf
ROOT
ATOM      1  C   UNL     1      15.330  -0.754 -48.722  1.00  0.00     0.050 C 
ATOM      2  C   UNL     1      14.184  -0.505 -49.718  1.00  0.00     0.014 C 
ENDROOT
BRANCH   1   3
ATOM      3  C   UNL     1      15.935   0.602 -48.227  1.00  0.00     0.230 C 
BRANCH   3   4
ATOM      4  N   UNL     1      16.900   0.429 -47.128  1.00  0.00    -0.350 N 
ATOM      5  H   UNL     1      17.317   1.343 -46.841  1.00  0.00     0.345 HD
ATOM      6  H   UNL     1      17.672  -0.206 -47.438  1.00  0.00     0.345 HD
ATOM      7  H   UNL     1      16.439  -0.015 -46.302  1.00  0.00     0.345 HD
ENDBRANCH   3   4
BRANCH   3   8
ATOM      8  C   UNL     1      14.857   1.599 -47.868  1.00  0.00     0.099 C 
ATOM      9  O   UNL     1      14.131   1.436 -46.851  1.00  0.00    -0.544 OA
ATOM     10  O   UNL     1      14.681   2.735 -48.650  1.00  0.00    -0.544 OA
ENDBRANCH   3   8
ENDBRANCH   1   3
BRANCH   1  11
ATOM     11  C   UNL     1      16.346  -1.745 -49.347  1.00  0.00     0.006 C 
ATOM     12  C   UNL     1      15.746  -3.111 -49.682  1.00  0.00     0.004 C 
ENDBRANCH   1  11
TORSDOF 4
ENDMDL
MODEL 5
REMARK VINA RESULT:    -3.794     15.441     16.262
REMARK INTER + INTRA:          -4.665
REMARK INTER:                  -4.566
REMARK INTRA:                  -0.099
REMARK UNBOUND:                -0.095
REMARK SMILES CC[C@H](C)[C@H]([NH3+])C(=O)[O-]
REMARK SMILES IDX 3 1 4 2 5 3 6 4 7 8 8 9 9 10 2 11 1 12
REMARK H PARENT 6 5 6 6 6 7
REMARK Flexibility Score: inf
ROOT
ATOM      1  C   UNL     1      14.666   1.233 -47.868  1.00  0.00     0.050 C 
ATOM      2  C   UNL     1      14.364   2.551 -48.603  1.00  0.00     0.014 C 
ENDROOT
BRANCH   1   3
ATOM      3  C   UNL     1      16.206   0.956 -47.844  1.00  0.00     0.230 C 
BRANCH   3   4
ATOM      4  N   UNL     1      16.539  -0.445 -48.153  1.00  0.00    -0.350 N 
ATOM      5  H   UNL     1      17.558  -0.558 -48.355  1.00  0.00     0.345 HD
ATOM      6  H   UNL     1      15.997  -0.756 -48.992  1.00  0.00     0.345 HD
ATOM      7  H   UNL     1      16.274  -1.068 -47.357  1.00  0.00     0.345 HD
ENDBRANCH   3   4
BRANCH   3   8
ATOM      8  C   UNL     1      16.835   1.402 -46.543  1.00  0.00     0.099 C 
ATOM      9  O   UNL     1      17.997   1.889 -46.514  1.00  0.00    -0.544 OA
ATOM     10  O   UNL     1      16.112   1.307 -45.360  1.00  0.00    -0.544 OA
ENDBRANCH   3   8
ENDBRANCH   1   3
BRANCH   1  11
ATOM     11  C   UNL     1      13.798   0.099 -48.473  1.00  0.00     0.006 C 
ATOM     12  C   UNL     1      13.416   0.330 -49.935  1.00  0.00     0.004 C 
ENDBRANCH   1  11
TORSDOF 4
ENDMDL
MODEL 6
REMARK VINA RESULT:    -3.785      2.456      3.397
REMARK INTER + INTRA:          -4.654
REMARK INTER:                  -4.508
REMARK INTRA:                  -0.146
REMARK UNBOUND:                -0.095
REMARK SMILES CC[C@H](C)[C@H]([NH3+])C(=O)[O-]
REMARK SMILES IDX 3 1 4 2 5 3 6 4 7 8 8 9 9 10 2 11 1 12
REMARK H PARENT 6 5 6 6 6 7
REMARK Flexibility Score: inf
ROOT
ATOM      1  C   UNL     1      15.558  -6.179 -33.358  1.00  0.00     0.050 C 
ATOM      2  C   UNL     1      15.673  -7.156 -34.542  1.00  0.00     0.014 C 
ENDROOT
BRANCH   1   3
ATOM      3  C   UNL     1      14.056  -5.916 -33.004  1.00  0.00     0.230 C 
BRANCH   3   4
ATOM      4  N   UNL     1      13.617  -4.556 -33.357  1.00  0.00    -0.350 N 
ATOM      5  H   UNL     1      13.522  -4.443 -34.392  1.00  0.00     0.345 HD
ATOM      6  H   UNL     1      14.319  -3.861 -33.011  1.00  0.00     0.345 HD
ATOM      7  H   UNL     1      12.703  -4.335 -32.900  1.00  0.00     0.345 HD
ENDBRANCH   3   4
BRANCH   3   8
ATOM      8  C   UNL     1      13.756  -6.238 -31.558  1.00  0.00     0.099 C 
ATOM      9  O   UNL     1      14.069  -5.441 -30.633  1.00  0.00    -0.544 OA
ATOM     10  O   UNL     1      13.093  -7.417 -31.239  1.00  0.00    -0.544 OA
ENDBRANCH   3   8
ENDBRANCH   1   3
BRANCH   1  11
ATOM     11  C   UNL     1      16.401  -4.912 -33.655  1.00  0.00     0.006 C 
ATOM     12  C   UNL     1      17.200  -4.408 -32.453  1.00  0.00     0.004 C 
ENDBRANCH   1  11
TORSDOF 4
ENDMDL
MODEL 7
REMARK VINA RESULT:    -3.711     16.374     17.647
REMARK INTER + INTRA:          -4.565
REMARK INTER:                  -4.507
REMARK INTRA:                  -0.058
REMARK UNBOUND:                -0.095
REMARK SMILES CC[C@H](C)[C@H]([NH3+])C(=O)[O-]
REMARK SMILES IDX 3 1 4 2 5 3 6 4 7 8 8 9 9 10 2 11 1 12
REMARK H PARENT 6 5 6 6 6 7
REMARK Flexibility Score: inf
ROOT
ATOM      1  C   UNL     1      20.920 -10.414 -48.087  1.00  0.00     0.050 C 
ATOM      2  C   UNL     1      19.901 -10.061 -46.988  1.00  0.00     0.014 C 
ENDROOT
BRANCH   1   3
ATOM      3  C   UNL     1      20.605  -9.626 -49.403  1.00  0.00     0.230 C 
BRANCH   3   4
ATOM      4  N   UNL     1      21.124  -8.248 -49.380  1.00  0.00    -0.350 N 
ATOM      5  H   UNL     1      21.959  -8.145 -50.000  1.00  0.00     0.345 HD
ATOM      6  H   UNL     1      21.402  -7.996 -48.403  1.00  0.00     0.345 HD
ATOM      7  H   UNL     1      20.384  -7.573 -49.681  1.00  0.00     0.345 HD
ENDBRANCH   3   4
BRANCH   3   8
ATOM      8  C   UNL     1      19.131  -9.659 -49.737  1.00  0.00     0.099 C 
ATOM      9  O   UNL     1      18.431  -8.612 -49.701  1.00  0.00    -0.544 OA
ATOM     10  O   UNL     1      18.540 -10.855 -50.125  1.00  0.00    -0.544 OA
ENDBRANCH   3   8
ENDBRANCH   1   3
BRANCH   1  11
ATOM     11  C   UNL     1      20.997 -11.955 -48.239  1.00  0.00     0.006 C 
ATOM     12  C   UNL     1      21.678 -12.412 -49.529  1.00  0.00     0.004 C 
ENDBRANCH   1  11
TORSDOF 4
ENDMDL
MODEL 8
REMARK VINA RESULT:    -3.701      2.750      3.582
REMARK INTER + INTRA:          -4.553
REMARK INTER:                  -4.430
REMARK INTRA:                  -0.124
REMARK UNBOUND:                -0.095
REMARK SMILES CC[C@H](C)[C@H]([NH3+])C(=O)[O-]
REMARK SMILES IDX 3 1 4 2 5 3 6 4 7 8 8 9 9 10 2 11 1 12
REMARK H PARENT 6 5 6 6 6 7
REMARK Flexibility Score: inf
ROOT
ATOM      1  C   UNL     1      14.662  -5.391 -33.061  1.00  0.00     0.050 C 
ATOM      2  C   UNL     1      16.154  -5.313 -32.691  1.00  0.00     0.014 C 
ENDROOT
BRANCH   1   3
ATOM      3  C   UNL     1      13.792  -5.652 -31.787  1.00  0.00     0.230 C 
BRANCH   3   4
ATOM      4  N   UNL     1      14.236  -6.831 -31.024  1.00  0.00    -0.350 N 
ATOM      5  H   UNL     1      15.099  -7.249 -31.439  1.00  0.00     0.345 HD
ATOM      6  H   UNL     1      13.481  -7.555 -31.029  1.00  0.00     0.345 HD
ATOM      7  H   UNL     1      14.421  -6.574 -30.028  1.00  0.00     0.345 HD
ENDBRANCH   3   4
BRANCH   3   8
ATOM      8  C   UNL     1      12.319  -5.731 -32.121  1.00  0.00     0.099 C 
ATOM      9  O   UNL     1      11.643  -6.760 -31.852  1.00  0.00    -0.544 OA
ATOM     10  O   UNL     1      11.686  -4.640 -32.703  1.00  0.00    -0.544 OA
ENDBRANCH   3   8
ENDBRANCH   1   3
BRANCH   1  11
ATOM     11  C   UNL     1      14.473  -6.409 -34.215  1.00  0.00     0.006 C 
ATOM     12  C   UNL     1      15.731  -7.215 -34.537  1.00  0.00     0.004 C 
ENDBRANCH   1  11
TORSDOF 4
ENDMDL
MODEL 9
REMARK VINA RESULT:    -3.686     15.408     16.222
REMARK INTER + INTRA:          -4.536
REMARK INTER:                  -4.449
REMARK INTRA:                  -0.087
REMARK UNBOUND:                -0.095
REMARK SMILES CC[C@H](C)[C@H]([NH3+])C(=O)[O-]
REMARK SMILES IDX 3 1 4 2 5 3 6 4 7 8 8 9 9 10 2 11 1 12
REMARK H PARENT 6 5 6 6 6 7
REMARK Flexibility Score: inf
ROOT
ATOM      1  C   UNL     1      15.030   0.198 -48.035  1.00  0.00     0.050 C 
ATOM      2  C   UNL     1      13.795   0.348 -48.941  1.00  0.00     0.014 C 
ENDROOT
BRANCH   1   3
ATOM      3  C   UNL     1      15.347   1.548 -47.308  1.00  0.00     0.230 C 
BRANCH   3   4
ATOM      4  N   UNL     1      15.452   2.685 -48.236  1.00  0.00    -0.350 N 
ATOM      5  H   UNL     1      16.370   3.175 -48.137  1.00  0.00     0.345 HD
ATOM      6  H   UNL     1      14.687   3.371 -48.036  1.00  0.00     0.345 HD
ATOM      7  H   UNL     1      15.336   2.364 -49.224  1.00  0.00     0.345 HD
ENDBRANCH   3   4
BRANCH   3   8
ATOM      8  C   UNL     1      16.572   1.436 -46.427  1.00  0.00     0.099 C 
ATOM      9  O   UNL     1      16.538   0.795 -45.342  1.00  0.00    -0.544 OA
ATOM     10  O   UNL     1      17.766   2.019 -46.832  1.00  0.00    -0.544 OA
ENDBRANCH   3   8
ENDBRANCH   1   3
BRANCH   1  11
ATOM     11  C   UNL     1      16.199  -0.403 -48.857  1.00  0.00     0.006 C 
ATOM     12  C   UNL     1      15.968  -1.852 -49.285  1.00  0.00     0.004 C 
ENDBRANCH   1  11
TORSDOF 4
ENDMDL
