MODEL 1
REMARK VINA RESULT:    -4.835      0.000      0.000
REMARK INTER + INTRA:          -6.509
REMARK INTER:                  -5.965
REMARK INTRA:                  -0.544
REMARK UNBOUND:                -0.544
REMARK SMILES CC(C)=CCC[C@@H](C)c1ccc(C)cc1
REMARK SMILES IDX 6 1 7 2 8 3 9 4 13 5 12 6 11 7 14 8 10 9 15 10 5 11 4 12
REMARK SMILES IDX 2 13 1 14 3 15
REMARK H PARENT
REMARK Flexibility Score: inf
ROOT
ATOM      1  C   UNL     1      29.665 -10.070  31.266  1.00  0.00     0.012 C 
ENDROOT
BRANCH   1   2
ATOM      2  C   UNL     1      28.821 -10.323  29.996  1.00  0.00     0.016 C 
ATOM      3  C   UNL     1      28.963 -11.762  29.470  1.00  0.00     0.013 C 
BRANCH   2   4
ATOM      4  C   UNL     1      27.378  -9.873  30.183  1.00  0.00    -0.045 A 
ATOM      5  C   UNL     1      23.327  -8.423  30.598  1.00  0.00     0.044 C 
ATOM      6  C   UNL     1      24.743  -8.898  30.459  1.00  0.00    -0.051 A 
ATOM      7  C   UNL     1      25.348  -8.955  29.196  1.00  0.00     0.004 A 
ATOM      8  C   UNL     1      25.452  -9.345  31.581  1.00  0.00     0.004 A 
ATOM      9  C   UNL     1      26.656  -9.427  29.062  1.00  0.00     0.004 A 
ATOM     10  C   UNL     1      26.761  -9.818  31.449  1.00  0.00     0.004 A 
ENDBRANCH   2   4
ENDBRANCH   1   2
BRANCH   1  11
ATOM     11  C   UNL     1      30.902  -9.184  31.038  1.00  0.00     0.028 C 
BRANCH  11  12
ATOM     12  C   UNL     1      31.629  -8.937  32.336  1.00  0.00    -0.028 C 
ATOM     13  C   UNL     1      31.431  -7.856  33.121  1.00  0.00    -0.080 C 
ATOM     14  C   UNL     1      30.401  -6.801  32.787  1.00  0.00     0.039 C 
ATOM     15  C   UNL     1      32.254  -7.719  34.377  1.00  0.00     0.039 C 
ENDBRANCH  11  12
ENDBRANCH   1  11
TORSDOF 4
ENDMDL
MODEL 2
REMARK VINA RESULT:    -4.794      0.667      1.687
REMARK INTER + INTRA:          -6.459
REMARK INTER:                  -5.741
REMARK INTRA:                  -0.718
REMARK UNBOUND:                -0.544
REMARK SMILES CC(C)=CCC[C@@H](C)c1ccc(C)cc1
REMARK SMILES IDX 6 1 7 2 8 3 9 4 13 5 12 6 11 7 14 8 10 9 15 10 5 11 4 12
REMARK SMILES IDX 2 13 1 14 3 15
REMARK H PARENT
REMARK Flexibility Score: inf
ROOT
ATOM      1  C   UNL     1      29.513 -10.999  31.250  1.00  0.00     0.012 C 
ENDROOT
BRANCH   1   2
ATOM      2  C   UNL     1      28.862 -10.781  29.866  1.00  0.00     0.016 C 
ATOM      3  C   UNL     1      28.829 -12.066  29.020  1.00  0.00     0.013 C 
BRANCH   2   4
ATOM      4  C   UNL     1      27.513 -10.084  29.984  1.00  0.00    -0.045 A 
ATOM      5  C   UNL     1      23.617  -8.269  30.443  1.00  0.00     0.044 C 
ATOM      6  C   UNL     1      24.955  -8.926  30.280  1.00  0.00    -0.051 A 
ATOM      7  C   UNL     1      25.662  -9.376  31.403  1.00  0.00     0.004 A 
ATOM      8  C   UNL     1      25.536  -9.041  29.011  1.00  0.00     0.004 A 
ATOM      9  C   UNL     1      26.923  -9.959  31.255  1.00  0.00     0.004 A 
ATOM     10  C   UNL     1      26.798  -9.625  28.860  1.00  0.00     0.004 A 
ENDBRANCH   2   4
ENDBRANCH   1   2
BRANCH   1  11
ATOM     11  C   UNL     1      30.763 -10.137  31.505  1.00  0.00     0.028 C 
BRANCH  11  12
ATOM     12  C   UNL     1      30.390  -8.684  31.647  1.00  0.00    -0.028 C 
ATOM     13  C   UNL     1      30.812  -7.888  32.655  1.00  0.00    -0.080 C 
ATOM     14  C   UNL     1      31.758  -8.384  33.724  1.00  0.00     0.039 C 
ATOM     15  C   UNL     1      30.331  -6.460  32.692  1.00  0.00     0.039 C 
ENDBRANCH  11  12
ENDBRANCH   1  11
TORSDOF 4
ENDMDL
MODEL 3
REMARK VINA RESULT:    -4.731      4.404      6.462
REMARK INTER + INTRA:          -6.381
REMARK INTER:                  -5.690
REMARK INTRA:                  -0.691
REMARK UNBOUND:                -0.544
REMARK SMILES CC(C)=CCC[C@@H](C)c1ccc(C)cc1
REMARK SMILES IDX 6 1 7 2 8 3 9 4 13 5 12 6 11 7 14 8 10 9 15 10 5 11 4 12
REMARK SMILES IDX 2 13 1 14 3 15
REMARK H PARENT
REMARK Flexibility Score: inf
ROOT
ATOM      1  C   UNL     1      34.808 -10.159  29.415  1.00  0.00     0.012 C 
ENDROOT
BRANCH   1   2
ATOM      2  C   UNL     1      33.514 -10.828  29.932  1.00  0.00     0.016 C 
ATOM      3  C   UNL     1      33.795 -12.087  30.771  1.00  0.00     0.013 C 
BRANCH   2   4
ATOM      4  C   UNL     1      32.597  -9.821  30.615  1.00  0.00    -0.045 A 
ATOM      5  C   UNL     1      30.167  -6.878  32.645  1.00  0.00     0.044 C 
ATOM      6  C   UNL     1      31.027  -7.903  31.966  1.00  0.00    -0.051 A 
ATOM      7  C   UNL     1      32.157  -7.507  31.239  1.00  0.00     0.004 A 
ATOM      8  C   UNL     1      30.674  -9.258  32.004  1.00  0.00     0.004 A 
ATOM      9  C   UNL     1      32.940  -8.458  30.580  1.00  0.00     0.004 A 
ATOM     10  C   UNL     1      31.456 -10.211  31.345  1.00  0.00     0.004 A 
ENDBRANCH   2   4
ENDBRANCH   1   2
BRANCH   1  11
ATOM     11  C   UNL     1      35.908 -11.149  28.994  1.00  0.00     0.028 C 
BRANCH  11  12
ATOM     12  C   UNL     1      37.269 -10.639  29.395  1.00  0.00    -0.028 C 
ATOM     13  C   UNL     1      37.909 -11.000  30.529  1.00  0.00    -0.080 C 
ATOM     14  C   UNL     1      37.327 -12.011  31.491  1.00  0.00     0.039 C 
ATOM     15  C   UNL     1      39.253 -10.384  30.823  1.00  0.00     0.039 C 
ENDBRANCH  11  12
ENDBRANCH   1  11
TORSDOF 4
ENDMDL
MODEL 4
REMARK VINA RESULT:    -4.410      4.124      7.388
REMARK INTER + INTRA:          -5.985
REMARK INTER:                  -5.372
REMARK INTRA:                  -0.613
REMARK UNBOUND:                -0.544
REMARK SMILES CC(C)=CCC[C@@H](C)c1ccc(C)cc1
REMARK SMILES IDX 6 1 7 2 8 3 9 4 13 5 12 6 11 7 14 8 10 9 15 10 5 11 4 12
REMARK SMILES IDX 2 13 1 14 3 15
REMARK H PARENT
REMARK Flexibility Score: inf
ROOT
ATOM      1  C   UNL     1      31.831  -9.629  30.872  1.00  0.00     0.012 C 
ENDROOT
BRANCH   1   2
ATOM      2  C   UNL     1      32.555 -10.994  30.875  1.00  0.00     0.016 C 
ATOM      3  C   UNL     1      31.686 -12.124  30.295  1.00  0.00     0.013 C 
BRANCH   2   4
ATOM      4  C   UNL     1      33.940 -10.896  30.249  1.00  0.00    -0.045 A 
ATOM      5  C   UNL     1      37.955 -10.641  28.668  1.00  0.00     0.044 C 
ATOM      6  C   UNL     1      36.571 -10.711  29.240  1.00  0.00    -0.051 A 
ATOM      7  C   UNL     1      36.218 -11.750  30.112  1.00  0.00     0.004 A 
ATOM      8  C   UNL     1      35.600  -9.775  28.860  1.00  0.00     0.004 A 
ATOM      9  C   UNL     1      34.920 -11.835  30.620  1.00  0.00     0.004 A 
ATOM     10  C   UNL     1      34.300  -9.858  29.368  1.00  0.00     0.004 A 
ENDBRANCH   2   4
ENDBRANCH   1   2
BRANCH   1  11
ATOM     11  C   UNL     1      30.896  -9.405  32.074  1.00  0.00     0.028 C 
BRANCH  11  12
ATOM     12  C   UNL     1      31.677  -8.959  33.283  1.00  0.00    -0.028 C 
ATOM     13  C   UNL     1      31.843  -7.667  33.643  1.00  0.00    -0.080 C 
ATOM     14  C   UNL     1      31.202  -6.533  32.876  1.00  0.00     0.039 C 
ATOM     15  C   UNL     1      32.680  -7.362  34.859  1.00  0.00     0.039 C 
ENDBRANCH  11  12
ENDBRANCH   1  11
TORSDOF 4
ENDMDL
MODEL 5
REMARK VINA RESULT:    -4.307      2.029      3.354
REMARK INTER + INTRA:          -5.859
REMARK INTER:                  -5.124
REMARK INTRA:                  -0.735
REMARK UNBOUND:                -0.544
REMARK SMILES CC(C)=CCC[C@@H](C)c1ccc(C)cc1
REMARK SMILES IDX 6 1 7 2 8 3 9 4 13 5 12 6 11 7 14 8 10 9 15 10 5 11 4 12
REMARK SMILES IDX 2 13 1 14 3 15
REMARK H PARENT
REMARK Flexibility Score: inf
ROOT
ATOM      1  C   UNL     1      27.669 -10.734  30.415  1.00  0.00     0.012 C 
ENDROOT
BRANCH   1   2
ATOM      2  C   UNL     1      26.685  -9.617  30.830  1.00  0.00     0.016 C 
ATOM      3  C   UNL     1      25.819  -9.127  29.656  1.00  0.00     0.013 C 
BRANCH   2   4
ATOM      4  C   UNL     1      25.886 -10.006  32.067  1.00  0.00    -0.045 A 
ATOM      5  C   UNL     1      23.699 -10.939  35.677  1.00  0.00     0.044 C 
ATOM      6  C   UNL     1      24.483 -10.608  34.442  1.00  0.00    -0.051 A 
ATOM      7  C   UNL     1      24.445  -9.314  33.907  1.00  0.00     0.004 A 
ATOM      8  C   UNL     1      25.210 -11.605  33.778  1.00  0.00     0.004 A 
ATOM      9  C   UNL     1      25.148  -9.014  32.738  1.00  0.00     0.004 A 
ATOM     10  C   UNL     1      25.915 -11.307  32.608  1.00  0.00     0.004 A 
ENDBRANCH   2   4
ENDBRANCH   1   2
BRANCH   1  11
ATOM     11  C   UNL     1      29.149 -10.406  30.683  1.00  0.00     0.028 C 
BRANCH  11  12
ATOM     12  C   UNL     1      29.287  -9.050  31.328  1.00  0.00    -0.028 C 
ATOM     13  C   UNL     1      30.437  -8.576  31.857  1.00  0.00    -0.080 C 
ATOM     14  C   UNL     1      31.728  -9.361  31.800  1.00  0.00     0.039 C 
ATOM     15  C   UNL     1      30.423  -7.214  32.503  1.00  0.00     0.039 C 
ENDBRANCH  11  12
ENDBRANCH   1  11
TORSDOF 4
ENDMDL
MODEL 6
REMARK VINA RESULT:    -4.272      0.958      5.772
REMARK INTER + INTRA:          -5.815
REMARK INTER:                  -5.032
REMARK INTRA:                  -0.782
REMARK UNBOUND:                -0.544
REMARK SMILES CC(C)=CCC[C@@H](C)c1ccc(C)cc1
REMARK SMILES IDX 6 1 7 2 8 3 9 4 13 5 12 6 11 7 14 8 10 9 15 10 5 11 4 12
REMARK SMILES IDX 2 13 1 14 3 15
REMARK H PARENT
REMARK Flexibility Score: inf
ROOT
ATOM      1  C   UNL     1      27.913  -9.924  28.954  1.00  0.00     0.012 C 
ENDROOT
BRANCH   1   2
ATOM      2  C   UNL     1      28.700 -10.785  29.968  1.00  0.00     0.016 C 
ATOM      3  C   UNL     1      29.449 -11.950  29.298  1.00  0.00     0.013 C 
BRANCH   2   4
ATOM      4  C   UNL     1      29.575  -9.926  30.873  1.00  0.00    -0.045 A 
ATOM      5  C   UNL     1      32.100  -7.664  33.554  1.00  0.00     0.044 C 
ATOM      6  C   UNL     1      31.212  -8.464  32.648  1.00  0.00    -0.051 A 
ATOM      7  C   UNL     1      31.670  -9.664  32.089  1.00  0.00     0.004 A 
ATOM      8  C   UNL     1      29.940  -7.988  32.305  1.00  0.00     0.004 A 
ATOM      9  C   UNL     1      30.856 -10.393  31.219  1.00  0.00     0.004 A 
ATOM     10  C   UNL     1      29.123  -8.716  31.435  1.00  0.00     0.004 A 
ENDBRANCH   2   4
ENDBRANCH   1   2
BRANCH   1  11
ATOM     11  C   UNL     1      26.443 -10.343  28.775  1.00  0.00     0.028 C 
BRANCH  11  12
ATOM     12  C   UNL     1      25.533  -9.143  28.842  1.00  0.00    -0.028 C 
ATOM     13  C   UNL     1      24.963  -8.687  29.979  1.00  0.00    -0.080 C 
ATOM     14  C   UNL     1      25.235  -9.325  31.323  1.00  0.00     0.039 C 
ATOM     15  C   UNL     1      24.045  -7.495  29.895  1.00  0.00     0.039 C 
ENDBRANCH  11  12
ENDBRANCH   1  11
TORSDOF 4
ENDMDL
MODEL 7
REMARK VINA RESULT:    -4.176      1.443      5.569
REMARK INTER + INTRA:          -5.697
REMARK INTER:                  -4.532
REMARK INTRA:                  -1.165
REMARK UNBOUND:                -0.544
REMARK SMILES CC(C)=CCC[C@@H](C)c1ccc(C)cc1
REMARK SMILES IDX 6 1 7 2 8 3 9 4 13 5 12 6 11 7 14 8 10 9 15 10 5 11 4 12
REMARK SMILES IDX 2 13 1 14 3 15
REMARK H PARENT
REMARK Flexibility Score: inf
ROOT
ATOM      1  C   UNL     1      28.011 -12.065  31.235  1.00  0.00     0.012 C 
ENDROOT
BRANCH   1   2
ATOM      2  C   UNL     1      29.490 -11.875  30.831  1.00  0.00     0.016 C 
ATOM      3  C   UNL     1      29.729 -12.124  29.331  1.00  0.00     0.013 C 
BRANCH   2   4
ATOM      4  C   UNL     1      30.043 -10.547  31.332  1.00  0.00    -0.045 A 
ATOM      5  C   UNL     1      31.498  -6.680  32.604  1.00  0.00     0.044 C 
ATOM      6  C   UNL     1      30.997  -8.013  32.133  1.00  0.00    -0.051 A 
ATOM      7  C   UNL     1      29.625  -8.225  31.941  1.00  0.00     0.004 A 
ATOM      8  C   UNL     1      31.889  -9.076  31.941  1.00  0.00     0.004 A 
ATOM      9  C   UNL     1      29.154  -9.475  31.534  1.00  0.00     0.004 A 
ATOM     10  C   UNL     1      31.420 -10.328  31.533  1.00  0.00     0.004 A 
ENDBRANCH   2   4
ENDBRANCH   1   2
BRANCH   1  11
ATOM     11  C   UNL     1      27.033 -12.123  30.048  1.00  0.00     0.028 C 
BRANCH  11  12
ATOM     12  C   UNL     1      26.082 -10.954  30.081  1.00  0.00    -0.028 C 
ATOM     13  C   UNL     1      26.176  -9.877  29.270  1.00  0.00    -0.080 C 
ATOM     14  C   UNL     1      27.237  -9.772  28.198  1.00  0.00     0.039 C 
ATOM     15  C   UNL     1      25.175  -8.762  29.436  1.00  0.00     0.039 C 
ENDBRANCH  11  12
ENDBRANCH   1  11
TORSDOF 4
ENDMDL
MODEL 8
REMARK VINA RESULT:    -2.913     18.545     21.238
REMARK INTER + INTRA:          -4.138
REMARK INTER:                  -3.188
REMARK INTRA:                  -0.950
REMARK UNBOUND:                -0.544
REMARK SMILES CC(C)=CCC[C@@H](C)c1ccc(C)cc1
REMARK SMILES IDX 6 1 7 2 8 3 9 4 13 5 12 6 11 7 14 8 10 9 15 10 5 11 4 12
REMARK SMILES IDX 2 13 1 14 3 15
REMARK H PARENT
REMARK Flexibility Score: inf
ROOT
ATOM      1  C   UNL     1      36.673   5.133  39.624  1.00  0.00     0.012 C 
ENDROOT
BRANCH   1   2
ATOM      2  C   UNL     1      36.240   6.377  40.431  1.00  0.00     0.016 C 
ATOM      3  C   UNL     1      34.822   6.239  41.013  1.00  0.00     0.013 C 
BRANCH   2   4
ATOM      4  C   UNL     1      37.293   6.774  41.458  1.00  0.00    -0.045 A 
ATOM      5  C   UNL     1      40.125   7.933  44.511  1.00  0.00     0.044 C 
ATOM      6  C   UNL     1      39.124   7.554  43.460  1.00  0.00    -0.051 A 
ATOM      7  C   UNL     1      38.136   6.600  43.738  1.00  0.00     0.004 A 
ATOM      8  C   UNL     1      39.206   8.105  42.175  1.00  0.00     0.004 A 
ATOM      9  C   UNL     1      37.223   6.223  42.750  1.00  0.00     0.004 A 
ATOM     10  C   UNL     1      38.293   7.729  41.184  1.00  0.00     0.004 A 
ENDBRANCH   2   4
ENDBRANCH   1   2
BRANCH   1  11
ATOM     11  C   UNL     1      38.159   5.123  39.224  1.00  0.00     0.028 C 
BRANCH  11  12
ATOM     12  C   UNL     1      38.698   3.716  39.203  1.00  0.00    -0.028 C 
ATOM     13  C   UNL     1      39.586   3.231  40.099  1.00  0.00    -0.080 C 
ATOM     14  C   UNL     1      40.089   4.061  41.258  1.00  0.00     0.039 C 
ATOM     15  C   UNL     1      40.068   1.812  39.938  1.00  0.00     0.039 C 
ENDBRANCH  11  12
ENDBRANCH   1  11
TORSDOF 4
ENDMDL
