MODEL 1
REMARK VINA RESULT:    -6.458      0.000      0.000
REMARK INTER + INTRA:         -11.493
REMARK INTER:                  -9.667
REMARK INTRA:                  -1.826
REMARK UNBOUND:                -1.826
REMARK SMILES O=c1c(O[C@H]2O[C@H](CO)[C@H](O)[C@H](O)[C@H]2O)c(-c2cc(O)c(O)c(O)c2)oc2cc(O)cc(O)c12
REMARK SMILES IDX 4 1 3 2 16 3 26 4 2 5 27 6 1 7 34 8 28 9 32 10 29 11 31 12
REMARK SMILES IDX 17 13 18 14 19 15 25 16 21 17 23 18 20 19 22 21 24 23 33 25
REMARK SMILES IDX 30 27 5 29 14 30 6 31 12 32 7 33 10 34 15 35 13 37 8 39 9 40
REMARK SMILES IDX 11 42
REMARK H PARENT 20 20 22 22 24 24 33 26 30 28 15 36 13 38 9 41 11 43
REMARK Flexibility Score: inf
ROOT
ATOM      1  O   UNL     1     -14.327  35.323  -1.826  1.00  0.00    -0.454 OA
ENDROOT
BRANCH   1   2
ATOM      2  C   UNL     1     -13.449  36.066  -2.636  1.00  0.00     0.214 A 
ATOM      3  C   UNL     1     -13.839  37.350  -3.055  1.00  0.00     0.181 A 
ATOM      4  O   UNL     1     -13.000  38.113  -3.742  1.00  0.00    -0.452 OA
ATOM      5  C   UNL     1     -12.164  35.606  -2.988  1.00  0.00     0.239 A 
ATOM      6  C   UNL     1     -11.771  37.733  -4.071  1.00  0.00     0.146 A 
ATOM      7  O   UNL     1     -11.827  34.433  -2.691  1.00  0.00    -0.285 OA
ATOM      8  C   UNL     1     -11.273  36.465  -3.676  1.00  0.00     0.111 A 
ATOM      9  C   UNL     1     -10.981  38.608  -4.821  1.00  0.00     0.094 A 
ATOM     10  C   UNL     1      -9.924  36.136  -4.006  1.00  0.00     0.134 A 
ATOM     11  C   UNL     1      -9.685  38.245  -5.195  1.00  0.00     0.123 A 
ATOM     12  C   UNL     1      -9.168  37.016  -4.790  1.00  0.00     0.093 A 
BRANCH   3  13
ATOM     13  C   UNL     1     -15.188  37.881  -2.768  1.00  0.00     0.029 A 
ATOM     14  C   UNL     1     -15.411  38.631  -1.606  1.00  0.00     0.062 A 
ATOM     15  C   UNL     1     -16.681  39.152  -1.330  1.00  0.00     0.162 A 
ATOM     16  C   UNL     1     -16.242  37.692  -3.678  1.00  0.00     0.062 A 
ATOM     17  C   UNL     1     -17.737  38.939  -2.228  1.00  0.00     0.200 A 
ATOM     18  C   UNL     1     -17.515  38.209  -3.408  1.00  0.00     0.162 A 
BRANCH  15  19
ATOM     19  O   UNL     1     -16.907  39.877  -0.161  1.00  0.00    -0.504 OA
ATOM     20  H   UNL     1     -17.485  39.512   0.586  1.00  0.00     0.293 HD
ENDBRANCH  15  19
BRANCH  17  21
ATOM     21  O   UNL     1     -18.999  39.455  -1.932  1.00  0.00    -0.502 OA
ATOM     22  H   UNL     1     -19.232  40.430  -2.076  1.00  0.00     0.293 HD
ENDBRANCH  17  21
BRANCH  18  23
ATOM     23  O   UNL     1     -18.560  37.997  -4.307  1.00  0.00    -0.504 OA
ATOM     24  H   UNL     1     -19.131  37.159  -4.269  1.00  0.00     0.293 HD
ENDBRANCH  18  23
ENDBRANCH   3  13
BRANCH  10  25
ATOM     25  O   UNL     1      -9.271  34.985  -3.558  1.00  0.00    -0.507 OA
ATOM     26  H   UNL     1      -8.645  34.424  -4.118  1.00  0.00     0.293 HD
ENDBRANCH  10  25
BRANCH  11  27
ATOM     27  O   UNL     1      -8.899  39.106  -5.957  1.00  0.00    -0.508 OA
ATOM     28  H   UNL     1      -8.635  40.024  -5.620  1.00  0.00     0.293 HD
ENDBRANCH  11  27
ENDBRANCH   1   2
BRANCH   1  29
ATOM     29  C   UNL     1     -14.354  35.331  -0.396  1.00  0.00     0.339 C 
ATOM     30  C   UNL     1     -13.824  33.962   0.142  1.00  0.00     0.214 C 
ATOM     31  O   UNL     1     -15.678  35.600   0.041  1.00  0.00    -0.332 OA
ATOM     32  C   UNL     1     -14.874  33.254   1.019  1.00  0.00     0.180 C 
ATOM     33  C   UNL     1     -15.816  35.576   1.458  1.00  0.00     0.179 C 
ATOM     34  C   UNL     1     -15.379  34.219   2.098  1.00  0.00     0.177 C 
BRANCH  30  35
ATOM     35  O   UNL     1     -13.395  33.112  -0.896  1.00  0.00    -0.384 OA
ATOM     36  H   UNL     1     -13.093  33.685  -1.650  1.00  0.00     0.211 HD
ENDBRANCH  30  35
BRANCH  32  37
ATOM     37  O   UNL     1     -14.321  32.108   1.616  1.00  0.00    -0.387 OA
ATOM     38  H   UNL     1     -14.998  31.763   2.254  1.00  0.00     0.211 HD
ENDBRANCH  32  37
BRANCH  33  39
ATOM     39  C   UNL     1     -15.264  36.855   2.134  1.00  0.00     0.191 C 
BRANCH  39  40
ATOM     40  O   UNL     1     -16.138  37.942   1.991  1.00  0.00    -0.394 OA
ATOM     41  H   UNL     1     -16.879  37.633   1.403  1.00  0.00     0.210 HD
ENDBRANCH  39  40
ENDBRANCH  33  39
BRANCH  34  42
ATOM     42  O   UNL     1     -14.389  34.408   3.082  1.00  0.00    -0.387 OA
ATOM     43  H   UNL     1     -14.849  34.705   3.912  1.00  0.00     0.211 HD
ENDBRANCH  34  42
ENDBRANCH   1  29
TORSDOF 13
ENDMDL
MODEL 2
REMARK VINA RESULT:    -6.342      1.795      7.062
REMARK INTER + INTRA:         -11.319
REMARK INTER:                  -9.611
REMARK INTRA:                  -1.708
REMARK UNBOUND:                -1.826
REMARK SMILES O=c1c(O[C@H]2O[C@H](CO)[C@H](O)[C@H](O)[C@H]2O)c(-c2cc(O)c(O)c(O)c2)oc2cc(O)cc(O)c12
REMARK SMILES IDX 4 1 3 2 16 3 26 4 2 5 27 6 1 7 34 8 28 9 32 10 29 11 31 12
REMARK SMILES IDX 17 13 18 14 19 15 25 16 21 17 23 18 20 19 22 21 24 23 33 25
REMARK SMILES IDX 30 27 5 29 14 30 6 31 12 32 7 33 10 34 15 35 13 37 8 39 9 40
REMARK SMILES IDX 11 42
REMARK H PARENT 20 20 22 22 24 24 33 26 30 28 15 36 13 38 9 41 11 43
REMARK Flexibility Score: inf
ROOT
ATOM      1  O   UNL     1     -14.379  34.740  -2.268  1.00  0.00    -0.454 OA
ENDROOT
BRANCH   1   2
ATOM      2  C   UNL     1     -15.136  35.700  -1.573  1.00  0.00     0.214 A 
ATOM      3  C   UNL     1     -14.987  35.798  -0.179  1.00  0.00     0.181 A 
ATOM      4  O   UNL     1     -15.616  36.752   0.496  1.00  0.00    -0.452 OA
ATOM      5  C   UNL     1     -15.987  36.616  -2.224  1.00  0.00     0.239 A 
ATOM      6  C   UNL     1     -16.404  37.653  -0.078  1.00  0.00     0.146 A 
ATOM      7  O   UNL     1     -16.195  36.494  -3.457  1.00  0.00    -0.285 OA
ATOM      8  C   UNL     1     -16.603  37.654  -1.483  1.00  0.00     0.111 A 
ATOM      9  C   UNL     1     -17.039  38.597   0.733  1.00  0.00     0.094 A 
ATOM     10  C   UNL     1     -17.411  38.684  -2.051  1.00  0.00     0.134 A 
ATOM     11  C   UNL     1     -17.882  39.558   0.171  1.00  0.00     0.123 A 
ATOM     12  C   UNL     1     -18.065  39.594  -1.210  1.00  0.00     0.093 A 
BRANCH   3  13
ATOM     13  C   UNL     1     -14.153  34.843   0.579  1.00  0.00     0.029 A 
ATOM     14  C   UNL     1     -12.889  35.233   1.041  1.00  0.00     0.062 A 
ATOM     15  C   UNL     1     -12.095  34.342   1.774  1.00  0.00     0.162 A 
ATOM     16  C   UNL     1     -14.636  33.562   0.895  1.00  0.00     0.062 A 
ATOM     17  C   UNL     1     -12.570  33.055   2.064  1.00  0.00     0.200 A 
ATOM     18  C   UNL     1     -13.847  32.665   1.626  1.00  0.00     0.162 A 
BRANCH  15  19
ATOM     19  O   UNL     1     -10.827  34.723   2.211  1.00  0.00    -0.504 OA
ATOM     20  H   UNL     1     -10.610  34.808   3.197  1.00  0.00     0.293 HD
ENDBRANCH  15  19
BRANCH  17  21
ATOM     21  O   UNL     1     -11.761  32.175   2.785  1.00  0.00    -0.502 OA
ATOM     22  H   UNL     1     -11.204  31.460   2.333  1.00  0.00     0.293 HD
ENDBRANCH  17  21
BRANCH  18  23
ATOM     23  O   UNL     1     -14.327  31.389   1.915  1.00  0.00    -0.504 OA
ATOM     24  H   UNL     1     -13.786  30.557   1.701  1.00  0.00     0.293 HD
ENDBRANCH  18  23
ENDBRANCH   3  13
BRANCH  10  25
ATOM     25  O   UNL     1     -17.572  38.880  -3.424  1.00  0.00    -0.507 OA
ATOM     26  H   UNL     1     -18.304  39.434  -3.845  1.00  0.00     0.293 HD
ENDBRANCH  10  25
BRANCH  11  27
ATOM     27  O   UNL     1     -18.532  40.490   0.976  1.00  0.00    -0.508 OA
ATOM     28  H   UNL     1     -19.291  40.224   1.592  1.00  0.00     0.293 HD
ENDBRANCH  11  27
ENDBRANCH   1   2
BRANCH   1  29
ATOM     29  C   UNL     1     -13.120  34.970  -2.905  1.00  0.00     0.339 C 
ATOM     30  C   UNL     1     -12.224  33.697  -2.766  1.00  0.00     0.214 C 
ATOM     31  O   UNL     1     -12.511  36.117  -2.328  1.00  0.00    -0.332 OA
ATOM     32  C   UNL     1     -10.902  34.011  -2.042  1.00  0.00     0.180 C 
ATOM     33  C   UNL     1     -11.222  36.397  -2.864  1.00  0.00     0.179 C 
ATOM     34  C   UNL     1     -10.219  35.208  -2.714  1.00  0.00     0.177 C 
BRANCH  30  35
ATOM     35  O   UNL     1     -12.899  32.640  -2.124  1.00  0.00    -0.384 OA
ATOM     36  H   UNL     1     -13.570  33.039  -1.509  1.00  0.00     0.211 HD
ENDBRANCH  30  35
BRANCH  32  37
ATOM     37  O   UNL     1     -10.051  32.892  -2.068  1.00  0.00    -0.387 OA
ATOM     38  H   UNL     1     -10.431  32.228  -1.436  1.00  0.00     0.211 HD
ENDBRANCH  32  37
BRANCH  33  39
ATOM     39  C   UNL     1     -11.288  37.057  -4.264  1.00  0.00     0.191 C 
BRANCH  39  40
ATOM     40  O   UNL     1     -10.060  37.623  -4.633  1.00  0.00    -0.394 OA
ATOM     41  H   UNL     1      -9.393  36.885  -4.622  1.00  0.00     0.210 HD
ENDBRANCH  39  40
ENDBRANCH  33  39
BRANCH  34  42
ATOM     42  O   UNL     1      -9.681  34.826  -3.958  1.00  0.00    -0.387 OA
ATOM     43  H   UNL     1      -9.516  33.846  -3.921  1.00  0.00     0.211 HD
ENDBRANCH  34  42
ENDBRANCH   1  29
TORSDOF 13
ENDMDL
MODEL 3
REMARK VINA RESULT:    -6.093      1.069      2.397
REMARK INTER + INTRA:         -10.946
REMARK INTER:                  -9.219
REMARK INTRA:                  -1.727
REMARK UNBOUND:                -1.826
REMARK SMILES O=c1c(O[C@H]2O[C@H](CO)[C@H](O)[C@H](O)[C@H]2O)c(-c2cc(O)c(O)c(O)c2)oc2cc(O)cc(O)c12
REMARK SMILES IDX 4 1 3 2 16 3 26 4 2 5 27 6 1 7 34 8 28 9 32 10 29 11 31 12
REMARK SMILES IDX 17 13 18 14 19 15 25 16 21 17 23 18 20 19 22 21 24 23 33 25
REMARK SMILES IDX 30 27 5 29 14 30 6 31 12 32 7 33 10 34 15 35 13 37 8 39 9 40
REMARK SMILES IDX 11 42
REMARK H PARENT 20 20 22 22 24 24 33 26 30 28 15 36 13 38 9 41 11 43
REMARK Flexibility Score: inf
ROOT
ATOM      1  O   UNL     1     -14.858  35.046  -1.955  1.00  0.00    -0.454 OA
ENDROOT
BRANCH   1   2
ATOM      2  C   UNL     1     -13.869  35.737  -2.679  1.00  0.00     0.214 A 
ATOM      3  C   UNL     1     -14.093  37.085  -3.010  1.00  0.00     0.181 A 
ATOM      4  O   UNL     1     -13.145  37.791  -3.612  1.00  0.00    -0.452 OA
ATOM      5  C   UNL     1     -12.634  35.155  -3.026  1.00  0.00     0.239 A 
ATOM      6  C   UNL     1     -11.957  37.295  -3.931  1.00  0.00     0.146 A 
ATOM      7  O   UNL     1     -12.446  33.933  -2.810  1.00  0.00    -0.285 OA
ATOM      8  C   UNL     1     -11.623  35.951  -3.620  1.00  0.00     0.111 A 
ATOM      9  C   UNL     1     -11.043  38.122  -4.589  1.00  0.00     0.094 A 
ATOM     10  C   UNL     1     -10.310  35.490  -3.933  1.00  0.00     0.134 A 
ATOM     11  C   UNL     1      -9.784  37.637  -4.950  1.00  0.00     0.123 A 
ATOM     12  C   UNL     1      -9.428  36.330  -4.625  1.00  0.00     0.093 A 
BRANCH   3  13
ATOM     13  C   UNL     1     -15.382  37.749  -2.724  1.00  0.00     0.029 A 
ATOM     14  C   UNL     1     -16.463  37.581  -3.600  1.00  0.00     0.062 A 
ATOM     15  C   UNL     1     -17.694  38.193  -3.332  1.00  0.00     0.162 A 
ATOM     16  C   UNL     1     -15.557  38.501  -1.551  1.00  0.00     0.062 A 
ATOM     17  C   UNL     1     -17.857  38.965  -2.173  1.00  0.00     0.200 A 
ATOM     18  C   UNL     1     -16.785  39.117  -1.278  1.00  0.00     0.162 A 
BRANCH  15  19
ATOM     19  O   UNL     1     -18.761  38.046  -4.218  1.00  0.00    -0.504 OA
ATOM     20  H   UNL     1     -18.949  37.164  -4.680  1.00  0.00     0.293 HD
ENDBRANCH  15  19
BRANCH  17  21
ATOM     21  O   UNL     1     -19.086  39.578  -1.928  1.00  0.00    -0.502 OA
ATOM     22  H   UNL     1     -19.514  40.215  -2.589  1.00  0.00     0.293 HD
ENDBRANCH  17  21
BRANCH  18  23
ATOM     23  O   UNL     1     -16.941  39.880  -0.122  1.00  0.00    -0.504 OA
ATOM     24  H   UNL     1     -17.858  40.071   0.269  1.00  0.00     0.293 HD
ENDBRANCH  18  23
ENDBRANCH   3  13
BRANCH  10  25
ATOM     25  O   UNL     1      -9.812  34.241  -3.556  1.00  0.00    -0.507 OA
ATOM     26  H   UNL     1      -8.866  33.927  -3.714  1.00  0.00     0.293 HD
ENDBRANCH  10  25
BRANCH  11  27
ATOM     27  O   UNL     1      -8.875  38.452  -5.621  1.00  0.00    -0.508 OA
ATOM     28  H   UNL     1      -8.391  38.137  -6.453  1.00  0.00     0.293 HD
ENDBRANCH  11  27
ENDBRANCH   1   2
BRANCH   1  29
ATOM     29  C   UNL     1     -14.795  34.710  -0.566  1.00  0.00     0.339 C 
ATOM     30  C   UNL     1     -16.170  35.022   0.109  1.00  0.00     0.214 C 
ATOM     31  O   UNL     1     -13.728  35.429   0.037  1.00  0.00    -0.332 OA
ATOM     32  C   UNL     1     -16.017  36.027   1.265  1.00  0.00     0.180 C 
ATOM     33  C   UNL     1     -13.618  35.198   1.437  1.00  0.00     0.179 C 
ATOM     34  C   UNL     1     -14.922  35.546   2.225  1.00  0.00     0.177 C 
BRANCH  30  35
ATOM     35  O   UNL     1     -17.126  35.479  -0.819  1.00  0.00    -0.384 OA
ATOM     36  H   UNL     1     -17.623  36.228  -0.396  1.00  0.00     0.211 HD
ENDBRANCH  30  35
BRANCH  32  37
ATOM     37  O   UNL     1     -17.234  36.172   1.954  1.00  0.00    -0.387 OA
ATOM     38  H   UNL     1     -17.172  37.014   2.473  1.00  0.00     0.211 HD
ENDBRANCH  32  37
BRANCH  33  39
ATOM     39  C   UNL     1     -12.970  33.831   1.769  1.00  0.00     0.191 C 
BRANCH  39  40
ATOM     40  O   UNL     1     -12.580  33.749   3.113  1.00  0.00    -0.394 OA
ATOM     41  H   UNL     1     -13.383  33.973   3.655  1.00  0.00     0.210 HD
ENDBRANCH  39  40
ENDBRANCH  33  39
BRANCH  34  42
ATOM     42  O   UNL     1     -15.382  34.446   2.975  1.00  0.00    -0.387 OA
ATOM     43  H   UNL     1     -14.714  34.275   3.690  1.00  0.00     0.211 HD
ENDBRANCH  34  42
ENDBRANCH   1  29
TORSDOF 13
ENDMDL
MODEL 4
REMARK VINA RESULT:    -6.000      2.023      6.305
REMARK INTER + INTRA:         -10.808
REMARK INTER:                  -9.450
REMARK INTRA:                  -1.358
REMARK UNBOUND:                -1.826
REMARK SMILES O=c1c(O[C@H]2O[C@H](CO)[C@H](O)[C@H](O)[C@H]2O)c(-c2cc(O)c(O)c(O)c2)oc2cc(O)cc(O)c12
REMARK SMILES IDX 4 1 3 2 16 3 26 4 2 5 27 6 1 7 34 8 28 9 32 10 29 11 31 12
REMARK SMILES IDX 17 13 18 14 19 15 25 16 21 17 23 18 20 19 22 21 24 23 33 25
REMARK SMILES IDX 30 27 5 29 14 30 6 31 12 32 7 33 10 34 15 35 13 37 8 39 9 40
REMARK SMILES IDX 11 42
REMARK H PARENT 20 20 22 22 24 24 33 26 30 28 15 36 13 38 9 41 11 43
REMARK Flexibility Score: inf
ROOT
ATOM      1  O   UNL     1     -13.493  38.772  -1.077  1.00  0.00    -0.454 OA
ENDROOT
BRANCH   1   2
ATOM      2  C   UNL     1     -13.734  37.512  -0.501  1.00  0.00     0.214 A 
ATOM      3  C   UNL     1     -15.051  37.020  -0.479  1.00  0.00     0.181 A 
ATOM      4  O   UNL     1     -15.301  35.799  -0.026  1.00  0.00    -0.452 OA
ATOM      5  C   UNL     1     -12.701  36.690  -0.005  1.00  0.00     0.239 A 
ATOM      6  C   UNL     1     -14.358  34.980   0.422  1.00  0.00     0.146 A 
ATOM      7  O   UNL     1     -11.531  37.142   0.058  1.00  0.00    -0.285 OA
ATOM      8  C   UNL     1     -12.994  35.372   0.422  1.00  0.00     0.111 A 
ATOM      9  C   UNL     1     -14.738  33.723   0.902  1.00  0.00     0.094 A 
ATOM     10  C   UNL     1     -12.018  34.427   0.859  1.00  0.00     0.134 A 
ATOM     11  C   UNL     1     -13.779  32.834   1.390  1.00  0.00     0.123 A 
ATOM     12  C   UNL     1     -12.432  33.190   1.369  1.00  0.00     0.093 A 
BRANCH   3  13
ATOM     13  C   UNL     1     -16.191  37.842  -0.934  1.00  0.00     0.029 A 
ATOM     14  C   UNL     1     -16.747  38.801  -0.076  1.00  0.00     0.062 A 
ATOM     15  C   UNL     1     -17.818  39.597  -0.500  1.00  0.00     0.162 A 
ATOM     16  C   UNL     1     -16.692  37.715  -2.240  1.00  0.00     0.062 A 
ATOM     17  C   UNL     1     -18.332  39.449  -1.797  1.00  0.00     0.200 A 
ATOM     18  C   UNL     1     -17.765  38.506  -2.670  1.00  0.00     0.162 A 
BRANCH  15  19
ATOM     19  O   UNL     1     -18.385  40.533   0.363  1.00  0.00    -0.504 OA
ATOM     20  H   UNL     1     -17.852  40.951   1.117  1.00  0.00     0.293 HD
ENDBRANCH  15  19
BRANCH  17  21
ATOM     21  O   UNL     1     -19.408  40.241  -2.199  1.00  0.00    -0.502 OA
ATOM     22  H   UNL     1     -20.177  39.871  -2.744  1.00  0.00     0.293 HD
ENDBRANCH  17  21
BRANCH  18  23
ATOM     23  O   UNL     1     -18.268  38.356  -3.962  1.00  0.00    -0.504 OA
ATOM     24  H   UNL     1     -18.934  39.015  -4.352  1.00  0.00     0.293 HD
ENDBRANCH  18  23
ENDBRANCH   3  13
BRANCH  10  25
ATOM     25  O   UNL     1     -10.640  34.637   0.778  1.00  0.00    -0.507 OA
ATOM     26  H   UNL     1      -9.984  34.448   1.521  1.00  0.00     0.293 HD
ENDBRANCH  10  25
BRANCH  11  27
ATOM     27  O   UNL     1     -14.154  31.587   1.886  1.00  0.00    -0.508 OA
ATOM     28  H   UNL     1     -14.921  31.483   2.538  1.00  0.00     0.293 HD
ENDBRANCH  11  27
ENDBRANCH   1   2
BRANCH   1  29
ATOM     29  C   UNL     1     -12.685  39.022  -2.230  1.00  0.00     0.339 C 
ATOM     30  C   UNL     1     -13.123  40.369  -2.892  1.00  0.00     0.214 C 
ATOM     31  O   UNL     1     -12.802  37.925  -3.125  1.00  0.00    -0.332 OA
ATOM     32  C   UNL     1     -13.565  40.165  -4.353  1.00  0.00     0.180 C 
ATOM     33  C   UNL     1     -12.070  38.106  -4.333  1.00  0.00     0.179 C 
ATOM     34  C   UNL     1     -12.481  39.395  -5.116  1.00  0.00     0.177 C 
BRANCH  30  35
ATOM     35  O   UNL     1     -14.134  41.018  -2.157  1.00  0.00    -0.384 OA
ATOM     36  H   UNL     1     -15.004  40.811  -2.592  1.00  0.00     0.211 HD
ENDBRANCH  30  35
BRANCH  32  37
ATOM     37  O   UNL     1     -13.804  41.405  -4.971  1.00  0.00    -0.387 OA
ATOM     38  H   UNL     1     -12.935  41.883  -4.999  1.00  0.00     0.211 HD
ENDBRANCH  32  37
BRANCH  33  39
ATOM     39  C   UNL     1     -10.549  37.878  -4.150  1.00  0.00     0.191 C 
BRANCH  39  40
ATOM     40  O   UNL     1      -9.855  37.980  -5.364  1.00  0.00    -0.394 OA
ATOM     41  H   UNL     1      -9.988  37.116  -5.839  1.00  0.00     0.210 HD
ENDBRANCH  39  40
ENDBRANCH  33  39
BRANCH  34  42
ATOM     42  O   UNL     1     -11.371  40.229  -5.356  1.00  0.00    -0.387 OA
ATOM     43  H   UNL     1     -10.554  39.705  -5.142  1.00  0.00     0.211 HD
ENDBRANCH  34  42
ENDBRANCH   1  29
TORSDOF 13
ENDMDL
MODEL 5
REMARK VINA RESULT:    -5.988      2.645      6.342
REMARK INTER + INTRA:         -10.789
REMARK INTER:                  -9.048
REMARK INTRA:                  -1.741
REMARK UNBOUND:                -1.826
REMARK SMILES O=c1c(O[C@H]2O[C@H](CO)[C@H](O)[C@H](O)[C@H]2O)c(-c2cc(O)c(O)c(O)c2)oc2cc(O)cc(O)c12
REMARK SMILES IDX 4 1 3 2 16 3 26 4 2 5 27 6 1 7 34 8 28 9 32 10 29 11 31 12
REMARK SMILES IDX 17 13 18 14 19 15 25 16 21 17 23 18 20 19 22 21 24 23 33 25
REMARK SMILES IDX 30 27 5 29 14 30 6 31 12 32 7 33 10 34 15 35 13 37 8 39 9 40
REMARK SMILES IDX 11 42
REMARK H PARENT 20 20 22 22 24 24 33 26 30 28 15 36 13 38 9 41 11 43
REMARK Flexibility Score: inf
ROOT
ATOM      1  O   UNL     1     -13.538  38.790  -0.584  1.00  0.00    -0.454 OA
ENDROOT
BRANCH   1   2
ATOM      2  C   UNL     1     -13.814  37.498  -0.103  1.00  0.00     0.214 A 
ATOM      3  C   UNL     1     -15.128  37.007  -0.198  1.00  0.00     0.181 A 
ATOM      4  O   UNL     1     -15.404  35.761   0.162  1.00  0.00    -0.452 OA
ATOM      5  C   UNL     1     -12.813  36.646   0.408  1.00  0.00     0.239 A 
ATOM      6  C   UNL     1     -14.490  34.915   0.620  1.00  0.00     0.146 A 
ATOM      7  O   UNL     1     -11.651  37.091   0.574  1.00  0.00    -0.285 OA
ATOM      8  C   UNL     1     -13.131  35.304   0.733  1.00  0.00     0.111 A 
ATOM      9  C   UNL     1     -14.898  33.632   0.996  1.00  0.00     0.094 A 
ATOM     10  C   UNL     1     -12.183  34.333   1.175  1.00  0.00     0.134 A 
ATOM     11  C   UNL     1     -13.970  32.713   1.491  1.00  0.00     0.123 A 
ATOM     12  C   UNL     1     -12.626  33.067   1.579  1.00  0.00     0.093 A 
BRANCH   3  13
ATOM     13  C   UNL     1     -16.238  37.858  -0.675  1.00  0.00     0.029 A 
ATOM     14  C   UNL     1     -16.795  38.821   0.176  1.00  0.00     0.062 A 
ATOM     15  C   UNL     1     -17.838  39.644  -0.269  1.00  0.00     0.162 A 
ATOM     16  C   UNL     1     -16.707  37.752  -1.995  1.00  0.00     0.062 A 
ATOM     17  C   UNL     1     -18.321  39.517  -1.579  1.00  0.00     0.200 A 
ATOM     18  C   UNL     1     -17.751  38.570  -2.446  1.00  0.00     0.162 A 
BRANCH  15  19
ATOM     19  O   UNL     1     -18.407  40.585   0.587  1.00  0.00    -0.504 OA
ATOM     20  H   UNL     1     -18.467  41.564   0.334  1.00  0.00     0.293 HD
ENDBRANCH  15  19
BRANCH  17  21
ATOM     21  O   UNL     1     -19.369  40.336  -2.003  1.00  0.00    -0.502 OA
ATOM     22  H   UNL     1     -19.870  40.168  -2.866  1.00  0.00     0.293 HD
ENDBRANCH  17  21
BRANCH  18  23
ATOM     23  O   UNL     1     -18.223  38.441  -3.751  1.00  0.00    -0.504 OA
ATOM     24  H   UNL     1     -18.202  39.219  -4.402  1.00  0.00     0.293 HD
ENDBRANCH  18  23
ENDBRANCH   3  13
BRANCH  10  25
ATOM     25  O   UNL     1     -10.802  34.545   1.196  1.00  0.00    -0.507 OA
ATOM     26  H   UNL     1     -10.250  34.654   2.034  1.00  0.00     0.293 HD
ENDBRANCH  10  25
BRANCH  11  27
ATOM     27  O   UNL     1     -14.374  31.438   1.883  1.00  0.00    -0.508 OA
ATOM     28  H   UNL     1     -15.186  31.295   2.470  1.00  0.00     0.293 HD
ENDBRANCH  11  27
ENDBRANCH   1   2
BRANCH   1  29
ATOM     29  C   UNL     1     -13.034  39.108  -1.884  1.00  0.00     0.339 C 
ATOM     30  C   UNL     1     -11.703  39.916  -1.745  1.00  0.00     0.214 C 
ATOM     31  O   UNL     1     -14.025  39.832  -2.601  1.00  0.00    -0.332 OA
ATOM     32  C   UNL     1     -11.802  41.293  -2.428  1.00  0.00     0.180 C 
ATOM     33  C   UNL     1     -13.594  40.240  -3.895  1.00  0.00     0.179 C 
ATOM     34  C   UNL     1     -12.302  41.118  -3.867  1.00  0.00     0.177 C 
BRANCH  30  35
ATOM     35  O   UNL     1     -11.308  40.060  -0.401  1.00  0.00    -0.384 OA
ATOM     36  H   UNL     1     -10.314  40.048  -0.375  1.00  0.00     0.211 HD
ENDBRANCH  30  35
BRANCH  32  37
ATOM     37  O   UNL     1     -10.550  41.932  -2.425  1.00  0.00    -0.387 OA
ATOM     38  H   UNL     1     -10.527  42.520  -3.224  1.00  0.00     0.211 HD
ENDBRANCH  32  37
BRANCH  33  39
ATOM     39  C   UNL     1     -13.605  39.081  -4.922  1.00  0.00     0.191 C 
BRANCH  39  40
ATOM     40  O   UNL     1     -13.356  39.534  -6.225  1.00  0.00    -0.394 OA
ATOM     41  H   UNL     1     -12.413  39.295  -6.432  1.00  0.00     0.210 HD
ENDBRANCH  39  40
ENDBRANCH  33  39
BRANCH  34  42
ATOM     42  O   UNL     1     -11.285  40.567  -4.671  1.00  0.00    -0.387 OA
ATOM     43  H   UNL     1     -11.664  39.765  -5.119  1.00  0.00     0.211 HD
ENDBRANCH  34  42
ENDBRANCH   1  29
TORSDOF 13
ENDMDL
MODEL 6
REMARK VINA RESULT:    -5.968      2.857      6.764
REMARK INTER + INTRA:         -10.759
REMARK INTER:                  -9.807
REMARK INTRA:                  -0.952
REMARK UNBOUND:                -1.826
REMARK SMILES O=c1c(O[C@H]2O[C@H](CO)[C@H](O)[C@H](O)[C@H]2O)c(-c2cc(O)c(O)c(O)c2)oc2cc(O)cc(O)c12
REMARK SMILES IDX 4 1 3 2 16 3 26 4 2 5 27 6 1 7 34 8 28 9 32 10 29 11 31 12
REMARK SMILES IDX 17 13 18 14 19 15 25 16 21 17 23 18 20 19 22 21 24 23 33 25
REMARK SMILES IDX 30 27 5 29 14 30 6 31 12 32 7 33 10 34 15 35 13 37 8 39 9 40
REMARK SMILES IDX 11 42
REMARK H PARENT 20 20 22 22 24 24 33 26 30 28 15 36 13 38 9 41 11 43
REMARK Flexibility Score: inf
ROOT
ATOM      1  O   UNL     1     -13.522  39.841  -4.472  1.00  0.00    -0.454 OA
ENDROOT
BRANCH   1   2
ATOM      2  C   UNL     1     -13.078  38.565  -4.078  1.00  0.00     0.214 A 
ATOM      3  C   UNL     1     -13.980  37.708  -3.425  1.00  0.00     0.181 A 
ATOM      4  O   UNL     1     -13.623  36.467  -3.122  1.00  0.00    -0.452 OA
ATOM      5  C   UNL     1     -11.786  38.085  -4.372  1.00  0.00     0.239 A 
ATOM      6  C   UNL     1     -12.429  35.962  -3.405  1.00  0.00     0.146 A 
ATOM      7  O   UNL     1     -10.941  38.861  -4.882  1.00  0.00    -0.285 OA
ATOM      8  C   UNL     1     -11.453  36.738  -4.083  1.00  0.00     0.111 A 
ATOM      9  C   UNL     1     -12.150  34.650  -3.015  1.00  0.00     0.094 A 
ATOM     10  C   UNL     1     -10.209  36.123  -4.414  1.00  0.00     0.134 A 
ATOM     11  C   UNL     1     -10.903  34.082  -3.285  1.00  0.00     0.123 A 
ATOM     12  C   UNL     1      -9.944  34.819  -3.977  1.00  0.00     0.093 A 
BRANCH   3  13
ATOM     13  C   UNL     1     -15.334  38.157  -3.039  1.00  0.00     0.029 A 
ATOM     14  C   UNL     1     -16.431  37.847  -3.853  1.00  0.00     0.062 A 
ATOM     15  C   UNL     1     -17.721  38.254  -3.490  1.00  0.00     0.162 A 
ATOM     16  C   UNL     1     -15.544  38.845  -1.833  1.00  0.00     0.062 A 
ATOM     17  C   UNL     1     -17.924  38.964  -2.298  1.00  0.00     0.200 A 
ATOM     18  C   UNL     1     -16.831  39.258  -1.465  1.00  0.00     0.162 A 
BRANCH  15  19
ATOM     19  O   UNL     1     -18.809  37.965  -4.313  1.00  0.00    -0.504 OA
ATOM     20  H   UNL     1     -18.707  37.402  -5.149  1.00  0.00     0.293 HD
ENDBRANCH  15  19
BRANCH  17  21
ATOM     21  O   UNL     1     -19.214  39.373  -1.957  1.00  0.00    -0.502 OA
ATOM     22  H   UNL     1     -20.016  39.171  -2.541  1.00  0.00     0.293 HD
ENDBRANCH  17  21
BRANCH  18  23
ATOM     23  O   UNL     1     -17.026  39.960  -0.276  1.00  0.00    -0.504 OA
ATOM     24  H   UNL     1     -16.545  39.700   0.579  1.00  0.00     0.293 HD
ENDBRANCH  18  23
ENDBRANCH   3  13
BRANCH  10  25
ATOM     25  O   UNL     1      -9.224  36.729  -5.197  1.00  0.00    -0.507 OA
ATOM     26  H   UNL     1      -8.520  37.363  -4.848  1.00  0.00     0.293 HD
ENDBRANCH  10  25
BRANCH  11  27
ATOM     27  O   UNL     1     -10.613  32.780  -2.883  1.00  0.00    -0.508 OA
ATOM     28  H   UNL     1     -10.767  32.471  -1.931  1.00  0.00     0.293 HD
ENDBRANCH  11  27
ENDBRANCH   1   2
BRANCH   1  29
ATOM     29  C   UNL     1     -12.720  41.024  -4.530  1.00  0.00     0.339 C 
ATOM     30  C   UNL     1     -13.456  42.188  -3.790  1.00  0.00     0.214 C 
ATOM     31  O   UNL     1     -12.455  41.338  -5.890  1.00  0.00    -0.332 OA
ATOM     32  C   UNL     1     -13.700  43.387  -4.725  1.00  0.00     0.180 C 
ATOM     33  C   UNL     1     -11.703  42.536  -6.051  1.00  0.00     0.179 C 
ATOM     34  C   UNL     1     -12.386  43.785  -5.407  1.00  0.00     0.177 C 
BRANCH  30  35
ATOM     35  O   UNL     1     -14.664  41.766  -3.203  1.00  0.00    -0.384 OA
ATOM     36  H   UNL     1     -14.536  41.758  -2.218  1.00  0.00     0.211 HD
ENDBRANCH  30  35
BRANCH  32  37
ATOM     37  O   UNL     1     -14.219  44.475  -4.001  1.00  0.00    -0.387 OA
ATOM     38  H   UNL     1     -15.061  44.744  -4.452  1.00  0.00     0.211 HD
ENDBRANCH  32  37
BRANCH  33  39
ATOM     39  C   UNL     1     -10.200  42.345  -5.735  1.00  0.00     0.191 C 
BRANCH  39  40
ATOM     40  O   UNL     1      -9.696  41.157  -6.284  1.00  0.00    -0.394 OA
ATOM     41  H   UNL     1      -9.532  40.541  -5.521  1.00  0.00     0.210 HD
ENDBRANCH  39  40
ENDBRANCH  33  39
BRANCH  34  42
ATOM     42  O   UNL     1     -11.533  44.421  -4.483  1.00  0.00    -0.387 OA
ATOM     43  H   UNL     1     -11.291  43.749  -3.792  1.00  0.00     0.211 HD
ENDBRANCH  34  42
ENDBRANCH   1  29
TORSDOF 13
ENDMDL
MODEL 7
REMARK VINA RESULT:    -5.865      2.089      3.118
REMARK INTER + INTRA:         -10.605
REMARK INTER:                  -9.194
REMARK INTRA:                  -1.412
REMARK UNBOUND:                -1.826
REMARK SMILES O=c1c(O[C@H]2O[C@H](CO)[C@H](O)[C@H](O)[C@H]2O)c(-c2cc(O)c(O)c(O)c2)oc2cc(O)cc(O)c12
REMARK SMILES IDX 4 1 3 2 16 3 26 4 2 5 27 6 1 7 34 8 28 9 32 10 29 11 31 12
REMARK SMILES IDX 17 13 18 14 19 15 25 16 21 17 23 18 20 19 22 21 24 23 33 25
REMARK SMILES IDX 30 27 5 29 14 30 6 31 12 32 7 33 10 34 15 35 13 37 8 39 9 40
REMARK SMILES IDX 11 42
REMARK H PARENT 20 20 22 22 24 24 33 26 30 28 15 36 13 38 9 41 11 43
REMARK Flexibility Score: inf
ROOT
ATOM      1  O   UNL     1     -14.663  36.856  -2.989  1.00  0.00    -0.454 OA
ENDROOT
BRANCH   1   2
ATOM      2  C   UNL     1     -14.268  38.103  -3.506  1.00  0.00     0.214 A 
ATOM      3  C   UNL     1     -14.864  39.268  -2.990  1.00  0.00     0.181 A 
ATOM      4  O   UNL     1     -14.451  40.463  -3.390  1.00  0.00    -0.452 OA
ATOM      5  C   UNL     1     -13.251  38.240  -4.471  1.00  0.00     0.239 A 
ATOM      6  C   UNL     1     -13.478  40.641  -4.274  1.00  0.00     0.146 A 
ATOM      7  O   UNL     1     -12.762  37.211  -5.002  1.00  0.00    -0.285 OA
ATOM      8  C   UNL     1     -12.797  39.531  -4.837  1.00  0.00     0.111 A 
ATOM      9  C   UNL     1     -13.142  41.946  -4.643  1.00  0.00     0.094 A 
ATOM     10  C   UNL     1     -11.718  39.784  -5.737  1.00  0.00     0.134 A 
ATOM     11  C   UNL     1     -12.129  42.177  -5.576  1.00  0.00     0.123 A 
ATOM     12  C   UNL     1     -11.428  41.101  -6.117  1.00  0.00     0.093 A 
BRANCH   3  13
ATOM     13  C   UNL     1     -15.971  39.203  -2.014  1.00  0.00     0.029 A 
ATOM     14  C   UNL     1     -15.709  38.855  -0.683  1.00  0.00     0.062 A 
ATOM     15  C   UNL     1     -16.747  38.805   0.256  1.00  0.00     0.162 A 
ATOM     16  C   UNL     1     -17.281  39.544  -2.390  1.00  0.00     0.062 A 
ATOM     17  C   UNL     1     -18.058  39.120  -0.130  1.00  0.00     0.200 A 
ATOM     18  C   UNL     1     -18.325  39.494  -1.458  1.00  0.00     0.162 A 
BRANCH  15  19
ATOM     19  O   UNL     1     -16.488  38.434   1.575  1.00  0.00    -0.504 OA
ATOM     20  H   UNL     1     -16.136  37.513   1.808  1.00  0.00     0.293 HD
ENDBRANCH  15  19
BRANCH  17  21
ATOM     21  O   UNL     1     -19.083  39.053   0.814  1.00  0.00    -0.502 OA
ATOM     22  H   UNL     1     -19.021  38.467   1.638  1.00  0.00     0.293 HD
ENDBRANCH  17  21
BRANCH  18  23
ATOM     23  O   UNL     1     -19.625  39.812  -1.848  1.00  0.00    -0.504 OA
ATOM     24  H   UNL     1     -19.870  39.942  -2.824  1.00  0.00     0.293 HD
ENDBRANCH  18  23
ENDBRANCH   3  13
BRANCH  10  25
ATOM     25  O   UNL     1     -10.881  38.790  -6.249  1.00  0.00    -0.507 OA
ATOM     26  H   UNL     1      -9.873  38.805  -6.200  1.00  0.00     0.293 HD
ENDBRANCH  10  25
BRANCH  11  27
ATOM     27  O   UNL     1     -11.802  43.475  -5.962  1.00  0.00    -0.508 OA
ATOM     28  H   UNL     1     -10.871  43.717  -6.280  1.00  0.00     0.293 HD
ENDBRANCH  11  27
ENDBRANCH   1   2
BRANCH   1  29
ATOM     29  C   UNL     1     -14.053  36.178  -1.887  1.00  0.00     0.339 C 
ATOM     30  C   UNL     1     -13.278  34.926  -2.410  1.00  0.00     0.214 C 
ATOM     31  O   UNL     1     -15.058  35.829  -0.945  1.00  0.00    -0.332 OA
ATOM     32  C   UNL     1     -13.797  33.628  -1.764  1.00  0.00     0.180 C 
ATOM     33  C   UNL     1     -14.552  35.100   0.169  1.00  0.00     0.179 C 
ATOM     34  C   UNL     1     -13.815  33.784  -0.238  1.00  0.00     0.177 C 
BRANCH  30  35
ATOM     35  O   UNL     1     -13.315  34.826  -3.814  1.00  0.00    -0.384 OA
ATOM     36  H   UNL     1     -13.534  33.884  -4.045  1.00  0.00     0.211 HD
ENDBRANCH  30  35
BRANCH  32  37
ATOM     37  O   UNL     1     -12.985  32.539  -2.129  1.00  0.00    -0.387 OA
ATOM     38  H   UNL     1     -13.051  31.874  -1.396  1.00  0.00     0.211 HD
ENDBRANCH  32  37
BRANCH  33  39
ATOM     39  C   UNL     1     -13.817  36.002   1.190  1.00  0.00     0.191 C 
BRANCH  39  40
ATOM     40  O   UNL     1     -14.635  36.336   2.278  1.00  0.00    -0.394 OA
ATOM     41  H   UNL     1     -14.238  37.149   2.692  1.00  0.00     0.210 HD
ENDBRANCH  39  40
ENDBRANCH  33  39
BRANCH  34  42
ATOM     42  O   UNL     1     -12.501  33.750   0.269  1.00  0.00    -0.387 OA
ATOM     43  H   UNL     1     -11.885  33.666  -0.507  1.00  0.00     0.211 HD
ENDBRANCH  34  42
ENDBRANCH   1  29
TORSDOF 13
ENDMDL
MODEL 8
REMARK VINA RESULT:    -5.850      2.438      4.744
REMARK INTER + INTRA:         -10.583
REMARK INTER:                  -9.042
REMARK INTRA:                  -1.541
REMARK UNBOUND:                -1.826
REMARK SMILES O=c1c(O[C@H]2O[C@H](CO)[C@H](O)[C@H](O)[C@H]2O)c(-c2cc(O)c(O)c(O)c2)oc2cc(O)cc(O)c12
REMARK SMILES IDX 4 1 3 2 16 3 26 4 2 5 27 6 1 7 34 8 28 9 32 10 29 11 31 12
REMARK SMILES IDX 17 13 18 14 19 15 25 16 21 17 23 18 20 19 22 21 24 23 33 25
REMARK SMILES IDX 30 27 5 29 14 30 6 31 12 32 7 33 10 34 15 35 13 37 8 39 9 40
REMARK SMILES IDX 11 42
REMARK H PARENT 20 20 22 22 24 24 33 26 30 28 15 36 13 38 9 41 11 43
REMARK Flexibility Score: inf
ROOT
ATOM      1  O   UNL     1     -15.264  36.983  -2.649  1.00  0.00    -0.454 OA
ENDROOT
BRANCH   1   2
ATOM      2  C   UNL     1     -14.864  38.324  -2.789  1.00  0.00     0.214 A 
ATOM      3  C   UNL     1     -14.976  39.181  -1.681  1.00  0.00     0.181 A 
ATOM      4  O   UNL     1     -14.523  40.426  -1.750  1.00  0.00    -0.452 OA
ATOM      5  C   UNL     1     -14.290  38.828  -3.974  1.00  0.00     0.239 A 
ATOM      6  C   UNL     1     -13.950  40.934  -2.833  1.00  0.00     0.146 A 
ATOM      7  O   UNL     1     -14.255  38.102  -4.998  1.00  0.00    -0.285 OA
ATOM      8  C   UNL     1     -13.769  40.145  -3.998  1.00  0.00     0.111 A 
ATOM      9  C   UNL     1     -13.534  42.268  -2.805  1.00  0.00     0.094 A 
ATOM     10  C   UNL     1     -13.092  40.726  -5.112  1.00  0.00     0.134 A 
ATOM     11  C   UNL     1     -12.934  42.845  -3.926  1.00  0.00     0.123 A 
ATOM     12  C   UNL     1     -12.720  42.076  -5.068  1.00  0.00     0.093 A 
BRANCH   3  13
ATOM     13  C   UNL     1     -15.612  38.740  -0.422  1.00  0.00     0.029 A 
ATOM     14  C   UNL     1     -16.961  39.031  -0.182  1.00  0.00     0.062 A 
ATOM     15  C   UNL     1     -17.580  38.606   1.000  1.00  0.00     0.162 A 
ATOM     16  C   UNL     1     -14.895  37.979   0.516  1.00  0.00     0.062 A 
ATOM     17  C   UNL     1     -16.853  37.868   1.946  1.00  0.00     0.200 A 
ATOM     18  C   UNL     1     -15.507  37.551   1.701  1.00  0.00     0.162 A 
BRANCH  15  19
ATOM     19  O   UNL     1     -18.916  38.918   1.248  1.00  0.00    -0.504 OA
ATOM     20  H   UNL     1     -19.404  38.554   2.058  1.00  0.00     0.293 HD
ENDBRANCH  15  19
BRANCH  17  21
ATOM     21  O   UNL     1     -17.482  37.462   3.124  1.00  0.00    -0.502 OA
ATOM     22  H   UNL     1     -18.153  38.047   3.607  1.00  0.00     0.293 HD
ENDBRANCH  17  21
BRANCH  18  23
ATOM     23  O   UNL     1     -14.780  36.815   2.635  1.00  0.00    -0.504 OA
ATOM     24  H   UNL     1     -15.118  35.927   2.991  1.00  0.00     0.293 HD
ENDBRANCH  18  23
ENDBRANCH   3  13
BRANCH  10  25
ATOM     25  O   UNL     1     -12.729  40.018  -6.259  1.00  0.00    -0.507 OA
ATOM     26  H   UNL     1     -12.525  39.030  -6.285  1.00  0.00     0.293 HD
ENDBRANCH  10  25
BRANCH  11  27
ATOM     27  O   UNL     1     -12.533  44.179  -3.909  1.00  0.00    -0.508 OA
ATOM     28  H   UNL     1     -11.820  44.528  -4.538  1.00  0.00     0.293 HD
ENDBRANCH  11  27
ENDBRANCH   1   2
BRANCH   1  29
ATOM     29  C   UNL     1     -14.400  35.844  -2.689  1.00  0.00     0.339 C 
ATOM     30  C   UNL     1     -14.942  34.744  -1.719  1.00  0.00     0.214 C 
ATOM     31  O   UNL     1     -13.082  36.251  -2.350  1.00  0.00    -0.332 OA
ATOM     32  C   UNL     1     -13.903  34.375  -0.644  1.00  0.00     0.180 C 
ATOM     33  C   UNL     1     -12.155  35.172  -2.311  1.00  0.00     0.179 C 
ATOM     34  C   UNL     1     -12.565  34.040  -1.315  1.00  0.00     0.177 C 
BRANCH  30  35
ATOM     35  O   UNL     1     -16.160  35.118  -1.119  1.00  0.00    -0.384 OA
ATOM     36  H   UNL     1     -16.683  35.632  -1.791  1.00  0.00     0.211 HD
ENDBRANCH  30  35
BRANCH  32  37
ATOM     37  O   UNL     1     -14.351  33.280   0.115  1.00  0.00    -0.387 OA
ATOM     38  H   UNL     1     -14.050  32.461  -0.358  1.00  0.00     0.211 HD
ENDBRANCH  32  37
BRANCH  33  39
ATOM     39  C   UNL     1     -11.718  34.707  -3.723  1.00  0.00     0.191 C 
BRANCH  39  40
ATOM     40  O   UNL     1     -10.635  33.818  -3.670  1.00  0.00    -0.394 OA
ATOM     41  H   UNL     1      -9.968  34.146  -4.330  1.00  0.00     0.210 HD
ENDBRANCH  39  40
ENDBRANCH  33  39
BRANCH  34  42
ATOM     42  O   UNL     1     -12.643  32.789  -1.957  1.00  0.00    -0.387 OA
ATOM     43  H   UNL     1     -12.445  32.093  -1.276  1.00  0.00     0.211 HD
ENDBRANCH  34  42
ENDBRANCH   1  29
TORSDOF 13
ENDMDL
MODEL 9
REMARK VINA RESULT:    -5.809      1.643      5.284
REMARK INTER + INTRA:         -10.521
REMARK INTER:                  -8.937
REMARK INTRA:                  -1.584
REMARK UNBOUND:                -1.826
REMARK SMILES O=c1c(O[C@H]2O[C@H](CO)[C@H](O)[C@H](O)[C@H]2O)c(-c2cc(O)c(O)c(O)c2)oc2cc(O)cc(O)c12
REMARK SMILES IDX 4 1 3 2 16 3 26 4 2 5 27 6 1 7 34 8 28 9 32 10 29 11 31 12
REMARK SMILES IDX 17 13 18 14 19 15 25 16 21 17 23 18 20 19 22 21 24 23 33 25
REMARK SMILES IDX 30 27 5 29 14 30 6 31 12 32 7 33 10 34 15 35 13 37 8 39 9 40
REMARK SMILES IDX 11 42
REMARK H PARENT 20 20 22 22 24 24 33 26 30 28 15 36 13 38 9 41 11 43
REMARK Flexibility Score: inf
ROOT
ATOM      1  O   UNL     1     -15.444  36.334  -2.078  1.00  0.00    -0.454 OA
ENDROOT
BRANCH   1   2
ATOM      2  C   UNL     1     -14.203  36.797  -2.553  1.00  0.00     0.214 A 
ATOM      3  C   UNL     1     -13.029  36.346  -1.926  1.00  0.00     0.181 A 
ATOM      4  O   UNL     1     -11.841  36.689  -2.405  1.00  0.00    -0.452 OA
ATOM      5  C   UNL     1     -14.085  37.639  -3.677  1.00  0.00     0.239 A 
ATOM      6  C   UNL     1     -11.680  37.455  -3.477  1.00  0.00     0.146 A 
ATOM      7  O   UNL     1     -15.121  38.115  -4.202  1.00  0.00    -0.285 OA
ATOM      8  C   UNL     1     -12.802  37.943  -4.196  1.00  0.00     0.111 A 
ATOM      9  C   UNL     1     -10.381  37.777  -3.879  1.00  0.00     0.094 A 
ATOM     10  C   UNL     1     -12.568  38.712  -5.375  1.00  0.00     0.134 A 
ATOM     11  C   UNL     1     -10.167  38.586  -4.996  1.00  0.00     0.123 A 
ATOM     12  C   UNL     1     -11.256  39.049  -5.732  1.00  0.00     0.093 A 
BRANCH   3  13
ATOM     13  C   UNL     1     -13.074  35.503  -0.713  1.00  0.00     0.029 A 
ATOM     14  C   UNL     1     -13.517  34.177  -0.801  1.00  0.00     0.062 A 
ATOM     15  C   UNL     1     -13.550  33.363   0.338  1.00  0.00     0.162 A 
ATOM     16  C   UNL     1     -12.623  35.997   0.522  1.00  0.00     0.062 A 
ATOM     17  C   UNL     1     -13.123  33.868   1.575  1.00  0.00     0.200 A 
ATOM     18  C   UNL     1     -12.655  35.190   1.666  1.00  0.00     0.162 A 
BRANCH  15  19
ATOM     19  O   UNL     1     -14.014  32.050   0.254  1.00  0.00    -0.504 OA
ATOM     20  H   UNL     1     -14.409  31.575   1.057  1.00  0.00     0.293 HD
ENDBRANCH  15  19
BRANCH  17  21
ATOM     21  O   UNL     1     -13.175  33.048   2.702  1.00  0.00    -0.502 OA
ATOM     22  H   UNL     1     -12.801  33.337   3.598  1.00  0.00     0.293 HD
ENDBRANCH  17  21
BRANCH  18  23
ATOM     23  O   UNL     1     -12.226  35.697   2.891  1.00  0.00    -0.504 OA
ATOM     24  H   UNL     1     -11.254  35.640   3.178  1.00  0.00     0.293 HD
ENDBRANCH  18  23
ENDBRANCH   3  13
BRANCH  10  25
ATOM     25  O   UNL     1     -13.577  39.131  -6.245  1.00  0.00    -0.507 OA
ATOM     26  H   UNL     1     -13.952  40.067  -6.282  1.00  0.00     0.293 HD
ENDBRANCH  10  25
BRANCH  11  27
ATOM     27  O   UNL     1      -8.875  38.924  -5.391  1.00  0.00    -0.508 OA
ATOM     28  H   UNL     1      -8.545  39.882  -5.367  1.00  0.00     0.293 HD
ENDBRANCH  11  27
ENDBRANCH   1   2
BRANCH   1  29
ATOM     29  C   UNL     1     -16.276  37.003  -1.125  1.00  0.00     0.339 C 
ATOM     30  C   UNL     1     -17.504  37.633  -1.857  1.00  0.00     0.214 C 
ATOM     31  O   UNL     1     -15.503  37.979  -0.440  1.00  0.00    -0.332 OA
ATOM     32  C   UNL     1     -17.570  39.157  -1.644  1.00  0.00     0.180 C 
ATOM     33  C   UNL     1     -16.261  38.736   0.497  1.00  0.00     0.179 C 
ATOM     34  C   UNL     1     -17.481  39.471  -0.145  1.00  0.00     0.177 C 
BRANCH  30  35
ATOM     35  O   UNL     1     -17.518  37.328  -3.232  1.00  0.00    -0.384 OA
ATOM     36  H   UNL     1     -16.597  37.460  -3.581  1.00  0.00     0.211 HD
ENDBRANCH  30  35
BRANCH  32  37
ATOM     37  O   UNL     1     -18.762  39.677  -2.177  1.00  0.00    -0.387 OA
ATOM     38  H   UNL     1     -18.645  39.708  -3.162  1.00  0.00     0.211 HD
ENDBRANCH  32  37
BRANCH  33  39
ATOM     39  C   UNL     1     -16.550  37.955   1.803  1.00  0.00     0.191 C 
BRANCH  39  40
ATOM     40  O   UNL     1     -16.958  38.804   2.841  1.00  0.00    -0.394 OA
ATOM     41  H   UNL     1     -17.411  39.578   2.411  1.00  0.00     0.210 HD
ENDBRANCH  39  40
ENDBRANCH  33  39
BRANCH  34  42
ATOM     42  O   UNL     1     -18.687  39.127   0.495  1.00  0.00    -0.387 OA
ATOM     43  H   UNL     1     -18.580  38.206   0.854  1.00  0.00     0.211 HD
ENDBRANCH  34  42
ENDBRANCH   1  29
TORSDOF 13
ENDMDL
