MODEL 1
REMARK VINA RESULT:    -4.332      0.000      0.000
REMARK INTER + INTRA:          -6.510
REMARK INTER:                  -6.611
REMARK INTRA:                   0.102
REMARK UNBOUND:                 0.102
REMARK SMILES CC1=CCC[C@@H](C)C(=O)C[C@H](C(C)C)C(=O)C1
REMARK SMILES IDX 8 1 9 2 6 3 7 4 5 5 4 6 3 7 2 8 1 9 10 11 11 12 15 13 16 14
REMARK SMILES IDX 17 15 12 17 13 18 14 19
REMARK H PARENT
REMARK Flexibility Score: 70.00
ROOT
ATOM      1  C   UNL     1      13.194  17.705  54.485  1.00  0.00     0.136 C 
ATOM      2  O   UNL     1      13.021  18.665  53.748  1.00  0.00    -0.299 OA
ENDROOT
BRANCH   1   3
ATOM      3  C   UNL     1      12.356  16.453  54.304  1.00  0.00     0.053 C 
ATOM      4  C   UNL     1      12.428  16.000  52.841  1.00  0.00     0.016 C 
BRANCH   3   5
ATOM      5  C   UNL     1      10.887  16.663  54.726  1.00  0.00     0.015 C 
BRANCH   5   6
ATOM      6  C   UNL     1      10.571  18.059  55.290  1.00  0.00     0.028 C 
BRANCH   6   7
ATOM      7  C   UNL     1      10.346  18.087  56.785  1.00  0.00    -0.028 C 
ATOM      8  C   UNL     1      10.932  18.892  57.709  1.00  0.00    -0.070 CG0
ATOM      9  C   UNL     1      10.422  18.776  59.127  1.00  0.00     0.039 C 
ATOM     10  G   UNL     1      12.119  19.818  57.463  1.00  0.00     0.000 G0
ENDBRANCH   6   7
ENDBRANCH   5   6
ENDBRANCH   3   5
ENDBRANCH   1   3
BRANCH   1  11
ATOM     11  C   UNL     1      14.282  17.767  55.527  1.00  0.00     0.087 C 
BRANCH  11  12
ATOM     12  C   UNL     1      14.361  19.141  56.250  1.00  0.00     0.066 C 
BRANCH  12  13
ATOM     13  C   UNL     1      13.476  19.191  57.492  1.00  0.00     0.140 C 
ATOM     14  O   UNL     1      13.816  18.560  58.483  1.00  0.00    -0.299 OA
BRANCH  13  15
ATOM     15  C   UNL     1      12.114  19.837  57.465  1.00  0.00     0.106 CG0
ATOM     16  G   UNL     1      10.935  18.903  57.717  1.00  0.00     0.000 G0
ENDBRANCH  13  15
ENDBRANCH  12  13
BRANCH  12  17
ATOM     17  C   UNL     1      15.832  19.517  56.621  1.00  0.00    -0.006 C 
ATOM     18  C   UNL     1      16.793  19.359  55.427  1.00  0.00     0.008 C 
ATOM     19  C   UNL     1      15.931  20.960  57.149  1.00  0.00     0.008 C 
ENDBRANCH  12  17
ENDBRANCH  11  12
ENDBRANCH   1  11
TORSDOF 1
ENDMDL
MODEL 2
REMARK VINA RESULT:    -4.212      2.872      5.537
REMARK INTER + INTRA:          -6.327
REMARK INTER:                  -6.167
REMARK INTRA:                  -0.160
REMARK UNBOUND:                 0.102
REMARK SMILES CC1=CCC[C@@H](C)C(=O)C[C@H](C(C)C)C(=O)C1
REMARK SMILES IDX 8 1 9 2 6 3 7 4 5 5 4 6 3 7 2 8 1 9 10 11 11 12 15 13 16 14
REMARK SMILES IDX 17 15 12 17 13 18 14 19
REMARK H PARENT
REMARK Flexibility Score: 70.00
ROOT
ATOM      1  C   UNL     1       8.629  21.199  56.947  1.00  0.00     0.136 C 
ATOM      2  O   UNL     1       7.493  20.827  56.689  1.00  0.00    -0.299 OA
ENDROOT
BRANCH   1   3
ATOM      3  C   UNL     1       9.367  22.103  55.977  1.00  0.00     0.053 C 
ATOM      4  C   UNL     1       8.434  23.230  55.522  1.00  0.00     0.016 C 
BRANCH   3   5
ATOM      5  C   UNL     1       9.911  21.334  54.755  1.00  0.00     0.015 C 
BRANCH   5   6
ATOM      6  C   UNL     1       9.654  19.817  54.782  1.00  0.00     0.028 C 
BRANCH   6   7
ATOM      7  C   UNL     1      10.911  18.976  54.780  1.00  0.00    -0.028 C 
ATOM      8  C   UNL     1      11.770  18.746  55.808  1.00  0.00    -0.070 CG0
ATOM      9  C   UNL     1      12.886  17.760  55.548  1.00  0.00     0.039 C 
ATOM     10  G   UNL     1      11.768  19.467  57.152  1.00  0.00     0.000 G0
ENDBRANCH   6   7
ENDBRANCH   5   6
ENDBRANCH   3   5
ENDBRANCH   1   3
BRANCH   1  11
ATOM     11  C   UNL     1       9.253  20.794  58.259  1.00  0.00     0.087 C 
BRANCH  11  12
ATOM     12  C   UNL     1       9.437  19.258  58.403  1.00  0.00     0.066 C 
BRANCH  12  13
ATOM     13  C   UNL     1      10.893  18.832  58.232  1.00  0.00     0.140 C 
ATOM     14  O   UNL     1      11.392  18.094  59.069  1.00  0.00    -0.299 OA
BRANCH  13  15
ATOM     15  C   UNL     1      11.775  19.445  57.174  1.00  0.00     0.106 CG0
ATOM     16  G   UNL     1      11.759  18.749  55.817  1.00  0.00     0.000 G0
ENDBRANCH  13  15
ENDBRANCH  12  13
BRANCH  12  17
ATOM     17  C   UNL     1       8.878  18.731  59.764  1.00  0.00    -0.006 C 
ATOM     18  C   UNL     1       9.084  19.740  60.909  1.00  0.00     0.008 C 
ATOM     19  C   UNL     1       7.379  18.393  59.667  1.00  0.00     0.008 C 
ENDBRANCH  12  17
ENDBRANCH  11  12
ENDBRANCH   1  11
TORSDOF 1
ENDMDL
MODEL 3
REMARK VINA RESULT:    -4.210      1.771      3.826
REMARK INTER + INTRA:          -6.323
REMARK INTER:                  -6.616
REMARK INTRA:                   0.293
REMARK UNBOUND:                 0.102
REMARK SMILES CC1=CCC[C@@H](C)C(=O)C[C@H](C(C)C)C(=O)C1
REMARK SMILES IDX 8 1 9 2 6 3 7 4 5 5 4 6 3 7 2 8 1 9 10 11 11 12 15 13 16 14
REMARK SMILES IDX 17 15 12 17 13 18 14 19
REMARK H PARENT
REMARK Flexibility Score: 70.00
ROOT
ATOM      1  C   UNL     1      12.675  18.959  58.221  1.00  0.00     0.136 C 
ATOM      2  O   UNL     1      13.244  18.476  59.190  1.00  0.00    -0.299 OA
ENDROOT
BRANCH   1   3
ATOM      3  C   UNL     1      11.160  19.018  58.187  1.00  0.00     0.053 C 
ATOM      4  C   UNL     1      10.594  18.293  59.414  1.00  0.00     0.016 C 
BRANCH   3   5
ATOM      5  C   UNL     1      10.577  18.412  56.894  1.00  0.00     0.015 C 
BRANCH   5   6
ATOM      6  C   UNL     1      10.323  19.426  55.764  1.00  0.00     0.028 C 
BRANCH   6   7
ATOM      7  C   UNL     1      10.459  18.850  54.373  1.00  0.00    -0.028 C 
ATOM      8  C   UNL     1      11.597  18.538  53.699  1.00  0.00    -0.070 CG0
ATOM      9  C   UNL     1      11.425  17.861  52.359  1.00  0.00     0.039 C 
ATOM     10  G   UNL     1      13.016  18.902  54.126  1.00  0.00     0.000 G0
ENDBRANCH   6   7
ENDBRANCH   5   6
ENDBRANCH   3   5
ENDBRANCH   1   3
BRANCH   1  11
ATOM     11  C   UNL     1      13.501  19.539  57.100  1.00  0.00     0.087 C 
BRANCH  11  12
ATOM     12  C   UNL     1      14.371  18.480  56.368  1.00  0.00     0.066 C 
BRANCH  12  13
ATOM     13  C   UNL     1      13.704  17.964  55.096  1.00  0.00     0.140 C 
ATOM     14  O   UNL     1      13.846  16.789  54.791  1.00  0.00    -0.299 OA
BRANCH  13  15
ATOM     15  C   UNL     1      13.042  18.900  54.117  1.00  0.00     0.106 CG0
ATOM     16  G   UNL     1      11.614  18.540  53.721  1.00  0.00     0.000 G0
ENDBRANCH  13  15
ENDBRANCH  12  13
BRANCH  12  17
ATOM     17  C   UNL     1      15.799  19.026  56.044  1.00  0.00    -0.006 C 
ATOM     18  C   UNL     1      15.802  19.963  54.822  1.00  0.00     0.008 C 
ATOM     19  C   UNL     1      16.402  19.778  57.245  1.00  0.00     0.008 C 
ENDBRANCH  12  17
ENDBRANCH  11  12
ENDBRANCH   1  11
TORSDOF 1
ENDMDL
MODEL 4
REMARK VINA RESULT:    -4.089      2.191      4.995
REMARK INTER + INTRA:          -6.138
REMARK INTER:                  -5.808
REMARK INTRA:                  -0.330
REMARK UNBOUND:                 0.102
REMARK SMILES CC1=CCC[C@@H](C)C(=O)C[C@H](C(C)C)C(=O)C1
REMARK SMILES IDX 8 1 9 2 6 3 7 4 5 5 4 6 3 7 2 8 1 9 10 11 11 12 15 13 16 14
REMARK SMILES IDX 17 15 12 17 13 18 14 19
REMARK H PARENT
REMARK Flexibility Score: 70.00
ROOT
ATOM      1  C   UNL     1      13.043  19.097  57.043  1.00  0.00     0.136 C 
ATOM      2  O   UNL     1      13.191  19.972  57.884  1.00  0.00    -0.299 OA
ENDROOT
BRANCH   1   3
ATOM      3  C   UNL     1      14.256  18.484  56.369  1.00  0.00     0.053 C 
ATOM      4  C   UNL     1      15.495  19.329  56.685  1.00  0.00     0.016 C 
BRANCH   3   5
ATOM      5  C   UNL     1      14.076  18.352  54.842  1.00  0.00     0.015 C 
BRANCH   5   6
ATOM      6  C   UNL     1      13.503  17.003  54.375  1.00  0.00     0.028 C 
BRANCH   6   7
ATOM      7  C   UNL     1      12.613  17.097  53.155  1.00  0.00    -0.028 C 
ATOM      8  C   UNL     1      11.308  17.471  53.093  1.00  0.00    -0.070 CG0
ATOM      9  C   UNL     1      10.704  17.587  51.712  1.00  0.00     0.039 C 
ATOM     10  G   UNL     1      10.381  17.680  54.286  1.00  0.00     0.000 G0
ENDBRANCH   6   7
ENDBRANCH   5   6
ENDBRANCH   3   5
ENDBRANCH   1   3
BRANCH   1  11
ATOM     11  C   UNL     1      11.651  18.604  56.734  1.00  0.00     0.087 C 
BRANCH  11  12
ATOM     12  C   UNL     1      10.775  19.659  56.003  1.00  0.00     0.066 C 
BRANCH  12  13
ATOM     13  C   UNL     1      10.156  19.108  54.722  1.00  0.00     0.140 C 
ATOM     14  O   UNL     1       9.344  19.793  54.118  1.00  0.00    -0.299 OA
BRANCH  13  15
ATOM     15  C   UNL     1      10.375  17.680  54.290  1.00  0.00     0.106 CG0
ATOM     16  G   UNL     1      11.316  17.485  53.106  1.00  0.00     0.000 G0
ENDBRANCH  13  15
ENDBRANCH  12  13
BRANCH  12  17
ATOM     17  C   UNL     1       9.660  20.234  56.936  1.00  0.00    -0.006 C 
ATOM     18  C   UNL     1       9.674  19.582  58.331  1.00  0.00     0.008 C 
ATOM     19  C   UNL     1       9.792  21.759  57.101  1.00  0.00     0.008 C 
ENDBRANCH  12  17
ENDBRANCH  11  12
ENDBRANCH   1  11
TORSDOF 1
ENDMDL
MODEL 5
REMARK VINA RESULT:    -4.074      1.991      4.503
REMARK INTER + INTRA:          -6.116
REMARK INTER:                  -5.840
REMARK INTRA:                  -0.276
REMARK UNBOUND:                 0.102
REMARK SMILES CC1=CCC[C@@H](C)C(=O)C[C@H](C(C)C)C(=O)C1
REMARK SMILES IDX 8 1 9 2 6 3 7 4 5 5 4 6 3 7 2 8 1 9 10 11 11 12 15 13 16 14
REMARK SMILES IDX 17 15 12 17 13 18 14 19
REMARK H PARENT
REMARK Flexibility Score: 70.00
ROOT
ATOM      1  C   UNL     1      11.146  19.129  58.990  1.00  0.00     0.136 C 
ATOM      2  O   UNL     1      11.780  18.354  59.693  1.00  0.00    -0.299 OA
ENDROOT
BRANCH   1   3
ATOM      3  C   UNL     1       9.729  19.511  59.373  1.00  0.00     0.053 C 
ATOM      4  C   UNL     1       9.170  18.474  60.354  1.00  0.00     0.016 C 
BRANCH   3   5
ATOM      5  C   UNL     1       8.803  19.638  58.146  1.00  0.00     0.015 C 
BRANCH   5   6
ATOM      6  C   UNL     1       8.163  18.317  57.682  1.00  0.00     0.028 C 
BRANCH   6   7
ATOM      7  C   UNL     1       7.949  18.225  56.188  1.00  0.00    -0.028 C 
ATOM      8  C   UNL     1       8.812  17.768  55.242  1.00  0.00    -0.070 CG0
ATOM      9  C   UNL     1       8.281  17.680  53.829  1.00  0.00     0.039 C 
ATOM     10  G   UNL     1      10.285  17.440  55.460  1.00  0.00     0.000 G0
ENDBRANCH   6   7
ENDBRANCH   5   6
ENDBRANCH   3   5
ENDBRANCH   1   3
BRANCH   1  11
ATOM     11  C   UNL     1      11.814  19.734  57.780  1.00  0.00     0.087 C 
BRANCH  11  12
ATOM     12  C   UNL     1      12.236  18.678  56.721  1.00  0.00     0.066 C 
BRANCH  12  13
ATOM     13  C   UNL     1      11.241  18.589  55.567  1.00  0.00     0.140 C 
ATOM     14  O   UNL     1      11.109  19.554  54.827  1.00  0.00    -0.299 OA
BRANCH  13  15
ATOM     15  C   UNL     1      10.291  17.426  55.432  1.00  0.00     0.106 CG0
ATOM     16  G   UNL     1       8.821  17.791  55.259  1.00  0.00     0.000 G0
ENDBRANCH  13  15
ENDBRANCH  12  13
BRANCH  12  17
ATOM     17  C   UNL     1      13.674  18.951  56.172  1.00  0.00    -0.006 C 
ATOM     18  C   UNL     1      14.682  19.247  57.299  1.00  0.00     0.008 C 
ATOM     19  C   UNL     1      14.197  17.764  55.341  1.00  0.00     0.008 C 
ENDBRANCH  12  17
ENDBRANCH  11  12
ENDBRANCH   1  11
TORSDOF 1
ENDMDL
MODEL 6
REMARK VINA RESULT:    -4.030      4.635      6.262
REMARK INTER + INTRA:          -6.048
REMARK INTER:                  -5.668
REMARK INTRA:                  -0.381
REMARK UNBOUND:                 0.102
REMARK SMILES CC1=CCC[C@@H](C)C(=O)C[C@H](C(C)C)C(=O)C1
REMARK SMILES IDX 8 1 9 2 6 3 7 4 5 5 4 6 3 7 2 8 1 9 10 11 11 12 15 13 16 14
REMARK SMILES IDX 17 15 12 17 13 18 14 19
REMARK H PARENT
REMARK Flexibility Score: 70.00
ROOT
ATOM      1  C   UNL     1      10.101  21.248  56.942  1.00  0.00     0.136 C 
ATOM      2  O   UNL     1      10.846  21.598  57.846  1.00  0.00    -0.299 OA
ENDROOT
BRANCH   1   3
ATOM      3  C   UNL     1       9.677  22.248  55.882  1.00  0.00     0.053 C 
ATOM      4  C   UNL     1       8.429  22.999  56.361  1.00  0.00     0.016 C 
BRANCH   3   5
ATOM      5  C   UNL     1       9.408  21.581  54.518  1.00  0.00     0.015 C 
BRANCH   5   6
ATOM      6  C   UNL     1       7.939  21.620  54.060  1.00  0.00     0.028 C 
BRANCH   6   7
ATOM      7  C   UNL     1       7.327  20.257  53.826  1.00  0.00    -0.028 C 
ATOM      8  C   UNL     1       6.615  19.494  54.698  1.00  0.00    -0.070 CG0
ATOM      9  C   UNL     1       6.020  18.218  54.148  1.00  0.00     0.039 C 
ATOM     10  G   UNL     1       6.455  19.758  56.191  1.00  0.00     0.000 G0
ENDBRANCH   6   7
ENDBRANCH   5   6
ENDBRANCH   3   5
ENDBRANCH   1   3
BRANCH   1  11
ATOM     11  C   UNL     1       9.661  19.807  56.869  1.00  0.00     0.087 C 
BRANCH  11  12
ATOM     12  C   UNL     1       8.506  19.468  57.851  1.00  0.00     0.066 C 
BRANCH  12  13
ATOM     13  C   UNL     1       7.285  18.900  57.133  1.00  0.00     0.140 C 
ATOM     14  O   UNL     1       7.075  17.697  57.190  1.00  0.00    -0.299 OA
BRANCH  13  15
ATOM     15  C   UNL     1       6.449  19.747  56.207  1.00  0.00     0.106 CG0
ATOM     16  G   UNL     1       6.633  19.476  54.717  1.00  0.00     0.000 G0
ENDBRANCH  13  15
ENDBRANCH  12  13
BRANCH  12  17
ATOM     17  C   UNL     1       8.972  18.490  58.978  1.00  0.00    -0.006 C 
ATOM     18  C   UNL     1      10.505  18.367  59.046  1.00  0.00     0.008 C 
ATOM     19  C   UNL     1       8.448  18.927  60.358  1.00  0.00     0.008 C 
ENDBRANCH  12  17
ENDBRANCH  11  12
ENDBRANCH   1  11
TORSDOF 1
ENDMDL
MODEL 7
REMARK VINA RESULT:    -3.984      3.480      5.476
REMARK INTER + INTRA:          -5.979
REMARK INTER:                  -5.657
REMARK INTRA:                  -0.322
REMARK UNBOUND:                 0.102
REMARK SMILES CC1=CCC[C@@H](C)C(=O)C[C@H](C(C)C)C(=O)C1
REMARK SMILES IDX 8 1 9 2 6 3 7 4 5 5 4 6 3 7 2 8 1 9 10 11 11 12 15 13 16 14
REMARK SMILES IDX 17 15 12 17 13 18 14 19
REMARK H PARENT
REMARK Flexibility Score: 70.00
ROOT
ATOM      1  C   UNL     1       8.369  18.855  59.252  1.00  0.00     0.136 C 
ATOM      2  O   UNL     1       8.461  18.162  60.255  1.00  0.00    -0.299 OA
ENDROOT
BRANCH   1   3
ATOM      3  C   UNL     1       7.176  18.695  58.329  1.00  0.00     0.053 C 
ATOM      4  C   UNL     1       5.976  18.182  59.134  1.00  0.00     0.016 C 
BRANCH   3   5
ATOM      5  C   UNL     1       7.469  17.747  57.147  1.00  0.00     0.015 C 
BRANCH   5   6
ATOM      6  C   UNL     1       7.122  18.320  55.761  1.00  0.00     0.028 C 
BRANCH   6   7
ATOM      7  C   UNL     1       6.826  19.803  55.761  1.00  0.00    -0.028 C 
ATOM      8  C   UNL     1       7.677  20.830  55.505  1.00  0.00    -0.070 CG0
ATOM      9  C   UNL     1       7.071  22.214  55.459  1.00  0.00     0.039 C 
ATOM     10  G   UNL     1       9.192  20.722  55.366  1.00  0.00     0.000 G0
ENDBRANCH   6   7
ENDBRANCH   5   6
ENDBRANCH   3   5
ENDBRANCH   1   3
BRANCH   1  11
ATOM     11  C   UNL     1       9.424  19.898  58.982  1.00  0.00     0.087 C 
BRANCH  11  12
ATOM     12  C   UNL     1      10.160  19.692  57.629  1.00  0.00     0.066 C 
BRANCH  12  13
ATOM     13  C   UNL     1       9.958  20.867  56.677  1.00  0.00     0.140 C 
ATOM     14  O   UNL     1      10.286  21.986  57.045  1.00  0.00    -0.299 OA
BRANCH  13  15
ATOM     15  C   UNL     1       9.198  20.714  55.384  1.00  0.00     0.106 CG0
ATOM     16  G   UNL     1       7.682  20.843  55.490  1.00  0.00     0.000 G0
ENDBRANCH  13  15
ENDBRANCH  12  13
BRANCH  12  17
ATOM     17  C   UNL     1      11.686  19.420  57.834  1.00  0.00    -0.006 C 
ATOM     18  C   UNL     1      11.953  18.437  58.989  1.00  0.00     0.008 C 
ATOM     19  C   UNL     1      12.339  18.868  56.553  1.00  0.00     0.008 C 
ENDBRANCH  12  17
ENDBRANCH  11  12
ENDBRANCH   1  11
TORSDOF 1
ENDMDL
MODEL 8
REMARK VINA RESULT:    -3.872      9.469     11.616
REMARK INTER + INTRA:          -5.808
REMARK INTER:                  -5.546
REMARK INTRA:                  -0.261
REMARK UNBOUND:                 0.102
REMARK SMILES CC1=CCC[C@@H](C)C(=O)C[C@H](C(C)C)C(=O)C1
REMARK SMILES IDX 8 1 9 2 6 3 7 4 5 5 4 6 3 7 2 8 1 9 10 11 11 12 15 13 16 14
REMARK SMILES IDX 17 15 12 17 13 18 14 19
REMARK H PARENT
REMARK Flexibility Score: 70.00
ROOT
ATOM      1  C   UNL     1      18.796  12.650  52.526  1.00  0.00     0.136 C 
ATOM      2  O   UNL     1      19.316  13.360  53.375  1.00  0.00    -0.299 OA
ENDROOT
BRANCH   1   3
ATOM      3  C   UNL     1      19.473  12.459  51.182  1.00  0.00     0.053 C 
ATOM      4  C   UNL     1      18.439  12.627  50.063  1.00  0.00     0.016 C 
BRANCH   3   5
ATOM      5  C   UNL     1      20.168  11.086  51.064  1.00  0.00     0.015 C 
BRANCH   5   6
ATOM      6  C   UNL     1      21.158  10.766  52.197  1.00  0.00     0.028 C 
BRANCH   6   7
ATOM      7  C   UNL     1      21.130   9.324  52.655  1.00  0.00    -0.028 C 
ATOM      8  C   UNL     1      20.257   8.731  53.512  1.00  0.00    -0.070 CG0
ATOM      9  C   UNL     1      20.400   7.238  53.695  1.00  0.00     0.039 C 
ATOM     10  G   UNL     1      19.225   9.450  54.375  1.00  0.00     0.000 G0
ENDBRANCH   6   7
ENDBRANCH   5   6
ENDBRANCH   3   5
ENDBRANCH   1   3
BRANCH   1  11
ATOM     11  C   UNL     1      17.512  11.932  52.858  1.00  0.00     0.087 C 
BRANCH  11  12
ATOM     12  C   UNL     1      17.569  10.406  52.567  1.00  0.00     0.066 C 
BRANCH  12  13
ATOM     13  C   UNL     1      17.837   9.588  53.826  1.00  0.00     0.140 C 
ATOM     14  O   UNL     1      16.885   9.167  54.468  1.00  0.00    -0.299 OA
BRANCH  13  15
ATOM     15  C   UNL     1      19.225   9.448  54.397  1.00  0.00     0.106 CG0
ATOM     16  G   UNL     1      20.234   8.726  53.510  1.00  0.00     0.000 G0
ENDBRANCH  13  15
ENDBRANCH  12  13
BRANCH  12  17
ATOM     17  C   UNL     1      16.269   9.901  51.862  1.00  0.00    -0.006 C 
ATOM     18  C   UNL     1      15.279  11.046  51.574  1.00  0.00     0.008 C 
ATOM     19  C   UNL     1      16.586   9.178  50.540  1.00  0.00     0.008 C 
ENDBRANCH  12  17
ENDBRANCH  11  12
ENDBRANCH   1  11
TORSDOF 1
ENDMDL
MODEL 9
REMARK VINA RESULT:    -3.845      3.543      6.276
REMARK INTER + INTRA:          -5.767
REMARK INTER:                  -5.527
REMARK INTRA:                  -0.240
REMARK UNBOUND:                 0.102
REMARK SMILES CC1=CCC[C@@H](C)C(=O)C[C@H](C(C)C)C(=O)C1
REMARK SMILES IDX 8 1 9 2 6 3 7 4 5 5 4 6 3 7 2 8 1 9 10 11 11 12 15 13 16 14
REMARK SMILES IDX 17 15 12 17 13 18 14 19
REMARK H PARENT
REMARK Flexibility Score: 70.00
ROOT
ATOM      1  C   UNL     1       6.809  18.508  57.526  1.00  0.00     0.136 C 
ATOM      2  O   UNL     1       6.272  19.491  57.033  1.00  0.00    -0.299 OA
ENDROOT
BRANCH   1   3
ATOM      3  C   UNL     1       6.509  18.124  58.962  1.00  0.00     0.053 C 
ATOM      4  C   UNL     1       5.060  18.497  59.297  1.00  0.00     0.016 C 
BRANCH   3   5
ATOM      5  C   UNL     1       7.476  18.789  59.963  1.00  0.00     0.015 C 
BRANCH   5   6
ATOM      6  C   UNL     1       8.966  18.497  59.712  1.00  0.00     0.028 C 
BRANCH   6   7
ATOM      7  C   UNL     1       9.746  19.676  59.174  1.00  0.00    -0.028 C 
ATOM      8  C   UNL     1      10.290  19.830  57.938  1.00  0.00    -0.070 CG0
ATOM      9  C   UNL     1      10.917  21.173  57.640  1.00  0.00     0.039 C 
ATOM     10  G   UNL     1      10.416  18.744  56.875  1.00  0.00     0.000 G0
ENDBRANCH   6   7
ENDBRANCH   5   6
ENDBRANCH   3   5
ENDBRANCH   1   3
BRANCH   1  11
ATOM     11  C   UNL     1       7.720  17.665  56.670  1.00  0.00     0.087 C 
BRANCH  11  12
ATOM     12  C   UNL     1       8.230  18.405  55.402  1.00  0.00     0.066 C 
BRANCH  12  13
ATOM     13  C   UNL     1       9.639  18.962  55.587  1.00  0.00     0.140 C 
ATOM     14  O   UNL     1      10.205  19.462  54.626  1.00  0.00    -0.299 OA
BRANCH  13  15
ATOM     15  C   UNL     1      10.413  18.743  56.862  1.00  0.00     0.106 CG0
ATOM     16  G   UNL     1      10.271  19.835  57.917  1.00  0.00     0.000 G0
ENDBRANCH  13  15
ENDBRANCH  12  13
BRANCH  12  17
ATOM     17  C   UNL     1       8.174  17.491  54.135  1.00  0.00    -0.006 C 
ATOM     18  C   UNL     1       8.767  16.094  54.397  1.00  0.00     0.008 C 
ATOM     19  C   UNL     1       6.733  17.328  53.619  1.00  0.00     0.008 C 
ENDBRANCH  12  17
ENDBRANCH  11  12
ENDBRANCH   1  11
TORSDOF 1
ENDMDL
