MODEL 1
REMARK VINA RESULT:    -2.671      0.000      0.000
REMARK INTER + INTRA:          -2.671
REMARK INTER:                  -2.671
REMARK INTRA:                   0.000
REMARK UNBOUND:                 0.000
REMARK SMILES CC(=O)[O-]
REMARK SMILES IDX 1 1 2 2 3 3 4 4
REMARK H PARENT
REMARK Flexibility Score: inf
ROOT
ATOM      1  C   UNL     1      30.750  22.125  54.705  1.00  0.00     0.063 C 
ATOM      2  C   UNL     1      31.737  21.022  54.880  1.00  0.00     0.038 C 
ATOM      3  O   UNL     1      32.684  21.145  55.701  1.00  0.00    -0.550 OA
ATOM      4  O   UNL     1      31.647  19.876  54.100  1.00  0.00    -0.550 OA
ENDROOT
TORSDOF 0
ENDMDL
MODEL 2
REMARK VINA RESULT:    -2.485     10.843     11.012
REMARK INTER + INTRA:          -2.485
REMARK INTER:                  -2.485
REMARK INTRA:                   0.000
REMARK UNBOUND:                 0.000
REMARK SMILES CC(=O)[O-]
REMARK SMILES IDX 1 1 2 2 3 3 4 4
REMARK H PARENT
REMARK Flexibility Score: inf
ROOT
ATOM      1  C   UNL     1      26.252  19.642  63.897  1.00  0.00     0.063 C 
ATOM      2  C   UNL     1      25.110  20.509  63.488  1.00  0.00     0.038 C 
ATOM      3  O   UNL     1      24.438  21.121  64.360  1.00  0.00    -0.550 OA
ATOM      4  O   UNL     1      24.748  20.601  62.150  1.00  0.00    -0.550 OA
ENDROOT
TORSDOF 0
ENDMDL
MODEL 3
REMARK VINA RESULT:    -2.466      9.681     10.002
REMARK INTER + INTRA:          -2.466
REMARK INTER:                  -2.466
REMARK INTRA:                   0.000
REMARK UNBOUND:                 0.000
REMARK SMILES CC(=O)[O-]
REMARK SMILES IDX 1 1 2 2 3 3 4 4
REMARK H PARENT
REMARK Flexibility Score: inf
ROOT
ATOM      1  C   UNL     1      26.237  19.551  63.932  1.00  0.00     0.063 C 
ATOM      2  C   UNL     1      26.551  20.733  63.080  1.00  0.00     0.038 C 
ATOM      3  O   UNL     1      26.587  20.617  61.827  1.00  0.00    -0.550 OA
ATOM      4  O   UNL     1      26.859  21.954  63.668  1.00  0.00    -0.550 OA
ENDROOT
TORSDOF 0
ENDMDL
MODEL 4
REMARK VINA RESULT:    -2.411     10.741     10.934
REMARK INTER + INTRA:          -2.411
REMARK INTER:                  -2.411
REMARK INTRA:                   0.000
REMARK UNBOUND:                 0.000
REMARK SMILES CC(=O)[O-]
REMARK SMILES IDX 1 1 2 2 3 3 4 4
REMARK H PARENT
REMARK Flexibility Score: inf
ROOT
ATOM      1  C   UNL     1      26.636  21.300  63.356  1.00  0.00     0.063 C 
ATOM      2  C   UNL     1      25.461  20.448  63.697  1.00  0.00     0.038 C 
ATOM      3  O   UNL     1      24.361  20.981  63.998  1.00  0.00    -0.550 OA
ATOM      4  O   UNL     1      25.591  19.065  63.736  1.00  0.00    -0.550 OA
ENDROOT
TORSDOF 0
ENDMDL
MODEL 5
REMARK VINA RESULT:    -2.335     18.726     19.427
REMARK INTER + INTRA:          -2.335
REMARK INTER:                  -2.335
REMARK INTRA:                   0.000
REMARK UNBOUND:                 0.000
REMARK SMILES CC(=O)[O-]
REMARK SMILES IDX 1 1 2 2 3 3 4 4
REMARK H PARENT
REMARK Flexibility Score: inf
ROOT
ATOM      1  C   UNL     1      42.441  21.387  71.323  1.00  0.00     0.063 C 
ATOM      2  C   UNL     1      41.012  21.585  71.700  1.00  0.00     0.038 C 
ATOM      3  O   UNL     1      40.129  21.676  70.806  1.00  0.00    -0.550 OA
ATOM      4  O   UNL     1      40.656  21.725  73.036  1.00  0.00    -0.550 OA
ENDROOT
TORSDOF 0
ENDMDL
MODEL 6
REMARK VINA RESULT:    -2.263     22.735     23.262
REMARK INTER + INTRA:          -2.263
REMARK INTER:                  -2.263
REMARK INTRA:                   0.000
REMARK UNBOUND:                 0.000
REMARK SMILES CC(=O)[O-]
REMARK SMILES IDX 1 1 2 2 3 3 4 4
REMARK H PARENT
REMARK Flexibility Score: inf
ROOT
ATOM      1  C   UNL     1      43.125   4.510  67.169  1.00  0.00     0.063 C 
ATOM      2  C   UNL     1      42.952   5.719  68.024  1.00  0.00     0.038 C 
ATOM      3  O   UNL     1      42.697   6.834  67.497  1.00  0.00    -0.550 OA
ATOM      4  O   UNL     1      43.125   5.631  69.399  1.00  0.00    -0.550 OA
ENDROOT
TORSDOF 0
ENDMDL
MODEL 7
REMARK VINA RESULT:    -2.181     16.997     17.389
REMARK INTER + INTRA:          -2.181
REMARK INTER:                  -2.181
REMARK INTRA:                   0.000
REMARK UNBOUND:                 0.000
REMARK SMILES CC(=O)[O-]
REMARK SMILES IDX 1 1 2 2 3 3 4 4
REMARK H PARENT
REMARK Flexibility Score: inf
ROOT
ATOM      1  C   UNL     1      40.133  22.125  68.299  1.00  0.00     0.063 C 
ATOM      2  C   UNL     1      40.771  22.005  69.640  1.00  0.00     0.038 C 
ATOM      3  O   UNL     1      42.019  22.124  69.759  1.00  0.00    -0.550 OA
ATOM      4  O   UNL     1      39.999  21.707  70.756  1.00  0.00    -0.550 OA
ENDROOT
TORSDOF 0
ENDMDL
MODEL 8
REMARK VINA RESULT:    -2.119      6.220      6.372
REMARK INTER + INTRA:          -2.119
REMARK INTER:                  -2.119
REMARK INTRA:                   0.000
REMARK UNBOUND:                 0.000
REMARK SMILES CC(=O)[O-]
REMARK SMILES IDX 1 1 2 2 3 3 4 4
REMARK H PARENT
REMARK Flexibility Score: inf
ROOT
ATOM      1  C   UNL     1      26.830  20.247  56.270  1.00  0.00     0.063 C 
ATOM      2  C   UNL     1      26.145  19.402  57.290  1.00  0.00     0.038 C 
ATOM      3  O   UNL     1      26.631  19.289  58.446  1.00  0.00    -0.550 OA
ATOM      4  O   UNL     1      24.999  18.693  56.952  1.00  0.00    -0.550 OA
ENDROOT
TORSDOF 0
ENDMDL
MODEL 9
REMARK VINA RESULT:    -2.052      6.114      6.274
REMARK INTER + INTRA:          -2.052
REMARK INTER:                  -2.052
REMARK INTRA:                   0.000
REMARK UNBOUND:                 0.000
REMARK SMILES CC(=O)[O-]
REMARK SMILES IDX 1 1 2 2 3 3 4 4
REMARK H PARENT
REMARK Flexibility Score: inf
ROOT
ATOM      1  C   UNL     1      24.793  19.617  57.012  1.00  0.00     0.063 C 
ATOM      2  C   UNL     1      26.256  19.547  57.288  1.00  0.00     0.038 C 
ATOM      3  O   UNL     1      26.668  19.199  58.427  1.00  0.00    -0.550 OA
ATOM      4  O   UNL     1      27.169  19.917  56.308  1.00  0.00    -0.550 OA
ENDROOT
TORSDOF 0
ENDMDL
