MODEL 1
REMARK VINA RESULT:    -3.055      0.000      0.000
REMARK INTER + INTRA:          -3.680
REMARK INTER:                  -3.591
REMARK INTRA:                  -0.090
REMARK UNBOUND:                -0.090
REMARK SMILES O=C([O-])CCC(=O)[O-]
REMARK SMILES IDX 4 1 2 2 1 3 3 4 5 5 6 6 7 7 8 8
REMARK H PARENT
REMARK Flexibility Score: inf
ROOT
ATOM      1  C   UNL     1     124.935 115.871 130.392  1.00  0.00     0.059 C 
ENDROOT
BRANCH   1   2
ATOM      2  C   UNL     1     124.285 115.554 131.702  1.00  0.00     0.042 C 
ATOM      3  O   UNL     1     124.933 114.957 132.602  1.00  0.00    -0.550 OA
ATOM      4  O   UNL     1     122.981 115.961 131.947  1.00  0.00    -0.550 OA
ENDBRANCH   1   2
BRANCH   1   5
ATOM      5  C   UNL     1     126.413 115.475 130.419  1.00  0.00     0.059 C 
BRANCH   5   6
ATOM      6  C   UNL     1     126.725 114.541 129.291  1.00  0.00     0.042 C 
ATOM      7  O   UNL     1     127.571 114.865 128.418  1.00  0.00    -0.550 OA
ATOM      8  O   UNL     1     126.116 113.294 129.233  1.00  0.00    -0.550 OA
ENDBRANCH   5   6
ENDBRANCH   1   5
TORSDOF 3
ENDMDL
MODEL 2
REMARK VINA RESULT:    -3.000      1.291      4.253
REMARK INTER + INTRA:          -3.617
REMARK INTER:                  -3.577
REMARK INTRA:                  -0.039
REMARK UNBOUND:                -0.090
REMARK SMILES O=C([O-])CCC(=O)[O-]
REMARK SMILES IDX 4 1 2 2 1 3 3 4 5 5 6 6 7 7 8 8
REMARK H PARENT
REMARK Flexibility Score: inf
ROOT
ATOM      1  C   UNL     1     125.010 115.645 130.476  1.00  0.00     0.059 C 
ENDROOT
BRANCH   1   2
ATOM      2  C   UNL     1     126.183 114.780 130.137  1.00  0.00     0.042 C 
ATOM      3  O   UNL     1     126.457 113.776 130.847  1.00  0.00    -0.550 OA
ATOM      4  O   UNL     1     126.945 115.053 129.008  1.00  0.00    -0.550 OA
ENDBRANCH   1   2
BRANCH   1   5
ATOM      5  C   UNL     1     124.657 115.510 131.958  1.00  0.00     0.059 C 
BRANCH   5   6
ATOM      6  C   UNL     1     123.275 116.022 132.215  1.00  0.00     0.042 C 
ATOM      7  O   UNL     1     122.274 115.372 131.815  1.00  0.00    -0.550 OA
ATOM      8  O   UNL     1     123.091 117.193 132.939  1.00  0.00    -0.550 OA
ENDBRANCH   5   6
ENDBRANCH   1   5
TORSDOF 3
ENDMDL
MODEL 3
REMARK VINA RESULT:    -3.000      1.311      1.928
REMARK INTER + INTRA:          -3.616
REMARK INTER:                  -3.581
REMARK INTRA:                  -0.035
REMARK UNBOUND:                -0.090
REMARK SMILES O=C([O-])CCC(=O)[O-]
REMARK SMILES IDX 4 1 2 2 1 3 3 4 5 5 6 6 7 7 8 8
REMARK H PARENT
REMARK Flexibility Score: inf
ROOT
ATOM      1  C   UNL     1     124.610 115.489 132.015  1.00  0.00     0.059 C 
ENDROOT
BRANCH   1   2
ATOM      2  C   UNL     1     123.257 116.038 132.339  1.00  0.00     0.042 C 
ATOM      3  O   UNL     1     123.147 117.158 132.906  1.00  0.00    -0.550 OA
ATOM      4  O   UNL     1     122.116 115.338 131.972  1.00  0.00    -0.550 OA
ENDBRANCH   1   2
BRANCH   1   5
ATOM      5  C   UNL     1     124.913 115.657 130.525  1.00  0.00     0.059 C 
BRANCH   5   6
ATOM      6  C   UNL     1     126.122 114.862 130.144  1.00  0.00     0.042 C 
ATOM      7  O   UNL     1     126.430 113.829 130.794  1.00  0.00    -0.550 OA
ATOM      8  O   UNL     1     126.879 115.235 129.041  1.00  0.00    -0.550 OA
ENDBRANCH   5   6
ENDBRANCH   1   5
TORSDOF 3
ENDMDL
MODEL 4
REMARK VINA RESULT:    -2.938     12.515     14.281
REMARK INTER + INTRA:          -3.543
REMARK INTER:                  -3.502
REMARK INTRA:                  -0.041
REMARK UNBOUND:                -0.090
REMARK SMILES O=C([O-])CCC(=O)[O-]
REMARK SMILES IDX 4 1 2 2 1 3 3 4 5 5 6 6 7 7 8 8
REMARK H PARENT
REMARK Flexibility Score: inf
ROOT
ATOM      1  C   UNL     1     113.337 122.446 130.494  1.00  0.00     0.059 C 
ENDROOT
BRANCH   1   2
ATOM      2  C   UNL     1     111.846 122.568 130.460  1.00  0.00     0.042 C 
ATOM      3  O   UNL     1     111.136 121.877 131.238  1.00  0.00    -0.550 OA
ATOM      4  O   UNL     1     111.242 123.480 129.605  1.00  0.00    -0.550 OA
ENDBRANCH   1   2
BRANCH   1   5
ATOM      5  C   UNL     1     113.879 122.890 131.854  1.00  0.00     0.059 C 
BRANCH   5   6
ATOM      6  C   UNL     1     115.139 122.151 132.182  1.00  0.00     0.042 C 
ATOM      7  O   UNL     1     116.250 122.741 132.130  1.00  0.00    -0.550 OA
ATOM      8  O   UNL     1     115.080 120.824 132.590  1.00  0.00    -0.550 OA
ENDBRANCH   5   6
ENDBRANCH   1   5
TORSDOF 3
ENDMDL
MODEL 5
REMARK VINA RESULT:    -2.920     12.476     14.479
REMARK INTER + INTRA:          -3.522
REMARK INTER:                  -3.484
REMARK INTRA:                  -0.038
REMARK UNBOUND:                -0.090
REMARK SMILES O=C([O-])CCC(=O)[O-]
REMARK SMILES IDX 4 1 2 2 1 3 3 4 5 5 6 6 7 7 8 8
REMARK H PARENT
REMARK Flexibility Score: inf
ROOT
ATOM      1  C   UNL     1     113.869 122.835 131.872  1.00  0.00     0.059 C 
ENDROOT
BRANCH   1   2
ATOM      2  C   UNL     1     115.171 122.158 132.161  1.00  0.00     0.042 C 
ATOM      3  O   UNL     1     116.253 122.792 132.049  1.00  0.00    -0.550 OA
ATOM      4  O   UNL     1     115.187 120.842 132.603  1.00  0.00    -0.550 OA
ENDBRANCH   1   2
BRANCH   1   5
ATOM      5  C   UNL     1     113.363 122.450 130.481  1.00  0.00     0.059 C 
BRANCH   5   6
ATOM      6  C   UNL     1     111.873 122.566 130.415  1.00  0.00     0.042 C 
ATOM      7  O   UNL     1     111.151 121.918 131.217  1.00  0.00    -0.550 OA
ATOM      8  O   UNL     1     111.283 123.427 129.498  1.00  0.00    -0.550 OA
ENDBRANCH   5   6
ENDBRANCH   1   5
TORSDOF 3
ENDMDL
MODEL 6
REMARK VINA RESULT:    -2.912      0.934      3.635
REMARK INTER + INTRA:          -3.513
REMARK INTER:                  -3.336
REMARK INTRA:                  -0.176
REMARK UNBOUND:                -0.090
REMARK SMILES O=C([O-])CCC(=O)[O-]
REMARK SMILES IDX 4 1 2 2 1 3 3 4 5 5 6 6 7 7 8 8
REMARK H PARENT
REMARK Flexibility Score: inf
ROOT
ATOM      1  C   UNL     1     126.844 115.240 130.458  1.00  0.00     0.059 C 
ENDROOT
BRANCH   1   2
ATOM      2  C   UNL     1     126.194 114.687 129.229  1.00  0.00     0.042 C 
ATOM      3  O   UNL     1     125.958 113.453 129.139  1.00  0.00    -0.550 OA
ATOM      4  O   UNL     1     125.803 115.539 128.205  1.00  0.00    -0.550 OA
ENDBRANCH   1   2
BRANCH   1   5
ATOM      5  C   UNL     1     125.926 116.258 131.137  1.00  0.00     0.059 C 
BRANCH   5   6
ATOM      6  C   UNL     1     124.770 115.567 131.789  1.00  0.00     0.042 C 
ATOM      7  O   UNL     1     123.592 115.828 131.430  1.00  0.00    -0.550 OA
ATOM      8  O   UNL     1     124.997 114.601 132.761  1.00  0.00    -0.550 OA
ENDBRANCH   5   6
ENDBRANCH   1   5
TORSDOF 3
ENDMDL
MODEL 7
REMARK VINA RESULT:    -2.846     23.331     24.261
REMARK INTER + INTRA:          -3.434
REMARK INTER:                  -3.334
REMARK INTRA:                  -0.100
REMARK UNBOUND:                -0.090
REMARK SMILES O=C([O-])CCC(=O)[O-]
REMARK SMILES IDX 4 1 2 2 1 3 3 4 5 5 6 6 7 7 8 8
REMARK H PARENT
REMARK Flexibility Score: inf
ROOT
ATOM      1  C   UNL     1     108.895 125.308 116.293  1.00  0.00     0.059 C 
ENDROOT
BRANCH   1   2
ATOM      2  C   UNL     1     109.559 123.988 116.529  1.00  0.00     0.042 C 
ATOM      3  O   UNL     1     110.144 123.396 115.584  1.00  0.00    -0.550 OA
ATOM      4  O   UNL     1     109.574 123.435 117.802  1.00  0.00    -0.550 OA
ENDBRANCH   1   2
BRANCH   1   5
ATOM      5  C   UNL     1     108.949 125.677 114.810  1.00  0.00     0.059 C 
BRANCH   5   6
ATOM      6  C   UNL     1     109.797 126.893 114.604  1.00  0.00     0.042 C 
ATOM      7  O   UNL     1     109.634 127.612 113.584  1.00  0.00    -0.550 OA
ATOM      8  O   UNL     1     110.735 127.257 115.562  1.00  0.00    -0.550 OA
ENDBRANCH   5   6
ENDBRANCH   1   5
TORSDOF 3
ENDMDL
MODEL 8
REMARK VINA RESULT:    -2.604     21.057     22.214
REMARK INTER + INTRA:          -3.151
REMARK INTER:                  -3.111
REMARK INTRA:                  -0.040
REMARK UNBOUND:                -0.090
REMARK SMILES O=C([O-])CCC(=O)[O-]
REMARK SMILES IDX 4 1 2 2 1 3 3 4 5 5 6 6 7 7 8 8
REMARK H PARENT
REMARK Flexibility Score: inf
ROOT
ATOM      1  C   UNL     1     108.963 122.541 117.389  1.00  0.00     0.059 C 
ENDROOT
BRANCH   1   2
ATOM      2  C   UNL     1     109.256 123.750 116.559  1.00  0.00     0.042 C 
ATOM      3  O   UNL     1     108.879 124.889 116.944  1.00  0.00    -0.550 OA
ATOM      4  O   UNL     1     109.987 123.629 115.385  1.00  0.00    -0.550 OA
ENDBRANCH   1   2
BRANCH   1   5
ATOM      5  C   UNL     1     108.875 122.915 118.869  1.00  0.00     0.059 C 
BRANCH   5   6
ATOM      6  C   UNL     1     108.915 121.687 119.723  1.00  0.00     0.042 C 
ATOM      7  O   UNL     1     109.021 120.551 119.193  1.00  0.00    -0.550 OA
ATOM      8  O   UNL     1     108.883 121.802 121.107  1.00  0.00    -0.550 OA
ENDBRANCH   5   6
ENDBRANCH   1   5
TORSDOF 3
ENDMDL
