MODEL 1
REMARK VINA RESULT:    -6.380      0.000      0.000
REMARK INTER + INTRA:         -10.011
REMARK INTER:                  -8.805
REMARK INTRA:                  -1.207
REMARK UNBOUND:                -1.207
REMARK SMILES O=C([O-])[C@@H]1O[C@H](Oc2cc3oc(-c4ccccc4)cc(=O)c3c(O)c2O)[C@@H](O)[C@@H](O)[C@H]1O
REMARK SMILES IDX 7 1 6 2 4 3 31 4 5 5 29 6 27 7 2 8 1 9 3 10 32 11 30 13
REMARK SMILES IDX 28 15 8 17 25 18 9 19 23 20 10 21 22 22 11 23 20 24 12 25
REMARK SMILES IDX 19 26 21 27 26 28 24 30 13 32 14 33 18 34 15 35 17 36 16 37
REMARK H PARENT 32 12 30 14 28 16 26 29 24 31
REMARK Flexibility Score: inf
ROOT
ATOM      1  O   UNL     1       6.366 -56.028 193.684  1.00  0.00    -0.458 OA
ENDROOT
BRANCH   1   2
ATOM      2  C   UNL     1       7.795 -55.987 193.662  1.00  0.00     0.339 C 
ATOM      3  C   UNL     1       8.016 -53.986 194.943  1.00  0.00     0.199 C 
ATOM      4  C   UNL     1       8.534 -54.764 196.181  1.00  0.00     0.180 C 
ATOM      5  O   UNL     1       8.285 -54.650 193.713  1.00  0.00    -0.328 OA
ATOM      6  C   UNL     1       8.067 -56.230 196.151  1.00  0.00     0.181 C 
ATOM      7  C   UNL     1       8.370 -56.862 194.785  1.00  0.00     0.214 C 
BRANCH   3   8
ATOM      8  C   UNL     1       6.576 -53.544 195.042  1.00  0.00     0.073 C 
ATOM      9  O   UNL     1       5.944 -53.725 196.116  1.00  0.00    -0.547 OA
ATOM     10  O   UNL     1       5.930 -52.936 193.971  1.00  0.00    -0.547 OA
ENDBRANCH   3   8
BRANCH   4  11
ATOM     11  O   UNL     1       9.939 -54.722 196.213  1.00  0.00    -0.387 OA
ATOM     12  H   UNL     1      10.242 -55.523 196.717  1.00  0.00     0.211 HD
ENDBRANCH   4  11
BRANCH   6  13
ATOM     13  O   UNL     1       8.693 -56.969 197.169  1.00  0.00    -0.387 OA
ATOM     14  H   UNL     1       9.574 -57.256 196.813  1.00  0.00     0.211 HD
ENDBRANCH   6  13
BRANCH   7  15
ATOM     15  O   UNL     1       9.757 -57.003 194.597  1.00  0.00    -0.384 OA
ATOM     16  H   UNL     1       9.887 -57.429 193.711  1.00  0.00     0.211 HD
ENDBRANCH   7  15
ENDBRANCH   1   2
BRANCH   1  17
ATOM     17  C   UNL     1       5.558 -56.708 192.756  1.00  0.00     0.172 A 
ATOM     18  C   UNL     1       4.304 -56.161 192.447  1.00  0.00     0.201 A 
ATOM     19  C   UNL     1       5.975 -57.893 192.133  1.00  0.00     0.098 A 
ATOM     20  C   UNL     1       3.455 -56.805 191.511  1.00  0.00     0.176 A 
ATOM     21  C   UNL     1       5.154 -58.536 191.208  1.00  0.00     0.146 A 
ATOM     22  C   UNL     1       3.887 -58.000 190.886  1.00  0.00     0.111 A 
ATOM     23  O   UNL     1       5.583 -59.656 190.636  1.00  0.00    -0.456 OA
ATOM     24  C   UNL     1       3.110 -58.700 189.936  1.00  0.00     0.197 A 
ATOM     25  C   UNL     1       4.873 -60.342 189.745  1.00  0.00     0.138 A 
ATOM     26  C   UNL     1       3.607 -59.872 189.365  1.00  0.00     0.100 A 
ATOM     27  O   UNL     1       1.972 -58.288 189.583  1.00  0.00    -0.289 OA
BRANCH  18  28
ATOM     28  O   UNL     1       3.944 -54.975 193.095  1.00  0.00    -0.502 OA
ATOM     29  H   UNL     1       4.086 -54.792 194.076  1.00  0.00     0.293 HD
ENDBRANCH  18  28
BRANCH  20  30
ATOM     30  O   UNL     1       2.196 -56.284 191.189  1.00  0.00    -0.504 OA
ATOM     31  H   UNL     1       1.345 -56.824 191.147  1.00  0.00     0.293 HD
ENDBRANCH  20  30
BRANCH  25  32
ATOM     32  C   UNL     1       5.455 -61.581 189.170  1.00  0.00     0.017 A 
ATOM     33  C   UNL     1       6.831 -61.836 189.323  1.00  0.00     0.012 A 
ATOM     34  C   UNL     1       4.661 -62.532 188.497  1.00  0.00     0.012 A 
ATOM     35  C   UNL     1       7.401 -62.998 188.797  1.00  0.00     0.001 A 
ATOM     36  C   UNL     1       5.237 -63.693 187.973  1.00  0.00     0.001 A 
ATOM     37  C   UNL     1       6.607 -63.924 188.120  1.00  0.00     0.000 A 
ENDBRANCH  25  32
ENDBRANCH   1  17
TORSDOF 9
ENDMDL
MODEL 2
REMARK VINA RESULT:    -6.307      0.939      1.099
REMARK INTER + INTRA:          -9.911
REMARK INTER:                  -8.547
REMARK INTRA:                  -1.364
REMARK UNBOUND:                -1.207
REMARK SMILES O=C([O-])[C@@H]1O[C@H](Oc2cc3oc(-c4ccccc4)cc(=O)c3c(O)c2O)[C@@H](O)[C@@H](O)[C@H]1O
REMARK SMILES IDX 7 1 6 2 4 3 31 4 5 5 29 6 27 7 2 8 1 9 3 10 32 11 30 13
REMARK SMILES IDX 28 15 8 17 25 18 9 19 23 20 10 21 22 22 11 23 20 24 12 25
REMARK SMILES IDX 19 26 21 27 26 28 24 30 13 32 14 33 18 34 15 35 17 36 16 37
REMARK H PARENT 32 12 30 14 28 16 26 29 24 31
REMARK Flexibility Score: inf
ROOT
ATOM      1  O   UNL     1       6.601 -56.566 194.312  1.00  0.00    -0.458 OA
ENDROOT
BRANCH   1   2
ATOM      2  C   UNL     1       8.018 -56.414 194.185  1.00  0.00     0.339 C 
ATOM      3  C   UNL     1       8.024 -54.028 194.190  1.00  0.00     0.199 C 
ATOM      4  C   UNL     1       8.626 -53.972 195.618  1.00  0.00     0.180 C 
ATOM      5  O   UNL     1       8.360 -55.221 193.488  1.00  0.00    -0.328 OA
ATOM      6  C   UNL     1       8.321 -55.262 196.400  1.00  0.00     0.181 C 
ATOM      7  C   UNL     1       8.688 -56.496 195.565  1.00  0.00     0.214 C 
BRANCH   3   8
ATOM      8  C   UNL     1       6.544 -53.734 194.125  1.00  0.00     0.073 C 
ATOM      9  O   UNL     1       5.973 -53.674 193.005  1.00  0.00    -0.547 OA
ATOM     10  O   UNL     1       5.796 -53.528 195.279  1.00  0.00    -0.547 OA
ENDBRANCH   3   8
BRANCH   4  11
ATOM     11  O   UNL     1      10.019 -53.793 195.538  1.00  0.00    -0.387 OA
ATOM     12  H   UNL     1      10.351 -54.413 194.835  1.00  0.00     0.211 HD
ENDBRANCH   4  11
BRANCH   6  13
ATOM     13  O   UNL     1       9.026 -55.280 197.616  1.00  0.00    -0.387 OA
ATOM     14  H   UNL     1       9.234 -56.231 197.811  1.00  0.00     0.211 HD
ENDBRANCH   6  13
BRANCH   7  15
ATOM     15  O   UNL     1      10.081 -56.590 195.397  1.00  0.00    -0.384 OA
ATOM     16  H   UNL     1      10.493 -56.379 196.274  1.00  0.00     0.211 HD
ENDBRANCH   7  15
ENDBRANCH   1   2
BRANCH   1  17
ATOM     17  C   UNL     1       5.778 -57.278 193.422  1.00  0.00     0.172 A 
ATOM     18  C   UNL     1       4.434 -56.892 193.315  1.00  0.00     0.201 A 
ATOM     19  C   UNL     1       6.263 -58.339 192.645  1.00  0.00     0.098 A 
ATOM     20  C   UNL     1       3.564 -57.573 192.426  1.00  0.00     0.176 A 
ATOM     21  C   UNL     1       5.422 -59.017 191.764  1.00  0.00     0.146 A 
ATOM     22  C   UNL     1       4.066 -58.643 191.644  1.00  0.00     0.111 A 
ATOM     23  O   UNL     1       5.918 -60.016 191.042  1.00  0.00    -0.456 OA
ATOM     24  C   UNL     1       3.272 -59.368 190.727  1.00  0.00     0.197 A 
ATOM     25  C   UNL     1       5.196 -60.724 190.177  1.00  0.00     0.138 A 
ATOM     26  C   UNL     1       3.841 -60.409 189.993  1.00  0.00     0.100 A 
ATOM     27  O   UNL     1       2.055 -59.095 190.550  1.00  0.00    -0.289 OA
BRANCH  18  28
ATOM     28  O   UNL     1       4.008 -55.823 194.111  1.00  0.00    -0.502 OA
ATOM     29  H   UNL     1       3.261 -55.874 194.786  1.00  0.00     0.293 HD
ENDBRANCH  18  28
BRANCH  20  30
ATOM     30  O   UNL     1       2.217 -57.212 192.302  1.00  0.00    -0.504 OA
ATOM     31  H   UNL     1       1.564 -57.161 193.070  1.00  0.00     0.293 HD
ENDBRANCH  20  30
BRANCH  25  32
ATOM     32  C   UNL     1       5.857 -61.819 189.423  1.00  0.00     0.017 A 
ATOM     33  C   UNL     1       7.233 -62.052 189.604  1.00  0.00     0.012 A 
ATOM     34  C   UNL     1       5.137 -62.657 188.547  1.00  0.00     0.012 A 
ATOM     35  C   UNL     1       7.877 -63.081 188.911  1.00  0.00     0.001 A 
ATOM     36  C   UNL     1       5.787 -63.684 187.857  1.00  0.00     0.001 A 
ATOM     37  C   UNL     1       7.156 -63.894 188.036  1.00  0.00     0.000 A 
ENDBRANCH  25  32
ENDBRANCH   1  17
TORSDOF 9
ENDMDL
MODEL 3
REMARK VINA RESULT:    -6.144      1.533      2.083
REMARK INTER + INTRA:          -9.685
REMARK INTER:                  -8.395
REMARK INTRA:                  -1.291
REMARK UNBOUND:                -1.207
REMARK SMILES O=C([O-])[C@@H]1O[C@H](Oc2cc3oc(-c4ccccc4)cc(=O)c3c(O)c2O)[C@@H](O)[C@@H](O)[C@H]1O
REMARK SMILES IDX 7 1 6 2 4 3 31 4 5 5 29 6 27 7 2 8 1 9 3 10 32 11 30 13
REMARK SMILES IDX 28 15 8 17 25 18 9 19 23 20 10 21 22 22 11 23 20 24 12 25
REMARK SMILES IDX 19 26 21 27 26 28 24 30 13 32 14 33 18 34 15 35 17 36 16 37
REMARK H PARENT 32 12 30 14 28 16 26 29 24 31
REMARK Flexibility Score: inf
ROOT
ATOM      1  O   UNL     1       7.655 -56.744 194.816  1.00  0.00    -0.458 OA
ENDROOT
BRANCH   1   2
ATOM      2  C   UNL     1       8.398 -55.550 194.555  1.00  0.00     0.339 C 
ATOM      3  C   UNL     1       8.515 -54.818 196.823  1.00  0.00     0.199 C 
ATOM      4  C   UNL     1      10.025 -55.165 196.920  1.00  0.00     0.180 C 
ATOM      5  O   UNL     1       8.093 -54.524 195.495  1.00  0.00    -0.328 OA
ATOM      6  C   UNL     1      10.413 -56.241 195.891  1.00  0.00     0.181 C 
ATOM      7  C   UNL     1       9.901 -55.860 194.495  1.00  0.00     0.214 C 
BRANCH   3   8
ATOM      8  C   UNL     1       7.602 -55.813 197.498  1.00  0.00     0.073 C 
ATOM      9  O   UNL     1       6.363 -55.592 197.535  1.00  0.00    -0.547 OA
ATOM     10  O   UNL     1       8.101 -56.974 198.079  1.00  0.00    -0.547 OA
ENDBRANCH   3   8
BRANCH   4  11
ATOM     11  O   UNL     1      10.791 -54.007 196.698  1.00  0.00    -0.387 OA
ATOM     12  H   UNL     1      10.162 -53.238 196.703  1.00  0.00     0.211 HD
ENDBRANCH   4  11
BRANCH   6  13
ATOM     13  O   UNL     1      11.808 -56.410 195.858  1.00  0.00    -0.387 OA
ATOM     14  H   UNL     1      12.006 -57.000 195.084  1.00  0.00     0.211 HD
ENDBRANCH   6  13
BRANCH   7  15
ATOM     15  O   UNL     1      10.585 -54.735 194.001  1.00  0.00    -0.384 OA
ATOM     16  H   UNL     1      10.621 -54.071 194.737  1.00  0.00     0.211 HD
ENDBRANCH   7  15
ENDBRANCH   1   2
BRANCH   1  17
ATOM     17  C   UNL     1       6.682 -57.299 193.966  1.00  0.00     0.172 A 
ATOM     18  C   UNL     1       5.391 -56.754 193.996  1.00  0.00     0.201 A 
ATOM     19  C   UNL     1       6.973 -58.359 193.094  1.00  0.00     0.098 A 
ATOM     20  C   UNL     1       4.377 -57.272 193.151  1.00  0.00     0.176 A 
ATOM     21  C   UNL     1       5.988 -58.878 192.255  1.00  0.00     0.146 A 
ATOM     22  C   UNL     1       4.682 -58.342 192.273  1.00  0.00     0.111 A 
ATOM     23  O   UNL     1       6.300 -59.881 191.441  1.00  0.00    -0.456 OA
ATOM     24  C   UNL     1       3.735 -58.911 191.392  1.00  0.00     0.197 A 
ATOM     25  C   UNL     1       5.430 -60.444 190.607  1.00  0.00     0.138 A 
ATOM     26  C   UNL     1       4.113 -59.964 190.557  1.00  0.00     0.100 A 
ATOM     27  O   UNL     1       2.549 -58.488 191.335  1.00  0.00    -0.289 OA
BRANCH  18  28
ATOM     28  O   UNL     1       5.162 -55.694 194.880  1.00  0.00    -0.502 OA
ATOM     29  H   UNL     1       5.852 -55.008 195.142  1.00  0.00     0.293 HD
ENDBRANCH  18  28
BRANCH  20  30
ATOM     30  O   UNL     1       3.078 -56.750 193.164  1.00  0.00    -0.504 OA
ATOM     31  H   UNL     1       2.616 -56.380 193.981  1.00  0.00     0.293 HD
ENDBRANCH  20  30
BRANCH  25  32
ATOM     32  C   UNL     1       5.892 -61.560 189.741  1.00  0.00     0.017 A 
ATOM     33  C   UNL     1       7.236 -61.972 189.801  1.00  0.00     0.012 A 
ATOM     34  C   UNL     1       5.012 -62.242 188.878  1.00  0.00     0.012 A 
ATOM     35  C   UNL     1       7.693 -63.023 189.002  1.00  0.00     0.001 A 
ATOM     36  C   UNL     1       5.475 -63.294 188.081  1.00  0.00     0.001 A 
ATOM     37  C   UNL     1       6.815 -63.682 188.141  1.00  0.00     0.000 A 
ENDBRANCH  25  32
ENDBRANCH   1  17
TORSDOF 9
ENDMDL
MODEL 4
REMARK VINA RESULT:    -6.018      1.530      2.134
REMARK INTER + INTRA:          -9.512
REMARK INTER:                  -8.171
REMARK INTRA:                  -1.341
REMARK UNBOUND:                -1.207
REMARK SMILES O=C([O-])[C@@H]1O[C@H](Oc2cc3oc(-c4ccccc4)cc(=O)c3c(O)c2O)[C@@H](O)[C@@H](O)[C@H]1O
REMARK SMILES IDX 7 1 6 2 4 3 31 4 5 5 29 6 27 7 2 8 1 9 3 10 32 11 30 13
REMARK SMILES IDX 28 15 8 17 25 18 9 19 23 20 10 21 22 22 11 23 20 24 12 25
REMARK SMILES IDX 19 26 21 27 26 28 24 30 13 32 14 33 18 34 15 35 17 36 16 37
REMARK H PARENT 32 12 30 14 28 16 26 29 24 31
REMARK Flexibility Score: inf
ROOT
ATOM      1  O   UNL     1       6.755 -56.465 194.533  1.00  0.00    -0.458 OA
ENDROOT
BRANCH   1   2
ATOM      2  C   UNL     1       7.510 -57.051 195.598  1.00  0.00     0.339 C 
ATOM      3  C   UNL     1       7.611 -55.090 196.953  1.00  0.00     0.199 C 
ATOM      4  C   UNL     1       6.608 -55.676 197.982  1.00  0.00     0.180 C 
ATOM      5  O   UNL     1       8.337 -56.091 196.247  1.00  0.00    -0.328 OA
ATOM      6  C   UNL     1       5.717 -56.753 197.337  1.00  0.00     0.181 C 
ATOM      7  C   UNL     1       6.575 -57.775 196.578  1.00  0.00     0.214 C 
BRANCH   3   8
ATOM      8  C   UNL     1       7.017 -54.061 196.020  1.00  0.00     0.073 C 
ATOM      9  O   UNL     1       7.768 -53.444 195.219  1.00  0.00    -0.547 OA
ATOM     10  O   UNL     1       5.655 -53.781 196.024  1.00  0.00    -0.547 OA
ENDBRANCH   3   8
BRANCH   4  11
ATOM     11  O   UNL     1       7.312 -56.237 199.062  1.00  0.00    -0.387 OA
ATOM     12  H   UNL     1       8.106 -55.661 199.221  1.00  0.00     0.211 HD
ENDBRANCH   4  11
BRANCH   6  13
ATOM     13  O   UNL     1       4.948 -57.406 198.314  1.00  0.00    -0.387 OA
ATOM     14  H   UNL     1       5.225 -58.360 198.306  1.00  0.00     0.211 HD
ENDBRANCH   6  13
BRANCH   7  15
ATOM     15  O   UNL     1       7.346 -58.542 197.470  1.00  0.00    -0.384 OA
ATOM     16  H   UNL     1       8.112 -58.904 196.954  1.00  0.00     0.211 HD
ENDBRANCH   7  15
ENDBRANCH   1   2
BRANCH   1  17
ATOM     17  C   UNL     1       5.941 -57.171 193.630  1.00  0.00     0.172 A 
ATOM     18  C   UNL     1       4.602 -56.778 193.502  1.00  0.00     0.201 A 
ATOM     19  C   UNL     1       6.433 -58.233 192.858  1.00  0.00     0.098 A 
ATOM     20  C   UNL     1       3.742 -57.452 192.598  1.00  0.00     0.176 A 
ATOM     21  C   UNL     1       5.603 -58.904 191.962  1.00  0.00     0.146 A 
ATOM     22  C   UNL     1       4.250 -58.523 191.822  1.00  0.00     0.111 A 
ATOM     23  O   UNL     1       6.104 -59.905 191.246  1.00  0.00    -0.456 OA
ATOM     24  C   UNL     1       3.466 -59.241 190.891  1.00  0.00     0.197 A 
ATOM     25  C   UNL     1       5.391 -60.607 190.369  1.00  0.00     0.138 A 
ATOM     26  C   UNL     1       4.041 -60.285 190.164  1.00  0.00     0.100 A 
ATOM     27  O   UNL     1       2.254 -58.961 190.695  1.00  0.00    -0.289 OA
BRANCH  18  28
ATOM     28  O   UNL     1       4.169 -55.708 194.293  1.00  0.00    -0.502 OA
ATOM     29  H   UNL     1       3.320 -55.187 194.138  1.00  0.00     0.293 HD
ENDBRANCH  18  28
BRANCH  20  30
ATOM     30  O   UNL     1       2.400 -57.083 192.455  1.00  0.00    -0.504 OA
ATOM     31  H   UNL     1       1.955 -56.864 191.576  1.00  0.00     0.293 HD
ENDBRANCH  20  30
BRANCH  25  32
ATOM     32  C   UNL     1       6.058 -61.704 189.622  1.00  0.00     0.017 A 
ATOM     33  C   UNL     1       5.320 -62.454 188.688  1.00  0.00     0.012 A 
ATOM     34  C   UNL     1       7.425 -61.999 189.799  1.00  0.00     0.012 A 
ATOM     35  C   UNL     1       5.927 -63.487 187.968  1.00  0.00     0.001 A 
ATOM     36  C   UNL     1       8.026 -63.032 189.076  1.00  0.00     0.001 A 
ATOM     37  C   UNL     1       7.277 -63.778 188.163  1.00  0.00     0.000 A 
ENDBRANCH  25  32
ENDBRANCH   1  17
TORSDOF 9
ENDMDL
MODEL 5
REMARK VINA RESULT:    -5.913      2.477      3.265
REMARK INTER + INTRA:          -9.367
REMARK INTER:                  -8.242
REMARK INTRA:                  -1.125
REMARK UNBOUND:                -1.207
REMARK SMILES O=C([O-])[C@@H]1O[C@H](Oc2cc3oc(-c4ccccc4)cc(=O)c3c(O)c2O)[C@@H](O)[C@@H](O)[C@H]1O
REMARK SMILES IDX 7 1 6 2 4 3 31 4 5 5 29 6 27 7 2 8 1 9 3 10 32 11 30 13
REMARK SMILES IDX 28 15 8 17 25 18 9 19 23 20 10 21 22 22 11 23 20 24 12 25
REMARK SMILES IDX 19 26 21 27 26 28 24 30 13 32 14 33 18 34 15 35 17 36 16 37
REMARK H PARENT 32 12 30 14 28 16 26 29 24 31
REMARK Flexibility Score: inf
ROOT
ATOM      1  O   UNL     1       5.973 -57.271 195.607  1.00  0.00    -0.458 OA
ENDROOT
BRANCH   1   2
ATOM      2  C   UNL     1       6.616 -58.165 196.521  1.00  0.00     0.339 C 
ATOM      3  C   UNL     1       6.203 -56.870 198.482  1.00  0.00     0.199 C 
ATOM      4  C   UNL     1       5.137 -57.875 198.994  1.00  0.00     0.180 C 
ATOM      5  O   UNL     1       7.174 -57.470 197.632  1.00  0.00    -0.328 OA
ATOM      6  C   UNL     1       4.534 -58.683 197.833  1.00  0.00     0.181 C 
ATOM      7  C   UNL     1       5.646 -59.273 196.954  1.00  0.00     0.214 C 
BRANCH   3   8
ATOM      8  C   UNL     1       5.631 -55.607 197.882  1.00  0.00     0.073 C 
ATOM      9  O   UNL     1       6.404 -54.662 197.573  1.00  0.00    -0.547 OA
ATOM     10  O   UNL     1       4.266 -55.466 197.659  1.00  0.00    -0.547 OA
ENDBRANCH   3   8
BRANCH   4  11
ATOM     11  O   UNL     1       5.725 -58.755 199.921  1.00  0.00    -0.387 OA
ATOM     12  H   UNL     1       6.663 -58.899 199.629  1.00  0.00     0.211 HD
ENDBRANCH   4  11
BRANCH   6  13
ATOM     13  O   UNL     1       3.715 -59.714 198.323  1.00  0.00    -0.387 OA
ATOM     14  H   UNL     1       3.000 -59.857 197.649  1.00  0.00     0.211 HD
ENDBRANCH   6  13
BRANCH   7  15
ATOM     15  O   UNL     1       6.359 -60.266 197.649  1.00  0.00    -0.384 OA
ATOM     16  H   UNL     1       7.112 -60.543 197.067  1.00  0.00     0.211 HD
ENDBRANCH   7  15
ENDBRANCH   1   2
BRANCH   1  17
ATOM     17  C   UNL     1       5.462 -57.627 194.347  1.00  0.00     0.172 A 
ATOM     18  C   UNL     1       4.380 -56.892 193.842  1.00  0.00     0.201 A 
ATOM     19  C   UNL     1       6.008 -58.674 193.590  1.00  0.00     0.098 A 
ATOM     20  C   UNL     1       3.834 -57.206 192.572  1.00  0.00     0.176 A 
ATOM     21  C   UNL     1       5.485 -58.993 192.338  1.00  0.00     0.146 A 
ATOM     22  C   UNL     1       4.394 -58.265 191.815  1.00  0.00     0.111 A 
ATOM     23  O   UNL     1       6.030 -59.990 191.649  1.00  0.00    -0.456 OA
ATOM     24  C   UNL     1       3.919 -58.637 190.538  1.00  0.00     0.197 A 
ATOM     25  C   UNL     1       5.600 -60.371 190.449  1.00  0.00     0.138 A 
ATOM     26  C   UNL     1       4.525 -59.693 189.855  1.00  0.00     0.100 A 
ATOM     27  O   UNL     1       2.956 -58.035 189.992  1.00  0.00    -0.289 OA
BRANCH  18  28
ATOM     28  O   UNL     1       3.881 -55.856 194.638  1.00  0.00    -0.502 OA
ATOM     29  H   UNL     1       3.386 -55.988 195.507  1.00  0.00     0.293 HD
ENDBRANCH  18  28
BRANCH  20  30
ATOM     30  O   UNL     1       2.750 -56.493 192.046  1.00  0.00    -0.504 OA
ATOM     31  H   UNL     1       2.788 -55.921 191.216  1.00  0.00     0.293 HD
ENDBRANCH  20  30
BRANCH  25  32
ATOM     32  C   UNL     1       6.287 -61.500 189.770  1.00  0.00     0.017 A 
ATOM     33  C   UNL     1       5.607 -62.227 188.776  1.00  0.00     0.012 A 
ATOM     34  C   UNL     1       7.619 -61.847 190.071  1.00  0.00     0.012 A 
ATOM     35  C   UNL     1       6.234 -63.288 188.117  1.00  0.00     0.001 A 
ATOM     36  C   UNL     1       8.241 -62.909 189.409  1.00  0.00     0.001 A 
ATOM     37  C   UNL     1       7.549 -63.631 188.435  1.00  0.00     0.000 A 
ENDBRANCH  25  32
ENDBRANCH   1  17
TORSDOF 9
ENDMDL
MODEL 6
REMARK VINA RESULT:    -5.847      2.455      8.386
REMARK INTER + INTRA:          -9.276
REMARK INTER:                  -8.059
REMARK INTRA:                  -1.217
REMARK UNBOUND:                -1.207
REMARK SMILES O=C([O-])[C@@H]1O[C@H](Oc2cc3oc(-c4ccccc4)cc(=O)c3c(O)c2O)[C@@H](O)[C@@H](O)[C@H]1O
REMARK SMILES IDX 7 1 6 2 4 3 31 4 5 5 29 6 27 7 2 8 1 9 3 10 32 11 30 13
REMARK SMILES IDX 28 15 8 17 25 18 9 19 23 20 10 21 22 22 11 23 20 24 12 25
REMARK SMILES IDX 19 26 21 27 26 28 24 30 13 32 14 33 18 34 15 35 17 36 16 37
REMARK H PARENT 32 12 30 14 28 16 26 29 24 31
REMARK Flexibility Score: inf
ROOT
ATOM      1  O   UNL     1       6.405 -58.192 192.009  1.00  0.00    -0.458 OA
ENDROOT
BRANCH   1   2
ATOM      2  C   UNL     1       5.879 -59.504 192.224  1.00  0.00     0.339 C 
ATOM      3  C   UNL     1       3.960 -59.246 190.830  1.00  0.00     0.199 C 
ATOM      4  C   UNL     1       4.550 -60.181 189.742  1.00  0.00     0.180 C 
ATOM      5  O   UNL     1       4.458 -59.524 192.135  1.00  0.00    -0.328 OA
ATOM      6  C   UNL     1       6.086 -60.228 189.825  1.00  0.00     0.181 C 
ATOM      7  C   UNL     1       6.537 -60.506 191.265  1.00  0.00     0.214 C 
BRANCH   3   8
ATOM      8  C   UNL     1       4.037 -57.775 190.498  1.00  0.00     0.073 C 
ATOM      9  O   UNL     1       4.665 -57.404 189.472  1.00  0.00    -0.547 OA
ATOM     10  O   UNL     1       3.427 -56.819 191.302  1.00  0.00    -0.547 OA
ENDBRANCH   3   8
BRANCH   4  11
ATOM     11  O   UNL     1       4.032 -61.479 189.901  1.00  0.00    -0.387 OA
ATOM     12  H   UNL     1       3.094 -61.459 189.575  1.00  0.00     0.211 HD
ENDBRANCH   4  11
BRANCH   6  13
ATOM     13  O   UNL     1       6.596 -61.216 188.965  1.00  0.00    -0.387 OA
ATOM     14  H   UNL     1       7.239 -60.763 188.359  1.00  0.00     0.211 HD
ENDBRANCH   6  13
BRANCH   7  15
ATOM     15  O   UNL     1       6.192 -61.813 191.654  1.00  0.00    -0.384 OA
ATOM     16  H   UNL     1       6.747 -62.036 192.445  1.00  0.00     0.211 HD
ENDBRANCH   7  15
ENDBRANCH   1   2
BRANCH   1  17
ATOM     17  C   UNL     1       6.783 -57.291 193.020  1.00  0.00     0.172 A 
ATOM     18  C   UNL     1       6.764 -55.921 192.724  1.00  0.00     0.201 A 
ATOM     19  C   UNL     1       7.160 -57.724 194.300  1.00  0.00     0.098 A 
ATOM     20  C   UNL     1       7.128 -54.972 193.713  1.00  0.00     0.176 A 
ATOM     21  C   UNL     1       7.517 -56.804 195.283  1.00  0.00     0.146 A 
ATOM     22  C   UNL     1       7.506 -55.420 195.003  1.00  0.00     0.111 A 
ATOM     23  O   UNL     1       7.867 -57.250 196.485  1.00  0.00    -0.456 OA
ATOM     24  C   UNL     1       7.873 -54.543 196.048  1.00  0.00     0.197 A 
ATOM     25  C   UNL     1       8.227 -56.452 197.487  1.00  0.00     0.138 A 
ATOM     26  C   UNL     1       8.233 -55.063 197.292  1.00  0.00     0.100 A 
ATOM     27  O   UNL     1       7.881 -53.293 195.887  1.00  0.00    -0.289 OA
BRANCH  18  28
ATOM     28  O   UNL     1       6.374 -55.548 191.433  1.00  0.00    -0.502 OA
ATOM     29  H   UNL     1       7.003 -55.444 190.652  1.00  0.00     0.293 HD
ENDBRANCH  18  28
BRANCH  20  30
ATOM     30  O   UNL     1       7.124 -53.598 193.443  1.00  0.00    -0.504 OA
ATOM     31  H   UNL     1       6.914 -52.880 194.121  1.00  0.00     0.293 HD
ENDBRANCH  20  30
BRANCH  25  32
ATOM     32  C   UNL     1       8.597 -57.064 198.789  1.00  0.00     0.017 A 
ATOM     33  C   UNL     1       9.935 -57.428 199.027  1.00  0.00     0.012 A 
ATOM     34  C   UNL     1       7.647 -57.263 199.812  1.00  0.00     0.012 A 
ATOM     35  C   UNL     1      10.309 -57.999 200.247  1.00  0.00     0.001 A 
ATOM     36  C   UNL     1       8.028 -57.833 201.030  1.00  0.00     0.001 A 
ATOM     37  C   UNL     1       9.357 -58.204 201.246  1.00  0.00     0.000 A 
ENDBRANCH  25  32
ENDBRANCH   1  17
TORSDOF 9
ENDMDL
MODEL 7
REMARK VINA RESULT:    -5.677      4.645      7.813
REMARK INTER + INTRA:          -9.041
REMARK INTER:                  -8.238
REMARK INTRA:                  -0.803
REMARK UNBOUND:                -1.207
REMARK SMILES O=C([O-])[C@@H]1O[C@H](Oc2cc3oc(-c4ccccc4)cc(=O)c3c(O)c2O)[C@@H](O)[C@@H](O)[C@H]1O
REMARK SMILES IDX 7 1 6 2 4 3 31 4 5 5 29 6 27 7 2 8 1 9 3 10 32 11 30 13
REMARK SMILES IDX 28 15 8 17 25 18 9 19 23 20 10 21 22 22 11 23 20 24 12 25
REMARK SMILES IDX 19 26 21 27 26 28 24 30 13 32 14 33 18 34 15 35 17 36 16 37
REMARK H PARENT 32 12 30 14 28 16 26 29 24 31
REMARK Flexibility Score: inf
ROOT
ATOM      1  O   UNL     1       6.270 -56.423 195.099  1.00  0.00    -0.458 OA
ENDROOT
BRANCH   1   2
ATOM      2  C   UNL     1       7.351 -56.158 194.201  1.00  0.00     0.339 C 
ATOM      3  C   UNL     1       6.290 -57.036 192.253  1.00  0.00     0.199 C 
ATOM      4  C   UNL     1       6.077 -55.619 191.657  1.00  0.00     0.180 C 
ATOM      5  O   UNL     1       7.400 -57.107 193.141  1.00  0.00    -0.328 OA
ATOM      6  C   UNL     1       6.060 -54.549 192.762  1.00  0.00     0.181 C 
ATOM      7  C   UNL     1       7.274 -54.713 193.687  1.00  0.00     0.214 C 
BRANCH   3   8
ATOM      8  C   UNL     1       5.048 -57.653 192.851  1.00  0.00     0.073 C 
ATOM      9  O   UNL     1       5.096 -58.828 193.302  1.00  0.00    -0.547 OA
ATOM     10  O   UNL     1       3.850 -56.950 192.918  1.00  0.00    -0.547 OA
ENDBRANCH   3   8
BRANCH   4  11
ATOM     11  O   UNL     1       7.106 -55.331 190.743  1.00  0.00    -0.387 OA
ATOM     12  H   UNL     1       6.830 -55.710 189.867  1.00  0.00     0.211 HD
ENDBRANCH   4  11
BRANCH   6  13
ATOM     13  O   UNL     1       6.057 -53.261 192.202  1.00  0.00    -0.387 OA
ATOM     14  H   UNL     1       6.461 -53.341 191.298  1.00  0.00     0.211 HD
ENDBRANCH   6  13
BRANCH   7  15
ATOM     15  O   UNL     1       8.465 -54.400 193.008  1.00  0.00    -0.384 OA
ATOM     16  H   UNL     1       8.207 -53.991 192.142  1.00  0.00     0.211 HD
ENDBRANCH   7  15
ENDBRANCH   1   2
BRANCH   1  17
ATOM     17  C   UNL     1       6.398 -56.989 196.380  1.00  0.00     0.172 A 
ATOM     18  C   UNL     1       6.917 -56.187 197.406  1.00  0.00     0.201 A 
ATOM     19  C   UNL     1       6.014 -58.310 196.652  1.00  0.00     0.098 A 
ATOM     20  C   UNL     1       7.058 -56.709 198.718  1.00  0.00     0.176 A 
ATOM     21  C   UNL     1       6.143 -58.836 197.937  1.00  0.00     0.146 A 
ATOM     22  C   UNL     1       6.665 -58.044 198.983  1.00  0.00     0.111 A 
ATOM     23  O   UNL     1       5.767 -60.091 198.158  1.00  0.00    -0.456 OA
ATOM     24  C   UNL     1       6.762 -58.638 200.261  1.00  0.00     0.197 A 
ATOM     25  C   UNL     1       5.854 -60.683 199.347  1.00  0.00     0.138 A 
ATOM     26  C   UNL     1       6.354 -59.961 200.441  1.00  0.00     0.100 A 
ATOM     27  O   UNL     1       7.207 -58.001 201.252  1.00  0.00    -0.289 OA
BRANCH  18  28
ATOM     28  O   UNL     1       7.277 -54.876 197.077  1.00  0.00    -0.502 OA
ATOM     29  H   UNL     1       6.627 -54.114 196.965  1.00  0.00     0.293 HD
ENDBRANCH  18  28
BRANCH  20  30
ATOM     30  O   UNL     1       7.578 -55.932 199.760  1.00  0.00    -0.504 OA
ATOM     31  H   UNL     1       8.345 -56.208 200.355  1.00  0.00     0.293 HD
ENDBRANCH  20  30
BRANCH  25  32
ATOM     32  C   UNL     1       5.401 -62.092 199.477  1.00  0.00     0.017 A 
ATOM     33  C   UNL     1       4.051 -62.410 199.241  1.00  0.00     0.012 A 
ATOM     34  C   UNL     1       6.295 -63.132 199.803  1.00  0.00     0.012 A 
ATOM     35  C   UNL     1       3.602 -63.729 199.350  1.00  0.00     0.001 A 
ATOM     36  C   UNL     1       5.840 -64.449 199.911  1.00  0.00     0.001 A 
ATOM     37  C   UNL     1       4.494 -64.747 199.688  1.00  0.00     0.000 A 
ENDBRANCH  25  32
ENDBRANCH   1  17
TORSDOF 9
ENDMDL
MODEL 8
REMARK VINA RESULT:    -5.637      3.227      4.195
REMARK INTER + INTRA:          -8.985
REMARK INTER:                  -7.841
REMARK INTRA:                  -1.144
REMARK UNBOUND:                -1.207
REMARK SMILES O=C([O-])[C@@H]1O[C@H](Oc2cc3oc(-c4ccccc4)cc(=O)c3c(O)c2O)[C@@H](O)[C@@H](O)[C@H]1O
REMARK SMILES IDX 7 1 6 2 4 3 31 4 5 5 29 6 27 7 2 8 1 9 3 10 32 11 30 13
REMARK SMILES IDX 28 15 8 17 25 18 9 19 23 20 10 21 22 22 11 23 20 24 12 25
REMARK SMILES IDX 19 26 21 27 26 28 24 30 13 32 14 33 18 34 15 35 17 36 16 37
REMARK H PARENT 32 12 30 14 28 16 26 29 24 31
REMARK Flexibility Score: inf
ROOT
ATOM      1  O   UNL     1       5.068 -58.567 196.306  1.00  0.00    -0.458 OA
ENDROOT
BRANCH   1   2
ATOM      2  C   UNL     1       5.664 -59.662 197.008  1.00  0.00     0.339 C 
ATOM      3  C   UNL     1       6.470 -58.378 198.851  1.00  0.00     0.199 C 
ATOM      4  C   UNL     1       5.401 -58.969 199.808  1.00  0.00     0.180 C 
ATOM      5  O   UNL     1       6.793 -59.246 197.769  1.00  0.00    -0.328 OA
ATOM      6  C   UNL     1       4.175 -59.474 199.027  1.00  0.00     0.181 C 
ATOM      7  C   UNL     1       4.613 -60.379 197.867  1.00  0.00     0.214 C 
BRANCH   3   8
ATOM      8  C   UNL     1       6.175 -56.975 198.379  1.00  0.00     0.073 C 
ATOM      9  O   UNL     1       6.947 -56.425 197.549  1.00  0.00    -0.547 OA
ATOM     10  O   UNL     1       5.066 -56.274 198.839  1.00  0.00    -0.547 OA
ENDBRANCH   3   8
BRANCH   4  11
ATOM     11  O   UNL     1       5.959 -60.033 200.541  1.00  0.00    -0.387 OA
ATOM     12  H   UNL     1       6.216 -59.669 201.429  1.00  0.00     0.211 HD
ENDBRANCH   4  11
BRANCH   6  13
ATOM     13  O   UNL     1       3.302 -60.174 199.877  1.00  0.00    -0.387 OA
ATOM     14  H   UNL     1       3.130 -61.053 199.449  1.00  0.00     0.211 HD
ENDBRANCH   6  13
BRANCH   7  15
ATOM     15  O   UNL     1       5.155 -61.584 198.350  1.00  0.00    -0.384 OA
ATOM     16  H   UNL     1       5.496 -62.084 197.564  1.00  0.00     0.211 HD
ENDBRANCH   7  15
ENDBRANCH   1   2
BRANCH   1  17
ATOM     17  C   UNL     1       5.109 -58.375 194.914  1.00  0.00     0.172 A 
ATOM     18  C   UNL     1       4.908 -57.078 194.421  1.00  0.00     0.201 A 
ATOM     19  C   UNL     1       5.356 -59.430 194.024  1.00  0.00     0.098 A 
ATOM     20  C   UNL     1       4.949 -56.830 193.025  1.00  0.00     0.176 A 
ATOM     21  C   UNL     1       5.403 -59.202 192.649  1.00  0.00     0.146 A 
ATOM     22  C   UNL     1       5.201 -57.903 192.135  1.00  0.00     0.111 A 
ATOM     23  O   UNL     1       5.640 -60.226 191.836  1.00  0.00    -0.456 OA
ATOM     24  C   UNL     1       5.268 -57.743 190.733  1.00  0.00     0.197 A 
ATOM     25  C   UNL     1       5.701 -60.110 190.512  1.00  0.00     0.138 A 
ATOM     26  C   UNL     1       5.520 -58.850 189.922  1.00  0.00     0.100 A 
ATOM     27  O   UNL     1       5.109 -56.617 190.189  1.00  0.00    -0.289 OA
BRANCH  18  28
ATOM     28  O   UNL     1       4.673 -56.065 195.357  1.00  0.00    -0.502 OA
ATOM     29  H   UNL     1       5.196 -55.939 196.209  1.00  0.00     0.293 HD
ENDBRANCH  18  28
BRANCH  20  30
ATOM     30  O   UNL     1       4.746 -55.546 192.505  1.00  0.00    -0.504 OA
ATOM     31  H   UNL     1       4.919 -54.689 193.009  1.00  0.00     0.293 HD
ENDBRANCH  20  30
BRANCH  25  32
ATOM     32  C   UNL     1       5.975 -61.324 189.701  1.00  0.00     0.017 A 
ATOM     33  C   UNL     1       4.938 -61.901 188.946  1.00  0.00     0.012 A 
ATOM     34  C   UNL     1       7.260 -61.903 189.642  1.00  0.00     0.012 A 
ATOM     35  C   UNL     1       5.173 -63.040 188.169  1.00  0.00     0.001 A 
ATOM     36  C   UNL     1       7.488 -63.041 188.863  1.00  0.00     0.001 A 
ATOM     37  C   UNL     1       6.445 -63.611 188.130  1.00  0.00     0.000 A 
ENDBRANCH  25  32
ENDBRANCH   1  17
TORSDOF 9
ENDMDL
