MODEL 1
REMARK VINA RESULT:    -3.365      0.000      0.000
REMARK INTER + INTRA:          -7.923
REMARK INTER:                  -5.136
REMARK INTRA:                  -2.786
REMARK UNBOUND:                -2.786
REMARK SMILES CC(=O)CCC=C(C)CCC=C(C)CCC=C(C)C
REMARK SMILES IDX 10 1 11 2 12 3 13 4 14 5 15 6 16 7 18 8 17 9 19 10 9 11 7 12
REMARK SMILES IDX 6 13 8 14 5 15 4 16 2 17 3 18 1 19
REMARK H PARENT
REMARK Flexibility Score: inf
ROOT
ATOM      1  C   UNL     1      64.166  15.588   0.232  1.00  0.00     0.032 C 
ENDROOT
BRANCH   1   2
ATOM      2  C   UNL     1      63.981  15.837  -1.246  1.00  0.00    -0.028 C 
ATOM      3  C   UNL     1      63.550  14.922  -2.145  1.00  0.00    -0.077 C 
ATOM      4  C   UNL     1      63.347  15.367  -3.571  1.00  0.00     0.039 C 
BRANCH   3   5
ATOM      5  C   UNL     1      63.295  13.465  -1.801  1.00  0.00     0.034 C 
BRANCH   5   6
ATOM      6  C   UNL     1      61.817  13.086  -1.971  1.00  0.00     0.032 C 
BRANCH   6   7
ATOM      7  C   UNL     1      61.133  12.919  -0.636  1.00  0.00    -0.028 C 
ATOM      8  C   UNL     1      59.716  13.514   1.280  1.00  0.00     0.039 C 
ATOM      9  C   UNL     1      60.382  13.863  -0.025  1.00  0.00    -0.080 C 
ATOM     10  C   UNL     1      60.196  15.242  -0.608  1.00  0.00     0.039 C 
ENDBRANCH   6   7
ENDBRANCH   5   6
ENDBRANCH   3   5
ENDBRANCH   1   2
BRANCH   1  11
ATOM     11  C   UNL     1      63.396  16.613   1.080  1.00  0.00     0.034 C 
BRANCH  11  12
ATOM     12  C   UNL     1      62.563  15.953   2.165  1.00  0.00    -0.077 C 
ATOM     13  C   UNL     1      61.488  16.541   2.740  1.00  0.00    -0.028 C 
ATOM     14  C   UNL     1      62.949  14.572   2.633  1.00  0.00     0.039 C 
BRANCH  13  15
ATOM     15  C   UNL     1      60.937  17.908   2.396  1.00  0.00     0.035 C 
BRANCH  15  16
ATOM     16  C   UNL     1      59.526  17.802   1.806  1.00  0.00     0.079 C 
BRANCH  16  17
ATOM     17  C   UNL     1      59.349  18.696   0.605  1.00  0.00     0.130 C 
ATOM     18  O   UNL     1      58.226  19.053   0.280  1.00  0.00    -0.300 OA
ATOM     19  C   UNL     1      60.526  19.168  -0.197  1.00  0.00     0.087 C 
ENDBRANCH  16  17
ENDBRANCH  15  16
ENDBRANCH  13  15
ENDBRANCH  11  12
ENDBRANCH   1  11
TORSDOF 9
ENDMDL
MODEL 2
REMARK VINA RESULT:    -3.297      2.096      5.423
REMARK INTER + INTRA:          -7.818
REMARK INTER:                  -5.733
REMARK INTRA:                  -2.085
REMARK UNBOUND:                -2.786
REMARK SMILES CC(=O)CCC=C(C)CCC=C(C)CCC=C(C)C
REMARK SMILES IDX 10 1 11 2 12 3 13 4 14 5 15 6 16 7 18 8 17 9 19 10 9 11 7 12
REMARK SMILES IDX 6 13 8 14 5 15 4 16 2 17 3 18 1 19
REMARK H PARENT
REMARK Flexibility Score: inf
ROOT
ATOM      1  C   UNL     1      63.784  16.270  -0.435  1.00  0.00     0.032 C 
ENDROOT
BRANCH   1   2
ATOM      2  C   UNL     1      62.995  16.272   0.852  1.00  0.00    -0.028 C 
ATOM      3  C   UNL     1      61.682  16.581   0.964  1.00  0.00    -0.077 C 
ATOM      4  C   UNL     1      61.034  16.452   2.319  1.00  0.00     0.039 C 
BRANCH   3   5
ATOM      5  C   UNL     1      60.838  17.085  -0.194  1.00  0.00     0.034 C 
BRANCH   5   6
ATOM      6  C   UNL     1      60.574  18.594  -0.096  1.00  0.00     0.032 C 
BRANCH   6   7
ATOM      7  C   UNL     1      59.157  18.881   0.338  1.00  0.00    -0.028 C 
ATOM      8  C   UNL     1      57.347  19.824   1.703  1.00  0.00     0.039 C 
ATOM      9  C   UNL     1      58.810  19.572   1.446  1.00  0.00    -0.080 C 
ATOM     10  C   UNL     1      59.835  20.094   2.422  1.00  0.00     0.039 C 
ENDBRANCH   6   7
ENDBRANCH   5   6
ENDBRANCH   3   5
ENDBRANCH   1   2
BRANCH   1  11
ATOM     11  C   UNL     1      64.009  14.844  -0.961  1.00  0.00     0.034 C 
BRANCH  11  12
ATOM     12  C   UNL     1      63.165  14.542  -2.188  1.00  0.00    -0.077 C 
ATOM     13  C   UNL     1      62.239  13.555  -2.232  1.00  0.00    -0.028 C 
ATOM     14  C   UNL     1      63.365  15.380  -3.426  1.00  0.00     0.039 C 
BRANCH  13  15
ATOM     15  C   UNL     1      61.884  12.625  -1.093  1.00  0.00     0.035 C 
BRANCH  15  16
ATOM     16  C   UNL     1      60.799  13.237  -0.198  1.00  0.00     0.079 C 
BRANCH  16  17
ATOM     17  C   UNL     1      59.431  13.137  -0.824  1.00  0.00     0.130 C 
ATOM     18  O   UNL     1      59.126  12.129  -1.447  1.00  0.00    -0.300 OA
ATOM     19  C   UNL     1      58.427  14.244  -0.691  1.00  0.00     0.087 C 
ENDBRANCH  16  17
ENDBRANCH  15  16
ENDBRANCH  13  15
ENDBRANCH  11  12
ENDBRANCH   1  11
TORSDOF 9
ENDMDL
MODEL 3
REMARK VINA RESULT:    -3.206      1.080      3.109
REMARK INTER + INTRA:          -7.679
REMARK INTER:                  -4.984
REMARK INTRA:                  -2.695
REMARK UNBOUND:                -2.786
REMARK SMILES CC(=O)CCC=C(C)CCC=C(C)CCC=C(C)C
REMARK SMILES IDX 10 1 11 2 12 3 13 4 14 5 15 6 16 7 18 8 17 9 19 10 9 11 7 12
REMARK SMILES IDX 6 13 8 14 5 15 4 16 2 17 3 18 1 19
REMARK H PARENT
REMARK Flexibility Score: inf
ROOT
ATOM      1  C   UNL     1      61.913  13.025  -0.870  1.00  0.00     0.032 C 
ENDROOT
BRANCH   1   2
ATOM      2  C   UNL     1      62.502  13.649  -2.112  1.00  0.00    -0.028 C 
ATOM      3  C   UNL     1      62.722  14.972  -2.292  1.00  0.00    -0.077 C 
ATOM      4  C   UNL     1      63.395  15.413  -3.568  1.00  0.00     0.039 C 
BRANCH   3   5
ATOM      5  C   UNL     1      62.296  16.036  -1.296  1.00  0.00     0.034 C 
BRANCH   5   6
ATOM      6  C   UNL     1      63.382  16.303  -0.244  1.00  0.00     0.032 C 
BRANCH   6   7
ATOM      7  C   UNL     1      62.800  16.369   1.147  1.00  0.00    -0.028 C 
ATOM      8  C   UNL     1      62.415  15.708   3.481  1.00  0.00     0.039 C 
ATOM      9  C   UNL     1      63.023  15.463   2.125  1.00  0.00    -0.080 C 
ATOM     10  C   UNL     1      63.857  14.225   1.898  1.00  0.00     0.039 C 
ENDBRANCH   6   7
ENDBRANCH   5   6
ENDBRANCH   3   5
ENDBRANCH   1   2
BRANCH   1  11
ATOM     11  C   UNL     1      60.441  13.422  -0.679  1.00  0.00     0.034 C 
BRANCH  11  12
ATOM     12  C   UNL     1      60.086  13.634   0.783  1.00  0.00    -0.077 C 
ATOM     13  C   UNL     1      59.505  14.763   1.253  1.00  0.00    -0.028 C 
ATOM     14  C   UNL     1      60.397  12.535   1.769  1.00  0.00     0.039 C 
BRANCH  13  15
ATOM     15  C   UNL     1      59.104  15.963   0.422  1.00  0.00     0.035 C 
BRANCH  15  16
ATOM     16  C   UNL     1      58.741  17.155   1.316  1.00  0.00     0.079 C 
BRANCH  16  17
ATOM     17  C   UNL     1      58.908  18.469   0.596  1.00  0.00     0.130 C 
ATOM     18  O   UNL     1      57.931  19.179   0.404  1.00  0.00    -0.300 OA
ATOM     19  C   UNL     1      60.253  18.932   0.117  1.00  0.00     0.087 C 
ENDBRANCH  16  17
ENDBRANCH  15  16
ENDBRANCH  13  15
ENDBRANCH  11  12
ENDBRANCH   1  11
TORSDOF 9
ENDMDL
MODEL 4
REMARK VINA RESULT:    -3.194      1.474      3.048
REMARK INTER + INTRA:          -7.661
REMARK INTER:                  -5.121
REMARK INTRA:                  -2.540
REMARK UNBOUND:                -2.786
REMARK SMILES CC(=O)CCC=C(C)CCC=C(C)CCC=C(C)C
REMARK SMILES IDX 10 1 11 2 12 3 13 4 14 5 15 6 16 7 18 8 17 9 19 10 9 11 7 12
REMARK SMILES IDX 6 13 8 14 5 15 4 16 2 17 3 18 1 19
REMARK H PARENT
REMARK Flexibility Score: inf
ROOT
ATOM      1  C   UNL     1      63.457  13.918  -2.103  1.00  0.00     0.032 C 
ENDROOT
BRANCH   1   2
ATOM      2  C   UNL     1      62.031  13.427  -2.155  1.00  0.00    -0.028 C 
ATOM      3  C   UNL     1      61.571  12.296  -1.571  1.00  0.00    -0.077 C 
ATOM      4  C   UNL     1      60.095  11.999  -1.657  1.00  0.00     0.039 C 
BRANCH   3   5
ATOM      5  C   UNL     1      62.468  11.293  -0.866  1.00  0.00     0.034 C 
BRANCH   5   6
ATOM      6  C   UNL     1      62.148  11.194   0.633  1.00  0.00     0.032 C 
BRANCH   6   7
ATOM      7  C   UNL     1      62.874  12.255   1.424  1.00  0.00    -0.028 C 
ATOM      8  C   UNL     1      63.152  14.288   2.773  1.00  0.00     0.039 C 
ATOM      9  C   UNL     1      62.297  13.356   1.956  1.00  0.00    -0.080 C 
ATOM     10  C   UNL     1      60.835  13.673   1.756  1.00  0.00     0.039 C 
ENDBRANCH   6   7
ENDBRANCH   5   6
ENDBRANCH   3   5
ENDBRANCH   1   2
BRANCH   1  11
ATOM     11  C   UNL     1      63.528  15.452  -2.066  1.00  0.00     0.034 C 
BRANCH  11  12
ATOM     12  C   UNL     1      63.628  15.991  -0.649  1.00  0.00    -0.077 C 
ATOM     13  C   UNL     1      62.585  16.546   0.013  1.00  0.00    -0.028 C 
ATOM     14  C   UNL     1      64.955  15.909   0.063  1.00  0.00     0.039 C 
BRANCH  13  15
ATOM     15  C   UNL     1      61.179  16.702  -0.524  1.00  0.00     0.035 C 
BRANCH  15  16
ATOM     16  C   UNL     1      60.226  17.204   0.567  1.00  0.00     0.079 C 
BRANCH  16  17
ATOM     17  C   UNL     1      59.783  18.623   0.317  1.00  0.00     0.130 C 
ATOM     18  O   UNL     1      60.576  19.428  -0.151  1.00  0.00    -0.300 OA
ATOM     19  C   UNL     1      58.382  19.070   0.620  1.00  0.00     0.087 C 
ENDBRANCH  16  17
ENDBRANCH  15  16
ENDBRANCH  13  15
ENDBRANCH  11  12
ENDBRANCH   1  11
TORSDOF 9
ENDMDL
MODEL 5
REMARK VINA RESULT:    -3.120      1.943      4.265
REMARK INTER + INTRA:          -7.548
REMARK INTER:                  -5.647
REMARK INTRA:                  -1.902
REMARK UNBOUND:                -2.786
REMARK SMILES CC(=O)CCC=C(C)CCC=C(C)CCC=C(C)C
REMARK SMILES IDX 10 1 11 2 12 3 13 4 14 5 15 6 16 7 18 8 17 9 19 10 9 11 7 12
REMARK SMILES IDX 6 13 8 14 5 15 4 16 2 17 3 18 1 19
REMARK H PARENT
REMARK Flexibility Score: inf
ROOT
ATOM      1  C   UNL     1      60.809  18.074  -0.166  1.00  0.00     0.032 C 
ENDROOT
BRANCH   1   2
ATOM      2  C   UNL     1      60.543  16.647   0.248  1.00  0.00    -0.028 C 
ATOM      3  C   UNL     1      61.451  15.813   0.806  1.00  0.00    -0.077 C 
ATOM      4  C   UNL     1      60.990  14.442   1.233  1.00  0.00     0.039 C 
BRANCH   3   5
ATOM      5  C   UNL     1      62.915  16.171   0.990  1.00  0.00     0.034 C 
BRANCH   5   6
ATOM      6  C   UNL     1      63.837  15.249   0.179  1.00  0.00     0.032 C 
BRANCH   6   7
ATOM      7  C   UNL     1      63.871  15.644  -1.278  1.00  0.00    -0.028 C 
ATOM      8  C   UNL     1      63.364  15.516  -3.678  1.00  0.00     0.039 C 
ATOM      9  C   UNL     1      63.290  14.952  -2.283  1.00  0.00    -0.080 C 
ATOM     10  C   UNL     1      62.576  13.643  -2.050  1.00  0.00     0.039 C 
ENDBRANCH   6   7
ENDBRANCH   5   6
ENDBRANCH   3   5
ENDBRANCH   1   2
BRANCH   1  11
ATOM     11  C   UNL     1      59.671  19.012   0.267  1.00  0.00     0.034 C 
BRANCH  11  12
ATOM     12  C   UNL     1      59.886  19.572   1.663  1.00  0.00    -0.077 C 
ATOM     13  C   UNL     1      59.238  19.112   2.759  1.00  0.00    -0.028 C 
ATOM     14  C   UNL     1      60.869  20.702   1.844  1.00  0.00     0.039 C 
BRANCH  13  15
ATOM     15  C   UNL     1      58.233  17.981   2.782  1.00  0.00     0.035 C 
BRANCH  15  16
ATOM     16  C   UNL     1      56.839  18.491   3.170  1.00  0.00     0.079 C 
BRANCH  16  17
ATOM     17  C   UNL     1      56.137  19.148   2.008  1.00  0.00     0.130 C 
ATOM     18  O   UNL     1      55.630  18.452   1.139  1.00  0.00    -0.300 OA
ATOM     19  C   UNL     1      56.038  20.641   1.897  1.00  0.00     0.087 C 
ENDBRANCH  16  17
ENDBRANCH  15  16
ENDBRANCH  13  15
ENDBRANCH  11  12
ENDBRANCH   1  11
TORSDOF 9
ENDMDL
MODEL 6
REMARK VINA RESULT:    -3.107      2.424      5.672
REMARK INTER + INTRA:          -7.528
REMARK INTER:                  -5.300
REMARK INTRA:                  -2.229
REMARK UNBOUND:                -2.786
REMARK SMILES CC(=O)CCC=C(C)CCC=C(C)CCC=C(C)C
REMARK SMILES IDX 10 1 11 2 12 3 13 4 14 5 15 6 16 7 18 8 17 9 19 10 9 11 7 12
REMARK SMILES IDX 6 13 8 14 5 15 4 16 2 17 3 18 1 19
REMARK H PARENT
REMARK Flexibility Score: inf
ROOT
ATOM      1  C   UNL     1      62.339  16.217   2.176  1.00  0.00     0.032 C 
ENDROOT
BRANCH   1   2
ATOM      2  C   UNL     1      60.861  16.097   1.895  1.00  0.00    -0.028 C 
ATOM      3  C   UNL     1      60.199  16.739   0.904  1.00  0.00    -0.077 C 
ATOM      4  C   UNL     1      58.733  16.440   0.719  1.00  0.00     0.039 C 
BRANCH   3   5
ATOM      5  C   UNL     1      60.846  17.769  -0.005  1.00  0.00     0.034 C 
BRANCH   5   6
ATOM      6  C   UNL     1      60.088  19.104   0.012  1.00  0.00     0.032 C 
BRANCH   6   7
ATOM      7  C   UNL     1      60.230  19.804   1.342  1.00  0.00    -0.028 C 
ATOM      8  C   UNL     1      59.520  20.782   3.480  1.00  0.00     0.039 C 
ATOM      9  C   UNL     1      59.203  20.141   2.154  1.00  0.00    -0.080 C 
ATOM     10  C   UNL     1      57.764  19.895   1.774  1.00  0.00     0.039 C 
ENDBRANCH   6   7
ENDBRANCH   5   6
ENDBRANCH   3   5
ENDBRANCH   1   2
BRANCH   1  11
ATOM     11  C   UNL     1      63.160  15.241   1.318  1.00  0.00     0.034 C 
BRANCH  11  12
ATOM     12  C   UNL     1      64.160  15.958   0.427  1.00  0.00    -0.077 C 
ATOM     13  C   UNL     1      64.067  15.988  -0.924  1.00  0.00    -0.028 C 
ATOM     14  C   UNL     1      65.320  16.674   1.072  1.00  0.00     0.039 C 
BRANCH  13  15
ATOM     15  C   UNL     1      62.973  15.347  -1.750  1.00  0.00     0.035 C 
BRANCH  15  16
ATOM     16  C   UNL     1      63.237  13.849  -1.946  1.00  0.00     0.079 C 
BRANCH  16  17
ATOM     17  C   UNL     1      61.985  13.029  -1.762  1.00  0.00     0.130 C 
ATOM     18  O   UNL     1      61.941  11.889  -2.205  1.00  0.00    -0.300 OA
ATOM     19  C   UNL     1      60.792  13.576  -1.036  1.00  0.00     0.087 C 
ENDBRANCH  16  17
ENDBRANCH  15  16
ENDBRANCH  13  15
ENDBRANCH  11  12
ENDBRANCH   1  11
TORSDOF 9
ENDMDL
MODEL 7
REMARK VINA RESULT:    -3.057      1.430      3.351
REMARK INTER + INTRA:          -7.451
REMARK INTER:                  -4.614
REMARK INTRA:                  -2.837
REMARK UNBOUND:                -2.786
REMARK SMILES CC(=O)CCC=C(C)CCC=C(C)CCC=C(C)C
REMARK SMILES IDX 10 1 11 2 12 3 13 4 14 5 15 6 16 7 18 8 17 9 19 10 9 11 7 12
REMARK SMILES IDX 6 13 8 14 5 15 4 16 2 17 3 18 1 19
REMARK H PARENT
REMARK Flexibility Score: inf
ROOT
ATOM      1  C   UNL     1      64.641  15.486   0.482  1.00  0.00     0.032 C 
ENDROOT
BRANCH   1   2
ATOM      2  C   UNL     1      63.755  15.767   1.672  1.00  0.00    -0.028 C 
ATOM      3  C   UNL     1      62.948  14.865   2.277  1.00  0.00    -0.077 C 
ATOM      4  C   UNL     1      62.192  15.299   3.506  1.00  0.00     0.039 C 
BRANCH   3   5
ATOM      5  C   UNL     1      62.738  13.451   1.762  1.00  0.00     0.034 C 
BRANCH   5   6
ATOM      6  C   UNL     1      61.326  13.253   1.193  1.00  0.00     0.032 C 
BRANCH   6   7
ATOM      7  C   UNL     1      61.352  12.441  -0.079  1.00  0.00    -0.028 C 
ATOM      8  C   UNL     1      60.624  11.663  -2.292  1.00  0.00     0.039 C 
ATOM      9  C   UNL     1      60.418  12.497  -1.054  1.00  0.00    -0.080 C 
ATOM     10  C   UNL     1      59.187  13.362  -0.939  1.00  0.00     0.039 C 
ENDBRANCH   6   7
ENDBRANCH   5   6
ENDBRANCH   3   5
ENDBRANCH   1   2
BRANCH   1  11
ATOM     11  C   UNL     1      64.185  16.265  -0.761  1.00  0.00     0.034 C 
BRANCH  11  12
ATOM     12  C   UNL     1      63.007  15.603  -1.456  1.00  0.00    -0.077 C 
ATOM     13  C   UNL     1      61.725  16.007  -1.297  1.00  0.00    -0.028 C 
ATOM     14  C   UNL     1      63.272  14.433  -2.371  1.00  0.00     0.039 C 
BRANCH  13  15
ATOM     15  C   UNL     1      61.262  17.165  -0.440  1.00  0.00     0.035 C 
BRANCH  15  16
ATOM     16  C   UNL     1      60.130  16.735   0.502  1.00  0.00     0.079 C 
BRANCH  16  17
ATOM     17  C   UNL     1      59.548  17.906   1.253  1.00  0.00     0.130 C 
ATOM     18  O   UNL     1      59.817  18.057   2.436  1.00  0.00    -0.300 OA
ATOM     19  C   UNL     1      58.652  18.901   0.576  1.00  0.00     0.087 C 
ENDBRANCH  16  17
ENDBRANCH  15  16
ENDBRANCH  13  15
ENDBRANCH  11  12
ENDBRANCH   1  11
TORSDOF 9
ENDMDL
MODEL 8
REMARK VINA RESULT:    -3.036      2.081      5.582
REMARK INTER + INTRA:          -7.420
REMARK INTER:                  -5.298
REMARK INTRA:                  -2.122
REMARK UNBOUND:                -2.786
REMARK SMILES CC(=O)CCC=C(C)CCC=C(C)CCC=C(C)C
REMARK SMILES IDX 10 1 11 2 12 3 13 4 14 5 15 6 16 7 18 8 17 9 19 10 9 11 7 12
REMARK SMILES IDX 6 13 8 14 5 15 4 16 2 17 3 18 1 19
REMARK H PARENT
REMARK Flexibility Score: inf
ROOT
ATOM      1  C   UNL     1      59.193  15.042   0.900  1.00  0.00     0.032 C 
ENDROOT
BRANCH   1   2
ATOM      2  C   UNL     1      60.557  15.419   1.428  1.00  0.00    -0.028 C 
ATOM      3  C   UNL     1      61.353  16.387   0.917  1.00  0.00    -0.077 C 
ATOM      4  C   UNL     1      62.652  16.685   1.621  1.00  0.00     0.039 C 
BRANCH   3   5
ATOM      5  C   UNL     1      61.023  17.162  -0.347  1.00  0.00     0.034 C 
BRANCH   5   6
ATOM      6  C   UNL     1      60.716  18.636  -0.051  1.00  0.00     0.032 C 
BRANCH   6   7
ATOM      7  C   UNL     1      59.266  18.835   0.321  1.00  0.00    -0.028 C 
ATOM      8  C   UNL     1      57.346  19.625   1.632  1.00  0.00     0.039 C 
ATOM      9  C   UNL     1      58.830  19.456   1.439  1.00  0.00    -0.080 C 
ATOM     10  C   UNL     1      59.779  19.979   2.489  1.00  0.00     0.039 C 
ENDBRANCH   6   7
ENDBRANCH   5   6
ENDBRANCH   3   5
ENDBRANCH   1   2
BRANCH   1  11
ATOM     11  C   UNL     1      59.294  14.215  -0.391  1.00  0.00     0.034 C 
BRANCH  11  12
ATOM     12  C   UNL     1      60.010  12.892  -0.173  1.00  0.00    -0.077 C 
ATOM     13  C   UNL     1      61.130  12.532  -0.844  1.00  0.00    -0.028 C 
ATOM     14  C   UNL     1      59.449  11.925   0.839  1.00  0.00     0.039 C 
BRANCH  13  15
ATOM     15  C   UNL     1      61.849  13.369  -1.879  1.00  0.00     0.035 C 
BRANCH  15  16
ATOM     16  C   UNL     1      63.180  13.898  -1.332  1.00  0.00     0.079 C 
BRANCH  16  17
ATOM     17  C   UNL     1      63.619  15.155  -2.039  1.00  0.00     0.130 C 
ATOM     18  O   UNL     1      64.218  16.019  -1.416  1.00  0.00    -0.300 OA
ATOM     19  C   UNL     1      63.345  15.367  -3.500  1.00  0.00     0.087 C 
ENDBRANCH  16  17
ENDBRANCH  15  16
ENDBRANCH  13  15
ENDBRANCH  11  12
ENDBRANCH   1  11
TORSDOF 9
ENDMDL
MODEL 9
REMARK VINA RESULT:    -2.982      2.405      5.544
REMARK INTER + INTRA:          -7.337
REMARK INTER:                  -4.399
REMARK INTRA:                  -2.939
REMARK UNBOUND:                -2.786
REMARK SMILES CC(=O)CCC=C(C)CCC=C(C)CCC=C(C)C
REMARK SMILES IDX 10 1 11 2 12 3 13 4 14 5 15 6 16 7 18 8 17 9 19 10 9 11 7 12
REMARK SMILES IDX 6 13 8 14 5 15 4 16 2 17 3 18 1 19
REMARK H PARENT
REMARK Flexibility Score: inf
ROOT
ATOM      1  C   UNL     1      60.292  15.475   2.126  1.00  0.00     0.032 C 
ENDROOT
BRANCH   1   2
ATOM      2  C   UNL     1      61.707  15.558   1.605  1.00  0.00    -0.028 C 
ATOM      3  C   UNL     1      62.088  16.198   0.476  1.00  0.00    -0.077 C 
ATOM      4  C   UNL     1      63.559  16.248   0.149  1.00  0.00     0.039 C 
BRANCH   3   5
ATOM      5  C   UNL     1      61.112  16.837  -0.496  1.00  0.00     0.034 C 
BRANCH   5   6
ATOM      6  C   UNL     1      60.960  18.344  -0.247  1.00  0.00     0.032 C 
BRANCH   6   7
ATOM      7  C   UNL     1      59.597  18.678   0.310  1.00  0.00    -0.028 C 
ATOM      8  C   UNL     1      57.941  19.431   1.959  1.00  0.00     0.039 C 
ATOM      9  C   UNL     1      59.354  19.076   1.579  1.00  0.00    -0.080 C 
ATOM     10  C   UNL     1      60.448  19.174   2.613  1.00  0.00     0.039 C 
ENDBRANCH   6   7
ENDBRANCH   5   6
ENDBRANCH   3   5
ENDBRANCH   1   2
BRANCH   1  11
ATOM     11  C   UNL     1      59.604  14.171   1.692  1.00  0.00     0.034 C 
BRANCH  11  12
ATOM     12  C   UNL     1      58.809  14.338   0.408  1.00  0.00    -0.077 C 
ATOM     13  C   UNL     1      59.040  13.612  -0.711  1.00  0.00    -0.028 C 
ATOM     14  C   UNL     1      57.706  15.366   0.370  1.00  0.00     0.039 C 
BRANCH  13  15
ATOM     15  C   UNL     1      60.085  12.528  -0.863  1.00  0.00     0.035 C 
BRANCH  15  16
ATOM     16  C   UNL     1      61.192  12.962  -1.832  1.00  0.00     0.079 C 
BRANCH  16  17
ATOM     17  C   UNL     1      62.559  12.867  -1.203  1.00  0.00     0.130 C 
ATOM     18  O   UNL     1      63.536  13.258  -1.825  1.00  0.00    -0.300 OA
ATOM     19  C   UNL     1      62.747  12.311   0.178  1.00  0.00     0.087 C 
ENDBRANCH  16  17
ENDBRANCH  15  16
ENDBRANCH  13  15
ENDBRANCH  11  12
ENDBRANCH   1  11
TORSDOF 9
ENDMDL
