MODEL 1
REMARK VINA RESULT:    -1.905      0.000      0.000
REMARK INTER + INTRA:          -6.218
REMARK INTER:                  -3.687
REMARK INTRA:                  -2.531
REMARK UNBOUND:                -2.531
REMARK SMILES CCCCCC=CCC=CCCCCCCCCOC(C)=O
REMARK SMILES IDX 12 1 11 2 10 3 9 4 8 5 7 6 6 7 5 8 4 9 3 10 2 11 1 12 13 13
REMARK SMILES IDX 14 14 15 15 16 16 17 17 18 18 19 19 20 20 22 21 21 22
REMARK H PARENT
REMARK Flexibility Score: inf
ROOT
ATOM      1  C   UNL     1      21.170  52.781  41.519  1.00  0.00     0.004 C 
ENDROOT
BRANCH   1   2
ATOM      2  C   UNL     1      22.127  53.689  42.301  1.00  0.00     0.027 C 
BRANCH   2   3
ATOM      3  C   UNL     1      21.729  55.137  42.158  1.00  0.00    -0.031 C 
ATOM      4  C   UNL     1      22.509  56.090  41.614  1.00  0.00    -0.027 C 
BRANCH   4   5
ATOM      5  C   UNL     1      23.918  55.864  41.127  1.00  0.00     0.054 C 
BRANCH   5   6
ATOM      6  C   UNL     1      23.985  55.882  39.624  1.00  0.00    -0.027 C 
ATOM      7  C   UNL     1      23.921  54.751  38.906  1.00  0.00    -0.031 C 
BRANCH   7   8
ATOM      8  C   UNL     1      23.986  54.768  37.401  1.00  0.00     0.027 C 
BRANCH   8   9
ATOM      9  C   UNL     1      24.023  53.352  36.804  1.00  0.00     0.004 C 
BRANCH   9  10
ATOM     10  C   UNL     1      22.620  52.729  36.706  1.00  0.00     0.000 C 
BRANCH  10  11
ATOM     11  C   UNL     1      22.600  51.254  37.136  1.00  0.00    -0.003 C 
ATOM     12  C   UNL     1      23.830  50.482  36.656  1.00  0.00     0.004 C 
ENDBRANCH  10  11
ENDBRANCH   9  10
ENDBRANCH   8   9
ENDBRANCH   7   8
ENDBRANCH   5   6
ENDBRANCH   4   5
ENDBRANCH   2   3
ENDBRANCH   1   2
BRANCH   1  13
ATOM     13  C   UNL     1      20.825  53.334  40.126  1.00  0.00     0.000 C 
BRANCH  13  14
ATOM     14  C   UNL     1      19.309  53.384  39.837  1.00  0.00     0.000 C 
BRANCH  14  15
ATOM     15  C   UNL     1      18.842  54.785  39.417  1.00  0.00     0.000 C 
BRANCH  15  16
ATOM     16  C   UNL     1      20.037  55.722  39.200  1.00  0.00     0.003 C 
BRANCH  16  17
ATOM     17  C   UNL     1      20.508  55.685  37.740  1.00  0.00     0.042 C 
BRANCH  17  18
ATOM     18  C   UNL     1      19.341  55.446  36.775  1.00  0.00     0.233 C 
BRANCH  18  19
ATOM     19  O   UNL     1      19.539  54.255  36.013  1.00  0.00    -0.466 OA
BRANCH  19  20
ATOM     20  C   UNL     1      18.849  53.062  36.254  1.00  0.00     0.302 C 
ATOM     21  O   UNL     1      17.675  53.077  36.714  1.00  0.00    -0.253 OA
ATOM     22  C   UNL     1      19.492  51.763  35.908  1.00  0.00     0.139 C 
ENDBRANCH  19  20
ENDBRANCH  18  19
ENDBRANCH  17  18
ENDBRANCH  16  17
ENDBRANCH  15  16
ENDBRANCH  14  15
ENDBRANCH  13  14
ENDBRANCH   1  13
TORSDOF 16
ENDMDL
MODEL 2
REMARK VINA RESULT:    -0.778      2.446      4.585
REMARK INTER + INTRA:          -4.037
REMARK INTER:                  -3.862
REMARK INTRA:                  -0.174
REMARK UNBOUND:                -2.531
REMARK SMILES CCCCCC=CCC=CCCCCCCCCOC(C)=O
REMARK SMILES IDX 12 1 11 2 10 3 9 4 8 5 7 6 6 7 5 8 4 9 3 10 2 11 1 12 13 13
REMARK SMILES IDX 14 14 15 15 16 16 17 17 18 18 19 19 20 20 22 21 21 22
REMARK H PARENT
REMARK Flexibility Score: inf
ROOT
ATOM      1  C   UNL     1      19.855  52.591  38.128  1.00  0.00     0.004 C 
ENDROOT
BRANCH   1   2
ATOM      2  C   UNL     1      20.104  53.066  36.690  1.00  0.00     0.027 C 
BRANCH   2   3
ATOM      3  C   UNL     1      19.509  54.434  36.467  1.00  0.00    -0.031 C 
ATOM      4  C   UNL     1      20.228  55.566  36.350  1.00  0.00    -0.027 C 
BRANCH   4   5
ATOM      5  C   UNL     1      21.728  55.643  36.488  1.00  0.00     0.054 C 
BRANCH   5   6
ATOM      6  C   UNL     1      22.232  54.672  37.520  1.00  0.00    -0.027 C 
ATOM      7  C   UNL     1      23.282  53.872  37.277  1.00  0.00    -0.031 C 
BRANCH   7   8
ATOM      8  C   UNL     1      23.788  52.900  38.309  1.00  0.00     0.027 C 
BRANCH   8   9
ATOM      9  C   UNL     1      23.973  51.486  37.736  1.00  0.00     0.004 C 
BRANCH   9  10
ATOM     10  C   UNL     1      23.541  51.398  36.262  1.00  0.00     0.000 C 
BRANCH  10  11
ATOM     11  C   UNL     1      22.941  50.030  35.905  1.00  0.00    -0.003 C 
ATOM     12  C   UNL     1      21.449  49.937  36.228  1.00  0.00     0.004 C 
ENDBRANCH  10  11
ENDBRANCH   9  10
ENDBRANCH   8   9
ENDBRANCH   7   8
ENDBRANCH   5   6
ENDBRANCH   4   5
ENDBRANCH   2   3
ENDBRANCH   1   2
BRANCH   1  13
ATOM     13  C   UNL     1      19.441  53.732  39.072  1.00  0.00     0.000 C 
BRANCH  13  14
ATOM     14  C   UNL     1      19.687  53.423  40.564  1.00  0.00     0.000 C 
BRANCH  14  15
ATOM     15  C   UNL     1      18.804  54.273  41.489  1.00  0.00     0.000 C 
BRANCH  15  16
ATOM     16  C   UNL     1      19.186  55.756  41.405  1.00  0.00     0.003 C 
BRANCH  16  17
ATOM     17  C   UNL     1      20.670  55.961  41.736  1.00  0.00     0.042 C 
BRANCH  17  18
ATOM     18  C   UNL     1      21.528  56.036  40.468  1.00  0.00     0.233 C 
BRANCH  18  19
ATOM     19  O   UNL     1      22.900  55.767  40.757  1.00  0.00    -0.466 OA
BRANCH  19  20
ATOM     20  C   UNL     1      23.320  54.983  41.837  1.00  0.00     0.302 C 
ATOM     21  O   UNL     1      23.238  53.725  41.792  1.00  0.00    -0.253 OA
ATOM     22  C   UNL     1      23.922  55.643  43.029  1.00  0.00     0.139 C 
ENDBRANCH  19  20
ENDBRANCH  18  19
ENDBRANCH  17  18
ENDBRANCH  16  17
ENDBRANCH  15  16
ENDBRANCH  14  15
ENDBRANCH  13  14
ENDBRANCH   1  13
TORSDOF 16
ENDMDL
MODEL 3
REMARK VINA RESULT:    -0.738      7.336      9.900
REMARK INTER + INTRA:          -3.959
REMARK INTER:                  -2.835
REMARK INTRA:                  -1.124
REMARK UNBOUND:                -2.531
REMARK SMILES CCCCCC=CCC=CCCCCCCCCOC(C)=O
REMARK SMILES IDX 12 1 11 2 10 3 9 4 8 5 7 6 6 7 5 8 4 9 3 10 2 11 1 12 13 13
REMARK SMILES IDX 14 14 15 15 16 16 17 17 18 18 19 19 20 20 22 21 21 22
REMARK H PARENT
REMARK Flexibility Score: inf
ROOT
ATOM      1  C   UNL     1      21.602  52.338  45.483  1.00  0.00     0.004 C 
ENDROOT
BRANCH   1   2
ATOM      2  C   UNL     1      20.715  52.761  44.305  1.00  0.00     0.027 C 
BRANCH   2   3
ATOM      3  C   UNL     1      21.492  52.733  43.013  1.00  0.00    -0.031 C 
ATOM      4  C   UNL     1      20.979  53.056  41.811  1.00  0.00    -0.027 C 
BRANCH   4   5
ATOM      5  C   UNL     1      19.538  53.429  41.570  1.00  0.00     0.054 C 
BRANCH   5   6
ATOM      6  C   UNL     1      19.318  53.868  40.148  1.00  0.00    -0.027 C 
ATOM      7  C   UNL     1      19.548  53.042  39.116  1.00  0.00    -0.031 C 
BRANCH   7   8
ATOM      8  C   UNL     1      19.327  53.479  37.692  1.00  0.00     0.027 C 
BRANCH   8   9
ATOM      9  C   UNL     1      20.211  52.704  36.701  1.00  0.00     0.004 C 
BRANCH   9  10
ATOM     10  C   UNL     1      20.708  51.372  37.288  1.00  0.00     0.000 C 
BRANCH  10  11
ATOM     11  C   UNL     1      22.239  51.253  37.264  1.00  0.00    -0.003 C 
ATOM     12  C   UNL     1      22.896  51.826  38.521  1.00  0.00     0.004 C 
ENDBRANCH  10  11
ENDBRANCH   9  10
ENDBRANCH   8   9
ENDBRANCH   7   8
ENDBRANCH   5   6
ENDBRANCH   4   5
ENDBRANCH   2   3
ENDBRANCH   1   2
BRANCH   1  13
ATOM     13  C   UNL     1      20.980  52.669  46.850  1.00  0.00     0.000 C 
BRANCH  13  14
ATOM     14  C   UNL     1      21.965  52.528  48.030  1.00  0.00     0.000 C 
BRANCH  14  15
ATOM     15  C   UNL     1      21.245  52.458  49.385  1.00  0.00     0.000 C 
BRANCH  15  16
ATOM     16  C   UNL     1      21.741  51.265  50.211  1.00  0.00     0.003 C 
BRANCH  16  17
ATOM     17  C   UNL     1      21.713  51.584  51.711  1.00  0.00     0.042 C 
BRANCH  17  18
ATOM     18  C   UNL     1      22.805  52.588  52.098  1.00  0.00     0.233 C 
BRANCH  18  19
ATOM     19  O   UNL     1      22.321  53.535  53.050  1.00  0.00    -0.466 OA
BRANCH  19  20
ATOM     20  C   UNL     1      21.272  54.422  52.790  1.00  0.00     0.302 C 
ATOM     21  O   UNL     1      21.310  55.192  51.791  1.00  0.00    -0.253 OA
ATOM     22  C   UNL     1      20.072  54.416  53.673  1.00  0.00     0.139 C 
ENDBRANCH  19  20
ENDBRANCH  18  19
ENDBRANCH  17  18
ENDBRANCH  16  17
ENDBRANCH  15  16
ENDBRANCH  14  15
ENDBRANCH  13  14
ENDBRANCH   1  13
TORSDOF 16
ENDMDL
MODEL 4
REMARK VINA RESULT:    -0.732      7.699     10.591
REMARK INTER + INTRA:          -3.947
REMARK INTER:                  -3.030
REMARK INTRA:                  -0.917
REMARK UNBOUND:                -2.531
REMARK SMILES CCCCCC=CCC=CCCCCCCCCOC(C)=O
REMARK SMILES IDX 12 1 11 2 10 3 9 4 8 5 7 6 6 7 5 8 4 9 3 10 2 11 1 12 13 13
REMARK SMILES IDX 14 14 15 15 16 16 17 17 18 18 19 19 20 20 22 21 21 22
REMARK H PARENT
REMARK Flexibility Score: inf
ROOT
ATOM      1  C   UNL     1      21.045  52.367  46.552  1.00  0.00     0.004 C 
ENDROOT
BRANCH   1   2
ATOM      2  C   UNL     1      21.910  52.761  47.755  1.00  0.00     0.027 C 
BRANCH   2   3
ATOM      3  C   UNL     1      21.224  52.402  49.049  1.00  0.00    -0.031 C 
ATOM      4  C   UNL     1      21.716  51.537  49.956  1.00  0.00    -0.027 C 
BRANCH   4   5
ATOM      5  C   UNL     1      22.992  50.753  49.783  1.00  0.00     0.054 C 
BRANCH   5   6
ATOM      6  C   UNL     1      23.657  50.493  51.107  1.00  0.00    -0.027 C 
ATOM      7  C   UNL     1      23.341  51.202  52.202  1.00  0.00    -0.031 C 
BRANCH   7   8
ATOM      8  C   UNL     1      24.005  50.942  53.528  1.00  0.00     0.027 C 
BRANCH   8   9
ATOM      9  C   UNL     1      23.018  50.411  54.579  1.00  0.00     0.004 C 
BRANCH   9  10
ATOM     10  C   UNL     1      21.647  51.103  54.487  1.00  0.00     0.000 C 
BRANCH  10  11
ATOM     11  C   UNL     1      21.220  51.744  55.816  1.00  0.00    -0.003 C 
ATOM     12  C   UNL     1      19.740  52.132  55.836  1.00  0.00     0.004 C 
ENDBRANCH  10  11
ENDBRANCH   9  10
ENDBRANCH   8   9
ENDBRANCH   7   8
ENDBRANCH   5   6
ENDBRANCH   4   5
ENDBRANCH   2   3
ENDBRANCH   1   2
BRANCH   1  13
ATOM     13  C   UNL     1      21.723  52.665  45.204  1.00  0.00     0.000 C 
BRANCH  13  14
ATOM     14  C   UNL     1      20.750  52.654  44.005  1.00  0.00     0.000 C 
BRANCH  14  15
ATOM     15  C   UNL     1      21.448  53.016  42.686  1.00  0.00     0.000 C 
BRANCH  15  16
ATOM     16  C   UNL     1      20.430  53.165  41.548  1.00  0.00     0.003 C 
BRANCH  16  17
ATOM     17  C   UNL     1      19.995  54.627  41.386  1.00  0.00     0.042 C 
BRANCH  17  18
ATOM     18  C   UNL     1      18.584  54.736  40.796  1.00  0.00     0.233 C 
BRANCH  18  19
ATOM     19  O   UNL     1      18.597  55.448  39.558  1.00  0.00    -0.466 OA
BRANCH  19  20
ATOM     20  C   UNL     1      19.138  54.930  38.377  1.00  0.00     0.302 C 
ATOM     21  O   UNL     1      19.782  55.668  37.583  1.00  0.00    -0.253 OA
ATOM     22  C   UNL     1      18.997  53.475  38.085  1.00  0.00     0.139 C 
ENDBRANCH  19  20
ENDBRANCH  18  19
ENDBRANCH  17  18
ENDBRANCH  16  17
ENDBRANCH  15  16
ENDBRANCH  14  15
ENDBRANCH  13  14
ENDBRANCH   1  13
TORSDOF 16
ENDMDL
MODEL 5
REMARK VINA RESULT:    -0.731      7.879     10.928
REMARK INTER + INTRA:          -3.945
REMARK INTER:                  -3.063
REMARK INTRA:                  -0.883
REMARK UNBOUND:                -2.531
REMARK SMILES CCCCCC=CCC=CCCCCCCCCOC(C)=O
REMARK SMILES IDX 12 1 11 2 10 3 9 4 8 5 7 6 6 7 5 8 4 9 3 10 2 11 1 12 13 13
REMARK SMILES IDX 14 14 15 15 16 16 17 17 18 18 19 19 20 20 22 21 21 22
REMARK H PARENT
REMARK Flexibility Score: inf
ROOT
ATOM      1  C   UNL     1      20.902  52.517  46.906  1.00  0.00     0.004 C 
ENDROOT
BRANCH   1   2
ATOM      2  C   UNL     1      21.882  52.456  48.084  1.00  0.00     0.027 C 
BRANCH   2   3
ATOM      3  C   UNL     1      21.191  52.814  49.375  1.00  0.00    -0.031 C 
ATOM      4  C   UNL     1      21.635  52.466  50.598  1.00  0.00    -0.027 C 
BRANCH   4   5
ATOM      5  C   UNL     1      22.853  51.614  50.852  1.00  0.00     0.054 C 
BRANCH   5   6
ATOM      6  C   UNL     1      22.987  51.276  52.312  1.00  0.00    -0.027 C 
ATOM      7  C   UNL     1      21.915  51.187  53.113  1.00  0.00    -0.031 C 
BRANCH   7   8
ATOM      8  C   UNL     1      22.048  50.848  54.574  1.00  0.00     0.027 C 
BRANCH   8   9
ATOM      9  C   UNL     1      21.182  51.753  55.463  1.00  0.00     0.004 C 
BRANCH   9  10
ATOM     10  C   UNL     1      20.909  53.118  54.808  1.00  0.00     0.000 C 
BRANCH  10  11
ATOM     11  C   UNL     1      19.436  53.296  54.408  1.00  0.00    -0.003 C 
ATOM     12  C   UNL     1      18.503  53.390  55.616  1.00  0.00     0.004 C 
ENDBRANCH  10  11
ENDBRANCH   9  10
ENDBRANCH   8   9
ENDBRANCH   7   8
ENDBRANCH   5   6
ENDBRANCH   4   5
ENDBRANCH   2   3
ENDBRANCH   1   2
BRANCH   1  13
ATOM     13  C   UNL     1      21.603  52.433  45.539  1.00  0.00     0.000 C 
BRANCH  13  14
ATOM     14  C   UNL     1      20.680  52.766  44.348  1.00  0.00     0.000 C 
BRANCH  14  15
ATOM     15  C   UNL     1      21.464  52.975  43.044  1.00  0.00     0.000 C 
BRANCH  15  16
ATOM     16  C   UNL     1      20.564  52.762  41.820  1.00  0.00     0.003 C 
BRANCH  16  17
ATOM     17  C   UNL     1      21.224  53.312  40.549  1.00  0.00     0.042 C 
BRANCH  17  18
ATOM     18  C   UNL     1      20.523  52.806  39.283  1.00  0.00     0.233 C 
BRANCH  18  19
ATOM     19  O   UNL     1      19.214  53.362  39.162  1.00  0.00    -0.466 OA
BRANCH  19  20
ATOM     20  C   UNL     1      18.971  54.723  38.948  1.00  0.00     0.302 C 
ATOM     21  O   UNL     1      19.148  55.240  37.812  1.00  0.00    -0.253 OA
ATOM     22  C   UNL     1      18.443  55.555  40.066  1.00  0.00     0.139 C 
ENDBRANCH  19  20
ENDBRANCH  18  19
ENDBRANCH  17  18
ENDBRANCH  16  17
ENDBRANCH  15  16
ENDBRANCH  14  15
ENDBRANCH  13  14
ENDBRANCH   1  13
TORSDOF 16
ENDMDL
MODEL 6
REMARK VINA RESULT:    -0.687      7.392     10.232
REMARK INTER + INTRA:          -3.861
REMARK INTER:                  -2.665
REMARK INTRA:                  -1.196
REMARK UNBOUND:                -2.531
REMARK SMILES CCCCCC=CCC=CCCCCCCCCOC(C)=O
REMARK SMILES IDX 12 1 11 2 10 3 9 4 8 5 7 6 6 7 5 8 4 9 3 10 2 11 1 12 13 13
REMARK SMILES IDX 14 14 15 15 16 16 17 17 18 18 19 19 20 20 22 21 21 22
REMARK H PARENT
REMARK Flexibility Score: inf
ROOT
ATOM      1  C   UNL     1      21.064  52.373  46.488  1.00  0.00     0.004 C 
ENDROOT
BRANCH   1   2
ATOM      2  C   UNL     1      21.832  52.916  47.699  1.00  0.00     0.027 C 
BRANCH   2   3
ATOM      3  C   UNL     1      21.263  52.370  48.984  1.00  0.00    -0.031 C 
ATOM      4  C   UNL     1      21.519  52.876  50.205  1.00  0.00    -0.027 C 
BRANCH   4   5
ATOM      5  C   UNL     1      22.461  54.022  50.474  1.00  0.00     0.054 C 
BRANCH   5   6
ATOM      6  C   UNL     1      22.194  54.645  51.817  1.00  0.00    -0.027 C 
ATOM      7  C   UNL     1      20.988  54.566  52.399  1.00  0.00    -0.031 C 
BRANCH   7   8
ATOM      8  C   UNL     1      20.720  55.188  53.744  1.00  0.00     0.027 C 
BRANCH   8   9
ATOM      9  C   UNL     1      20.841  54.171  54.890  1.00  0.00     0.004 C 
BRANCH   9  10
ATOM     10  C   UNL     1      20.124  52.848  54.569  1.00  0.00     0.000 C 
BRANCH  10  11
ATOM     11  C   UNL     1      21.011  51.620  54.823  1.00  0.00    -0.003 C 
ATOM     12  C   UNL     1      21.830  51.218  53.596  1.00  0.00     0.004 C 
ENDBRANCH  10  11
ENDBRANCH   9  10
ENDBRANCH   8   9
ENDBRANCH   7   8
ENDBRANCH   5   6
ENDBRANCH   4   5
ENDBRANCH   2   3
ENDBRANCH   1   2
BRANCH   1  13
ATOM     13  C   UNL     1      21.712  52.757  45.147  1.00  0.00     0.000 C 
BRANCH  13  14
ATOM     14  C   UNL     1      20.770  52.594  43.935  1.00  0.00     0.000 C 
BRANCH  14  15
ATOM     15  C   UNL     1      21.397  53.121  42.635  1.00  0.00     0.000 C 
BRANCH  15  16
ATOM     16  C   UNL     1      20.506  52.805  41.427  1.00  0.00     0.003 C 
BRANCH  16  17
ATOM     17  C   UNL     1      19.406  53.861  41.262  1.00  0.00     0.042 C 
BRANCH  17  18
ATOM     18  C   UNL     1      19.387  54.442  39.843  1.00  0.00     0.233 C 
BRANCH  18  19
ATOM     19  O   UNL     1      18.829  53.514  38.914  1.00  0.00    -0.466 OA
BRANCH  19  20
ATOM     20  C   UNL     1      19.316  53.336  37.615  1.00  0.00     0.302 C 
ATOM     21  O   UNL     1      18.897  54.052  36.664  1.00  0.00    -0.253 OA
ATOM     22  C   UNL     1      20.382  52.326  37.366  1.00  0.00     0.139 C 
ENDBRANCH  19  20
ENDBRANCH  18  19
ENDBRANCH  17  18
ENDBRANCH  16  17
ENDBRANCH  15  16
ENDBRANCH  14  15
ENDBRANCH  13  14
ENDBRANCH   1  13
TORSDOF 16
ENDMDL
MODEL 7
REMARK VINA RESULT:    -0.679      3.648      6.752
REMARK INTER + INTRA:          -3.845
REMARK INTER:                  -2.155
REMARK INTRA:                  -1.690
REMARK UNBOUND:                -2.531
REMARK SMILES CCCCCC=CCC=CCCCCCCCCOC(C)=O
REMARK SMILES IDX 12 1 11 2 10 3 9 4 8 5 7 6 6 7 5 8 4 9 3 10 2 11 1 12 13 13
REMARK SMILES IDX 14 14 15 15 16 16 17 17 18 18 19 19 20 20 22 21 21 22
REMARK H PARENT
REMARK Flexibility Score: inf
ROOT
ATOM      1  C   UNL     1      19.076  55.227  39.912  1.00  0.00     0.004 C 
ENDROOT
BRANCH   1   2
ATOM      2  C   UNL     1      18.943  54.240  41.079  1.00  0.00     0.027 C 
BRANCH   2   3
ATOM      3  C   UNL     1      19.688  52.962  40.788  1.00  0.00    -0.031 C 
ATOM      4  C   UNL     1      20.747  52.522  41.493  1.00  0.00    -0.027 C 
BRANCH   4   5
ATOM      5  C   UNL     1      21.384  53.273  42.634  1.00  0.00     0.054 C 
BRANCH   5   6
ATOM      6  C   UNL     1      20.842  52.813  43.960  1.00  0.00    -0.027 C 
ATOM      7  C   UNL     1      21.616  52.763  45.055  1.00  0.00    -0.031 C 
BRANCH   7   8
ATOM      8  C   UNL     1      21.074  52.305  46.383  1.00  0.00     0.027 C 
BRANCH   8   9
ATOM      9  C   UNL     1      21.811  52.952  47.567  1.00  0.00     0.004 C 
BRANCH   9  10
ATOM     10  C   UNL     1      21.363  52.367  48.917  1.00  0.00     0.000 C 
BRANCH  10  11
ATOM     11  C   UNL     1      22.547  52.053  49.844  1.00  0.00    -0.003 C 
ATOM     12  C   UNL     1      22.921  50.570  49.844  1.00  0.00     0.004 C 
ENDBRANCH  10  11
ENDBRANCH   9  10
ENDBRANCH   8   9
ENDBRANCH   7   8
ENDBRANCH   5   6
ENDBRANCH   4   5
ENDBRANCH   2   3
ENDBRANCH   1   2
BRANCH   1  13
ATOM     13  C   UNL     1      20.510  55.313  39.363  1.00  0.00     0.000 C 
BRANCH  13  14
ATOM     14  C   UNL     1      20.597  55.165  37.829  1.00  0.00     0.000 C 
BRANCH  14  15
ATOM     15  C   UNL     1      19.213  55.030  37.177  1.00  0.00     0.000 C 
BRANCH  15  16
ATOM     16  C   UNL     1      19.180  53.856  36.191  1.00  0.00     0.003 C 
BRANCH  16  17
ATOM     17  C   UNL     1      20.532  53.132  36.153  1.00  0.00     0.042 C 
BRANCH  17  18
ATOM     18  C   UNL     1      20.387  51.644  36.494  1.00  0.00     0.233 C 
BRANCH  18  19
ATOM     19  O   UNL     1      21.060  51.328  37.713  1.00  0.00    -0.466 OA
BRANCH  19  20
ATOM     20  C   UNL     1      22.451  51.361  37.857  1.00  0.00     0.302 C 
ATOM     21  O   UNL     1      23.187  50.565  37.212  1.00  0.00    -0.253 OA
ATOM     22  C   UNL     1      23.070  52.389  38.740  1.00  0.00     0.139 C 
ENDBRANCH  19  20
ENDBRANCH  18  19
ENDBRANCH  17  18
ENDBRANCH  16  17
ENDBRANCH  15  16
ENDBRANCH  14  15
ENDBRANCH  13  14
ENDBRANCH   1  13
TORSDOF 16
ENDMDL
MODEL 8
REMARK VINA RESULT:    -0.668      7.551     10.525
REMARK INTER + INTRA:          -3.823
REMARK INTER:                  -2.799
REMARK INTRA:                  -1.025
REMARK UNBOUND:                -2.531
REMARK SMILES CCCCCC=CCC=CCCCCCCCCOC(C)=O
REMARK SMILES IDX 12 1 11 2 10 3 9 4 8 5 7 6 6 7 5 8 4 9 3 10 2 11 1 12 13 13
REMARK SMILES IDX 14 14 15 15 16 16 17 17 18 18 19 19 20 20 22 21 21 22
REMARK H PARENT
REMARK Flexibility Score: inf
ROOT
ATOM      1  C   UNL     1      20.891  52.393  46.539  1.00  0.00     0.004 C 
ENDROOT
BRANCH   1   2
ATOM      2  C   UNL     1      21.870  52.542  47.710  1.00  0.00     0.027 C 
BRANCH   2   3
ATOM      3  C   UNL     1      21.129  52.768  49.003  1.00  0.00    -0.031 C 
ATOM      4  C   UNL     1      21.488  52.239  50.188  1.00  0.00    -0.027 C 
BRANCH   4   5
ATOM      5  C   UNL     1      22.645  51.292  50.385  1.00  0.00     0.054 C 
BRANCH   5   6
ATOM      6  C   UNL     1      22.930  51.074  51.846  1.00  0.00    -0.027 C 
ATOM      7  C   UNL     1      21.986  51.265  52.780  1.00  0.00    -0.031 C 
BRANCH   7   8
ATOM      8  C   UNL     1      22.269  51.046  54.243  1.00  0.00     0.027 C 
BRANCH   8   9
ATOM      9  C   UNL     1      21.127  51.549  55.139  1.00  0.00     0.004 C 
BRANCH   9  10
ATOM     10  C   UNL     1      20.338  52.695  54.482  1.00  0.00     0.000 C 
BRANCH  10  11
ATOM     11  C   UNL     1      20.879  54.080  54.868  1.00  0.00    -0.003 C 
ATOM     12  C   UNL     1      21.484  54.830  53.681  1.00  0.00     0.004 C 
ENDBRANCH  10  11
ENDBRANCH   9  10
ENDBRANCH   8   9
ENDBRANCH   7   8
ENDBRANCH   5   6
ENDBRANCH   4   5
ENDBRANCH   2   3
ENDBRANCH   1   2
BRANCH   1  13
ATOM     13  C   UNL     1      21.589  52.409  45.169  1.00  0.00     0.000 C 
BRANCH  13  14
ATOM     14  C   UNL     1      20.657  52.798  44.002  1.00  0.00     0.000 C 
BRANCH  14  15
ATOM     15  C   UNL     1      21.404  52.884  42.663  1.00  0.00     0.000 C 
BRANCH  15  16
ATOM     16  C   UNL     1      20.433  52.761  41.482  1.00  0.00     0.003 C 
BRANCH  16  17
ATOM     17  C   UNL     1      19.648  54.063  41.276  1.00  0.00     0.042 C 
BRANCH  17  18
ATOM     18  C   UNL     1      19.038  54.140  39.872  1.00  0.00     0.233 C 
BRANCH  18  19
ATOM     19  O   UNL     1      19.299  52.949  39.130  1.00  0.00    -0.466 OA
BRANCH  19  20
ATOM     20  C   UNL     1      19.849  52.946  37.845  1.00  0.00     0.302 C 
ATOM     21  O   UNL     1      20.927  52.337  37.604  1.00  0.00    -0.253 OA
ATOM     22  C   UNL     1      19.120  53.625  36.736  1.00  0.00     0.139 C 
ENDBRANCH  19  20
ENDBRANCH  18  19
ENDBRANCH  17  18
ENDBRANCH  16  17
ENDBRANCH  15  16
ENDBRANCH  14  15
ENDBRANCH  13  14
ENDBRANCH   1  13
TORSDOF 16
ENDMDL
MODEL 9
REMARK VINA RESULT:    -0.564      4.414      7.428
REMARK INTER + INTRA:          -3.622
REMARK INTER:                  -2.318
REMARK INTRA:                  -1.305
REMARK UNBOUND:                -2.531
REMARK SMILES CCCCCC=CCC=CCCCCCCCCOC(C)=O
REMARK SMILES IDX 12 1 11 2 10 3 9 4 8 5 7 6 6 7 5 8 4 9 3 10 2 11 1 12 13 13
REMARK SMILES IDX 14 14 15 15 16 16 17 17 18 18 19 19 20 20 22 21 21 22
REMARK H PARENT
REMARK Flexibility Score: inf
ROOT
ATOM      1  C   UNL     1      19.086  54.408  41.525  1.00  0.00     0.004 C 
ENDROOT
BRANCH   1   2
ATOM      2  C   UNL     1      19.737  53.019  41.549  1.00  0.00     0.027 C 
BRANCH   2   3
ATOM      3  C   UNL     1      21.189  53.115  41.945  1.00  0.00    -0.031 C 
ATOM      4  C   UNL     1      21.650  52.924  43.195  1.00  0.00    -0.027 C 
BRANCH   4   5
ATOM      5  C   UNL     1      20.778  52.651  44.394  1.00  0.00     0.054 C 
BRANCH   5   6
ATOM      6  C   UNL     1      21.605  52.339  45.611  1.00  0.00    -0.027 C 
ATOM      7  C   UNL     1      21.182  52.654  46.845  1.00  0.00    -0.031 C 
BRANCH   7   8
ATOM      8  C   UNL     1      22.009  52.342  48.065  1.00  0.00     0.027 C 
BRANCH   8   9
ATOM      9  C   UNL     1      21.161  52.294  49.346  1.00  0.00     0.004 C 
BRANCH   9  10
ATOM     10  C   UNL     1      22.011  51.992  50.592  1.00  0.00     0.000 C 
BRANCH  10  11
ATOM     11  C   UNL     1      22.055  53.171  51.575  1.00  0.00    -0.003 C 
ATOM     12  C   UNL     1      21.711  54.506  50.913  1.00  0.00     0.004 C 
ENDBRANCH  10  11
ENDBRANCH   9  10
ENDBRANCH   8   9
ENDBRANCH   7   8
ENDBRANCH   5   6
ENDBRANCH   4   5
ENDBRANCH   2   3
ENDBRANCH   1   2
BRANCH   1  13
ATOM     13  C   UNL     1      18.646  54.839  40.116  1.00  0.00     0.000 C 
BRANCH  13  14
ATOM     14  C   UNL     1      18.932  53.783  39.027  1.00  0.00     0.000 C 
BRANCH  14  15
ATOM     15  C   UNL     1      19.704  54.368  37.836  1.00  0.00     0.000 C 
BRANCH  15  16
ATOM     16  C   UNL     1      21.058  54.934  38.282  1.00  0.00     0.003 C 
BRANCH  16  17
ATOM     17  C   UNL     1      22.109  54.787  37.175  1.00  0.00     0.042 C 
BRANCH  17  18
ATOM     18  C   UNL     1      21.825  53.572  36.283  1.00  0.00     0.233 C 
BRANCH  18  19
ATOM     19  O   UNL     1      22.795  52.544  36.489  1.00  0.00    -0.466 OA
BRANCH  19  20
ATOM     20  C   UNL     1      22.462  51.222  36.800  1.00  0.00     0.302 C 
ATOM     21  O   UNL     1      23.348  50.325  36.840  1.00  0.00    -0.253 OA
ATOM     22  C   UNL     1      21.052  50.885  37.143  1.00  0.00     0.139 C 
ENDBRANCH  19  20
ENDBRANCH  18  19
ENDBRANCH  17  18
ENDBRANCH  16  17
ENDBRANCH  15  16
ENDBRANCH  14  15
ENDBRANCH  13  14
ENDBRANCH   1  13
TORSDOF 16
ENDMDL
