MODEL 1
REMARK VINA RESULT:    -4.346      0.000      0.000
REMARK INTER + INTRA:          -9.659
REMARK INTER:                  -8.157
REMARK INTRA:                  -1.502
REMARK UNBOUND:                -1.502
REMARK SMILES O=C([O-])CCCCCCCCCCCCCCC(=O)[O-]
REMARK SMILES IDX 10 1 9 2 8 3 7 4 6 5 5 6 4 7 2 8 1 9 3 10 11 11 12 12 13 13
REMARK SMILES IDX 14 14 15 15 16 16 17 17 18 18 19 19 20 20
REMARK H PARENT
REMARK Flexibility Score: inf
ROOT
ATOM      1  C   UNL     1      95.346  85.426  79.097  1.00  0.00     0.000 C 
ENDROOT
BRANCH   1   2
ATOM      2  C   UNL     1      94.319  86.103  78.172  1.00  0.00     0.000 C 
BRANCH   2   3
ATOM      3  C   UNL     1      94.168  85.376  76.826  1.00  0.00     0.000 C 
BRANCH   3   4
ATOM      4  C   UNL     1      92.804  84.686  76.674  1.00  0.00     0.000 C 
BRANCH   4   5
ATOM      5  C   UNL     1      92.851  83.254  77.226  1.00  0.00     0.000 C 
BRANCH   5   6
ATOM      6  C   UNL     1      91.704  82.956  78.204  1.00  0.00     0.006 C 
BRANCH   6   7
ATOM      7  C   UNL     1      91.124  84.225  78.843  1.00  0.00     0.053 C 
BRANCH   7   8
ATOM      8  C   UNL     1      89.646  84.290  78.625  1.00  0.00     0.041 C 
ATOM      9  O   UNL     1      89.055  83.363  78.010  1.00  0.00    -0.550 OA
ATOM     10  O   UNL     1      88.911  85.341  79.158  1.00  0.00    -0.550 OA
ENDBRANCH   7   8
ENDBRANCH   6   7
ENDBRANCH   5   6
ENDBRANCH   4   5
ENDBRANCH   3   4
ENDBRANCH   2   3
ENDBRANCH   1   2
BRANCH   1  11
ATOM     11  C   UNL     1      96.676  85.123  78.385  1.00  0.00     0.000 C 
BRANCH  11  12
ATOM     12  C   UNL     1      96.882  83.620  78.137  1.00  0.00     0.000 C 
BRANCH  12  13
ATOM     13  C   UNL     1      96.011  82.743  79.050  1.00  0.00     0.000 C 
BRANCH  13  14
ATOM     14  C   UNL     1      96.792  81.583  79.685  1.00  0.00     0.000 C 
BRANCH  14  15
ATOM     15  C   UNL     1      98.243  81.996  79.977  1.00  0.00     0.000 C 
BRANCH  15  16
ATOM     16  C   UNL     1      98.393  82.725  81.322  1.00  0.00     0.006 C 
BRANCH  16  17
ATOM     17  C   UNL     1      99.801  82.586  81.915  1.00  0.00     0.053 C 
BRANCH  17  18
ATOM     18  C   UNL     1     100.649  83.756  81.526  1.00  0.00     0.041 C 
ATOM     19  O   UNL     1     101.566  83.619  80.673  1.00  0.00    -0.550 OA
ATOM     20  O   UNL     1     100.398  85.009  82.070  1.00  0.00    -0.550 OA
ENDBRANCH  17  18
ENDBRANCH  16  17
ENDBRANCH  15  16
ENDBRANCH  14  15
ENDBRANCH  13  14
ENDBRANCH  12  13
ENDBRANCH  11  12
ENDBRANCH   1  11
TORSDOF 15
ENDMDL
MODEL 2
REMARK VINA RESULT:    -4.332      2.305      7.684
REMARK INTER + INTRA:          -9.632
REMARK INTER:                  -8.435
REMARK INTRA:                  -1.198
REMARK UNBOUND:                -1.502
REMARK SMILES O=C([O-])CCCCCCCCCCCCCCC(=O)[O-]
REMARK SMILES IDX 10 1 9 2 8 3 7 4 6 5 5 6 4 7 2 8 1 9 3 10 11 11 12 12 13 13
REMARK SMILES IDX 14 14 15 15 16 16 17 17 18 18 19 19 20 20
REMARK H PARENT
REMARK Flexibility Score: inf
ROOT
ATOM      1  C   UNL     1      92.869  84.285  77.680  1.00  0.00     0.000 C 
ENDROOT
BRANCH   1   2
ATOM      2  C   UNL     1      94.161  83.654  78.229  1.00  0.00     0.000 C 
BRANCH   2   3
ATOM      3  C   UNL     1      95.427  84.357  77.714  1.00  0.00     0.000 C 
BRANCH   3   4
ATOM      4  C   UNL     1      96.707  83.849  78.395  1.00  0.00     0.000 C 
BRANCH   4   5
ATOM      5  C   UNL     1      96.371  83.057  79.667  1.00  0.00     0.000 C 
BRANCH   5   6
ATOM      6  C   UNL     1      97.213  81.779  79.811  1.00  0.00     0.006 C 
BRANCH   6   7
ATOM      7  C   UNL     1      98.691  82.000  79.461  1.00  0.00     0.053 C 
BRANCH   7   8
ATOM      8  C   UNL     1      99.466  82.377  80.684  1.00  0.00     0.041 C 
ATOM      9  O   UNL     1      99.013  82.110  81.828  1.00  0.00    -0.550 OA
ATOM     10  O   UNL     1     100.719  82.963  80.559  1.00  0.00    -0.550 OA
ENDBRANCH   7   8
ENDBRANCH   6   7
ENDBRANCH   5   6
ENDBRANCH   4   5
ENDBRANCH   3   4
ENDBRANCH   2   3
ENDBRANCH   1   2
BRANCH   1  11
ATOM     11  C   UNL     1      92.000  83.278  76.908  1.00  0.00     0.000 C 
BRANCH  11  12
ATOM     12  C   UNL     1      90.643  83.868  76.490  1.00  0.00     0.000 C 
BRANCH  12  13
ATOM     13  C   UNL     1      89.838  84.405  77.683  1.00  0.00     0.000 C 
BRANCH  13  14
ATOM     14  C   UNL     1      88.835  83.380  78.235  1.00  0.00     0.000 C 
BRANCH  14  15
ATOM     15  C   UNL     1      89.112  83.090  79.719  1.00  0.00     0.000 C 
BRANCH  15  16
ATOM     16  C   UNL     1      90.246  83.955  80.291  1.00  0.00     0.006 C 
BRANCH  16  17
ATOM     17  C   UNL     1      90.384  83.817  81.813  1.00  0.00     0.053 C 
BRANCH  17  18
ATOM     18  C   UNL     1      91.762  84.204  82.248  1.00  0.00     0.041 C 
ATOM     19  O   UNL     1      92.161  83.925  83.410  1.00  0.00    -0.550 OA
ATOM     20  O   UNL     1      92.622  84.834  81.358  1.00  0.00    -0.550 OA
ENDBRANCH  17  18
ENDBRANCH  16  17
ENDBRANCH  15  16
ENDBRANCH  14  15
ENDBRANCH  13  14
ENDBRANCH  12  13
ENDBRANCH  11  12
ENDBRANCH   1  11
TORSDOF 15
ENDMDL
MODEL 3
REMARK VINA RESULT:    -4.296      1.971      2.399
REMARK INTER + INTRA:          -9.565
REMARK INTER:                  -8.364
REMARK INTRA:                  -1.200
REMARK UNBOUND:                -1.502
REMARK SMILES O=C([O-])CCCCCCCCCCCCCCC(=O)[O-]
REMARK SMILES IDX 10 1 9 2 8 3 7 4 6 5 5 6 4 7 2 8 1 9 3 10 11 11 12 12 13 13
REMARK SMILES IDX 14 14 15 15 16 16 17 17 18 18 19 19 20 20
REMARK H PARENT
REMARK Flexibility Score: inf
ROOT
ATOM      1  C   UNL     1      95.740  84.478  77.747  1.00  0.00     0.000 C 
ENDROOT
BRANCH   1   2
ATOM      2  C   UNL     1      94.743  85.218  78.657  1.00  0.00     0.000 C 
BRANCH   2   3
ATOM      3  C   UNL     1      93.291  84.768  78.432  1.00  0.00     0.000 C 
BRANCH   3   4
ATOM      4  C   UNL     1      93.182  83.282  78.056  1.00  0.00     0.000 C 
BRANCH   4   5
ATOM      5  C   UNL     1      92.174  83.079  76.916  1.00  0.00     0.000 C 
BRANCH   5   6
ATOM      6  C   UNL     1      91.225  84.275  76.742  1.00  0.00     0.006 C 
BRANCH   6   7
ATOM      7  C   UNL     1      89.746  83.869  76.769  1.00  0.00     0.053 C 
BRANCH   7   8
ATOM      8  C   UNL     1      89.250  83.800  78.178  1.00  0.00     0.041 C 
ATOM      9  O   UNL     1      88.329  83.000  78.489  1.00  0.00    -0.550 OA
ATOM     10  O   UNL     1      89.851  84.573  79.164  1.00  0.00    -0.550 OA
ENDBRANCH   7   8
ENDBRANCH   6   7
ENDBRANCH   5   6
ENDBRANCH   4   5
ENDBRANCH   3   4
ENDBRANCH   2   3
ENDBRANCH   1   2
BRANCH   1  11
ATOM     11  C   UNL     1      96.935  83.901  78.525  1.00  0.00     0.000 C 
BRANCH  11  12
ATOM     12  C   UNL     1      96.741  82.418  78.886  1.00  0.00     0.000 C 
BRANCH  12  13
ATOM     13  C   UNL     1      97.600  81.984  80.084  1.00  0.00     0.000 C 
BRANCH  13  14
ATOM     14  C   UNL     1      99.105  81.995  79.774  1.00  0.00     0.000 C 
BRANCH  14  15
ATOM     15  C   UNL     1      99.891  82.674  80.906  1.00  0.00     0.000 C 
BRANCH  15  16
ATOM     16  C   UNL     1      99.367  82.295  82.301  1.00  0.00     0.006 C 
BRANCH  16  17
ATOM     17  C   UNL     1      99.105  83.521  83.186  1.00  0.00     0.053 C 
BRANCH  17  18
ATOM     18  C   UNL     1      97.909  83.291  84.055  1.00  0.00     0.041 C 
ATOM     19  O   UNL     1      98.054  83.031  85.279  1.00  0.00    -0.550 OA
ATOM     20  O   UNL     1      96.630  83.407  83.523  1.00  0.00    -0.550 OA
ENDBRANCH  17  18
ENDBRANCH  16  17
ENDBRANCH  15  16
ENDBRANCH  14  15
ENDBRANCH  13  14
ENDBRANCH  12  13
ENDBRANCH  11  12
ENDBRANCH   1  11
TORSDOF 15
ENDMDL
MODEL 4
REMARK VINA RESULT:    -4.268      1.264      8.667
REMARK INTER + INTRA:          -9.512
REMARK INTER:                  -8.267
REMARK INTRA:                  -1.244
REMARK UNBOUND:                -1.502
REMARK SMILES O=C([O-])CCCCCCCCCCCCCCC(=O)[O-]
REMARK SMILES IDX 10 1 9 2 8 3 7 4 6 5 5 6 4 7 2 8 1 9 3 10 11 11 12 12 13 13
REMARK SMILES IDX 14 14 15 15 16 16 17 17 18 18 19 19 20 20
REMARK H PARENT
REMARK Flexibility Score: inf
ROOT
ATOM      1  C   UNL     1      95.789  82.921  78.992  1.00  0.00     0.000 C 
ENDROOT
BRANCH   1   2
ATOM      2  C   UNL     1      96.619  81.724  79.490  1.00  0.00     0.000 C 
BRANCH   2   3
ATOM      3  C   UNL     1      98.131  81.986  79.428  1.00  0.00     0.000 C 
BRANCH   3   4
ATOM      4  C   UNL     1      98.755  82.192  80.817  1.00  0.00     0.000 C 
BRANCH   4   5
ATOM      5  C   UNL     1      99.302  83.619  80.965  1.00  0.00     0.000 C 
BRANCH   5   6
ATOM      6  C   UNL     1     100.733  83.651  81.524  1.00  0.00     0.006 C 
BRANCH   6   7
ATOM      7  C   UNL     1     101.726  84.333  80.574  1.00  0.00     0.053 C 
BRANCH   7   8
ATOM      8  C   UNL     1     101.447  85.800  80.492  1.00  0.00     0.041 C 
ATOM      9  O   UNL     1     101.277  86.473  81.543  1.00  0.00    -0.550 OA
ATOM     10  O   UNL     1     101.441  86.438  79.258  1.00  0.00    -0.550 OA
ENDBRANCH   7   8
ENDBRANCH   6   7
ENDBRANCH   5   6
ENDBRANCH   4   5
ENDBRANCH   3   4
ENDBRANCH   2   3
ENDBRANCH   1   2
BRANCH   1  11
ATOM     11  C   UNL     1      96.602  83.875  78.101  1.00  0.00     0.000 C 
BRANCH  11  12
ATOM     12  C   UNL     1      96.139  85.337  78.224  1.00  0.00     0.000 C 
BRANCH  12  13
ATOM     13  C   UNL     1      94.620  85.492  78.054  1.00  0.00     0.000 C 
BRANCH  13  14
ATOM     14  C   UNL     1      94.135  85.103  76.648  1.00  0.00     0.000 C 
BRANCH  14  15
ATOM     15  C   UNL     1      92.830  84.295  76.725  1.00  0.00     0.000 C 
BRANCH  15  16
ATOM     16  C   UNL     1      92.209  84.304  78.131  1.00  0.00     0.006 C 
BRANCH  16  17
ATOM     17  C   UNL     1      91.441  83.014  78.446  1.00  0.00     0.053 C 
BRANCH  17  18
ATOM     18  C   UNL     1      89.970  83.282  78.502  1.00  0.00     0.041 C 
ATOM     19  O   UNL     1      89.332  83.540  77.447  1.00  0.00    -0.550 OA
ATOM     20  O   UNL     1      89.295  83.205  79.714  1.00  0.00    -0.550 OA
ENDBRANCH  17  18
ENDBRANCH  16  17
ENDBRANCH  15  16
ENDBRANCH  14  15
ENDBRANCH  13  14
ENDBRANCH  12  13
ENDBRANCH  11  12
ENDBRANCH   1  11
TORSDOF 15
ENDMDL
MODEL 5
REMARK VINA RESULT:    -4.263      2.596      3.986
REMARK INTER + INTRA:          -9.503
REMARK INTER:                  -8.186
REMARK INTRA:                  -1.317
REMARK UNBOUND:                -1.502
REMARK SMILES O=C([O-])CCCCCCCCCCCCCCC(=O)[O-]
REMARK SMILES IDX 10 1 9 2 8 3 7 4 6 5 5 6 4 7 2 8 1 9 3 10 11 11 12 12 13 13
REMARK SMILES IDX 14 14 15 15 16 16 17 17 18 18 19 19 20 20
REMARK H PARENT
REMARK Flexibility Score: inf
ROOT
ATOM      1  C   UNL     1      91.657  84.520  76.719  1.00  0.00     0.000 C 
ENDROOT
BRANCH   1   2
ATOM      2  C   UNL     1      90.205  84.313  76.253  1.00  0.00     0.000 C 
BRANCH   2   3
ATOM      3  C   UNL     1      89.330  83.645  77.325  1.00  0.00     0.000 C 
BRANCH   3   4
ATOM      4  C   UNL     1      89.367  84.388  78.669  1.00  0.00     0.000 C 
BRANCH   4   5
ATOM      5  C   UNL     1      89.642  83.415  79.825  1.00  0.00     0.000 C 
BRANCH   5   6
ATOM      6  C   UNL     1      90.674  83.957  80.826  1.00  0.00     0.006 C 
BRANCH   6   7
ATOM      7  C   UNL     1      90.265  83.723  82.286  1.00  0.00     0.053 C 
BRANCH   7   8
ATOM      8  C   UNL     1      91.364  84.145  83.209  1.00  0.00     0.041 C 
ATOM      9  O   UNL     1      91.351  83.787  84.417  1.00  0.00    -0.550 OA
ATOM     10  O   UNL     1      92.439  84.877  82.719  1.00  0.00    -0.550 OA
ENDBRANCH   7   8
ENDBRANCH   6   7
ENDBRANCH   5   6
ENDBRANCH   4   5
ENDBRANCH   3   4
ENDBRANCH   2   3
ENDBRANCH   1   2
BRANCH   1  11
ATOM     11  C   UNL     1      92.446  83.202  76.801  1.00  0.00     0.000 C 
BRANCH  11  12
ATOM     12  C   UNL     1      92.976  82.919  78.216  1.00  0.00     0.000 C 
BRANCH  12  13
ATOM     13  C   UNL     1      93.899  84.032  78.737  1.00  0.00     0.000 C 
BRANCH  13  14
ATOM     14  C   UNL     1      95.389  83.684  78.598  1.00  0.00     0.000 C 
BRANCH  14  15
ATOM     15  C   UNL     1      95.669  82.265  79.117  1.00  0.00     0.000 C 
BRANCH  15  16
ATOM     16  C   UNL     1      97.167  81.919  79.119  1.00  0.00     0.006 C 
BRANCH  16  17
ATOM     17  C   UNL     1      98.009  82.948  79.884  1.00  0.00     0.053 C 
BRANCH  17  18
ATOM     18  C   UNL     1      99.152  82.275  80.577  1.00  0.00     0.041 C 
ATOM     19  O   UNL     1     100.190  81.966  79.934  1.00  0.00    -0.550 OA
ATOM     20  O   UNL     1      99.090  82.030  81.943  1.00  0.00    -0.550 OA
ENDBRANCH  17  18
ENDBRANCH  16  17
ENDBRANCH  15  16
ENDBRANCH  14  15
ENDBRANCH  13  14
ENDBRANCH  12  13
ENDBRANCH  11  12
ENDBRANCH   1  11
TORSDOF 15
ENDMDL
MODEL 6
REMARK VINA RESULT:    -4.163      2.298      7.872
REMARK INTER + INTRA:          -9.315
REMARK INTER:                  -7.935
REMARK INTRA:                  -1.380
REMARK UNBOUND:                -1.502
REMARK SMILES O=C([O-])CCCCCCCCCCCCCCC(=O)[O-]
REMARK SMILES IDX 10 1 9 2 8 3 7 4 6 5 5 6 4 7 2 8 1 9 3 10 11 11 12 12 13 13
REMARK SMILES IDX 14 14 15 15 16 16 17 17 18 18 19 19 20 20
REMARK H PARENT
REMARK Flexibility Score: inf
ROOT
ATOM      1  C   UNL     1      98.444  82.336  80.630  1.00  0.00     0.000 C 
ENDROOT
BRANCH   1   2
ATOM      2  C   UNL     1      99.961  82.597  80.657  1.00  0.00     0.000 C 
BRANCH   2   3
ATOM      3  C   UNL     1     100.386  83.492  81.832  1.00  0.00     0.000 C 
BRANCH   3   4
ATOM      4  C   UNL     1      99.959  84.956  81.647  1.00  0.00     0.000 C 
BRANCH   4   5
ATOM      5  C   UNL     1     100.905  85.684  80.683  1.00  0.00     0.000 C 
BRANCH   5   6
ATOM      6  C   UNL     1     100.157  86.439  79.573  1.00  0.00     0.006 C 
BRANCH   6   7
ATOM      7  C   UNL     1      98.692  86.002  79.441  1.00  0.00     0.053 C 
BRANCH   7   8
ATOM      8  C   UNL     1      97.919  87.004  78.643  1.00  0.00     0.041 C 
ATOM      9  O   UNL     1      96.783  87.384  79.032  1.00  0.00    -0.550 OA
ATOM     10  O   UNL     1      98.482  87.567  77.504  1.00  0.00    -0.550 OA
ENDBRANCH   7   8
ENDBRANCH   6   7
ENDBRANCH   5   6
ENDBRANCH   4   5
ENDBRANCH   3   4
ENDBRANCH   2   3
ENDBRANCH   1   2
BRANCH   1  11
ATOM     11  C   UNL     1      97.928  81.981  79.225  1.00  0.00     0.000 C 
BRANCH  11  12
ATOM     12  C   UNL     1      96.414  81.715  79.203  1.00  0.00     0.000 C 
BRANCH  12  13
ATOM     13  C   UNL     1      95.585  83.008  79.226  1.00  0.00     0.000 C 
BRANCH  13  14
ATOM     14  C   UNL     1      95.899  83.939  78.045  1.00  0.00     0.000 C 
BRANCH  14  15
ATOM     15  C   UNL     1      94.606  84.407  77.359  1.00  0.00     0.000 C 
BRANCH  15  16
ATOM     16  C   UNL     1      93.343  83.826  78.016  1.00  0.00     0.006 C 
BRANCH  16  17
ATOM     17  C   UNL     1      92.391  83.183  76.999  1.00  0.00     0.053 C 
BRANCH  17  18
ATOM     18  C   UNL     1      91.010  83.740  77.153  1.00  0.00     0.041 C 
ATOM     19  O   UNL     1      90.469  84.363  76.202  1.00  0.00    -0.550 OA
ATOM     20  O   UNL     1      90.304  83.531  78.330  1.00  0.00    -0.550 OA
ENDBRANCH  17  18
ENDBRANCH  16  17
ENDBRANCH  15  16
ENDBRANCH  14  15
ENDBRANCH  13  14
ENDBRANCH  12  13
ENDBRANCH  11  12
ENDBRANCH   1  11
TORSDOF 15
ENDMDL
MODEL 7
REMARK VINA RESULT:    -4.137      3.542      6.675
REMARK INTER + INTRA:          -9.267
REMARK INTER:                  -7.051
REMARK INTRA:                  -2.216
REMARK UNBOUND:                -1.502
REMARK SMILES O=C([O-])CCCCCCCCCCCCCCC(=O)[O-]
REMARK SMILES IDX 10 1 9 2 8 3 7 4 6 5 5 6 4 7 2 8 1 9 3 10 11 11 12 12 13 13
REMARK SMILES IDX 14 14 15 15 16 16 17 17 18 18 19 19 20 20
REMARK H PARENT
REMARK Flexibility Score: inf
ROOT
ATOM      1  C   UNL     1     101.204  83.455  80.702  1.00  0.00     0.000 C 
ENDROOT
BRANCH   1   2
ATOM      2  C   UNL     1     101.805  84.864  80.851  1.00  0.00     0.000 C 
BRANCH   2   3
ATOM      3  C   UNL     1     100.733  85.947  81.047  1.00  0.00     0.000 C 
BRANCH   3   4
ATOM      4  C   UNL     1      99.915  86.209  79.774  1.00  0.00     0.000 C 
BRANCH   4   5
ATOM      5  C   UNL     1      98.419  85.967  80.025  1.00  0.00     0.000 C 
BRANCH   5   6
ATOM      6  C   UNL     1      97.527  87.039  79.379  1.00  0.00     0.006 C 
BRANCH   6   7
ATOM      7  C   UNL     1      97.559  86.991  77.845  1.00  0.00     0.053 C 
BRANCH   7   8
ATOM      8  C   UNL     1      96.687  88.064  77.273  1.00  0.00     0.041 C 
ATOM      9  O   UNL     1      95.574  88.326  77.802  1.00  0.00    -0.550 OA
ATOM     10  O   UNL     1      97.132  88.819  76.195  1.00  0.00    -0.550 OA
ENDBRANCH   7   8
ENDBRANCH   6   7
ENDBRANCH   5   6
ENDBRANCH   4   5
ENDBRANCH   3   4
ENDBRANCH   2   3
ENDBRANCH   1   2
BRANCH   1  11
ATOM     11  C   UNL     1     100.230  83.104  81.840  1.00  0.00     0.000 C 
BRANCH  11  12
ATOM     12  C   UNL     1      99.041  82.255  81.358  1.00  0.00     0.000 C 
BRANCH  12  13
ATOM     13  C   UNL     1      99.067  82.008  79.842  1.00  0.00     0.000 C 
BRANCH  13  14
ATOM     14  C   UNL     1      97.735  82.356  79.159  1.00  0.00     0.000 C 
BRANCH  14  15
ATOM     15  C   UNL     1      96.649  82.662  80.202  1.00  0.00     0.000 C 
BRANCH  15  16
ATOM     16  C   UNL     1      95.494  83.496  79.628  1.00  0.00     0.006 C 
BRANCH  16  17
ATOM     17  C   UNL     1      95.716  83.882  78.160  1.00  0.00     0.053 C 
BRANCH  17  18
ATOM     18  C   UNL     1      94.626  84.792  77.688  1.00  0.00     0.041 C 
ATOM     19  O   UNL     1      93.992  85.502  78.513  1.00  0.00    -0.550 OA
ATOM     20  O   UNL     1      94.338  84.889  76.333  1.00  0.00    -0.550 OA
ENDBRANCH  17  18
ENDBRANCH  16  17
ENDBRANCH  15  16
ENDBRANCH  14  15
ENDBRANCH  13  14
ENDBRANCH  12  13
ENDBRANCH  11  12
ENDBRANCH   1  11
TORSDOF 15
ENDMDL
MODEL 8
REMARK VINA RESULT:    -4.137      2.756      7.258
REMARK INTER + INTRA:          -9.266
REMARK INTER:                  -6.882
REMARK INTRA:                  -2.384
REMARK UNBOUND:                -1.502
REMARK SMILES O=C([O-])CCCCCCCCCCCCCCC(=O)[O-]
REMARK SMILES IDX 10 1 9 2 8 3 7 4 6 5 5 6 4 7 2 8 1 9 3 10 11 11 12 12 13 13
REMARK SMILES IDX 14 14 15 15 16 16 17 17 18 18 19 19 20 20
REMARK H PARENT
REMARK Flexibility Score: inf
ROOT
ATOM      1  C   UNL     1     100.274  84.013  81.266  1.00  0.00     0.000 C 
ENDROOT
BRANCH   1   2
ATOM      2  C   UNL     1     100.059  85.283  80.422  1.00  0.00     0.000 C 
BRANCH   2   3
ATOM      3  C   UNL     1      98.698  85.945  80.687  1.00  0.00     0.000 C 
BRANCH   3   4
ATOM      4  C   UNL     1      98.366  86.038  82.184  1.00  0.00     0.000 C 
BRANCH   4   5
ATOM      5  C   UNL     1      97.165  85.148  82.534  1.00  0.00     0.000 C 
BRANCH   5   6
ATOM      6  C   UNL     1      97.208  84.634  83.982  1.00  0.00     0.006 C 
BRANCH   6   7
ATOM      7  C   UNL     1      97.324  83.106  84.067  1.00  0.00     0.053 C 
BRANCH   7   8
ATOM      8  C   UNL     1      98.724  82.708  84.411  1.00  0.00     0.041 C 
ATOM      9  O   UNL     1      99.394  83.391  85.230  1.00  0.00    -0.550 OA
ATOM     10  O   UNL     1      99.266  81.546  83.877  1.00  0.00    -0.550 OA
ENDBRANCH   7   8
ENDBRANCH   6   7
ENDBRANCH   5   6
ENDBRANCH   4   5
ENDBRANCH   3   4
ENDBRANCH   2   3
ENDBRANCH   1   2
BRANCH   1  11
ATOM     11  C   UNL     1     100.747  82.816  80.424  1.00  0.00     0.000 C 
BRANCH  11  12
ATOM     12  C   UNL     1      99.577  82.012  79.833  1.00  0.00     0.000 C 
BRANCH  12  13
ATOM     13  C   UNL     1      98.322  82.056  80.718  1.00  0.00     0.000 C 
BRANCH  13  14
ATOM     14  C   UNL     1      97.023  82.163  79.904  1.00  0.00     0.000 C 
BRANCH  14  15
ATOM     15  C   UNL     1      97.302  82.719  78.499  1.00  0.00     0.000 C 
BRANCH  15  16
ATOM     16  C   UNL     1      96.776  84.150  78.312  1.00  0.00     0.006 C 
BRANCH  16  17
ATOM     17  C   UNL     1      95.450  84.393  79.046  1.00  0.00     0.053 C 
BRANCH  17  18
ATOM     18  C   UNL     1      94.326  84.515  78.066  1.00  0.00     0.041 C 
ATOM     19  O   UNL     1      94.553  84.446  76.829  1.00  0.00    -0.550 OA
ATOM     20  O   UNL     1      93.021  84.659  78.519  1.00  0.00    -0.550 OA
ENDBRANCH  17  18
ENDBRANCH  16  17
ENDBRANCH  15  16
ENDBRANCH  14  15
ENDBRANCH  13  14
ENDBRANCH  12  13
ENDBRANCH  11  12
ENDBRANCH   1  11
TORSDOF 15
ENDMDL
MODEL 9
REMARK VINA RESULT:    -4.133      2.950      6.387
REMARK INTER + INTRA:          -9.260
REMARK INTER:                  -7.133
REMARK INTRA:                  -2.126
REMARK UNBOUND:                -1.502
REMARK SMILES O=C([O-])CCCCCCCCCCCCCCC(=O)[O-]
REMARK SMILES IDX 10 1 9 2 8 3 7 4 6 5 5 6 4 7 2 8 1 9 3 10 11 11 12 12 13 13
REMARK SMILES IDX 14 14 15 15 16 16 17 17 18 18 19 19 20 20
REMARK H PARENT
REMARK Flexibility Score: inf
ROOT
ATOM      1  C   UNL     1      99.006  82.020  80.576  1.00  0.00     0.000 C 
ENDROOT
BRANCH   1   2
ATOM      2  C   UNL     1      99.853  83.299  80.709  1.00  0.00     0.000 C 
BRANCH   2   3
ATOM      3  C   UNL     1      99.479  84.129  81.947  1.00  0.00     0.000 C 
BRANCH   3   4
ATOM      4  C   UNL     1      98.320  85.102  81.680  1.00  0.00     0.000 C 
BRANCH   4   5
ATOM      5  C   UNL     1      97.029  84.612  82.353  1.00  0.00     0.000 C 
BRANCH   5   6
ATOM      6  C   UNL     1      95.762  85.140  81.661  1.00  0.00     0.006 C 
BRANCH   6   7
ATOM      7  C   UNL     1      94.524  84.282  81.956  1.00  0.00     0.053 C 
BRANCH   7   8
ATOM      8  C   UNL     1      93.280  85.004  81.545  1.00  0.00     0.041 C 
ATOM      9  O   UNL     1      93.340  86.204  81.166  1.00  0.00    -0.550 OA
ATOM     10  O   UNL     1      92.065  84.332  81.515  1.00  0.00    -0.550 OA
ENDBRANCH   7   8
ENDBRANCH   6   7
ENDBRANCH   5   6
ENDBRANCH   4   5
ENDBRANCH   3   4
ENDBRANCH   2   3
ENDBRANCH   1   2
BRANCH   1  11
ATOM     11  C   UNL     1      98.173  81.994  79.284  1.00  0.00     0.000 C 
BRANCH  11  12
ATOM     12  C   UNL     1      96.696  81.652  79.542  1.00  0.00     0.000 C 
BRANCH  12  13
ATOM     13  C   UNL     1      95.733  82.669  78.909  1.00  0.00     0.000 C 
BRANCH  13  14
ATOM     14  C   UNL     1      96.463  83.816  78.194  1.00  0.00     0.000 C 
BRANCH  14  15
ATOM     15  C   UNL     1      95.506  84.987  77.921  1.00  0.00     0.000 C 
BRANCH  15  16
ATOM     16  C   UNL     1      94.286  84.571  77.084  1.00  0.00     0.006 C 
BRANCH  16  17
ATOM     17  C   UNL     1      92.971  84.664  77.869  1.00  0.00     0.053 C 
BRANCH  17  18
ATOM     18  C   UNL     1      92.073  83.519  77.520  1.00  0.00     0.041 C 
ATOM     19  O   UNL     1      92.161  82.431  78.148  1.00  0.00    -0.550 OA
ATOM     20  O   UNL     1      91.108  83.668  76.532  1.00  0.00    -0.550 OA
ENDBRANCH  17  18
ENDBRANCH  16  17
ENDBRANCH  15  16
ENDBRANCH  14  15
ENDBRANCH  13  14
ENDBRANCH  12  13
ENDBRANCH  11  12
ENDBRANCH   1  11
TORSDOF 15
ENDMDL
