MODEL 1
REMARK VINA RESULT:    -4.119      0.000      0.000
REMARK INTER + INTRA:          -9.008
REMARK INTER:                  -7.490
REMARK INTRA:                  -1.518
REMARK UNBOUND:                -1.518
REMARK SMILES CCCCCCCCCCCCCC[C@@H](C)C(=O)[O-]
REMARK SMILES IDX 9 1 10 2 11 3 12 4 13 5 14 6 15 7 16 8 17 9 18 10 19 11 8 12
REMARK SMILES IDX 7 13 6 14 5 15 4 16 3 17 2 18 1 19
REMARK H PARENT
REMARK Flexibility Score: inf
ROOT
ATOM      1  C   UNL     1       2.649  -4.706  -7.566  1.00  0.00     0.000 C 
ENDROOT
BRANCH   1   2
ATOM      2  C   UNL     1       1.840  -4.764  -6.261  1.00  0.00     0.000 C 
BRANCH   2   3
ATOM      3  C   UNL     1       1.111  -3.446  -5.959  1.00  0.00     0.000 C 
BRANCH   3   4
ATOM      4  C   UNL     1       2.052  -2.229  -5.989  1.00  0.00     0.000 C 
BRANCH   4   5
ATOM      5  C   UNL     1       1.604  -1.162  -7.001  1.00  0.00     0.001 C 
BRANCH   5   6
ATOM      6  C   UNL     1       0.207  -1.446  -7.580  1.00  0.00     0.009 C 
BRANCH   6   7
ATOM      7  C   UNL     1       0.152  -1.274  -9.114  1.00  0.00     0.032 C 
ATOM      8  C   UNL     1      -0.912  -2.170  -9.759  1.00  0.00     0.014 C 
BRANCH   7   9
ATOM      9  C   UNL     1      -0.128   0.164  -9.453  1.00  0.00     0.044 C 
ATOM     10  O   UNL     1      -1.314   0.555  -9.621  1.00  0.00    -0.550 OA
ATOM     11  O   UNL     1       0.917   1.071  -9.590  1.00  0.00    -0.550 OA
ENDBRANCH   7   9
ENDBRANCH   6   7
ENDBRANCH   5   6
ENDBRANCH   4   5
ENDBRANCH   3   4
ENDBRANCH   2   3
ENDBRANCH   1   2
BRANCH   1  12
ATOM     12  C   UNL     1       1.720  -4.651  -8.786  1.00  0.00     0.000 C 
BRANCH  12  13
ATOM     13  C   UNL     1       1.022  -6.001  -9.007  1.00  0.00    -0.000 C 
BRANCH  13  14
ATOM     14  C   UNL     1      -0.495  -5.933  -8.765  1.00  0.00    -0.000 C 
BRANCH  14  15
ATOM     15  C   UNL     1      -1.189  -7.289  -8.987  1.00  0.00    -0.000 C 
BRANCH  15  16
ATOM     16  C   UNL     1      -2.721  -7.166  -9.032  1.00  0.00    -0.000 C 
BRANCH  16  17
ATOM     17  C   UNL     1      -3.434  -8.467  -8.631  1.00  0.00    -0.000 C 
BRANCH  17  18
ATOM     18  C   UNL     1      -4.510  -8.196  -7.573  1.00  0.00    -0.003 C 
ATOM     19  C   UNL     1      -5.633  -7.330  -8.138  1.00  0.00     0.004 C 
ENDBRANCH  17  18
ENDBRANCH  16  17
ENDBRANCH  15  16
ENDBRANCH  14  15
ENDBRANCH  13  14
ENDBRANCH  12  13
ENDBRANCH   1  12
TORSDOF 14
ENDMDL
MODEL 2
REMARK VINA RESULT:    -4.041     11.503     14.092
REMARK INTER + INTRA:          -8.866
REMARK INTER:                  -6.424
REMARK INTRA:                  -2.442
REMARK UNBOUND:                -1.518
REMARK SMILES CCCCCCCCCCCCCC[C@@H](C)C(=O)[O-]
REMARK SMILES IDX 9 1 10 2 11 3 12 4 13 5 14 6 15 7 16 8 17 9 18 10 19 11 8 12
REMARK SMILES IDX 7 13 6 14 5 15 4 16 3 17 2 18 1 19
REMARK H PARENT
REMARK Flexibility Score: inf
ROOT
ATOM      1  C   UNL     1      -5.802  -8.739   2.311  1.00  0.00     0.000 C 
ENDROOT
BRANCH   1   2
ATOM      2  C   UNL     1      -7.214  -9.318   2.484  1.00  0.00     0.000 C 
BRANCH   2   3
ATOM      3  C   UNL     1      -7.919  -9.568   1.142  1.00  0.00     0.000 C 
BRANCH   3   4
ATOM      4  C   UNL     1      -7.096  -9.073  -0.060  1.00  0.00     0.000 C 
BRANCH   4   5
ATOM      5  C   UNL     1      -7.808  -7.960  -0.844  1.00  0.00     0.001 C 
BRANCH   5   6
ATOM      6  C   UNL     1      -7.113  -6.594  -0.696  1.00  0.00     0.009 C 
BRANCH   6   7
ATOM      7  C   UNL     1      -7.419  -5.915   0.656  1.00  0.00     0.032 C 
ATOM      8  C   UNL     1      -6.800  -4.515   0.753  1.00  0.00     0.014 C 
BRANCH   7   9
ATOM      9  C   UNL     1      -8.907  -5.822   0.853  1.00  0.00     0.044 C 
ATOM     10  O   UNL     1      -9.465  -6.477   1.773  1.00  0.00    -0.550 OA
ATOM     11  O   UNL     1      -9.677  -5.019   0.020  1.00  0.00    -0.550 OA
ENDBRANCH   7   9
ENDBRANCH   6   7
ENDBRANCH   5   6
ENDBRANCH   4   5
ENDBRANCH   3   4
ENDBRANCH   2   3
ENDBRANCH   1   2
BRANCH   1  12
ATOM     12  C   UNL     1      -4.886  -9.170   3.464  1.00  0.00     0.000 C 
BRANCH  12  13
ATOM     13  C   UNL     1      -5.652 -10.025   4.484  1.00  0.00    -0.000 C 
BRANCH  13  14
ATOM     14  C   UNL     1      -5.680  -9.395   5.886  1.00  0.00    -0.000 C 
BRANCH  14  15
ATOM     15  C   UNL     1      -6.653  -8.205   5.978  1.00  0.00    -0.000 C 
BRANCH  15  16
ATOM     16  C   UNL     1      -5.970  -6.925   6.489  1.00  0.00    -0.000 C 
BRANCH  16  17
ATOM     17  C   UNL     1      -5.606  -5.953   5.356  1.00  0.00    -0.000 C 
BRANCH  17  18
ATOM     18  C   UNL     1      -6.708  -5.919   4.290  1.00  0.00    -0.003 C 
ATOM     19  C   UNL     1      -7.534  -4.640   4.393  1.00  0.00     0.004 C 
ENDBRANCH  17  18
ENDBRANCH  16  17
ENDBRANCH  15  16
ENDBRANCH  14  15
ENDBRANCH  13  14
ENDBRANCH  12  13
ENDBRANCH   1  12
TORSDOF 14
ENDMDL
MODEL 3
REMARK VINA RESULT:    -3.995     11.157     13.613
REMARK INTER + INTRA:          -8.782
REMARK INTER:                  -6.335
REMARK INTRA:                  -2.447
REMARK UNBOUND:                -1.518
REMARK SMILES CCCCCCCCCCCCCC[C@@H](C)C(=O)[O-]
REMARK SMILES IDX 9 1 10 2 11 3 12 4 13 5 14 6 15 7 16 8 17 9 18 10 19 11 8 12
REMARK SMILES IDX 7 13 6 14 5 15 4 16 3 17 2 18 1 19
REMARK H PARENT
REMARK Flexibility Score: inf
ROOT
ATOM      1  C   UNL     1      -7.084  -5.461   2.074  1.00  0.00     0.000 C 
ENDROOT
BRANCH   1   2
ATOM      2  C   UNL     1      -7.301  -6.691   2.968  1.00  0.00     0.000 C 
BRANCH   2   3
ATOM      3  C   UNL     1      -6.007  -7.484   3.206  1.00  0.00     0.000 C 
BRANCH   3   4
ATOM      4  C   UNL     1      -5.838  -8.651   2.217  1.00  0.00     0.000 C 
BRANCH   4   5
ATOM      5  C   UNL     1      -7.153  -9.022   1.513  1.00  0.00     0.001 C 
BRANCH   5   6
ATOM      6  C   UNL     1      -7.047  -8.935  -0.020  1.00  0.00     0.009 C 
BRANCH   6   7
ATOM      7  C   UNL     1      -8.318  -8.347  -0.671  1.00  0.00     0.032 C 
ATOM      8  C   UNL     1      -9.437  -8.112   0.352  1.00  0.00     0.014 C 
BRANCH   7   9
ATOM      9  C   UNL     1      -7.983  -7.052  -1.358  1.00  0.00     0.044 C 
ATOM     10  O   UNL     1      -8.823  -6.505  -2.122  1.00  0.00    -0.550 OA
ATOM     11  O   UNL     1      -6.747  -6.449  -1.159  1.00  0.00    -0.550 OA
ENDBRANCH   7   9
ENDBRANCH   6   7
ENDBRANCH   5   6
ENDBRANCH   4   5
ENDBRANCH   3   4
ENDBRANCH   2   3
ENDBRANCH   1   2
BRANCH   1  12
ATOM     12  C   UNL     1      -8.394  -4.686   1.877  1.00  0.00     0.000 C 
BRANCH  12  13
ATOM     13  C   UNL     1      -8.116  -3.213   1.545  1.00  0.00    -0.000 C 
BRANCH  13  14
ATOM     14  C   UNL     1      -6.646  -2.952   1.178  1.00  0.00    -0.000 C 
BRANCH  14  15
ATOM     15  C   UNL     1      -6.003  -1.863   2.055  1.00  0.00    -0.000 C 
BRANCH  15  16
ATOM     16  C   UNL     1      -6.430  -1.966   3.529  1.00  0.00    -0.000 C 
BRANCH  16  17
ATOM     17  C   UNL     1      -5.429  -2.760   4.383  1.00  0.00    -0.000 C 
BRANCH  17  18
ATOM     18  C   UNL     1      -6.151  -3.809   5.238  1.00  0.00    -0.003 C 
ATOM     19  C   UNL     1      -7.638  -3.489   5.362  1.00  0.00     0.004 C 
ENDBRANCH  17  18
ENDBRANCH  16  17
ENDBRANCH  15  16
ENDBRANCH  14  15
ENDBRANCH  13  14
ENDBRANCH  12  13
ENDBRANCH   1  12
TORSDOF 14
ENDMDL
MODEL 4
REMARK VINA RESULT:    -3.988      3.899      7.838
REMARK INTER + INTRA:          -8.770
REMARK INTER:                  -7.610
REMARK INTRA:                  -1.160
REMARK UNBOUND:                -1.518
REMARK SMILES CCCCCCCCCCCCCC[C@@H](C)C(=O)[O-]
REMARK SMILES IDX 9 1 10 2 11 3 12 4 13 5 14 6 15 7 16 8 17 9 18 10 19 11 8 12
REMARK SMILES IDX 7 13 6 14 5 15 4 16 3 17 2 18 1 19
REMARK H PARENT
REMARK Flexibility Score: inf
ROOT
ATOM      1  C   UNL     1       0.669  -6.072  -9.174  1.00  0.00     0.000 C 
ENDROOT
BRANCH   1   2
ATOM      2  C   UNL     1      -0.628  -6.754  -8.710  1.00  0.00     0.000 C 
BRANCH   2   3
ATOM      3  C   UNL     1      -0.866  -8.103  -9.404  1.00  0.00     0.000 C 
BRANCH   3   4
ATOM      4  C   UNL     1      -2.359  -8.464  -9.498  1.00  0.00     0.000 C 
BRANCH   4   5
ATOM      5  C   UNL     1      -3.251  -7.494  -8.707  1.00  0.00     0.001 C 
BRANCH   5   6
ATOM      6  C   UNL     1      -4.230  -8.223  -7.769  1.00  0.00     0.009 C 
BRANCH   6   7
ATOM      7  C   UNL     1      -5.613  -7.539  -7.705  1.00  0.00     0.032 C 
ATOM      8  C   UNL     1      -5.662  -6.253  -8.540  1.00  0.00     0.014 C 
BRANCH   7   9
ATOM      9  C   UNL     1      -6.674  -8.491  -8.184  1.00  0.00     0.044 C 
ATOM     10  O   UNL     1      -7.090  -8.429  -9.371  1.00  0.00    -0.550 OA
ATOM     11  O   UNL     1      -7.205  -9.443  -7.321  1.00  0.00    -0.550 OA
ENDBRANCH   7   9
ENDBRANCH   6   7
ENDBRANCH   5   6
ENDBRANCH   4   5
ENDBRANCH   3   4
ENDBRANCH   2   3
ENDBRANCH   1   2
BRANCH   1  12
ATOM     12  C   UNL     1       0.911  -4.769  -8.401  1.00  0.00     0.000 C 
BRANCH  12  13
ATOM     13  C   UNL     1       2.243  -4.822  -7.639  1.00  0.00    -0.000 C 
BRANCH  13  14
ATOM     14  C   UNL     1       2.075  -4.581  -6.129  1.00  0.00    -0.000 C 
BRANCH  14  15
ATOM     15  C   UNL     1       1.161  -3.381  -5.822  1.00  0.00    -0.000 C 
BRANCH  15  16
ATOM     16  C   UNL     1       1.800  -2.039  -6.217  1.00  0.00    -0.000 C 
BRANCH  16  17
ATOM     17  C   UNL     1       0.884  -1.185  -7.108  1.00  0.00    -0.000 C 
BRANCH  17  18
ATOM     18  C   UNL     1       1.380  -1.184  -8.559  1.00  0.00    -0.003 C 
ATOM     19  C   UNL     1       2.875  -1.479  -8.630  1.00  0.00     0.004 C 
ENDBRANCH  17  18
ENDBRANCH  16  17
ENDBRANCH  15  16
ENDBRANCH  14  15
ENDBRANCH  13  14
ENDBRANCH  12  13
ENDBRANCH   1  12
TORSDOF 14
ENDMDL
MODEL 5
REMARK VINA RESULT:    -3.972      1.516      3.612
REMARK INTER + INTRA:          -8.740
REMARK INTER:                  -7.698
REMARK INTRA:                  -1.042
REMARK UNBOUND:                -1.518
REMARK SMILES CCCCCCCCCCCCCC[C@@H](C)C(=O)[O-]
REMARK SMILES IDX 9 1 10 2 11 3 12 4 13 5 14 6 15 7 16 8 17 9 18 10 19 11 8 12
REMARK SMILES IDX 7 13 6 14 5 15 4 16 3 17 2 18 1 19
REMARK H PARENT
REMARK Flexibility Score: inf
ROOT
ATOM      1  C   UNL     1      -0.729  -7.034  -8.987  1.00  0.00     0.000 C 
ENDROOT
BRANCH   1   2
ATOM      2  C   UNL     1       0.620  -6.590  -9.573  1.00  0.00     0.000 C 
BRANCH   2   3
ATOM      3  C   UNL     1       1.199  -5.360  -8.857  1.00  0.00     0.000 C 
BRANCH   3   4
ATOM      4  C   UNL     1       0.481  -5.054  -7.531  1.00  0.00     0.000 C 
BRANCH   4   5
ATOM      5  C   UNL     1       1.429  -4.484  -6.465  1.00  0.00     0.001 C 
BRANCH   5   6
ATOM      6  C   UNL     1       1.007  -3.084  -5.986  1.00  0.00     0.009 C 
BRANCH   6   7
ATOM      7  C   UNL     1       1.895  -1.963  -6.568  1.00  0.00     0.032 C 
ATOM      8  C   UNL     1       3.113  -2.519  -7.316  1.00  0.00     0.014 C 
BRANCH   7   9
ATOM      9  C   UNL     1       1.084  -1.103  -7.497  1.00  0.00     0.044 C 
ATOM     10  O   UNL     1       1.601  -0.648  -8.552  1.00  0.00    -0.550 OA
ATOM     11  O   UNL     1      -0.240  -0.801  -7.199  1.00  0.00    -0.550 OA
ENDBRANCH   7   9
ENDBRANCH   6   7
ENDBRANCH   5   6
ENDBRANCH   4   5
ENDBRANCH   3   4
ENDBRANCH   2   3
ENDBRANCH   1   2
BRANCH   1  12
ATOM     12  C   UNL     1      -1.102  -8.441  -9.470  1.00  0.00     0.000 C 
BRANCH  12  13
ATOM     13  C   UNL     1      -2.616  -8.676  -9.363  1.00  0.00    -0.000 C 
BRANCH  13  14
ATOM     14  C   UNL     1      -3.328  -7.597  -8.530  1.00  0.00    -0.000 C 
BRANCH  14  15
ATOM     15  C   UNL     1      -4.442  -8.177  -7.641  1.00  0.00    -0.000 C 
BRANCH  15  16
ATOM     16  C   UNL     1      -5.727  -7.332  -7.679  1.00  0.00    -0.000 C 
BRANCH  16  17
ATOM     17  C   UNL     1      -5.724  -6.299  -8.816  1.00  0.00    -0.000 C 
BRANCH  17  18
ATOM     18  C   UNL     1      -6.106  -4.909  -8.292  1.00  0.00    -0.003 C 
ATOM     19  C   UNL     1      -6.818  -5.004  -6.946  1.00  0.00     0.004 C 
ENDBRANCH  17  18
ENDBRANCH  16  17
ENDBRANCH  15  16
ENDBRANCH  14  15
ENDBRANCH  13  14
ENDBRANCH  12  13
ENDBRANCH   1  12
TORSDOF 14
ENDMDL
MODEL 6
REMARK VINA RESULT:    -3.955      2.230      5.012
REMARK INTER + INTRA:          -8.710
REMARK INTER:                  -7.795
REMARK INTRA:                  -0.914
REMARK UNBOUND:                -1.518
REMARK SMILES CCCCCCCCCCCCCC[C@@H](C)C(=O)[O-]
REMARK SMILES IDX 9 1 10 2 11 3 12 4 13 5 14 6 15 7 16 8 17 9 18 10 19 11 8 12
REMARK SMILES IDX 7 13 6 14 5 15 4 16 3 17 2 18 1 19
REMARK H PARENT
REMARK Flexibility Score: inf
ROOT
ATOM      1  C   UNL     1      -2.740  -7.487  -8.671  1.00  0.00     0.000 C 
ENDROOT
BRANCH   1   2
ATOM      2  C   UNL     1      -1.523  -8.141  -9.343  1.00  0.00     0.000 C 
BRANCH   2   3
ATOM      3  C   UNL     1      -0.320  -7.190  -9.440  1.00  0.00     0.000 C 
BRANCH   3   4
ATOM      4  C   UNL     1      -0.557  -5.860  -8.705  1.00  0.00     0.000 C 
BRANCH   4   5
ATOM      5  C   UNL     1       0.733  -5.281  -8.103  1.00  0.00     0.001 C 
BRANCH   5   6
ATOM      6  C   UNL     1       0.716  -3.744  -8.032  1.00  0.00     0.009 C 
BRANCH   6   7
ATOM      7  C   UNL     1       1.133  -3.207  -6.646  1.00  0.00     0.032 C 
ATOM      8  C   UNL     1       2.043  -4.188  -5.895  1.00  0.00     0.014 C 
BRANCH   7   9
ATOM      9  C   UNL     1       1.838  -1.888  -6.804  1.00  0.00     0.044 C 
ATOM     10  O   UNL     1       2.958  -1.833  -7.378  1.00  0.00    -0.550 OA
ATOM     11  O   UNL     1       1.262  -0.721  -6.315  1.00  0.00    -0.550 OA
ENDBRANCH   7   9
ENDBRANCH   6   7
ENDBRANCH   5   6
ENDBRANCH   4   5
ENDBRANCH   3   4
ENDBRANCH   2   3
ENDBRANCH   1   2
BRANCH   1  12
ATOM     12  C   UNL     1      -3.794  -8.539  -8.301  1.00  0.00     0.000 C 
BRANCH  12  13
ATOM     13  C   UNL     1      -5.208  -7.941  -8.350  1.00  0.00    -0.000 C 
BRANCH  13  14
ATOM     14  C   UNL     1      -5.296  -6.695  -9.247  1.00  0.00    -0.000 C 
BRANCH  14  15
ATOM     15  C   UNL     1      -6.535  -5.834  -8.941  1.00  0.00    -0.000 C 
BRANCH  15  16
ATOM     16  C   UNL     1      -6.171  -4.486  -8.297  1.00  0.00    -0.000 C 
BRANCH  16  17
ATOM     17  C   UNL     1      -6.878  -4.261  -6.952  1.00  0.00    -0.000 C 
BRANCH  17  18
ATOM     18  C   UNL     1      -7.207  -5.598  -6.276  1.00  0.00    -0.003 C 
ATOM     19  C   UNL     1      -8.286  -5.426  -5.211  1.00  0.00     0.004 C 
ENDBRANCH  17  18
ENDBRANCH  16  17
ENDBRANCH  15  16
ENDBRANCH  14  15
ENDBRANCH  13  14
ENDBRANCH  12  13
ENDBRANCH   1  12
TORSDOF 14
ENDMDL
MODEL 7
REMARK VINA RESULT:    -3.941     11.104     13.094
REMARK INTER + INTRA:          -8.684
REMARK INTER:                  -6.265
REMARK INTRA:                  -2.418
REMARK UNBOUND:                -1.518
REMARK SMILES CCCCCCCCCCCCCC[C@@H](C)C(=O)[O-]
REMARK SMILES IDX 9 1 10 2 11 3 12 4 13 5 14 6 15 7 16 8 17 9 18 10 19 11 8 12
REMARK SMILES IDX 7 13 6 14 5 15 4 16 3 17 2 18 1 19
REMARK H PARENT
REMARK Flexibility Score: inf
ROOT
ATOM      1  C   UNL     1      -8.434  -7.569  -0.831  1.00  0.00     0.000 C 
ENDROOT
BRANCH   1   2
ATOM      2  C   UNL     1      -7.144  -6.742  -0.724  1.00  0.00     0.000 C 
BRANCH   2   3
ATOM      3  C   UNL     1      -7.139  -5.810   0.497  1.00  0.00     0.000 C 
BRANCH   3   4
ATOM      4  C   UNL     1      -8.438  -5.902   1.317  1.00  0.00     0.000 C 
BRANCH   4   5
ATOM      5  C   UNL     1      -8.287  -5.314   2.729  1.00  0.00     0.001 C 
BRANCH   5   6
ATOM      6  C   UNL     1      -8.992  -3.955   2.883  1.00  0.00     0.009 C 
BRANCH   6   7
ATOM      7  C   UNL     1      -8.018  -2.763   2.767  1.00  0.00     0.032 C 
ATOM      8  C   UNL     1      -6.598  -3.129   3.219  1.00  0.00     0.014 C 
BRANCH   7   9
ATOM      9  C   UNL     1      -7.982  -2.273   1.346  1.00  0.00     0.044 C 
ATOM     10  O   UNL     1      -9.023  -2.314   0.636  1.00  0.00    -0.550 OA
ATOM     11  O   UNL     1      -6.803  -1.776   0.803  1.00  0.00    -0.550 OA
ENDBRANCH   7   9
ENDBRANCH   6   7
ENDBRANCH   5   6
ENDBRANCH   4   5
ENDBRANCH   3   4
ENDBRANCH   2   3
ENDBRANCH   1   2
BRANCH   1  12
ATOM     12  C   UNL     1      -8.120  -9.040  -1.134  1.00  0.00     0.000 C 
BRANCH  12  13
ATOM     13  C   UNL     1      -7.483  -9.728   0.082  1.00  0.00    -0.000 C 
BRANCH  13  14
ATOM     14  C   UNL     1      -8.361  -9.644   1.342  1.00  0.00    -0.000 C 
BRANCH  14  15
ATOM     15  C   UNL     1      -7.561  -9.242   2.593  1.00  0.00    -0.000 C 
BRANCH  15  16
ATOM     16  C   UNL     1      -6.100  -8.887   2.269  1.00  0.00    -0.000 C 
BRANCH  16  17
ATOM     17  C   UNL     1      -5.248  -8.670   3.530  1.00  0.00    -0.000 C 
BRANCH  17  18
ATOM     18  C   UNL     1      -5.505  -7.283   4.131  1.00  0.00    -0.003 C 
ATOM     19  C   UNL     1      -6.111  -7.392   5.527  1.00  0.00     0.004 C 
ENDBRANCH  17  18
ENDBRANCH  16  17
ENDBRANCH  15  16
ENDBRANCH  14  15
ENDBRANCH  13  14
ENDBRANCH  12  13
ENDBRANCH   1  12
TORSDOF 14
ENDMDL
MODEL 8
REMARK VINA RESULT:    -3.886      3.184      5.164
REMARK INTER + INTRA:          -8.585
REMARK INTER:                  -7.459
REMARK INTRA:                  -1.126
REMARK UNBOUND:                -1.518
REMARK SMILES CCCCCCCCCCCCCC[C@@H](C)C(=O)[O-]
REMARK SMILES IDX 9 1 10 2 11 3 12 4 13 5 14 6 15 7 16 8 17 9 18 10 19 11 8 12
REMARK SMILES IDX 7 13 6 14 5 15 4 16 3 17 2 18 1 19
REMARK H PARENT
REMARK Flexibility Score: inf
ROOT
ATOM      1  C   UNL     1      -1.845  -0.361  -8.579  1.00  0.00     0.000 C 
ENDROOT
BRANCH   1   2
ATOM      2  C   UNL     1      -0.764  -1.054  -9.422  1.00  0.00     0.000 C 
BRANCH   2   3
ATOM      3  C   UNL     1       0.564  -1.213  -8.666  1.00  0.00     0.000 C 
BRANCH   3   4
ATOM      4  C   UNL     1       0.389  -1.126  -7.140  1.00  0.00     0.000 C 
BRANCH   4   5
ATOM      5  C   UNL     1       1.679  -1.470  -6.378  1.00  0.00     0.001 C 
BRANCH   5   6
ATOM      6  C   UNL     1       2.635  -2.351  -7.201  1.00  0.00     0.009 C 
BRANCH   6   7
ATOM      7  C   UNL     1       2.652  -3.819  -6.723  1.00  0.00     0.032 C 
ATOM      8  C   UNL     1       1.592  -4.089  -5.648  1.00  0.00     0.014 C 
BRANCH   7   9
ATOM      9  C   UNL     1       2.427  -4.736  -7.893  1.00  0.00     0.044 C 
ATOM     10  O   UNL     1       3.339  -5.522  -8.266  1.00  0.00    -0.550 OA
ATOM     11  O   UNL     1       1.216  -4.723  -8.575  1.00  0.00    -0.550 OA
ENDBRANCH   7   9
ENDBRANCH   6   7
ENDBRANCH   5   6
ENDBRANCH   4   5
ENDBRANCH   3   4
ENDBRANCH   2   3
ENDBRANCH   1   2
BRANCH   1  12
ATOM     12  C   UNL     1      -3.237  -0.572  -9.190  1.00  0.00     0.000 C 
BRANCH  12  13
ATOM     13  C   UNL     1      -3.304  -1.898  -9.961  1.00  0.00    -0.000 C 
BRANCH  13  14
ATOM     14  C   UNL     1      -4.632  -2.643  -9.750  1.00  0.00    -0.000 C 
BRANCH  14  15
ATOM     15  C   UNL     1      -5.510  -1.988  -8.669  1.00  0.00    -0.000 C 
BRANCH  15  16
ATOM     16  C   UNL     1      -6.323  -3.018  -7.867  1.00  0.00    -0.000 C 
BRANCH  16  17
ATOM     17  C   UNL     1      -6.688  -4.260  -8.693  1.00  0.00    -0.000 C 
BRANCH  17  18
ATOM     18  C   UNL     1      -6.906  -5.477  -7.785  1.00  0.00    -0.003 C 
ATOM     19  C   UNL     1      -7.152  -5.049  -6.341  1.00  0.00     0.004 C 
ENDBRANCH  17  18
ENDBRANCH  16  17
ENDBRANCH  15  16
ENDBRANCH  14  15
ENDBRANCH  13  14
ENDBRANCH  12  13
ENDBRANCH   1  12
TORSDOF 14
ENDMDL
MODEL 9
REMARK VINA RESULT:    -3.881     11.750     13.293
REMARK INTER + INTRA:          -8.574
REMARK INTER:                  -6.013
REMARK INTRA:                  -2.561
REMARK UNBOUND:                -1.518
REMARK SMILES CCCCCCCCCCCCCC[C@@H](C)C(=O)[O-]
REMARK SMILES IDX 9 1 10 2 11 3 12 4 13 5 14 6 15 7 16 8 17 9 18 10 19 11 8 12
REMARK SMILES IDX 7 13 6 14 5 15 4 16 3 17 2 18 1 19
REMARK H PARENT
REMARK Flexibility Score: inf
ROOT
ATOM      1  C   UNL     1      -5.252  -7.798   3.990  1.00  0.00     0.000 C 
ENDROOT
BRANCH   1   2
ATOM      2  C   UNL     1      -6.255  -7.852   5.152  1.00  0.00     0.000 C 
BRANCH   2   3
ATOM      3  C   UNL     1      -6.359  -6.517   5.906  1.00  0.00     0.000 C 
BRANCH   3   4
ATOM      4  C   UNL     1      -5.600  -5.379   5.201  1.00  0.00     0.000 C 
BRANCH   4   5
ATOM      5  C   UNL     1      -6.448  -4.106   5.056  1.00  0.00     0.001 C 
BRANCH   5   6
ATOM      6  C   UNL     1      -5.900  -3.149   3.982  1.00  0.00     0.009 C 
BRANCH   6   7
ATOM      7  C   UNL     1      -7.012  -2.330   3.291  1.00  0.00     0.032 C 
ATOM      8  C   UNL     1      -7.400  -1.085   4.098  1.00  0.00     0.014 C 
BRANCH   7   9
ATOM      9  C   UNL     1      -6.560  -1.918   1.917  1.00  0.00     0.044 C 
ATOM     10  O   UNL     1      -5.509  -1.237   1.775  1.00  0.00    -0.550 OA
ATOM     11  O   UNL     1      -7.297  -2.280   0.797  1.00  0.00    -0.550 OA
ENDBRANCH   7   9
ENDBRANCH   6   7
ENDBRANCH   5   6
ENDBRANCH   4   5
ENDBRANCH   3   4
ENDBRANCH   2   3
ENDBRANCH   1   2
BRANCH   1  12
ATOM     12  C   UNL     1      -5.479  -8.960   3.014  1.00  0.00     0.000 C 
BRANCH  12  13
ATOM     13  C   UNL     1      -6.961  -9.357   2.967  1.00  0.00    -0.000 C 
BRANCH  13  14
ATOM     14  C   UNL     1      -7.536  -9.345   1.541  1.00  0.00    -0.000 C 
BRANCH  14  15
ATOM     15  C   UNL     1      -6.744  -8.426   0.594  1.00  0.00    -0.000 C 
BRANCH  15  16
ATOM     16  C   UNL     1      -7.470  -7.100   0.316  1.00  0.00    -0.000 C 
BRANCH  16  17
ATOM     17  C   UNL     1      -7.117  -6.004   1.333  1.00  0.00    -0.000 C 
BRANCH  17  18
ATOM     18  C   UNL     1      -8.385  -5.380   1.928  1.00  0.00    -0.003 C 
ATOM     19  C   UNL     1      -8.896  -6.196   3.113  1.00  0.00     0.004 C 
ENDBRANCH  17  18
ENDBRANCH  16  17
ENDBRANCH  15  16
ENDBRANCH  14  15
ENDBRANCH  13  14
ENDBRANCH  12  13
ENDBRANCH   1  12
TORSDOF 14
ENDMDL
