MODEL 1
REMARK VINA RESULT:    -2.920      0.000      0.000
REMARK INTER + INTRA:          -5.289
REMARK INTER:                  -4.457
REMARK INTRA:                  -0.832
REMARK UNBOUND:                -0.832
REMARK SMILES O=C([O-])CCCCCCCCC(=O)[O-]
REMARK SMILES IDX 7 1 6 2 5 3 4 4 2 5 1 6 3 7 8 8 9 9 10 10 11 11 12 12 13 13
REMARK SMILES IDX 14 14
REMARK H PARENT
REMARK Flexibility Score: inf
ROOT
ATOM      1  C   UNL     1     -25.400   2.593   3.346  1.00  0.00     0.000 C 
ENDROOT
BRANCH   1   2
ATOM      2  C   UNL     1     -25.332   4.121   3.515  1.00  0.00     0.000 C 
BRANCH   2   3
ATOM      3  C   UNL     1     -23.896   4.631   3.727  1.00  0.00     0.006 C 
BRANCH   3   4
ATOM      4  C   UNL     1     -23.515   5.720   2.715  1.00  0.00     0.053 C 
BRANCH   4   5
ATOM      5  C   UNL     1     -23.295   5.155   1.345  1.00  0.00     0.041 C 
ATOM      6  O   UNL     1     -22.212   4.580   1.062  1.00  0.00    -0.550 OA
ATOM      7  O   UNL     1     -24.278   5.290   0.372  1.00  0.00    -0.550 OA
ENDBRANCH   4   5
ENDBRANCH   3   4
ENDBRANCH   2   3
ENDBRANCH   1   2
BRANCH   1   8
ATOM      8  C   UNL     1     -25.466   2.166   1.869  1.00  0.00     0.000 C 
BRANCH   8   9
ATOM      9  C   UNL     1     -24.341   1.190   1.488  1.00  0.00     0.000 C 
BRANCH   9  10
ATOM     10  C   UNL     1     -23.043   1.442   2.277  1.00  0.00     0.006 C 
BRANCH  10  11
ATOM     11  C   UNL     1     -22.341   0.135   2.669  1.00  0.00     0.053 C 
BRANCH  11  12
ATOM     12  C   UNL     1     -21.419  -0.344   1.589  1.00  0.00     0.041 C 
ATOM     13  O   UNL     1     -21.745  -1.321   0.865  1.00  0.00    -0.550 OA
ATOM     14  O   UNL     1     -20.186   0.266   1.408  1.00  0.00    -0.550 OA
ENDBRANCH  11  12
ENDBRANCH  10  11
ENDBRANCH   9  10
ENDBRANCH   8   9
ENDBRANCH   1   8
TORSDOF 9
ENDMDL
MODEL 2
REMARK VINA RESULT:    -2.906      2.526      3.791
REMARK INTER + INTRA:          -5.267
REMARK INTER:                  -4.585
REMARK INTRA:                  -0.683
REMARK UNBOUND:                -0.832
REMARK SMILES O=C([O-])CCCCCCCCC(=O)[O-]
REMARK SMILES IDX 7 1 6 2 5 3 4 4 2 5 1 6 3 7 8 8 9 9 10 10 11 11 12 12 13 13
REMARK SMILES IDX 14 14
REMARK H PARENT
REMARK Flexibility Score: inf
ROOT
ATOM      1  C   UNL     1     -22.666   0.437   2.500  1.00  0.00     0.000 C 
ENDROOT
BRANCH   1   2
ATOM      2  C   UNL     1     -23.768   1.402   2.032  1.00  0.00     0.000 C 
BRANCH   2   3
ATOM      3  C   UNL     1     -23.535   2.846   2.512  1.00  0.00     0.006 C 
BRANCH   3   4
ATOM      4  C   UNL     1     -23.051   3.760   1.379  1.00  0.00     0.053 C 
BRANCH   4   5
ATOM      5  C   UNL     1     -23.581   5.153   1.523  1.00  0.00     0.041 C 
ATOM      6  O   UNL     1     -22.792   6.133   1.552  1.00  0.00    -0.550 OA
ATOM      7  O   UNL     1     -24.948   5.366   1.652  1.00  0.00    -0.550 OA
ENDBRANCH   4   5
ENDBRANCH   3   4
ENDBRANCH   2   3
ENDBRANCH   1   2
BRANCH   1   8
ATOM      8  C   UNL     1     -21.730   0.010   1.356  1.00  0.00     0.000 C 
BRANCH   8   9
ATOM      9  C   UNL     1     -20.395   0.773   1.374  1.00  0.00     0.000 C 
BRANCH   9  10
ATOM     10  C   UNL     1     -20.227   1.705   0.161  1.00  0.00     0.006 C 
BRANCH  10  11
ATOM     11  C   UNL     1     -18.806   2.276   0.063  1.00  0.00     0.053 C 
BRANCH  11  12
ATOM     12  C   UNL     1     -18.813   3.774   0.008  1.00  0.00     0.041 C 
ATOM     13  O   UNL     1     -19.898   4.398  -0.125  1.00  0.00    -0.550 OA
ATOM     14  O   UNL     1     -17.617   4.476   0.067  1.00  0.00    -0.550 OA
ENDBRANCH  11  12
ENDBRANCH  10  11
ENDBRANCH   9  10
ENDBRANCH   8   9
ENDBRANCH   1   8
TORSDOF 9
ENDMDL
MODEL 3
REMARK VINA RESULT:    -2.853      1.357      4.782
REMARK INTER + INTRA:          -5.186
REMARK INTER:                  -4.382
REMARK INTRA:                  -0.804
REMARK UNBOUND:                -0.832
REMARK SMILES O=C([O-])CCCCCCCCC(=O)[O-]
REMARK SMILES IDX 7 1 6 2 5 3 4 4 2 5 1 6 3 7 8 8 9 9 10 10 11 11 12 12 13 13
REMARK SMILES IDX 14 14
REMARK H PARENT
REMARK Flexibility Score: inf
ROOT
ATOM      1  C   UNL     1     -25.032   2.318   3.191  1.00  0.00     0.000 C 
ENDROOT
BRANCH   1   2
ATOM      2  C   UNL     1     -24.407   1.680   1.939  1.00  0.00     0.000 C 
BRANCH   2   3
ATOM      3  C   UNL     1     -23.066   0.983   2.235  1.00  0.00     0.006 C 
BRANCH   3   4
ATOM      4  C   UNL     1     -21.928   1.528   1.362  1.00  0.00     0.053 C 
BRANCH   4   5
ATOM      5  C   UNL     1     -20.725   0.636   1.396  1.00  0.00     0.041 C 
ATOM      6  O   UNL     1     -19.587   1.093   1.111  1.00  0.00    -0.550 OA
ATOM      7  O   UNL     1     -20.866  -0.709   1.716  1.00  0.00    -0.550 OA
ENDBRANCH   4   5
ENDBRANCH   3   4
ENDBRANCH   2   3
ENDBRANCH   1   2
BRANCH   1   8
ATOM      8  C   UNL     1     -25.074   3.854   3.113  1.00  0.00     0.000 C 
BRANCH   8   9
ATOM      9  C   UNL     1     -23.672   4.485   3.173  1.00  0.00     0.000 C 
BRANCH   9  10
ATOM     10  C   UNL     1     -23.472   5.590   2.121  1.00  0.00     0.006 C 
BRANCH  10  11
ATOM     11  C   UNL     1     -22.941   5.034   0.793  1.00  0.00     0.053 C 
BRANCH  11  12
ATOM     12  C   UNL     1     -21.512   5.420   0.562  1.00  0.00     0.041 C 
ATOM     13  O   UNL     1     -20.726   4.627  -0.020  1.00  0.00    -0.550 OA
ATOM     14  O   UNL     1     -21.040   6.642   1.022  1.00  0.00    -0.550 OA
ENDBRANCH  11  12
ENDBRANCH  10  11
ENDBRANCH   9  10
ENDBRANCH   8   9
ENDBRANCH   1   8
TORSDOF 9
ENDMDL
MODEL 4
REMARK VINA RESULT:    -2.824     15.595     17.438
REMARK INTER + INTRA:          -5.142
REMARK INTER:                  -4.351
REMARK INTRA:                  -0.791
REMARK UNBOUND:                -0.832
REMARK SMILES O=C([O-])CCCCCCCCC(=O)[O-]
REMARK SMILES IDX 7 1 6 2 5 3 4 4 2 5 1 6 3 7 8 8 9 9 10 10 11 11 12 12 13 13
REMARK SMILES IDX 14 14
REMARK H PARENT
REMARK Flexibility Score: inf
ROOT
ATOM      1  C   UNL     1     -14.534 -10.380   2.816  1.00  0.00     0.000 C 
ENDROOT
BRANCH   1   2
ATOM      2  C   UNL     1     -13.405 -11.045   2.011  1.00  0.00     0.000 C 
BRANCH   2   3
ATOM      3  C   UNL     1     -12.546 -11.993   2.866  1.00  0.00     0.006 C 
BRANCH   3   4
ATOM      4  C   UNL     1     -13.401 -12.868   3.793  1.00  0.00     0.053 C 
BRANCH   4   5
ATOM      5  C   UNL     1     -12.902 -12.836   5.205  1.00  0.00     0.041 C 
ATOM      6  O   UNL     1     -11.695 -12.574   5.446  1.00  0.00    -0.550 OA
ATOM      7  O   UNL     1     -13.767 -13.124   6.254  1.00  0.00    -0.550 OA
ENDBRANCH   4   5
ENDBRANCH   3   4
ENDBRANCH   2   3
ENDBRANCH   1   2
BRANCH   1   8
ATOM      8  C   UNL     1     -15.922 -10.622   2.197  1.00  0.00     0.000 C 
BRANCH   8   9
ATOM      9  C   UNL     1     -15.914 -11.759   1.161  1.00  0.00     0.000 C 
BRANCH   9  10
ATOM     10  C   UNL     1     -16.869 -12.907   1.532  1.00  0.00     0.006 C 
BRANCH  10  11
ATOM     11  C   UNL     1     -17.565 -12.669   2.879  1.00  0.00     0.053 C 
BRANCH  11  12
ATOM     12  C   UNL     1     -19.056 -12.639   2.736  1.00  0.00     0.041 C 
ATOM     13  O   UNL     1     -19.587 -12.794   1.605  1.00  0.00    -0.550 OA
ATOM     14  O   UNL     1     -19.855 -12.406   3.846  1.00  0.00    -0.550 OA
ENDBRANCH  11  12
ENDBRANCH  10  11
ENDBRANCH   9  10
ENDBRANCH   8   9
ENDBRANCH   1   8
TORSDOF 9
ENDMDL
MODEL 5
REMARK VINA RESULT:    -2.820     15.720     17.564
REMARK INTER + INTRA:          -5.136
REMARK INTER:                  -4.824
REMARK INTRA:                  -0.313
REMARK UNBOUND:                -0.832
REMARK SMILES O=C([O-])CCCCCCCCC(=O)[O-]
REMARK SMILES IDX 7 1 6 2 5 3 4 4 2 5 1 6 3 7 8 8 9 9 10 10 11 11 12 12 13 13
REMARK SMILES IDX 14 14
REMARK H PARENT
REMARK Flexibility Score: inf
ROOT
ATOM      1  C   UNL     1     -14.868 -10.128   2.459  1.00  0.00     0.000 C 
ENDROOT
BRANCH   1   2
ATOM      2  C   UNL     1     -15.978 -10.896   3.196  1.00  0.00     0.000 C 
BRANCH   2   3
ATOM      3  C   UNL     1     -16.879 -11.699   2.240  1.00  0.00     0.006 C 
BRANCH   3   4
ATOM      4  C   UNL     1     -17.581 -12.863   2.951  1.00  0.00     0.053 C 
BRANCH   4   5
ATOM      5  C   UNL     1     -19.072 -12.761   2.848  1.00  0.00     0.041 C 
ATOM      6  O   UNL     1     -19.630 -12.738   1.720  1.00  0.00    -0.550 OA
ATOM      7  O   UNL     1     -19.843 -12.663   3.999  1.00  0.00    -0.550 OA
ENDBRANCH   4   5
ENDBRANCH   3   4
ENDBRANCH   2   3
ENDBRANCH   1   2
BRANCH   1   8
ATOM      8  C   UNL     1     -13.504 -10.834   2.545  1.00  0.00     0.000 C 
BRANCH   8   9
ATOM      9  C   UNL     1     -13.638 -12.364   2.630  1.00  0.00     0.000 C 
BRANCH   9  10
ATOM     10  C   UNL     1     -13.074 -12.939   3.942  1.00  0.00     0.006 C 
BRANCH  10  11
ATOM     11  C   UNL     1     -11.691 -12.365   4.277  1.00  0.00     0.053 C 
BRANCH  11  12
ATOM     12  C   UNL     1     -11.247 -12.758   5.653  1.00  0.00     0.041 C 
ATOM     13  O   UNL     1     -10.059 -13.125   5.855  1.00  0.00    -0.550 OA
ATOM     14  O   UNL     1     -12.154 -12.752   6.704  1.00  0.00    -0.550 OA
ENDBRANCH  11  12
ENDBRANCH  10  11
ENDBRANCH   9  10
ENDBRANCH   8   9
ENDBRANCH   1   8
TORSDOF 9
ENDMDL
MODEL 6
REMARK VINA RESULT:    -2.797      2.279      3.345
REMARK INTER + INTRA:          -5.101
REMARK INTER:                  -4.643
REMARK INTRA:                  -0.458
REMARK UNBOUND:                -0.832
REMARK SMILES O=C([O-])CCCCCCCCC(=O)[O-]
REMARK SMILES IDX 7 1 6 2 5 3 4 4 2 5 1 6 3 7 8 8 9 9 10 10 11 11 12 12 13 13
REMARK SMILES IDX 14 14
REMARK H PARENT
REMARK Flexibility Score: inf
ROOT
ATOM      1  C   UNL     1     -23.120   1.817   2.128  1.00  0.00     0.000 C 
ENDROOT
BRANCH   1   2
ATOM      2  C   UNL     1     -24.609   1.899   2.506  1.00  0.00     0.000 C 
BRANCH   2   3
ATOM      3  C   UNL     1     -25.018   3.297   3.005  1.00  0.00     0.006 C 
BRANCH   3   4
ATOM      4  C   UNL     1     -23.802   4.195   3.268  1.00  0.00     0.053 C 
BRANCH   4   5
ATOM      5  C   UNL     1     -24.186   5.458   3.976  1.00  0.00     0.041 C 
ATOM      6  O   UNL     1     -25.322   5.569   4.506  1.00  0.00    -0.550 OA
ATOM      7  O   UNL     1     -23.296   6.524   4.025  1.00  0.00    -0.550 OA
ENDBRANCH   4   5
ENDBRANCH   3   4
ENDBRANCH   2   3
ENDBRANCH   1   2
BRANCH   1   8
ATOM      8  C   UNL     1     -22.434   0.565   2.702  1.00  0.00     0.000 C 
BRANCH   8   9
ATOM      9  C   UNL     1     -21.846  -0.338   1.605  1.00  0.00     0.000 C 
BRANCH   9  10
ATOM     10  C   UNL     1     -21.119   0.458   0.506  1.00  0.00     0.006 C 
BRANCH  10  11
ATOM     11  C   UNL     1     -19.768   1.004   0.986  1.00  0.00     0.053 C 
BRANCH  11  12
ATOM     12  C   UNL     1     -19.400   2.273   0.278  1.00  0.00     0.041 C 
ATOM     13  O   UNL     1     -18.197   2.518   0.001  1.00  0.00    -0.550 OA
ATOM     14  O   UNL     1     -20.383   3.199  -0.043  1.00  0.00    -0.550 OA
ENDBRANCH  11  12
ENDBRANCH  10  11
ENDBRANCH   9  10
ENDBRANCH   8   9
ENDBRANCH   1   8
TORSDOF 9
ENDMDL
MODEL 7
REMARK VINA RESULT:    -2.790      1.620      5.468
REMARK INTER + INTRA:          -5.090
REMARK INTER:                  -4.447
REMARK INTRA:                  -0.643
REMARK UNBOUND:                -0.832
REMARK SMILES O=C([O-])CCCCCCCCC(=O)[O-]
REMARK SMILES IDX 7 1 6 2 5 3 4 4 2 5 1 6 3 7 8 8 9 9 10 10 11 11 12 12 13 13
REMARK SMILES IDX 14 14
REMARK H PARENT
REMARK Flexibility Score: inf
ROOT
ATOM      1  C   UNL     1     -23.998   1.118   1.841  1.00  0.00     0.000 C 
ENDROOT
BRANCH   1   2
ATOM      2  C   UNL     1     -22.757   0.497   2.505  1.00  0.00     0.000 C 
BRANCH   2   3
ATOM      3  C   UNL     1     -21.902  -0.319   1.519  1.00  0.00     0.006 C 
BRANCH   3   4
ATOM      4  C   UNL     1     -21.609   0.458   0.228  1.00  0.00     0.053 C 
BRANCH   4   5
ATOM      5  C   UNL     1     -20.611   1.552   0.451  1.00  0.00     0.041 C 
ATOM      6  O   UNL     1     -20.881   2.736   0.118  1.00  0.00    -0.550 OA
ATOM      7  O   UNL     1     -19.370   1.258   1.003  1.00  0.00    -0.550 OA
ENDBRANCH   4   5
ENDBRANCH   3   4
ENDBRANCH   2   3
ENDBRANCH   1   2
BRANCH   1   8
ATOM      8  C   UNL     1     -24.493   2.377   2.574  1.00  0.00     0.000 C 
BRANCH   8   9
ATOM      9  C   UNL     1     -23.417   3.472   2.654  1.00  0.00     0.000 C 
BRANCH   9  10
ATOM     10  C   UNL     1     -23.714   4.520   3.741  1.00  0.00     0.006 C 
BRANCH  10  11
ATOM     11  C   UNL     1     -24.725   5.573   3.268  1.00  0.00     0.053 C 
BRANCH  11  12
ATOM     12  C   UNL     1     -24.098   6.564   2.336  1.00  0.00     0.041 C 
ATOM     13  O   UNL     1     -22.955   7.031   2.583  1.00  0.00    -0.550 OA
ATOM     14  O   UNL     1     -24.791   6.999   1.214  1.00  0.00    -0.550 OA
ENDBRANCH  11  12
ENDBRANCH  10  11
ENDBRANCH   9  10
ENDBRANCH   8   9
ENDBRANCH   1   8
TORSDOF 9
ENDMDL
MODEL 8
REMARK VINA RESULT:    -2.727      1.673      5.177
REMARK INTER + INTRA:          -4.993
REMARK INTER:                  -4.096
REMARK INTRA:                  -0.898
REMARK UNBOUND:                -0.832
REMARK SMILES O=C([O-])CCCCCCCCC(=O)[O-]
REMARK SMILES IDX 7 1 6 2 5 3 4 4 2 5 1 6 3 7 8 8 9 9 10 10 11 11 12 12 13 13
REMARK SMILES IDX 14 14
REMARK H PARENT
REMARK Flexibility Score: inf
ROOT
ATOM      1  C   UNL     1     -23.649   1.848  -0.040  1.00  0.00     0.000 C 
ENDROOT
BRANCH   1   2
ATOM      2  C   UNL     1     -22.332   2.328   0.593  1.00  0.00     0.000 C 
BRANCH   2   3
ATOM      3  C   UNL     1     -21.109   1.544   0.085  1.00  0.00     0.006 C 
BRANCH   3   4
ATOM      4  C   UNL     1     -20.409   0.773   1.212  1.00  0.00     0.053 C 
BRANCH   4   5
ATOM      5  C   UNL     1     -21.310  -0.255   1.827  1.00  0.00     0.041 C 
ATOM      6  O   UNL     1     -21.641  -0.167   3.038  1.00  0.00    -0.550 OA
ATOM      7  O   UNL     1     -21.761  -1.327   1.066  1.00  0.00    -0.550 OA
ENDBRANCH   4   5
ENDBRANCH   3   4
ENDBRANCH   2   3
ENDBRANCH   1   2
BRANCH   1   8
ATOM      8  C   UNL     1     -24.718   1.502   1.012  1.00  0.00     0.000 C 
BRANCH   8   9
ATOM      9  C   UNL     1     -24.291   1.895   2.436  1.00  0.00     0.000 C 
BRANCH   9  10
ATOM     10  C   UNL     1     -25.371   2.701   3.180  1.00  0.00     0.006 C 
BRANCH  10  11
ATOM     11  C   UNL     1     -25.378   4.178   2.766  1.00  0.00     0.053 C 
BRANCH  11  12
ATOM     12  C   UNL     1     -24.056   4.833   3.026  1.00  0.00     0.041 C 
ATOM     13  O   UNL     1     -23.407   5.350   2.079  1.00  0.00    -0.550 OA
ATOM     14  O   UNL     1     -23.526   4.841   4.309  1.00  0.00    -0.550 OA
ENDBRANCH  11  12
ENDBRANCH  10  11
ENDBRANCH   9  10
ENDBRANCH   8   9
ENDBRANCH   1   8
TORSDOF 9
ENDMDL
MODEL 9
REMARK VINA RESULT:    -2.667      1.696      5.402
REMARK INTER + INTRA:          -4.903
REMARK INTER:                  -3.889
REMARK INTRA:                  -1.013
REMARK UNBOUND:                -0.832
REMARK SMILES O=C([O-])CCCCCCCCC(=O)[O-]
REMARK SMILES IDX 7 1 6 2 5 3 4 4 2 5 1 6 3 7 8 8 9 9 10 10 11 11 12 12 13 13
REMARK SMILES IDX 14 14
REMARK H PARENT
REMARK Flexibility Score: inf
ROOT
ATOM      1  C   UNL     1     -23.574   2.289   0.165  1.00  0.00     0.000 C 
ENDROOT
BRANCH   1   2
ATOM      2  C   UNL     1     -23.946   1.313   1.294  1.00  0.00     0.000 C 
BRANCH   2   3
ATOM      3  C   UNL     1     -22.966   1.376   2.479  1.00  0.00     0.006 C 
BRANCH   3   4
ATOM      4  C   UNL     1     -22.314   0.016   2.761  1.00  0.00     0.053 C 
BRANCH   4   5
ATOM      5  C   UNL     1     -21.395  -0.401   1.654  1.00  0.00     0.041 C 
ATOM      6  O   UNL     1     -21.645  -1.432   0.976  1.00  0.00    -0.550 OA
ATOM      7  O   UNL     1     -20.248   0.336   1.388  1.00  0.00    -0.550 OA
ENDBRANCH   4   5
ENDBRANCH   3   4
ENDBRANCH   2   3
ENDBRANCH   1   2
BRANCH   1   8
ATOM      8  C   UNL     1     -22.299   3.092   0.475  1.00  0.00     0.000 C 
BRANCH   8   9
ATOM      9  C   UNL     1     -22.505   4.608   0.318  1.00  0.00     0.000 C 
BRANCH   9  10
ATOM     10  C   UNL     1     -23.736   5.123   1.086  1.00  0.00     0.006 C 
BRANCH  10  11
ATOM     11  C   UNL     1     -23.533   5.065   2.606  1.00  0.00     0.053 C 
BRANCH  11  12
ATOM     12  C   UNL     1     -24.795   4.688   3.320  1.00  0.00     0.041 C 
ATOM     13  O   UNL     1     -24.951   4.985   4.534  1.00  0.00    -0.550 OA
ATOM     14  O   UNL     1     -25.784   3.977   2.653  1.00  0.00    -0.550 OA
ENDBRANCH  11  12
ENDBRANCH  10  11
ENDBRANCH   9  10
ENDBRANCH   8   9
ENDBRANCH   1   8
TORSDOF 9
ENDMDL
