MODEL 1
REMARK VINA RESULT:    -5.807      0.000      0.000
REMARK INTER + INTRA:          -7.329
REMARK INTER:                  -6.996
REMARK INTRA:                  -0.333
REMARK UNBOUND:                -0.333
REMARK SMILES O=c1c(O)c(-c2ccc(O)c(O)c2)oc2cc(O)cc(O)c12
REMARK SMILES IDX 5 1 3 2 2 3 1 4 22 5 20 6 19 7 17 8 16 9 15 10 14 11 6 12
REMARK SMILES IDX 7 13 8 14 9 15 13 16 11 17 10 18 12 20 4 22 21 24 18 26
REMARK H PARENT 10 19 12 21 4 23 21 25 18 27
REMARK Flexibility Score: inf
ROOT
ATOM      1  C   UNL     1      56.265 -39.638  50.362  1.00  0.00     0.180 A 
ATOM      2  C   UNL     1      56.292 -39.844  48.972  1.00  0.00     0.208 A 
ATOM      3  C   UNL     1      55.918 -38.793  48.120  1.00  0.00     0.238 A 
ATOM      4  O   UNL     1      55.997 -38.966  46.876  1.00  0.00    -0.285 OA
ATOM      5  C   UNL     1      55.506 -37.555  48.669  1.00  0.00     0.111 A 
ATOM      6  C   UNL     1      55.067 -36.434  47.901  1.00  0.00     0.134 A 
ATOM      7  C   UNL     1      54.808 -35.217  48.542  1.00  0.00     0.093 A 
ATOM      8  C   UNL     1      54.907 -35.097  49.928  1.00  0.00     0.123 A 
ATOM      9  C   UNL     1      55.278 -36.203  50.694  1.00  0.00     0.094 A 
ATOM     10  C   UNL     1      55.578 -37.422  50.080  1.00  0.00     0.146 A 
ATOM     11  O   UNL     1      55.936 -38.446  50.844  1.00  0.00    -0.452 OA
ENDROOT
BRANCH   1  12
ATOM     12  C   UNL     1      56.621 -40.707  51.325  1.00  0.00     0.025 A 
ATOM     13  C   UNL     1      55.663 -41.629  51.782  1.00  0.00     0.016 A 
ATOM     14  C   UNL     1      56.016 -42.613  52.709  1.00  0.00     0.051 A 
ATOM     15  C   UNL     1      57.326 -42.682  53.202  1.00  0.00     0.157 A 
ATOM     16  C   UNL     1      57.927 -40.768  51.838  1.00  0.00     0.062 A 
ATOM     17  C   UNL     1      58.284 -41.752  52.766  1.00  0.00     0.158 A 
BRANCH  15  18
ATOM     18  O   UNL     1      57.676 -43.667  54.125  1.00  0.00    -0.504 OA
ATOM     19  H   UNL     1      57.038 -44.416  54.369  1.00  0.00     0.293 HD
ENDBRANCH  15  18
BRANCH  17  20
ATOM     20  O   UNL     1      59.594 -41.790  53.243  1.00  0.00    -0.504 OA
ATOM     21  H   UNL     1      60.390 -41.609  52.642  1.00  0.00     0.293 HD
ENDBRANCH  17  20
ENDBRANCH   1  12
BRANCH   2  22
ATOM     22  O   UNL     1      56.723 -41.068  48.451  1.00  0.00    -0.502 OA
ATOM     23  H   UNL     1      57.703 -41.295  48.336  1.00  0.00     0.293 HD
ENDBRANCH   2  22
BRANCH   6  24
ATOM     24  O   UNL     1      54.846 -36.472  46.521  1.00  0.00    -0.507 OA
ATOM     25  H   UNL     1      54.850 -37.311  45.961  1.00  0.00     0.293 HD
ENDBRANCH   6  24
BRANCH   8  26
ATOM     26  O   UNL     1      54.626 -33.874  50.534  1.00  0.00    -0.508 OA
ATOM     27  H   UNL     1      54.707 -33.749  51.537  1.00  0.00     0.293 HD
ENDBRANCH   8  26
TORSDOF 6
ENDMDL
MODEL 2
REMARK VINA RESULT:    -5.756      2.612      3.561
REMARK INTER + INTRA:          -7.267
REMARK INTER:                  -7.031
REMARK INTRA:                  -0.236
REMARK UNBOUND:                -0.333
REMARK SMILES O=c1c(O)c(-c2ccc(O)c(O)c2)oc2cc(O)cc(O)c12
REMARK SMILES IDX 5 1 3 2 2 3 1 4 22 5 20 6 19 7 17 8 16 9 15 10 14 11 6 12
REMARK SMILES IDX 7 13 8 14 9 15 13 16 11 17 10 18 12 20 4 22 21 24 18 26
REMARK H PARENT 10 19 12 21 4 23 21 25 18 27
REMARK Flexibility Score: inf
ROOT
ATOM      1  C   UNL     1      55.634 -39.467  48.625  1.00  0.00     0.180 A 
ATOM      2  C   UNL     1      56.138 -38.487  47.753  1.00  0.00     0.208 A 
ATOM      3  C   UNL     1      56.058 -37.136  48.128  1.00  0.00     0.238 A 
ATOM      4  O   UNL     1      56.560 -36.268  47.368  1.00  0.00    -0.285 OA
ATOM      5  C   UNL     1      55.460 -36.782  49.361  1.00  0.00     0.111 A 
ATOM      6  C   UNL     1      55.289 -35.442  49.824  1.00  0.00     0.134 A 
ATOM      7  C   UNL     1      54.804 -35.215  51.117  1.00  0.00     0.093 A 
ATOM      8  C   UNL     1      54.421 -36.274  51.939  1.00  0.00     0.123 A 
ATOM      9  C   UNL     1      54.529 -37.586  51.475  1.00  0.00     0.094 A 
ATOM     10  C   UNL     1      55.043 -37.846  50.202  1.00  0.00     0.146 A 
ATOM     11  O   UNL     1      55.138 -39.108  49.803  1.00  0.00    -0.452 OA
ENDROOT
BRANCH   1  12
ATOM     12  C   UNL     1      55.660 -40.910  48.289  1.00  0.00     0.025 A 
ATOM     13  C   UNL     1      54.848 -41.439  47.270  1.00  0.00     0.016 A 
ATOM     14  C   UNL     1      54.871 -42.806  46.986  1.00  0.00     0.051 A 
ATOM     15  C   UNL     1      55.695 -43.668  47.724  1.00  0.00     0.157 A 
ATOM     16  C   UNL     1      56.467 -41.780  49.039  1.00  0.00     0.062 A 
ATOM     17  C   UNL     1      56.493 -43.151  48.757  1.00  0.00     0.158 A 
BRANCH  15  18
ATOM     18  O   UNL     1      55.717 -45.032  47.437  1.00  0.00    -0.504 OA
ATOM     19  H   UNL     1      56.295 -45.408  46.694  1.00  0.00     0.293 HD
ENDBRANCH  15  18
BRANCH  17  20
ATOM     20  O   UNL     1      57.318 -43.982  49.515  1.00  0.00    -0.504 OA
ATOM     21  H   UNL     1      57.075 -44.946  49.713  1.00  0.00     0.293 HD
ENDBRANCH  17  20
ENDBRANCH   1  12
BRANCH   2  22
ATOM     22  O   UNL     1      56.744 -38.860  46.550  1.00  0.00    -0.502 OA
ATOM     23  H   UNL     1      56.243 -38.874  45.670  1.00  0.00     0.293 HD
ENDBRANCH   2  22
BRANCH   6  24
ATOM     24  O   UNL     1      55.553 -34.309  49.048  1.00  0.00    -0.507 OA
ATOM     25  H   UNL     1      55.875 -33.426  49.413  1.00  0.00     0.293 HD
ENDBRANCH   6  24
BRANCH   8  26
ATOM     26  O   UNL     1      53.928 -36.009  53.215  1.00  0.00    -0.508 OA
ATOM     27  H   UNL     1      53.176 -36.558  53.617  1.00  0.00     0.293 HD
ENDBRANCH   8  26
TORSDOF 6
ENDMDL
MODEL 3
REMARK VINA RESULT:    -5.710      2.940      6.933
REMARK INTER + INTRA:          -7.211
REMARK INTER:                  -7.237
REMARK INTRA:                   0.026
REMARK UNBOUND:                -0.333
REMARK SMILES O=c1c(O)c(-c2ccc(O)c(O)c2)oc2cc(O)cc(O)c12
REMARK SMILES IDX 5 1 3 2 2 3 1 4 22 5 20 6 19 7 17 8 16 9 15 10 14 11 6 12
REMARK SMILES IDX 7 13 8 14 9 15 13 16 11 17 10 18 12 20 4 22 21 24 18 26
REMARK H PARENT 10 19 12 21 4 23 21 25 18 27
REMARK Flexibility Score: inf
ROOT
ATOM      1  C   UNL     1      55.832 -40.128  48.986  1.00  0.00     0.180 A 
ATOM      2  C   UNL     1      56.543 -40.867  49.948  1.00  0.00     0.208 A 
ATOM      3  C   UNL     1      56.517 -42.270  49.885  1.00  0.00     0.238 A 
ATOM      4  O   UNL     1      57.199 -42.924  50.715  1.00  0.00    -0.285 OA
ATOM      5  C   UNL     1      55.769 -42.915  48.872  1.00  0.00     0.111 A 
ATOM      6  C   UNL     1      55.640 -44.331  48.736  1.00  0.00     0.134 A 
ATOM      7  C   UNL     1      54.984 -44.860  47.619  1.00  0.00     0.093 A 
ATOM      8  C   UNL     1      54.394 -44.028  46.668  1.00  0.00     0.123 A 
ATOM      9  C   UNL     1      54.463 -42.643  46.821  1.00  0.00     0.094 A 
ATOM     10  C   UNL     1      55.143 -42.084  47.906  1.00  0.00     0.146 A 
ATOM     11  O   UNL     1      55.194 -40.762  48.010  1.00  0.00    -0.452 OA
ENDROOT
BRANCH   1  12
ATOM     12  C   UNL     1      55.790 -38.647  49.002  1.00  0.00     0.025 A 
ATOM     13  C   UNL     1      56.109 -37.894  47.858  1.00  0.00     0.016 A 
ATOM     14  C   UNL     1      56.087 -36.498  47.902  1.00  0.00     0.051 A 
ATOM     15  C   UNL     1      55.760 -35.834  49.093  1.00  0.00     0.157 A 
ATOM     16  C   UNL     1      55.484 -37.977  50.197  1.00  0.00     0.062 A 
ATOM     17  C   UNL     1      55.461 -36.578  50.245  1.00  0.00     0.158 A 
BRANCH  15  18
ATOM     18  O   UNL     1      55.736 -34.441  49.133  1.00  0.00    -0.504 OA
ATOM     19  H   UNL     1      56.560 -33.890  48.919  1.00  0.00     0.293 HD
ENDBRANCH  15  18
BRANCH  17  20
ATOM     20  O   UNL     1      55.139 -35.948  51.447  1.00  0.00    -0.504 OA
ATOM     21  H   UNL     1      54.851 -36.469  52.267  1.00  0.00     0.293 HD
ENDBRANCH  17  20
ENDBRANCH   1  12
BRANCH   2  22
ATOM     22  O   UNL     1      57.292 -40.209  50.927  1.00  0.00    -0.502 OA
ATOM     23  H   UNL     1      58.031 -39.556  50.699  1.00  0.00     0.293 HD
ENDBRANCH   2  22
BRANCH   6  24
ATOM     24  O   UNL     1      56.112 -45.251  49.677  1.00  0.00    -0.507 OA
ATOM     25  H   UNL     1      55.526 -45.839  50.249  1.00  0.00     0.293 HD
ENDBRANCH   6  24
BRANCH   8  26
ATOM     26  O   UNL     1      53.735 -44.591  45.577  1.00  0.00    -0.508 OA
ATOM     27  H   UNL     1      53.462 -45.568  45.569  1.00  0.00     0.293 HD
ENDBRANCH   8  26
TORSDOF 6
ENDMDL
MODEL 4
REMARK VINA RESULT:    -5.636      9.471     12.202
REMARK INTER + INTRA:          -7.122
REMARK INTER:                  -6.924
REMARK INTRA:                  -0.198
REMARK UNBOUND:                -0.333
REMARK SMILES O=c1c(O)c(-c2ccc(O)c(O)c2)oc2cc(O)cc(O)c12
REMARK SMILES IDX 5 1 3 2 2 3 1 4 22 5 20 6 19 7 17 8 16 9 15 10 14 11 6 12
REMARK SMILES IDX 7 13 8 14 9 15 13 16 11 17 10 18 12 20 4 22 21 24 18 26
REMARK H PARENT 10 19 12 21 4 23 21 25 18 27
REMARK Flexibility Score: inf
ROOT
ATOM      1  C   UNL     1      55.333 -37.170  38.783  1.00  0.00     0.180 A 
ATOM      2  C   UNL     1      54.311 -37.014  37.830  1.00  0.00     0.208 A 
ATOM      3  C   UNL     1      54.283 -35.851  37.045  1.00  0.00     0.238 A 
ATOM      4  O   UNL     1      53.398 -35.742  36.158  1.00  0.00    -0.285 OA
ATOM      5  C   UNL     1      55.267 -34.851  37.233  1.00  0.00     0.111 A 
ATOM      6  C   UNL     1      55.313 -33.614  36.521  1.00  0.00     0.134 A 
ATOM      7  C   UNL     1      56.406 -32.758  36.695  1.00  0.00     0.093 A 
ATOM      8  C   UNL     1      57.422 -33.060  37.602  1.00  0.00     0.123 A 
ATOM      9  C   UNL     1      57.357 -34.238  38.346  1.00  0.00     0.094 A 
ATOM     10  C   UNL     1      56.297 -35.131  38.169  1.00  0.00     0.146 A 
ATOM     11  O   UNL     1      56.279 -36.245  38.889  1.00  0.00    -0.452 OA
ENDROOT
BRANCH   1  12
ATOM     12  C   UNL     1      55.414 -38.358  39.665  1.00  0.00     0.025 A 
ATOM     13  C   UNL     1      55.206 -38.255  41.051  1.00  0.00     0.016 A 
ATOM     14  C   UNL     1      55.312 -39.383  41.868  1.00  0.00     0.051 A 
ATOM     15  C   UNL     1      55.640 -40.628  41.314  1.00  0.00     0.157 A 
ATOM     16  C   UNL     1      55.763 -39.603  39.118  1.00  0.00     0.062 A 
ATOM     17  C   UNL     1      55.870 -40.736  39.933  1.00  0.00     0.158 A 
BRANCH  15  18
ATOM     18  O   UNL     1      55.742 -41.753  42.130  1.00  0.00    -0.504 OA
ATOM     19  H   UNL     1      55.877 -42.680  41.742  1.00  0.00     0.293 HD
ENDBRANCH  15  18
BRANCH  17  20
ATOM     20  O   UNL     1      56.205 -41.958  39.351  1.00  0.00    -0.504 OA
ATOM     21  H   UNL     1      56.477 -42.034  38.377  1.00  0.00     0.293 HD
ENDBRANCH  17  20
ENDBRANCH   1  12
BRANCH   2  22
ATOM     22  O   UNL     1      53.361 -38.024  37.647  1.00  0.00    -0.502 OA
ATOM     23  H   UNL     1      53.336 -38.602  36.816  1.00  0.00     0.293 HD
ENDBRANCH   2  22
BRANCH   6  24
ATOM     24  O   UNL     1      54.305 -33.172  35.660  1.00  0.00    -0.507 OA
ATOM     25  H   UNL     1      53.327 -33.404  35.752  1.00  0.00     0.293 HD
ENDBRANCH   6  24
BRANCH   8  26
ATOM     26  O   UNL     1      58.487 -32.176  37.760  1.00  0.00    -0.508 OA
ATOM     27  H   UNL     1      58.943 -32.051  38.657  1.00  0.00     0.293 HD
ENDBRANCH   8  26
TORSDOF 6
ENDMDL
MODEL 5
REMARK VINA RESULT:    -5.493      1.914      6.853
REMARK INTER + INTRA:          -6.950
REMARK INTER:                  -6.647
REMARK INTRA:                  -0.304
REMARK UNBOUND:                -0.333
REMARK SMILES O=c1c(O)c(-c2ccc(O)c(O)c2)oc2cc(O)cc(O)c12
REMARK SMILES IDX 5 1 3 2 2 3 1 4 22 5 20 6 19 7 17 8 16 9 15 10 14 11 6 12
REMARK SMILES IDX 7 13 8 14 9 15 13 16 11 17 10 18 12 20 4 22 21 24 18 26
REMARK H PARENT 10 19 12 21 4 23 21 25 18 27
REMARK Flexibility Score: inf
ROOT
ATOM      1  C   UNL     1      55.697 -39.607  48.466  1.00  0.00     0.180 A 
ATOM      2  C   UNL     1      55.424 -40.735  47.673  1.00  0.00     0.208 A 
ATOM      3  C   UNL     1      55.735 -42.010  48.171  1.00  0.00     0.238 A 
ATOM      4  O   UNL     1      55.438 -43.018  47.480  1.00  0.00    -0.285 OA
ATOM      5  C   UNL     1      56.330 -42.140  49.449  1.00  0.00     0.111 A 
ATOM      6  C   UNL     1      56.724 -43.380  50.037  1.00  0.00     0.134 A 
ATOM      7  C   UNL     1      57.182 -43.402  51.360  1.00  0.00     0.093 A 
ATOM      8  C   UNL     1      57.323 -42.224  52.093  1.00  0.00     0.123 A 
ATOM      9  C   UNL     1      56.996 -41.000  51.508  1.00  0.00     0.094 A 
ATOM     10  C   UNL     1      56.503 -40.950  50.202  1.00  0.00     0.146 A 
ATOM     11  O   UNL     1      56.194 -39.767  49.686  1.00  0.00    -0.452 OA
ENDROOT
BRANCH   1  12
ATOM     12  C   UNL     1      55.419 -38.229  47.999  1.00  0.00     0.025 A 
ATOM     13  C   UNL     1      54.132 -37.672  48.088  1.00  0.00     0.016 A 
ATOM     14  C   UNL     1      53.887 -36.379  47.619  1.00  0.00     0.051 A 
ATOM     15  C   UNL     1      54.922 -35.629  47.042  1.00  0.00     0.157 A 
ATOM     16  C   UNL     1      56.447 -37.482  47.401  1.00  0.00     0.062 A 
ATOM     17  C   UNL     1      56.206 -36.186  46.930  1.00  0.00     0.158 A 
BRANCH  15  18
ATOM     18  O   UNL     1      54.675 -34.338  46.577  1.00  0.00    -0.504 OA
ATOM     19  H   UNL     1      53.786 -34.084  46.163  1.00  0.00     0.293 HD
ENDBRANCH  15  18
BRANCH  17  20
ATOM     20  O   UNL     1      57.255 -35.469  46.355  1.00  0.00    -0.504 OA
ATOM     21  H   UNL     1      58.203 -35.827  46.334  1.00  0.00     0.293 HD
ENDBRANCH  17  20
ENDBRANCH   1  12
BRANCH   2  22
ATOM     22  O   UNL     1      54.816 -40.585  46.423  1.00  0.00    -0.502 OA
ATOM     23  H   UNL     1      55.170 -41.037  45.588  1.00  0.00     0.293 HD
ENDBRANCH   2  22
BRANCH   6  24
ATOM     24  O   UNL     1      56.711 -44.604  49.361  1.00  0.00    -0.507 OA
ATOM     25  H   UNL     1      57.499 -45.229  49.289  1.00  0.00     0.293 HD
ENDBRANCH   6  24
BRANCH   8  26
ATOM     26  O   UNL     1      57.797 -42.283  53.402  1.00  0.00    -0.508 OA
ATOM     27  H   UNL     1      57.898 -43.166  53.890  1.00  0.00     0.293 HD
ENDBRANCH   8  26
TORSDOF 6
ENDMDL
MODEL 6
REMARK VINA RESULT:    -5.464      1.663      6.864
REMARK INTER + INTRA:          -6.915
REMARK INTER:                  -6.687
REMARK INTRA:                  -0.228
REMARK UNBOUND:                -0.333
REMARK SMILES O=c1c(O)c(-c2ccc(O)c(O)c2)oc2cc(O)cc(O)c12
REMARK SMILES IDX 5 1 3 2 2 3 1 4 22 5 20 6 19 7 17 8 16 9 15 10 14 11 6 12
REMARK SMILES IDX 7 13 8 14 9 15 13 16 11 17 10 18 12 20 4 22 21 24 18 26
REMARK H PARENT 10 19 12 21 4 23 21 25 18 27
REMARK Flexibility Score: inf
ROOT
ATOM      1  C   UNL     1      55.887 -39.882  49.625  1.00  0.00     0.180 A 
ATOM      2  C   UNL     1      54.892 -40.866  49.504  1.00  0.00     0.208 A 
ATOM      3  C   UNL     1      54.978 -42.024  50.295  1.00  0.00     0.238 A 
ATOM      4  O   UNL     1      54.056 -42.876  50.222  1.00  0.00    -0.285 OA
ATOM      5  C   UNL     1      56.067 -42.188  51.184  1.00  0.00     0.111 A 
ATOM      6  C   UNL     1      56.278 -43.338  52.004  1.00  0.00     0.134 A 
ATOM      7  C   UNL     1      57.318 -43.337  52.941  1.00  0.00     0.093 A 
ATOM      8  C   UNL     1      58.194 -42.257  53.044  1.00  0.00     0.123 A 
ATOM      9  C   UNL     1      58.033 -41.153  52.206  1.00  0.00     0.094 A 
ATOM     10  C   UNL     1      56.984 -41.109  51.286  1.00  0.00     0.146 A 
ATOM     11  O   UNL     1      56.860 -40.036  50.515  1.00  0.00    -0.452 OA
ENDROOT
BRANCH   1  12
ATOM     12  C   UNL     1      55.877 -38.646  48.808  1.00  0.00     0.025 A 
ATOM     13  C   UNL     1      56.100 -38.685  47.420  1.00  0.00     0.016 A 
ATOM     14  C   UNL     1      56.110 -37.505  46.672  1.00  0.00     0.051 A 
ATOM     15  C   UNL     1      55.913 -36.268  47.301  1.00  0.00     0.157 A 
ATOM     16  C   UNL     1      55.701 -37.403  49.436  1.00  0.00     0.062 A 
ATOM     17  C   UNL     1      55.711 -36.218  48.690  1.00  0.00     0.158 A 
BRANCH  15  18
ATOM     18  O   UNL     1      55.921 -35.092  46.552  1.00  0.00    -0.504 OA
ATOM     19  H   UNL     1      56.422 -34.268  46.865  1.00  0.00     0.293 HD
ENDBRANCH  15  18
BRANCH  17  20
ATOM     20  O   UNL     1      55.518 -35.003  49.347  1.00  0.00    -0.504 OA
ATOM     21  H   UNL     1      54.910 -34.919  50.154  1.00  0.00     0.293 HD
ENDBRANCH  17  20
ENDBRANCH   1  12
BRANCH   2  22
ATOM     22  O   UNL     1      53.814 -40.673  48.636  1.00  0.00    -0.502 OA
ATOM     23  H   UNL     1      53.133 -39.935  48.769  1.00  0.00     0.293 HD
ENDBRANCH   2  22
BRANCH   6  24
ATOM     24  O   UNL     1      55.517 -44.508  51.917  1.00  0.00    -0.507 OA
ATOM     25  H   UNL     1      55.202 -45.048  52.708  1.00  0.00     0.293 HD
ENDBRANCH   6  24
BRANCH   8  26
ATOM     26  O   UNL     1      59.227 -42.298  53.978  1.00  0.00    -0.508 OA
ATOM     27  H   UNL     1      60.060 -42.854  53.822  1.00  0.00     0.293 HD
ENDBRANCH   8  26
TORSDOF 6
ENDMDL
MODEL 7
REMARK VINA RESULT:    -5.459      2.489      4.009
REMARK INTER + INTRA:          -6.910
REMARK INTER:                  -6.575
REMARK INTRA:                  -0.335
REMARK UNBOUND:                -0.333
REMARK SMILES O=c1c(O)c(-c2ccc(O)c(O)c2)oc2cc(O)cc(O)c12
REMARK SMILES IDX 5 1 3 2 2 3 1 4 22 5 20 6 19 7 17 8 16 9 15 10 14 11 6 12
REMARK SMILES IDX 7 13 8 14 9 15 13 16 11 17 10 18 12 20 4 22 21 24 18 26
REMARK H PARENT 10 19 12 21 4 23 21 25 18 27
REMARK Flexibility Score: inf
ROOT
ATOM      1  C   UNL     1      55.604 -40.205  49.653  1.00  0.00     0.180 A 
ATOM      2  C   UNL     1      55.194 -39.645  50.875  1.00  0.00     0.208 A 
ATOM      3  C   UNL     1      55.174 -38.248  51.012  1.00  0.00     0.238 A 
ATOM      4  O   UNL     1      54.754 -37.753  52.090  1.00  0.00    -0.285 OA
ATOM      5  C   UNL     1      55.579 -37.429  49.932  1.00  0.00     0.111 A 
ATOM      6  C   UNL     1      55.637 -36.003  49.972  1.00  0.00     0.134 A 
ATOM      7  C   UNL     1      55.926 -35.290  48.803  1.00  0.00     0.093 A 
ATOM      8  C   UNL     1      56.225 -35.951  47.611  1.00  0.00     0.123 A 
ATOM      9  C   UNL     1      56.230 -37.346  47.575  1.00  0.00     0.094 A 
ATOM     10  C   UNL     1      55.909 -38.085  48.716  1.00  0.00     0.146 A 
ATOM     11  O   UNL     1      55.915 -39.409  48.637  1.00  0.00    -0.452 OA
ENDROOT
BRANCH   1  12
ATOM     12  C   UNL     1      55.675 -41.670  49.440  1.00  0.00     0.025 A 
ATOM     13  C   UNL     1      56.838 -42.398  49.748  1.00  0.00     0.016 A 
ATOM     14  C   UNL     1      56.892 -43.774  49.517  1.00  0.00     0.051 A 
ATOM     15  C   UNL     1      55.790 -44.441  48.963  1.00  0.00     0.157 A 
ATOM     16  C   UNL     1      54.583 -42.339  48.866  1.00  0.00     0.062 A 
ATOM     17  C   UNL     1      54.633 -43.718  48.633  1.00  0.00     0.158 A 
BRANCH  15  18
ATOM     18  O   UNL     1      55.845 -45.816  48.736  1.00  0.00    -0.504 OA
ATOM     19  H   UNL     1      56.730 -46.302  48.641  1.00  0.00     0.293 HD
ENDBRANCH  15  18
BRANCH  17  20
ATOM     20  O   UNL     1      53.522 -44.351  48.074  1.00  0.00    -0.504 OA
ATOM     21  H   UNL     1      53.611 -45.038  47.334  1.00  0.00     0.293 HD
ENDBRANCH  17  20
ENDBRANCH   1  12
BRANCH   2  22
ATOM     22  O   UNL     1      54.777 -40.472  51.922  1.00  0.00    -0.502 OA
ATOM     23  H   UNL     1      53.885 -40.355  52.387  1.00  0.00     0.293 HD
ENDBRANCH   2  22
BRANCH   6  24
ATOM     24  O   UNL     1      55.445 -35.247  51.132  1.00  0.00    -0.507 OA
ATOM     25  H   UNL     1      55.841 -34.334  51.295  1.00  0.00     0.293 HD
ENDBRANCH   6  24
BRANCH   8  26
ATOM     26  O   UNL     1      56.524 -35.208  46.471  1.00  0.00    -0.508 OA
ATOM     27  H   UNL     1      56.033 -34.348  46.255  1.00  0.00     0.293 HD
ENDBRANCH   8  26
TORSDOF 6
ENDMDL
MODEL 8
REMARK VINA RESULT:    -5.438      9.402     12.897
REMARK INTER + INTRA:          -6.884
REMARK INTER:                  -6.720
REMARK INTRA:                  -0.164
REMARK UNBOUND:                -0.333
REMARK SMILES O=c1c(O)c(-c2ccc(O)c(O)c2)oc2cc(O)cc(O)c12
REMARK SMILES IDX 5 1 3 2 2 3 1 4 22 5 20 6 19 7 17 8 16 9 15 10 14 11 6 12
REMARK SMILES IDX 7 13 8 14 9 15 13 16 11 17 10 18 12 20 4 22 21 24 18 26
REMARK H PARENT 10 19 12 21 4 23 21 25 18 27
REMARK Flexibility Score: inf
ROOT
ATOM      1  C   UNL     1      55.593 -36.563  39.166  1.00  0.00     0.180 A 
ATOM      2  C   UNL     1      55.128 -37.099  37.953  1.00  0.00     0.208 A 
ATOM      3  C   UNL     1      54.869 -38.477  37.872  1.00  0.00     0.238 A 
ATOM      4  O   UNL     1      54.402 -38.942  36.801  1.00  0.00    -0.285 OA
ATOM      5  C   UNL     1      55.094 -39.303  38.999  1.00  0.00     0.111 A 
ATOM      6  C   UNL     1      54.904 -40.718  39.019  1.00  0.00     0.134 A 
ATOM      7  C   UNL     1      55.030 -41.415  40.226  1.00  0.00     0.093 A 
ATOM      8  C   UNL     1      55.404 -40.761  41.400  1.00  0.00     0.123 A 
ATOM      9  C   UNL     1      55.650 -39.388  41.380  1.00  0.00     0.094 A 
ATOM     10  C   UNL     1      55.497 -38.659  40.198  1.00  0.00     0.146 A 
ATOM     11  O   UNL     1      55.731 -37.353  40.224  1.00  0.00    -0.452 OA
ENDROOT
BRANCH   1  12
ATOM     12  C   UNL     1      55.912 -35.124  39.321  1.00  0.00     0.025 A 
ATOM     13  C   UNL     1      55.151 -34.293  40.161  1.00  0.00     0.016 A 
ATOM     14  C   UNL     1      55.454 -32.934  40.274  1.00  0.00     0.051 A 
ATOM     15  C   UNL     1      56.513 -32.383  39.540  1.00  0.00     0.157 A 
ATOM     16  C   UNL     1      56.959 -34.563  38.572  1.00  0.00     0.062 A 
ATOM     17  C   UNL     1      57.265 -33.202  38.683  1.00  0.00     0.158 A 
BRANCH  15  18
ATOM     18  O   UNL     1      56.815 -31.027  39.656  1.00  0.00    -0.504 OA
ATOM     19  H   UNL     1      56.359 -30.331  39.078  1.00  0.00     0.293 HD
ENDBRANCH  15  18
BRANCH  17  20
ATOM     20  O   UNL     1      58.321 -32.684  37.933  1.00  0.00    -0.504 OA
ATOM     21  H   UNL     1      58.703 -31.761  38.108  1.00  0.00     0.293 HD
ENDBRANCH  17  20
ENDBRANCH   1  12
BRANCH   2  22
ATOM     22  O   UNL     1      54.893 -36.262  36.858  1.00  0.00    -0.502 OA
ATOM     23  H   UNL     1      54.735 -36.620  35.924  1.00  0.00     0.293 HD
ENDBRANCH   2  22
BRANCH   6  24
ATOM     24  O   UNL     1      54.618 -41.482  37.884  1.00  0.00    -0.507 OA
ATOM     25  H   UNL     1      53.836 -42.113  37.798  1.00  0.00     0.293 HD
ENDBRANCH   6  24
BRANCH   8  26
ATOM     26  O   UNL     1      55.536 -41.491  42.580  1.00  0.00    -0.508 OA
ATOM     27  H   UNL     1      54.726 -41.822  43.091  1.00  0.00     0.293 HD
ENDBRANCH   8  26
TORSDOF 6
ENDMDL
MODEL 9
REMARK VINA RESULT:    -5.415     10.838     12.001
REMARK INTER + INTRA:          -6.857
REMARK INTER:                  -6.522
REMARK INTRA:                  -0.335
REMARK UNBOUND:                -0.333
REMARK SMILES O=c1c(O)c(-c2ccc(O)c(O)c2)oc2cc(O)cc(O)c12
REMARK SMILES IDX 5 1 3 2 2 3 1 4 22 5 20 6 19 7 17 8 16 9 15 10 14 11 6 12
REMARK SMILES IDX 7 13 8 14 9 15 13 16 11 17 10 18 12 20 4 22 21 24 18 26
REMARK H PARENT 10 19 12 21 4 23 21 25 18 27
REMARK Flexibility Score: inf
ROOT
ATOM      1  C   UNL     1      55.314 -37.755  38.717  1.00  0.00     0.180 A 
ATOM      2  C   UNL     1      56.572 -37.513  38.139  1.00  0.00     0.208 A 
ATOM      3  C   UNL     1      57.193 -36.272  38.354  1.00  0.00     0.238 A 
ATOM      4  O   UNL     1      58.342 -36.082  37.880  1.00  0.00    -0.285 OA
ATOM      5  C   UNL     1      56.541 -35.284  39.130  1.00  0.00     0.111 A 
ATOM      6  C   UNL     1      57.058 -33.977  39.379  1.00  0.00     0.134 A 
ATOM      7  C   UNL     1      56.389 -33.128  40.268  1.00  0.00     0.093 A 
ATOM      8  C   UNL     1      55.189 -33.511  40.866  1.00  0.00     0.123 A 
ATOM      9  C   UNL     1      54.643 -34.764  40.583  1.00  0.00     0.094 A 
ATOM     10  C   UNL     1      55.305 -35.647  39.728  1.00  0.00     0.146 A 
ATOM     11  O   UNL     1      54.758 -36.833  39.493  1.00  0.00    -0.452 OA
ENDROOT
BRANCH   1  12
ATOM     12  C   UNL     1      54.585 -39.030  38.515  1.00  0.00     0.025 A 
ATOM     13  C   UNL     1      53.716 -39.211  37.425  1.00  0.00     0.016 A 
ATOM     14  C   UNL     1      53.020 -40.412  37.268  1.00  0.00     0.051 A 
ATOM     15  C   UNL     1      53.174 -41.445  38.203  1.00  0.00     0.157 A 
ATOM     16  C   UNL     1      54.719 -40.060  39.460  1.00  0.00     0.062 A 
ATOM     17  C   UNL     1      54.024 -41.265  39.305  1.00  0.00     0.158 A 
BRANCH  15  18
ATOM     18  O   UNL     1      52.481 -42.644  38.042  1.00  0.00    -0.504 OA
ATOM     19  H   UNL     1      52.657 -43.257  37.254  1.00  0.00     0.293 HD
ENDBRANCH  15  18
BRANCH  17  20
ATOM     20  O   UNL     1      54.193 -42.270  40.257  1.00  0.00    -0.504 OA
ATOM     21  H   UNL     1      55.056 -42.796  40.337  1.00  0.00     0.293 HD
ENDBRANCH  17  20
ENDBRANCH   1  12
BRANCH   2  22
ATOM     22  O   UNL     1      57.208 -38.511  37.395  1.00  0.00    -0.502 OA
ATOM     23  H   UNL     1      57.887 -39.143  37.800  1.00  0.00     0.293 HD
ENDBRANCH   2  22
BRANCH   6  24
ATOM     24  O   UNL     1      58.201 -33.460  38.763  1.00  0.00    -0.507 OA
ATOM     25  H   UNL     1      58.585 -32.544  38.939  1.00  0.00     0.293 HD
ENDBRANCH   6  24
BRANCH   8  26
ATOM     26  O   UNL     1      54.543 -32.633  41.733  1.00  0.00    -0.508 OA
ATOM     27  H   UNL     1      54.018 -31.837  41.388  1.00  0.00     0.293 HD
ENDBRANCH   8  26
TORSDOF 6
ENDMDL
