MODEL 1
REMARK VINA RESULT:    32.635      0.000      0.000
REMARK INTER + INTRA:          39.342
REMARK INTER:                  39.313
REMARK INTRA:                   0.029
REMARK UNBOUND:                 0.029
REMARK SMILES O=c1ccn([C@H]2O[C@@H](CO)[C@H](O)[C@H]2O)c(=O)[nH]1
REMARK SMILES IDX 6 1 13 2 11 3 8 4 7 5 5 6 3 7 4 8 2 9 17 10 1 11 15 12 16 14
REMARK SMILES IDX 14 15 12 17 9 19 10 20
REMARK H PARENT 17 13 14 16 12 18 10 21
REMARK Flexibility Score: inf
ROOT
ATOM      1  C   UNL     1      39.991  46.368  18.653  1.00  0.00     0.255 C 
ATOM      2  C   UNL     1      39.279  47.640  19.160  1.00  0.00     0.196 C 
ATOM      3  C   UNL     1      38.008  47.102  19.781  1.00  0.00     0.179 C 
ATOM      4  C   UNL     1      37.888  45.711  19.160  1.00  0.00     0.178 C 
ATOM      5  O   UNL     1      39.194  45.236  18.944  1.00  0.00    -0.347 OA
ENDROOT
BRANCH   1   6
ATOM      6  N   UNL     1      41.347  46.205  19.224  1.00  0.00    -0.271 N 
ATOM      7  C   UNL     1      42.721  45.693  21.124  1.00  0.00     0.090 A 
ATOM      8  C   UNL     1      41.467  45.870  20.546  1.00  0.00     0.099 A 
ATOM      9  C   UNL     1      43.850  45.852  20.329  1.00  0.00     0.253 A 
ATOM     10  N   UNL     1      43.711  46.169  19.015  1.00  0.00    -0.274 N 
ATOM     11  O   UNL     1      44.998  45.699  20.825  1.00  0.00    -0.269 OA
ATOM     12  C   UNL     1      42.480  46.339  18.458  1.00  0.00     0.330 A 
ATOM     13  H   UNL     1      44.565  46.279  18.421  1.00  0.00     0.175 HD
ATOM     14  O   UNL     1      42.397  46.611  17.228  1.00  0.00    -0.248 OA
ENDBRANCH   1   6
BRANCH   2  15
ATOM     15  O   UNL     1      40.029  48.345  20.116  1.00  0.00    -0.386 OA
ATOM     16  H   UNL     1      39.379  48.732  20.759  1.00  0.00     0.211 HD
ENDBRANCH   2  15
BRANCH   3  17
ATOM     17  O   UNL     1      36.888  47.913  19.513  1.00  0.00    -0.387 OA
ATOM     18  H   UNL     1      37.033  48.368  18.642  1.00  0.00     0.211 HD
ENDBRANCH   3  17
BRANCH   4  19
ATOM     19  C   UNL     1      37.099  44.735  20.040  1.00  0.00     0.191 C 
BRANCH  19  20
ATOM     20  O   UNL     1      36.692  43.618  19.297  1.00  0.00    -0.394 OA
ATOM     21  H   UNL     1      36.539  43.944  18.372  1.00  0.00     0.210 HD
ENDBRANCH  19  20
ENDBRANCH   4  19
TORSDOF 5
ENDMDL
MODEL 2
REMARK VINA RESULT:    34.929      1.327      2.541
REMARK INTER + INTRA:          42.105
REMARK INTER:                  41.829
REMARK INTRA:                   0.275
REMARK UNBOUND:                 0.029
REMARK SMILES O=c1ccn([C@H]2O[C@@H](CO)[C@H](O)[C@H]2O)c(=O)[nH]1
REMARK SMILES IDX 6 1 13 2 11 3 8 4 7 5 5 6 3 7 4 8 2 9 17 10 1 11 15 12 16 14
REMARK SMILES IDX 14 15 12 17 9 19 10 20
REMARK H PARENT 17 13 14 16 12 18 10 21
REMARK Flexibility Score: inf
ROOT
ATOM      1  C   UNL     1      40.968  46.072  20.365  1.00  0.00     0.255 C 
ATOM      2  C   UNL     1      40.211  44.807  19.910  1.00  0.00     0.196 C 
ATOM      3  C   UNL     1      39.017  45.365  19.166  1.00  0.00     0.179 C 
ATOM      4  C   UNL     1      38.946  46.806  19.668  1.00  0.00     0.178 C 
ATOM      5  O   UNL     1      40.263  47.221  19.934  1.00  0.00    -0.347 OA
ENDROOT
BRANCH   1   6
ATOM      6  N   UNL     1      42.364  46.110  19.875  1.00  0.00    -0.271 N 
ATOM      7  C   UNL     1      44.710  45.962  20.360  1.00  0.00     0.090 A 
ATOM      8  C   UNL     1      43.381  45.948  20.776  1.00  0.00     0.099 A 
ATOM      9  C   UNL     1      44.983  46.135  19.008  1.00  0.00     0.253 A 
ATOM     10  N   UNL     1      43.960  46.278  18.125  1.00  0.00    -0.274 N 
ATOM     11  O   UNL     1      46.176  46.153  18.603  1.00  0.00    -0.269 OA
ATOM     12  C   UNL     1      42.664  46.261  18.541  1.00  0.00     0.330 A 
ATOM     13  H   UNL     1      44.174  46.399  17.109  1.00  0.00     0.175 HD
ATOM     14  O   UNL     1      41.745  46.375  17.685  1.00  0.00    -0.248 OA
ENDBRANCH   1   6
BRANCH   2  15
ATOM     15  O   UNL     1      40.973  43.984  19.064  1.00  0.00    -0.386 OA
ATOM     16  H   UNL     1      41.397  44.582  18.394  1.00  0.00     0.211 HD
ENDBRANCH   2  15
BRANCH   3  17
ATOM     17  O   UNL     1      37.834  44.644  19.420  1.00  0.00    -0.387 OA
ATOM     18  H   UNL     1      37.092  45.293  19.536  1.00  0.00     0.211 HD
ENDBRANCH   3  17
BRANCH   4  19
ATOM     19  C   UNL     1      38.276  47.752  18.665  1.00  0.00     0.191 C 
BRANCH  19  20
ATOM     20  O   UNL     1      36.885  47.746  18.832  1.00  0.00    -0.394 OA
ATOM     21  H   UNL     1      36.510  48.197  18.032  1.00  0.00     0.210 HD
ENDBRANCH  19  20
ENDBRANCH   4  19
TORSDOF 5
ENDMDL
