MODEL 1
REMARK VINA RESULT:    -2.714      0.000      0.000
REMARK INTER + INTRA:          -3.395
REMARK INTER:                  -3.983
REMARK INTRA:                   0.589
REMARK UNBOUND:                 0.589
REMARK SMILES O=c1c(O[C@@H]2O[C@H](CO)[C@@H](O)[C@H](O)[C@H]2O)c(-c2ccc(O)c(O)c2)oc2cc(O)cc(O)c12
REMARK SMILES IDX 4 1 3 2 16 3 25 4 2 5 26 6 1 7 33 8 27 9 31 10 28 11 30 12
REMARK SMILES IDX 17 13 18 14 19 15 20 16 24 17 22 18 21 19 23 21 32 23 29 25
REMARK SMILES IDX 5 27 14 28 6 29 12 30 7 31 10 32 15 33 13 35 8 37 9 38 11 40
REMARK H PARENT 21 20 23 22 32 24 29 26 15 34 13 36 9 39 11 41
REMARK Flexibility Score: inf
ROOT
ATOM      1  O   UNL     1     -11.289   8.847   5.328  1.00  0.00    -0.454 OA
ENDROOT
BRANCH   1   2
ATOM      2  C   UNL     1      -9.926   8.977   5.655  1.00  0.00     0.214 A 
ATOM      3  C   UNL     1      -9.343   7.977   6.449  1.00  0.00     0.180 A 
ATOM      4  O   UNL     1      -8.074   8.065   6.822  1.00  0.00    -0.452 OA
ATOM      5  C   UNL     1      -9.119  10.056   5.239  1.00  0.00     0.239 A 
ATOM      6  C   UNL     1      -7.283   9.068   6.466  1.00  0.00     0.146 A 
ATOM      7  O   UNL     1      -9.632  10.996   4.580  1.00  0.00    -0.285 OA
ATOM      8  C   UNL     1      -7.753  10.100   5.614  1.00  0.00     0.111 A 
ATOM      9  C   UNL     1      -5.975   9.096   6.960  1.00  0.00     0.094 A 
ATOM     10  C   UNL     1      -6.844  11.130   5.228  1.00  0.00     0.134 A 
ATOM     11  C   UNL     1      -5.120  10.150   6.638  1.00  0.00     0.123 A 
ATOM     12  C   UNL     1      -5.558  11.158   5.780  1.00  0.00     0.093 A 
BRANCH   3  13
ATOM     13  C   UNL     1     -10.118   6.798   6.860  1.00  0.00     0.025 A 
ATOM     14  C   UNL     1      -9.748   6.090   8.008  1.00  0.00     0.016 A 
ATOM     15  C   UNL     1     -10.461   4.952   8.390  1.00  0.00     0.051 A 
ATOM     16  C   UNL     1     -11.557   4.511   7.639  1.00  0.00     0.157 A 
ATOM     17  C   UNL     1     -11.219   6.371   6.107  1.00  0.00     0.062 A 
ATOM     18  C   UNL     1     -11.945   5.234   6.485  1.00  0.00     0.158 A 
BRANCH  16  19
ATOM     19  O   UNL     1     -12.226   3.365   8.072  1.00  0.00    -0.504 OA
ATOM     20  H   UNL     1     -13.225   3.312   8.210  1.00  0.00     0.293 HD
ENDBRANCH  16  19
BRANCH  18  21
ATOM     21  O   UNL     1     -13.037   4.865   5.696  1.00  0.00    -0.504 OA
ATOM     22  H   UNL     1     -13.988   5.147   5.883  1.00  0.00     0.293 HD
ENDBRANCH  18  21
ENDBRANCH   3  13
BRANCH  10  23
ATOM     23  O   UNL     1      -7.148  12.125   4.295  1.00  0.00    -0.507 OA
ATOM     24  H   UNL     1      -7.194  11.976   3.297  1.00  0.00     0.293 HD
ENDBRANCH  10  23
BRANCH  11  25
ATOM     25  O   UNL     1      -3.828  10.202   7.155  1.00  0.00    -0.508 OA
ATOM     26  H   UNL     1      -3.592  10.803   7.937  1.00  0.00     0.293 HD
ENDBRANCH  11  25
ENDBRANCH   1   2
BRANCH   1  27
ATOM     27  C   UNL     1     -12.386   9.493   5.978  1.00  0.00     0.339 C 
ATOM     28  C   UNL     1     -12.379  10.995   5.658  1.00  0.00     0.214 C 
ATOM     29  O   UNL     1     -13.631   8.885   5.667  1.00  0.00    -0.332 OA
ATOM     30  C   UNL     1     -12.709  11.247   4.182  1.00  0.00     0.180 C 
ATOM     31  C   UNL     1     -14.028   9.006   4.307  1.00  0.00     0.179 C 
ATOM     32  C   UNL     1     -13.962  10.458   3.736  1.00  0.00     0.177 C 
BRANCH  28  33
ATOM     33  O   UNL     1     -13.306  11.665   6.474  1.00  0.00    -0.384 OA
ATOM     34  H   UNL     1     -14.049  11.961   5.884  1.00  0.00     0.211 HD
ENDBRANCH  28  33
BRANCH  30  35
ATOM     35  O   UNL     1     -11.599  10.903   3.390  1.00  0.00    -0.387 OA
ATOM     36  H   UNL     1     -10.809  10.878   3.993  1.00  0.00     0.211 HD
ENDBRANCH  30  35
BRANCH  31  37
ATOM     37  C   UNL     1     -13.414   7.913   3.405  1.00  0.00     0.191 C 
BRANCH  37  38
ATOM     38  O   UNL     1     -13.835   6.631   3.772  1.00  0.00    -0.394 OA
ATOM     39  H   UNL     1     -14.420   6.751   4.565  1.00  0.00     0.210 HD
ENDBRANCH  37  38
ENDBRANCH  31  37
BRANCH  32  40
ATOM     40  O   UNL     1     -15.125  11.178   4.069  1.00  0.00    -0.387 OA
ATOM     41  H   UNL     1     -15.230  11.916   3.414  1.00  0.00     0.211 HD
ENDBRANCH  32  40
ENDBRANCH   1  27
TORSDOF 12
ENDMDL
MODEL 2
REMARK VINA RESULT:    -1.495      1.737      5.921
REMARK INTER + INTRA:          -1.606
REMARK INTER:                  -2.482
REMARK INTRA:                   0.876
REMARK UNBOUND:                 0.589
REMARK SMILES O=c1c(O[C@@H]2O[C@H](CO)[C@@H](O)[C@H](O)[C@H]2O)c(-c2ccc(O)c(O)c2)oc2cc(O)cc(O)c12
REMARK SMILES IDX 4 1 3 2 16 3 25 4 2 5 26 6 1 7 33 8 27 9 31 10 28 11 30 12
REMARK SMILES IDX 17 13 18 14 19 15 20 16 24 17 22 18 21 19 23 21 32 23 29 25
REMARK SMILES IDX 5 27 14 28 6 29 12 30 7 31 10 32 15 33 13 35 8 37 9 38 11 40
REMARK H PARENT 21 20 23 22 32 24 29 26 15 34 13 36 9 39 11 41
REMARK Flexibility Score: inf
ROOT
ATOM      1  O   UNL     1     -11.519  10.005   5.808  1.00  0.00    -0.454 OA
ENDROOT
BRANCH   1   2
ATOM      2  C   UNL     1     -11.206   8.635   5.893  1.00  0.00     0.214 A 
ATOM      3  C   UNL     1      -9.854   8.265   5.827  1.00  0.00     0.180 A 
ATOM      4  O   UNL     1      -9.500   6.988   5.861  1.00  0.00    -0.452 OA
ATOM      5  C   UNL     1     -12.172   7.617   6.031  1.00  0.00     0.239 A 
ATOM      6  C   UNL     1     -10.375   5.997   5.975  1.00  0.00     0.146 A 
ATOM      7  O   UNL     1     -13.393   7.916   6.029  1.00  0.00    -0.285 OA
ATOM      8  C   UNL     1     -11.761   6.263   6.113  1.00  0.00     0.111 A 
ATOM      9  C   UNL     1      -9.903   4.682   5.945  1.00  0.00     0.094 A 
ATOM     10  C   UNL     1     -12.651   5.160   6.277  1.00  0.00     0.134 A 
ATOM     11  C   UNL     1     -10.792   3.610   6.029  1.00  0.00     0.123 A 
ATOM     12  C   UNL     1     -12.155   3.854   6.191  1.00  0.00     0.093 A 
BRANCH   3  13
ATOM     13  C   UNL     1      -8.799   9.286   5.746  1.00  0.00     0.025 A 
ATOM     14  C   UNL     1      -7.942   9.313   4.641  1.00  0.00     0.016 A 
ATOM     15  C   UNL     1      -6.920  10.261   4.570  1.00  0.00     0.051 A 
ATOM     16  C   UNL     1      -6.745  11.200   5.593  1.00  0.00     0.157 A 
ATOM     17  C   UNL     1      -8.639  10.228   6.770  1.00  0.00     0.062 A 
ATOM     18  C   UNL     1      -7.620  11.188   6.706  1.00  0.00     0.158 A 
BRANCH  16  19
ATOM     19  O   UNL     1      -5.703  12.119   5.464  1.00  0.00    -0.504 OA
ATOM     20  H   UNL     1      -5.498  12.626   4.614  1.00  0.00     0.293 HD
ENDBRANCH  16  19
BRANCH  18  21
ATOM     21  O   UNL     1      -7.520  12.103   7.755  1.00  0.00    -0.504 OA
ATOM     22  H   UNL     1      -7.556  11.848   8.731  1.00  0.00     0.293 HD
ENDBRANCH  18  21
ENDBRANCH   3  13
BRANCH  10  23
ATOM     23  O   UNL     1     -14.015   5.296   6.549  1.00  0.00    -0.507 OA
ATOM     24  H   UNL     1     -14.724   5.453   5.847  1.00  0.00     0.293 HD
ENDBRANCH  10  23
BRANCH  11  25
ATOM     25  O   UNL     1     -10.331   2.297   5.963  1.00  0.00    -0.508 OA
ATOM     26  H   UNL     1      -9.675   1.930   6.644  1.00  0.00     0.293 HD
ENDBRANCH  11  25
ENDBRANCH   1   2
BRANCH   1  27
ATOM     27  C   UNL     1     -11.377  10.841   4.659  1.00  0.00     0.339 C 
ATOM     28  C   UNL     1     -11.941  10.133   3.418  1.00  0.00     0.214 C 
ATOM     29  O   UNL     1     -11.953  12.125   4.850  1.00  0.00    -0.332 OA
ATOM     30  C   UNL     1     -13.466   9.995   3.507  1.00  0.00     0.180 C 
ATOM     31  C   UNL     1     -13.368  12.125   4.999  1.00  0.00     0.179 C 
ATOM     32  C   UNL     1     -14.138  11.331   3.896  1.00  0.00     0.177 C 
BRANCH  28  33
ATOM     33  O   UNL     1     -11.595  10.847   2.258  1.00  0.00    -0.384 OA
ATOM     34  H   UNL     1     -11.915  10.312   1.483  1.00  0.00     0.211 HD
ENDBRANCH  28  33
BRANCH  30  35
ATOM     35  O   UNL     1     -13.789   8.988   4.435  1.00  0.00    -0.387 OA
ATOM     36  H   UNL     1     -14.379   8.340   3.966  1.00  0.00     0.211 HD
ENDBRANCH  30  35
BRANCH  31  37
ATOM     37  C   UNL     1     -13.818  11.847   6.450  1.00  0.00     0.191 C 
BRANCH  37  38
ATOM     38  O   UNL     1     -14.560  10.666   6.552  1.00  0.00    -0.394 OA
ATOM     39  H   UNL     1     -14.875  10.460   5.634  1.00  0.00     0.210 HD
ENDBRANCH  37  38
ENDBRANCH  31  37
BRANCH  32  40
ATOM     40  O   UNL     1     -14.326  12.125   2.749  1.00  0.00    -0.387 OA
ATOM     41  H   UNL     1     -13.701  12.894   2.799  1.00  0.00     0.211 HD
ENDBRANCH  32  40
ENDBRANCH   1  27
TORSDOF 12
ENDMDL
MODEL 3
REMARK VINA RESULT:    -1.425      1.572      5.638
REMARK INTER + INTRA:          -1.502
REMARK INTER:                  -0.484
REMARK INTRA:                  -1.018
REMARK UNBOUND:                 0.589
REMARK SMILES O=c1c(O[C@@H]2O[C@H](CO)[C@@H](O)[C@H](O)[C@H]2O)c(-c2ccc(O)c(O)c2)oc2cc(O)cc(O)c12
REMARK SMILES IDX 4 1 3 2 16 3 25 4 2 5 26 6 1 7 33 8 27 9 31 10 28 11 30 12
REMARK SMILES IDX 17 13 18 14 19 15 20 16 24 17 22 18 21 19 23 21 32 23 29 25
REMARK SMILES IDX 5 27 14 28 6 29 12 30 7 31 10 32 15 33 13 35 8 37 9 38 11 40
REMARK H PARENT 21 20 23 22 32 24 29 26 15 34 13 36 9 39 11 41
REMARK Flexibility Score: inf
ROOT
ATOM      1  O   UNL     1     -11.882   9.152   5.098  1.00  0.00    -0.454 OA
ENDROOT
BRANCH   1   2
ATOM      2  C   UNL     1     -11.456   7.972   5.739  1.00  0.00     0.214 A 
ATOM      3  C   UNL     1     -10.101   7.868   6.089  1.00  0.00     0.180 A 
ATOM      4  O   UNL     1      -9.634   6.766   6.659  1.00  0.00    -0.452 OA
ATOM      5  C   UNL     1     -12.310   6.890   6.038  1.00  0.00     0.239 A 
ATOM      6  C   UNL     1     -10.397   5.719   6.945  1.00  0.00     0.146 A 
ATOM      7  O   UNL     1     -13.514   6.932   5.679  1.00  0.00    -0.285 OA
ATOM      8  C   UNL     1     -11.792   5.744   6.691  1.00  0.00     0.111 A 
ATOM      9  C   UNL     1      -9.794   4.583   7.494  1.00  0.00     0.094 A 
ATOM     10  C   UNL     1     -12.570   4.607   7.061  1.00  0.00     0.134 A 
ATOM     11  C   UNL     1     -10.555   3.449   7.779  1.00  0.00     0.123 A 
ATOM     12  C   UNL     1     -11.931   3.466   7.560  1.00  0.00     0.093 A 
BRANCH   3  13
ATOM     13  C   UNL     1      -9.178   8.988   5.858  1.00  0.00     0.025 A 
ATOM     14  C   UNL     1      -8.369   8.997   4.717  1.00  0.00     0.016 A 
ATOM     15  C   UNL     1      -7.469  10.042   4.505  1.00  0.00     0.051 A 
ATOM     16  C   UNL     1      -7.369  11.096   5.421  1.00  0.00     0.157 A 
ATOM     17  C   UNL     1      -9.093  10.042   6.776  1.00  0.00     0.062 A 
ATOM     18  C   UNL     1      -8.197  11.100   6.569  1.00  0.00     0.158 A 
BRANCH  16  19
ATOM     19  O   UNL     1      -6.447  12.109   5.152  1.00  0.00    -0.504 OA
ATOM     20  H   UNL     1      -5.448  12.007   5.259  1.00  0.00     0.293 HD
ENDBRANCH  16  19
BRANCH  18  21
ATOM     21  O   UNL     1      -8.168  12.124   7.517  1.00  0.00    -0.504 OA
ATOM     22  H   UNL     1      -7.401  12.772   7.624  1.00  0.00     0.293 HD
ENDBRANCH  18  21
ENDBRANCH   3  13
BRANCH  10  23
ATOM     23  O   UNL     1     -13.965   4.560   6.980  1.00  0.00    -0.507 OA
ATOM     24  H   UNL     1     -14.580   5.280   7.332  1.00  0.00     0.293 HD
ENDBRANCH  10  23
BRANCH  11  25
ATOM     25  O   UNL     1      -9.955   2.301   8.293  1.00  0.00    -0.508 OA
ATOM     26  H   UNL     1      -9.167   2.353   8.929  1.00  0.00     0.293 HD
ENDBRANCH  11  25
ENDBRANCH   1   2
BRANCH   1  27
ATOM     27  C   UNL     1     -13.071   9.892   5.382  1.00  0.00     0.339 C 
ATOM     28  C   UNL     1     -12.788  11.399   5.294  1.00  0.00     0.214 C 
ATOM     29  O   UNL     1     -14.159   9.503   4.556  1.00  0.00    -0.332 OA
ATOM     30  C   UNL     1     -12.502  11.823   3.848  1.00  0.00     0.180 C 
ATOM     31  C   UNL     1     -13.992   9.798   3.175  1.00  0.00     0.179 C 
ATOM     32  C   UNL     1     -13.564  11.268   2.871  1.00  0.00     0.177 C 
BRANCH  28  33
ATOM     33  O   UNL     1     -13.882  12.125   5.795  1.00  0.00    -0.384 OA
ATOM     34  H   UNL     1     -13.755  13.070   5.515  1.00  0.00     0.211 HD
ENDBRANCH  28  33
BRANCH  30  35
ATOM     35  O   UNL     1     -11.216  11.390   3.480  1.00  0.00    -0.387 OA
ATOM     36  H   UNL     1     -10.629  11.516   4.272  1.00  0.00     0.211 HD
ENDBRANCH  30  35
BRANCH  31  37
ATOM     37  C   UNL     1     -13.197   8.708   2.422  1.00  0.00     0.191 C 
BRANCH  37  38
ATOM     38  O   UNL     1     -13.864   7.479   2.419  1.00  0.00    -0.394 OA
ATOM     39  H   UNL     1     -14.200   7.347   3.344  1.00  0.00     0.210 HD
ENDBRANCH  37  38
ENDBRANCH  31  37
BRANCH  32  40
ATOM     40  O   UNL     1     -14.685  12.120   2.848  1.00  0.00    -0.387 OA
ATOM     41  H   UNL     1     -15.337  11.790   3.518  1.00  0.00     0.211 HD
ENDBRANCH  32  40
ENDBRANCH   1  27
TORSDOF 12
ENDMDL
MODEL 4
REMARK VINA RESULT:     0.209      1.847      6.986
REMARK INTER + INTRA:           0.896
REMARK INTER:                  -0.850
REMARK INTRA:                   1.746
REMARK UNBOUND:                 0.589
REMARK SMILES O=c1c(O[C@@H]2O[C@H](CO)[C@@H](O)[C@H](O)[C@H]2O)c(-c2ccc(O)c(O)c2)oc2cc(O)cc(O)c12
REMARK SMILES IDX 4 1 3 2 16 3 25 4 2 5 26 6 1 7 33 8 27 9 31 10 28 11 30 12
REMARK SMILES IDX 17 13 18 14 19 15 20 16 24 17 22 18 21 19 23 21 32 23 29 25
REMARK SMILES IDX 5 27 14 28 6 29 12 30 7 31 10 32 15 33 13 35 8 37 9 38 11 40
REMARK H PARENT 21 20 23 22 32 24 29 26 15 34 13 36 9 39 11 41
REMARK Flexibility Score: inf
ROOT
ATOM      1  O   UNL     1     -10.878   7.893   6.338  1.00  0.00    -0.454 OA
ENDROOT
BRANCH   1   2
ATOM      2  C   UNL     1     -11.546   8.711   5.406  1.00  0.00     0.214 A 
ATOM      3  C   UNL     1     -11.076  10.021   5.228  1.00  0.00     0.180 A 
ATOM      4  O   UNL     1     -11.688  10.850   4.394  1.00  0.00    -0.452 OA
ATOM      5  C   UNL     1     -12.662   8.291   4.653  1.00  0.00     0.239 A 
ATOM      6  C   UNL     1     -12.749  10.504   3.676  1.00  0.00     0.146 A 
ATOM      7  O   UNL     1     -13.141   7.144   4.840  1.00  0.00    -0.285 OA
ATOM      8  C   UNL     1     -13.267   9.185   3.734  1.00  0.00     0.111 A 
ATOM      9  C   UNL     1     -13.355  11.471   2.869  1.00  0.00     0.094 A 
ATOM     10  C   UNL     1     -14.382   8.856   2.907  1.00  0.00     0.134 A 
ATOM     11  C   UNL     1     -14.492  11.157   2.124  1.00  0.00     0.123 A 
ATOM     12  C   UNL     1     -14.998   9.858   2.149  1.00  0.00     0.093 A 
BRANCH   3  13
ATOM     13  C   UNL     1      -9.880  10.494   5.939  1.00  0.00     0.025 A 
ATOM     14  C   UNL     1     -10.000  11.491   6.912  1.00  0.00     0.016 A 
ATOM     15  C   UNL     1      -8.864  11.966   7.572  1.00  0.00     0.051 A 
ATOM     16  C   UNL     1      -7.598  11.447   7.279  1.00  0.00     0.157 A 
ATOM     17  C   UNL     1      -8.619   9.961   5.645  1.00  0.00     0.062 A 
ATOM     18  C   UNL     1      -7.474  10.426   6.305  1.00  0.00     0.158 A 
BRANCH  16  19
ATOM     19  O   UNL     1      -6.503  11.966   7.971  1.00  0.00    -0.504 OA
ATOM     20  H   UNL     1      -6.125  11.561   8.815  1.00  0.00     0.293 HD
ENDBRANCH  16  19
BRANCH  18  21
ATOM     21  O   UNL     1      -6.248   9.847   5.971  1.00  0.00    -0.504 OA
ATOM     22  H   UNL     1      -5.410   9.940   6.527  1.00  0.00     0.293 HD
ENDBRANCH  18  21
ENDBRANCH   3  13
BRANCH  10  23
ATOM     23  O   UNL     1     -14.900   7.564   2.778  1.00  0.00    -0.507 OA
ATOM     24  H   UNL     1     -14.738   6.817   3.438  1.00  0.00     0.293 HD
ENDBRANCH  10  23
BRANCH  11  25
ATOM     25  O   UNL     1     -15.121  12.125   1.345  1.00  0.00    -0.508 OA
ATOM     26  H   UNL     1     -15.398  13.021   1.732  1.00  0.00     0.293 HD
ENDBRANCH  11  25
ENDBRANCH   1   2
BRANCH   1  27
ATOM     27  C   UNL     1      -9.887   6.905   6.047  1.00  0.00     0.339 C 
ATOM     28  C   UNL     1      -9.150   6.503   7.333  1.00  0.00     0.214 C 
ATOM     29  O   UNL     1     -10.428   5.783   5.367  1.00  0.00    -0.332 OA
ATOM     30  C   UNL     1     -10.076   5.734   8.283  1.00  0.00     0.180 C 
ATOM     31  C   UNL     1     -11.347   5.012   6.129  1.00  0.00     0.179 C 
ATOM     32  C   UNL     1     -10.836   4.606   7.548  1.00  0.00     0.177 C 
BRANCH  28  33
ATOM     33  O   UNL     1      -8.030   5.714   7.018  1.00  0.00    -0.384 OA
ATOM     34  H   UNL     1      -8.063   4.916   7.610  1.00  0.00     0.211 HD
ENDBRANCH  28  33
BRANCH  30  35
ATOM     35  O   UNL     1     -10.978   6.631   8.882  1.00  0.00    -0.387 OA
ATOM     36  H   UNL     1     -11.818   6.129   9.050  1.00  0.00     0.211 HD
ENDBRANCH  30  35
BRANCH  31  37
ATOM     37  C   UNL     1     -12.785   5.574   6.080  1.00  0.00     0.191 C 
BRANCH  37  38
ATOM     38  O   UNL     1     -13.669   4.824   6.864  1.00  0.00    -0.394 OA
ATOM     39  H   UNL     1     -14.027   5.449   7.547  1.00  0.00     0.210 HD
ENDBRANCH  37  38
ENDBRANCH  31  37
BRANCH  32  40
ATOM     40  O   UNL     1     -10.032   3.453   7.478  1.00  0.00    -0.387 OA
ATOM     41  H   UNL     1      -9.903   3.109   8.400  1.00  0.00     0.211 HD
ENDBRANCH  32  40
ENDBRANCH   1  27
TORSDOF 12
ENDMDL
