MODEL 1
REMARK VINA RESULT:    -5.261      0.000      0.000
REMARK INTER + INTRA:          -6.858
REMARK INTER:                  -6.338
REMARK INTRA:                  -0.520
REMARK UNBOUND:                -0.520
REMARK SMILES CCCCc1oc(O)c2ccccc12
REMARK SMILES IDX 4 1 5 2 7 3 6 4 9 5 14 6 10 7 13 8 11 9 12 10 8 11 3 13 2 14
REMARK SMILES IDX 1 15
REMARK H PARENT 8 12
REMARK Flexibility Score: inf
ROOT
ATOM      1  C   UNL     1       6.132 -14.032  -3.848  1.00  0.00     0.076 C 
ENDROOT
BRANCH   1   2
ATOM      2  C   UNL     1       7.462 -14.441  -4.409  1.00  0.00     0.116 A 
ATOM      3  C   UNL     1       9.466 -15.201  -4.475  1.00  0.00     0.290 A 
ATOM      4  O   UNL     1       8.455 -14.916  -3.677  1.00  0.00    -0.430 OA
ATOM      5  C   UNL     1       9.130 -14.908  -5.776  1.00  0.00     0.066 A 
ATOM      6  C   UNL     1       7.849 -14.424  -5.739  1.00  0.00     0.027 A 
ATOM      7  C   UNL     1       9.838 -15.039  -6.969  1.00  0.00     0.016 A 
ATOM      8  C   UNL     1       7.179 -14.037  -6.901  1.00  0.00     0.012 A 
ATOM      9  C   UNL     1       9.190 -14.653  -8.157  1.00  0.00     0.001 A 
ATOM     10  C   UNL     1       7.867 -14.155  -8.124  1.00  0.00     0.001 A 
BRANCH   3  11
ATOM     11  O   UNL     1      10.682 -15.722  -4.047  1.00  0.00    -0.480 OA
ATOM     12  H   UNL     1      11.308 -16.169  -4.705  1.00  0.00     0.297 HD
ENDBRANCH   3  11
ENDBRANCH   1   2
BRANCH   1  13
ATOM     13  C   UNL     1       5.137 -15.199  -3.843  1.00  0.00     0.008 C 
BRANCH  13  14
ATOM     14  C   UNL     1       4.180 -15.154  -5.043  1.00  0.00    -0.003 C 
ATOM     15  C   UNL     1       3.768 -13.721  -5.366  1.00  0.00     0.004 C 
ENDBRANCH  13  14
ENDBRANCH   1  13
TORSDOF 4
ENDMDL
MODEL 2
REMARK VINA RESULT:    -5.095      1.591      4.399
REMARK INTER + INTRA:          -6.657
REMARK INTER:                  -6.137
REMARK INTRA:                  -0.520
REMARK UNBOUND:                -0.520
REMARK SMILES CCCCc1oc(O)c2ccccc12
REMARK SMILES IDX 4 1 5 2 7 3 6 4 9 5 14 6 10 7 13 8 11 9 12 10 8 11 3 13 2 14
REMARK SMILES IDX 1 15
REMARK H PARENT 8 12
REMARK Flexibility Score: inf
ROOT
ATOM      1  C   UNL     1      10.894 -14.603  -6.789  1.00  0.00     0.076 C 
ENDROOT
BRANCH   1   2
ATOM      2  C   UNL     1      10.059 -14.500  -5.546  1.00  0.00     0.116 A 
ATOM      3  C   UNL     1       9.537 -14.112  -3.503  1.00  0.00     0.290 A 
ATOM      4  O   UNL     1      10.531 -14.120  -4.371  1.00  0.00    -0.430 OA
ATOM      5  C   UNL     1       8.372 -14.495  -4.124  1.00  0.00     0.066 A 
ATOM      6  C   UNL     1       8.699 -14.742  -5.431  1.00  0.00     0.027 A 
ATOM      7  C   UNL     1       7.069 -14.632  -3.649  1.00  0.00     0.016 A 
ATOM      8  C   UNL     1       7.741 -15.143  -6.362  1.00  0.00     0.012 A 
ATOM      9  C   UNL     1       6.081 -15.038  -4.564  1.00  0.00     0.001 A 
ATOM     10  C   UNL     1       6.414 -15.293  -5.914  1.00  0.00     0.001 A 
BRANCH   3  11
ATOM     11  O   UNL     1       9.668 -13.762  -2.164  1.00  0.00    -0.480 OA
ATOM     12  H   UNL     1      10.128 -14.386  -1.513  1.00  0.00     0.297 HD
ENDBRANCH   3  11
ENDBRANCH   1   2
BRANCH   1  13
ATOM     13  C   UNL     1      10.784 -13.340  -7.651  1.00  0.00     0.008 C 
BRANCH  13  14
ATOM     14  C   UNL     1      10.015 -13.590  -8.956  1.00  0.00    -0.003 C 
ATOM     15  C   UNL     1      10.075 -15.061  -9.356  1.00  0.00     0.004 C 
ENDBRANCH  13  14
ENDBRANCH   1  13
TORSDOF 4
ENDMDL
MODEL 3
REMARK VINA RESULT:    -5.050      1.903      2.767
REMARK INTER + INTRA:          -6.603
REMARK INTER:                  -6.331
REMARK INTRA:                  -0.272
REMARK UNBOUND:                -0.520
REMARK SMILES CCCCc1oc(O)c2ccccc12
REMARK SMILES IDX 4 1 5 2 7 3 6 4 9 5 14 6 10 7 13 8 11 9 12 10 8 11 3 13 2 14
REMARK SMILES IDX 1 15
REMARK H PARENT 8 12
REMARK Flexibility Score: inf
ROOT
ATOM      1  C   UNL     1       5.625 -15.018  -3.694  1.00  0.00     0.076 C 
ENDROOT
BRANCH   1   2
ATOM      2  C   UNL     1       6.511 -14.928  -4.902  1.00  0.00     0.116 A 
ATOM      3  C   UNL     1       7.093 -14.822  -6.963  1.00  0.00     0.290 A 
ATOM      4  O   UNL     1       6.064 -14.943  -6.146  1.00  0.00    -0.430 OA
ATOM      5  C   UNL     1       8.256 -14.721  -6.237  1.00  0.00     0.066 A 
ATOM      6  C   UNL     1       7.890 -14.787  -4.919  1.00  0.00     0.027 A 
ATOM      7  C   UNL     1       9.584 -14.569  -6.629  1.00  0.00     0.016 A 
ATOM      8  C   UNL     1       8.831 -14.700  -3.892  1.00  0.00     0.012 A 
ATOM      9  C   UNL     1      10.557 -14.482  -5.616  1.00  0.00     0.001 A 
ATOM     10  C   UNL     1      10.183 -14.547  -4.254  1.00  0.00     0.001 A 
BRANCH   3  11
ATOM     11  O   UNL     1       6.996 -14.799  -8.350  1.00  0.00    -0.480 OA
ATOM     12  H   UNL     1       6.100 -14.931  -8.803  1.00  0.00     0.297 HD
ENDBRANCH   3  11
ENDBRANCH   1   2
BRANCH   1  13
ATOM     13  C   UNL     1       4.254 -15.612  -4.041  1.00  0.00     0.008 C 
BRANCH  13  14
ATOM     14  C   UNL     1       3.120 -14.590  -3.888  1.00  0.00    -0.003 C 
ATOM     15  C   UNL     1       2.893 -13.821  -5.187  1.00  0.00     0.004 C 
ENDBRANCH  13  14
ENDBRANCH   1  13
TORSDOF 4
ENDMDL
MODEL 4
REMARK VINA RESULT:    -4.924     10.547     12.115
REMARK INTER + INTRA:          -6.452
REMARK INTER:                  -6.284
REMARK INTRA:                  -0.168
REMARK UNBOUND:                -0.520
REMARK SMILES CCCCc1oc(O)c2ccccc12
REMARK SMILES IDX 4 1 5 2 7 3 6 4 9 5 14 6 10 7 13 8 11 9 12 10 8 11 3 13 2 14
REMARK SMILES IDX 1 15
REMARK H PARENT 8 12
REMARK Flexibility Score: inf
ROOT
ATOM      1  C   UNL     1       1.394 -22.016   2.274  1.00  0.00     0.076 C 
ENDROOT
BRANCH   1   2
ATOM      2  C   UNL     1       1.550 -22.370   0.823  1.00  0.00     0.116 A 
ATOM      3  C   UNL     1       1.760 -22.113  -1.295  1.00  0.00     0.290 A 
ATOM      4  O   UNL     1       1.589 -21.478  -0.151  1.00  0.00    -0.430 OA
ATOM      5  C   UNL     1       1.840 -23.468  -1.068  1.00  0.00     0.066 A 
ATOM      6  C   UNL     1       1.708 -23.636   0.284  1.00  0.00     0.027 A 
ATOM      7  C   UNL     1       2.025 -24.543  -1.934  1.00  0.00     0.016 A 
ATOM      8  C   UNL     1       1.756 -24.901   0.872  1.00  0.00     0.012 A 
ATOM      9  C   UNL     1       2.074 -25.832  -1.371  1.00  0.00     0.001 A 
ATOM     10  C   UNL     1       1.941 -26.010   0.025  1.00  0.00     0.001 A 
BRANCH   3  11
ATOM     11  O   UNL     1       1.848 -21.490  -2.534  1.00  0.00    -0.480 OA
ATOM     12  H   UNL     1       1.744 -22.026  -3.386  1.00  0.00     0.297 HD
ENDBRANCH   3  11
ENDBRANCH   1   2
BRANCH   1  13
ATOM     13  C   UNL     1       0.891 -20.579   2.455  1.00  0.00     0.008 C 
BRANCH  13  14
ATOM     14  C   UNL     1       1.122 -20.056   3.880  1.00  0.00    -0.003 C 
ATOM     15  C   UNL     1       1.046 -18.532   3.926  1.00  0.00     0.004 C 
ENDBRANCH  13  14
ENDBRANCH   1  13
TORSDOF 4
ENDMDL
MODEL 5
REMARK VINA RESULT:    -4.884      2.464      3.938
REMARK INTER + INTRA:          -6.404
REMARK INTER:                  -5.883
REMARK INTRA:                  -0.521
REMARK UNBOUND:                -0.520
REMARK SMILES CCCCc1oc(O)c2ccccc12
REMARK SMILES IDX 4 1 5 2 7 3 6 4 9 5 14 6 10 7 13 8 11 9 12 10 8 11 3 13 2 14
REMARK SMILES IDX 1 15
REMARK H PARENT 8 12
REMARK Flexibility Score: inf
ROOT
ATOM      1  C   UNL     1       8.076 -15.513  -4.888  1.00  0.00     0.076 C 
ENDROOT
BRANCH   1   2
ATOM      2  C   UNL     1       8.147 -15.066  -6.319  1.00  0.00     0.116 A 
ATOM      3  C   UNL     1       7.497 -14.542  -8.294  1.00  0.00     0.290 A 
ATOM      4  O   UNL     1       7.098 -14.994  -7.120  1.00  0.00    -0.430 OA
ATOM      5  C   UNL     1       8.852 -14.306  -8.267  1.00  0.00     0.066 A 
ATOM      6  C   UNL     1       9.271 -14.638  -7.006  1.00  0.00     0.027 A 
ATOM      7  C   UNL     1       9.729 -13.825  -9.236  1.00  0.00     0.016 A 
ATOM      8  C   UNL     1      10.606 -14.507  -6.620  1.00  0.00     0.012 A 
ATOM      9  C   UNL     1      11.083 -13.684  -8.878  1.00  0.00     0.001 A 
ATOM     10  C   UNL     1      11.519 -14.023  -7.577  1.00  0.00     0.001 A 
BRANCH   3  11
ATOM     11  O   UNL     1       6.658 -14.339  -9.383  1.00  0.00    -0.480 OA
ATOM     12  H   UNL     1       6.673 -13.460  -9.885  1.00  0.00     0.297 HD
ENDBRANCH   3  11
ENDBRANCH   1   2
BRANCH   1  13
ATOM     13  C   UNL     1       7.644 -14.372  -3.959  1.00  0.00     0.008 C 
BRANCH  13  14
ATOM     14  C   UNL     1       8.842 -13.658  -3.316  1.00  0.00    -0.003 C 
ATOM     15  C   UNL     1       9.932 -14.653  -2.929  1.00  0.00     0.004 C 
ENDBRANCH  13  14
ENDBRANCH   1  13
TORSDOF 4
ENDMDL
MODEL 6
REMARK VINA RESULT:    -4.783     10.322     12.026
REMARK INTER + INTRA:          -6.281
REMARK INTER:                  -6.050
REMARK INTRA:                  -0.231
REMARK UNBOUND:                -0.520
REMARK SMILES CCCCc1oc(O)c2ccccc12
REMARK SMILES IDX 4 1 5 2 7 3 6 4 9 5 14 6 10 7 13 8 11 9 12 10 8 11 3 13 2 14
REMARK SMILES IDX 1 15
REMARK H PARENT 8 12
REMARK Flexibility Score: inf
ROOT
ATOM      1  C   UNL     1       2.369 -22.611   2.152  1.00  0.00     0.076 C 
ENDROOT
BRANCH   1   2
ATOM      2  C   UNL     1       2.168 -23.531   0.983  1.00  0.00     0.116 A 
ATOM      3  C   UNL     1       1.730 -25.321  -0.112  1.00  0.00     0.290 A 
ATOM      4  O   UNL     1       1.860 -24.811   1.098  1.00  0.00    -0.430 OA
ATOM      5  C   UNL     1       1.956 -24.347  -1.056  1.00  0.00     0.066 A 
ATOM      6  C   UNL     1       2.235 -23.200  -0.361  1.00  0.00     0.027 A 
ATOM      7  C   UNL     1       1.928 -24.380  -2.448  1.00  0.00     0.016 A 
ATOM      8  C   UNL     1       2.503 -21.996  -1.013  1.00  0.00     0.012 A 
ATOM      9  C   UNL     1       2.199 -23.182  -3.135  1.00  0.00     0.001 A 
ATOM     10  C   UNL     1       2.485 -21.996  -2.421  1.00  0.00     0.001 A 
BRANCH   3  11
ATOM     11  O   UNL     1       1.408 -26.648  -0.374  1.00  0.00    -0.480 OA
ATOM     12  H   UNL     1       1.910 -27.398   0.085  1.00  0.00     0.297 HD
ENDBRANCH   3  11
ENDBRANCH   1   2
BRANCH   1  13
ATOM     13  C   UNL     1       1.141 -21.724   2.391  1.00  0.00     0.008 C 
BRANCH  13  14
ATOM     14  C   UNL     1       1.214 -20.977   3.731  1.00  0.00    -0.003 C 
ATOM     15  C   UNL     1       1.088 -19.470   3.528  1.00  0.00     0.004 C 
ENDBRANCH  13  14
ENDBRANCH   1  13
TORSDOF 4
ENDMDL
MODEL 7
REMARK VINA RESULT:    -4.754      2.439      5.230
REMARK INTER + INTRA:          -6.247
REMARK INTER:                  -5.724
REMARK INTRA:                  -0.522
REMARK UNBOUND:                -0.520
REMARK SMILES CCCCc1oc(O)c2ccccc12
REMARK SMILES IDX 4 1 5 2 7 3 6 4 9 5 14 6 10 7 13 8 11 9 12 10 8 11 3 13 2 14
REMARK SMILES IDX 1 15
REMARK H PARENT 8 12
REMARK Flexibility Score: inf
ROOT
ATOM      1  C   UNL     1       9.444 -14.141  -8.815  1.00  0.00     0.076 C 
ENDROOT
BRANCH   1   2
ATOM      2  C   UNL     1       8.650 -14.520  -7.598  1.00  0.00     0.116 A 
ATOM      3  C   UNL     1       7.006 -15.208  -6.408  1.00  0.00     0.290 A 
ATOM      4  O   UNL     1       7.396 -14.934  -7.638  1.00  0.00    -0.430 OA
ATOM      5  C   UNL     1       8.035 -14.970  -5.528  1.00  0.00     0.066 A 
ATOM      6  C   UNL     1       9.089 -14.531  -6.284  1.00  0.00     0.027 A 
ATOM      7  C   UNL     1       8.125 -15.113  -4.145  1.00  0.00     0.016 A 
ATOM      8  C   UNL     1      10.318 -14.206  -5.709  1.00  0.00     0.012 A 
ATOM      9  C   UNL     1       9.351 -14.789  -3.535  1.00  0.00     0.001 A 
ATOM     10  C   UNL     1      10.443 -14.338  -4.312  1.00  0.00     0.001 A 
BRANCH   3  11
ATOM     11  O   UNL     1       5.739 -15.671  -6.071  1.00  0.00    -0.480 OA
ATOM     12  H   UNL     1       5.398 -15.587  -5.121  1.00  0.00     0.297 HD
ENDBRANCH   3  11
ENDBRANCH   1   2
BRANCH   1  13
ATOM     13  C   UNL     1      10.204 -15.342  -9.391  1.00  0.00     0.008 C 
BRANCH  13  14
ATOM     14  C   UNL     1      11.700 -15.302  -9.053  1.00  0.00    -0.003 C 
ATOM     15  C   UNL     1      12.192 -13.866  -8.900  1.00  0.00     0.004 C 
ENDBRANCH  13  14
ENDBRANCH   1  13
TORSDOF 4
ENDMDL
MODEL 8
REMARK VINA RESULT:    -4.570      2.067      4.928
REMARK INTER + INTRA:          -6.026
REMARK INTER:                  -5.681
REMARK INTRA:                  -0.344
REMARK UNBOUND:                -0.520
REMARK SMILES CCCCc1oc(O)c2ccccc12
REMARK SMILES IDX 4 1 5 2 7 3 6 4 9 5 14 6 10 7 13 8 11 9 12 10 8 11 3 13 2 14
REMARK SMILES IDX 1 15
REMARK H PARENT 8 12
REMARK Flexibility Score: inf
ROOT
ATOM      1  C   UNL     1       8.301 -15.726  -4.875  1.00  0.00     0.076 C 
ENDROOT
BRANCH   1   2
ATOM      2  C   UNL     1       7.207 -14.891  -5.473  1.00  0.00     0.116 A 
ATOM      3  C   UNL     1       6.172 -13.642  -6.875  1.00  0.00     0.290 A 
ATOM      4  O   UNL     1       7.313 -14.257  -6.628  1.00  0.00    -0.430 OA
ATOM      5  C   UNL     1       5.283 -13.880  -5.854  1.00  0.00     0.066 A 
ATOM      6  C   UNL     1       5.939 -14.679  -4.956  1.00  0.00     0.027 A 
ATOM      7  C   UNL     1       3.967 -13.469  -5.655  1.00  0.00     0.016 A 
ATOM      8  C   UNL     1       5.320 -15.131  -3.789  1.00  0.00     0.012 A 
ATOM      9  C   UNL     1       3.317 -13.905  -4.485  1.00  0.00     0.001 A 
ATOM     10  C   UNL     1       3.990 -14.732  -3.557  1.00  0.00     0.001 A 
BRANCH   3  11
ATOM     11  O   UNL     1       5.923 -12.875  -8.007  1.00  0.00    -0.480 OA
ATOM     12  H   UNL     1       5.437 -11.990  -7.931  1.00  0.00     0.297 HD
ENDBRANCH   3  11
ENDBRANCH   1   2
BRANCH   1  13
ATOM     13  C   UNL     1       9.039 -14.975  -3.759  1.00  0.00     0.008 C 
BRANCH  13  14
ATOM     14  C   UNL     1       9.724 -13.700  -4.268  1.00  0.00    -0.003 C 
ATOM     15  C   UNL     1      10.649 -14.004  -5.443  1.00  0.00     0.004 C 
ENDBRANCH  13  14
ENDBRANCH   1  13
TORSDOF 4
ENDMDL
MODEL 9
REMARK VINA RESULT:    -4.542      1.853      3.000
REMARK INTER + INTRA:          -5.991
REMARK INTER:                  -5.859
REMARK INTRA:                  -0.132
REMARK UNBOUND:                -0.520
REMARK SMILES CCCCc1oc(O)c2ccccc12
REMARK SMILES IDX 4 1 5 2 7 3 6 4 9 5 14 6 10 7 13 8 11 9 12 10 8 11 3 13 2 14
REMARK SMILES IDX 1 15
REMARK H PARENT 8 12
REMARK Flexibility Score: inf
ROOT
ATOM      1  C   UNL     1       5.803 -12.910  -6.210  1.00  0.00     0.076 C 
ENDROOT
BRANCH   1   2
ATOM      2  C   UNL     1       7.122 -13.626  -6.232  1.00  0.00     0.116 A 
ATOM      3  C   UNL     1       8.834 -14.659  -7.006  1.00  0.00     0.290 A 
ATOM      4  O   UNL     1       7.673 -14.120  -7.327  1.00  0.00    -0.430 OA
ATOM      5  C   UNL     1       9.059 -14.514  -5.657  1.00  0.00     0.066 A 
ATOM      6  C   UNL     1       7.968 -13.853  -5.158  1.00  0.00     0.027 A 
ATOM      7  C   UNL     1      10.126 -14.898  -4.848  1.00  0.00     0.016 A 
ATOM      8  C   UNL     1       7.868 -13.522  -3.806  1.00  0.00     0.012 A 
ATOM      9  C   UNL     1      10.053 -14.582  -3.479  1.00  0.00     0.001 A 
ATOM     10  C   UNL     1       8.930 -13.898  -2.960  1.00  0.00     0.001 A 
BRANCH   3  11
ATOM     11  O   UNL     1       9.690 -15.275  -7.911  1.00  0.00    -0.480 OA
ATOM     12  H   UNL     1       9.709 -14.982  -8.880  1.00  0.00     0.297 HD
ENDBRANCH   3  11
ENDBRANCH   1   2
BRANCH   1  13
ATOM     13  C   UNL     1       4.986 -13.267  -4.962  1.00  0.00     0.008 C 
BRANCH  13  14
ATOM     14  C   UNL     1       4.102 -14.503  -5.179  1.00  0.00    -0.003 C 
ATOM     15  C   UNL     1       4.468 -15.620  -4.205  1.00  0.00     0.004 C 
ENDBRANCH  13  14
ENDBRANCH   1  13
TORSDOF 4
ENDMDL
