MODEL 1
REMARK VINA RESULT:    -4.383      0.000      0.000
REMARK INTER + INTRA:          -7.629
REMARK INTER:                  -6.945
REMARK INTRA:                  -0.684
REMARK UNBOUND:                -0.684
REMARK SMILES CCCCCCCCCCCC(=O)[O-]
REMARK SMILES IDX 7 1 8 2 9 3 10 4 11 5 12 6 13 7 14 8 6 9 5 10 4 11 3 12 2 13
REMARK SMILES IDX 1 14
REMARK H PARENT
REMARK Flexibility Score: inf
ROOT
ATOM      1  C   UNL     1      50.362  33.632   3.991  1.00  0.00     0.000 C 
ENDROOT
BRANCH   1   2
ATOM      2  C   UNL     1      50.514  33.834   2.473  1.00  0.00     0.000 C 
BRANCH   2   3
ATOM      3  C   UNL     1      51.781  33.206   1.854  1.00  0.00     0.000 C 
BRANCH   3   4
ATOM      4  C   UNL     1      51.556  32.449   0.533  1.00  0.00     0.006 C 
BRANCH   4   5
ATOM      5  C   UNL     1      50.200  32.767  -0.111  1.00  0.00     0.053 C 
BRANCH   5   6
ATOM      6  C   UNL     1      50.390  33.600  -1.340  1.00  0.00     0.041 C 
ATOM      7  O   UNL     1      49.399  33.916  -2.049  1.00  0.00    -0.550 OA
ATOM      8  O   UNL     1      51.666  33.986  -1.728  1.00  0.00    -0.550 OA
ENDBRANCH   5   6
ENDBRANCH   4   5
ENDBRANCH   3   4
ENDBRANCH   2   3
ENDBRANCH   1   2
BRANCH   1   9
ATOM      9  C   UNL     1      51.239  32.493   4.533  1.00  0.00     0.000 C 
BRANCH   9  10
ATOM     10  C   UNL     1      50.683  31.956   5.857  1.00  0.00    -0.000 C 
BRANCH  10  11
ATOM     11  C   UNL     1      49.377  32.672   6.236  1.00  0.00    -0.000 C 
BRANCH  11  12
ATOM     12  C   UNL     1      49.003  32.494   7.719  1.00  0.00    -0.000 C 
BRANCH  12  13
ATOM     13  C   UNL     1      48.850  33.807   8.508  1.00  0.00    -0.003 C 
ATOM     14  C   UNL     1      49.897  34.855   8.134  1.00  0.00     0.004 C 
ENDBRANCH  12  13
ENDBRANCH  11  12
ENDBRANCH  10  11
ENDBRANCH   9  10
ENDBRANCH   1   9
TORSDOF 10
ENDMDL
MODEL 2
REMARK VINA RESULT:    -4.288      3.774      7.439
REMARK INTER + INTRA:          -7.479
REMARK INTER:                  -6.840
REMARK INTRA:                  -0.639
REMARK UNBOUND:                -0.684
REMARK SMILES CCCCCCCCCCCC(=O)[O-]
REMARK SMILES IDX 7 1 8 2 9 3 10 4 11 5 12 6 13 7 14 8 6 9 5 10 4 11 3 12 2 13
REMARK SMILES IDX 1 14
REMARK H PARENT
REMARK Flexibility Score: inf
ROOT
ATOM      1  C   UNL     1      50.317  33.811   1.869  1.00  0.00     0.000 C 
ENDROOT
BRANCH   1   2
ATOM      2  C   UNL     1      50.185  33.701   3.399  1.00  0.00     0.000 C 
BRANCH   2   3
ATOM      3  C   UNL     1      51.278  32.861   4.090  1.00  0.00     0.000 C 
BRANCH   3   4
ATOM      4  C   UNL     1      50.891  32.290   5.466  1.00  0.00     0.006 C 
BRANCH   4   5
ATOM      5  C   UNL     1      49.418  32.537   5.819  1.00  0.00     0.053 C 
BRANCH   5   6
ATOM      6  C   UNL     1      49.311  33.394   7.042  1.00  0.00     0.041 C 
ATOM      7  O   UNL     1      48.743  32.954   8.075  1.00  0.00    -0.550 OA
ATOM      8  O   UNL     1      49.797  34.695   7.023  1.00  0.00    -0.550 OA
ENDBRANCH   5   6
ENDBRANCH   4   5
ENDBRANCH   3   4
ENDBRANCH   2   3
ENDBRANCH   1   2
BRANCH   1   9
ATOM      9  C   UNL     1      51.659  33.277   1.346  1.00  0.00     0.000 C 
BRANCH   9  10
ATOM     10  C   UNL     1      51.444  32.091   0.398  1.00  0.00    -0.000 C 
BRANCH  10  11
ATOM     11  C   UNL     1      50.151  32.263  -0.414  1.00  0.00    -0.000 C 
BRANCH  11  12
ATOM     12  C   UNL     1      50.407  32.721  -1.861  1.00  0.00    -0.000 C 
BRANCH  12  13
ATOM     13  C   UNL     1      49.371  33.715  -2.417  1.00  0.00    -0.003 C 
ATOM     14  C   UNL     1      49.182  33.600  -3.928  1.00  0.00     0.004 C 
ENDBRANCH  12  13
ENDBRANCH  11  12
ENDBRANCH  10  11
ENDBRANCH   9  10
ENDBRANCH   1   9
TORSDOF 10
ENDMDL
MODEL 3
REMARK VINA RESULT:    -4.275     14.102     16.553
REMARK INTER + INTRA:          -7.459
REMARK INTER:                  -6.679
REMARK INTRA:                  -0.779
REMARK UNBOUND:                -0.684
REMARK SMILES CCCCCCCCCCCC(=O)[O-]
REMARK SMILES IDX 7 1 8 2 9 3 10 4 11 5 12 6 13 7 14 8 6 9 5 10 4 11 3 12 2 13
REMARK SMILES IDX 1 14
REMARK H PARENT
REMARK Flexibility Score: inf
ROOT
ATOM      1  C   UNL     1      51.581  46.715  10.905  1.00  0.00     0.000 C 
ENDROOT
BRANCH   1   2
ATOM      2  C   UNL     1      51.352  46.452  12.405  1.00  0.00     0.000 C 
BRANCH   2   3
ATOM      3  C   UNL     1      52.598  45.981  13.183  1.00  0.00     0.000 C 
BRANCH   3   4
ATOM      4  C   UNL     1      53.889  45.885  12.352  1.00  0.00     0.006 C 
BRANCH   4   5
ATOM      5  C   UNL     1      54.409  44.447  12.225  1.00  0.00     0.053 C 
BRANCH   5   6
ATOM      6  C   UNL     1      54.335  43.990  10.801  1.00  0.00     0.041 C 
ATOM      7  O   UNL     1      54.315  44.833   9.866  1.00  0.00    -0.550 OA
ATOM      8  O   UNL     1      54.238  42.636  10.510  1.00  0.00    -0.550 OA
ENDBRANCH   5   6
ENDBRANCH   4   5
ENDBRANCH   3   4
ENDBRANCH   2   3
ENDBRANCH   1   2
BRANCH   1   9
ATOM      9  C   UNL     1      50.874  47.985  10.408  1.00  0.00     0.000 C 
BRANCH   9  10
ATOM     10  C   UNL     1      50.744  49.017  11.535  1.00  0.00    -0.000 C 
BRANCH  10  11
ATOM     11  C   UNL     1      49.279  49.437  11.729  1.00  0.00    -0.000 C 
BRANCH  11  12
ATOM     12  C   UNL     1      48.280  48.342  11.315  1.00  0.00    -0.000 C 
BRANCH  12  13
ATOM     13  C   UNL     1      47.211  48.792  10.302  1.00  0.00    -0.003 C 
ATOM     14  C   UNL     1      46.118  49.656  10.930  1.00  0.00     0.004 C 
ENDBRANCH  12  13
ENDBRANCH  11  12
ENDBRANCH  10  11
ENDBRANCH   9  10
ENDBRANCH   1   9
TORSDOF 10
ENDMDL
MODEL 4
REMARK VINA RESULT:    -4.213      3.874      7.305
REMARK INTER + INTRA:          -7.360
REMARK INTER:                  -6.719
REMARK INTRA:                  -0.641
REMARK UNBOUND:                -0.684
REMARK SMILES CCCCCCCCCCCC(=O)[O-]
REMARK SMILES IDX 7 1 8 2 9 3 10 4 11 5 12 6 13 7 14 8 6 9 5 10 4 11 3 12 2 13
REMARK SMILES IDX 1 14
REMARK H PARENT
REMARK Flexibility Score: inf
ROOT
ATOM      1  C   UNL     1      50.338  33.635   3.546  1.00  0.00     0.000 C 
ENDROOT
BRANCH   1   2
ATOM      2  C   UNL     1      51.308  32.648   4.222  1.00  0.00     0.000 C 
BRANCH   2   3
ATOM      3  C   UNL     1      50.879  32.167   5.623  1.00  0.00     0.000 C 
BRANCH   3   4
ATOM      4  C   UNL     1      49.373  32.278   5.919  1.00  0.00     0.006 C 
BRANCH   4   5
ATOM      5  C   UNL     1      49.069  32.400   7.418  1.00  0.00     0.053 C 
BRANCH   5   6
ATOM      6  C   UNL     1      49.509  33.734   7.933  1.00  0.00     0.041 C 
ATOM      7  O   UNL     1      49.699  33.907   9.165  1.00  0.00    -0.550 OA
ATOM      8  O   UNL     1      49.663  34.801   7.056  1.00  0.00    -0.550 OA
ENDBRANCH   5   6
ENDBRANCH   4   5
ENDBRANCH   3   4
ENDBRANCH   2   3
ENDBRANCH   1   2
BRANCH   1   9
ATOM      9  C   UNL     1      50.616  33.810   2.045  1.00  0.00     0.000 C 
BRANCH   9  10
ATOM     10  C   UNL     1      52.002  33.268   1.678  1.00  0.00    -0.000 C 
BRANCH  10  11
ATOM     11  C   UNL     1      51.959  32.504   0.346  1.00  0.00    -0.000 C 
BRANCH  11  12
ATOM     12  C   UNL     1      50.549  31.996  -0.009  1.00  0.00    -0.000 C 
BRANCH  12  13
ATOM     13  C   UNL     1      50.168  32.137  -1.494  1.00  0.00    -0.003 C 
ATOM     14  C   UNL     1      49.746  33.556  -1.872  1.00  0.00     0.004 C 
ENDBRANCH  12  13
ENDBRANCH  11  12
ENDBRANCH  10  11
ENDBRANCH   9  10
ENDBRANCH   1   9
TORSDOF 10
ENDMDL
MODEL 5
REMARK VINA RESULT:    -4.133      3.956      7.076
REMARK INTER + INTRA:          -7.233
REMARK INTER:                  -6.410
REMARK INTRA:                  -0.824
REMARK UNBOUND:                -0.684
REMARK SMILES CCCCCCCCCCCC(=O)[O-]
REMARK SMILES IDX 7 1 8 2 9 3 10 4 11 5 12 6 13 7 14 8 6 9 5 10 4 11 3 12 2 13
REMARK SMILES IDX 1 14
REMARK H PARENT
REMARK Flexibility Score: inf
ROOT
ATOM      1  C   UNL     1      50.036  33.754   1.823  1.00  0.00     0.000 C 
ENDROOT
BRANCH   1   2
ATOM      2  C   UNL     1      51.348  33.386   2.540  1.00  0.00     0.000 C 
BRANCH   2   3
ATOM      3  C   UNL     1      51.188  32.951   4.012  1.00  0.00     0.000 C 
BRANCH   3   4
ATOM      4  C   UNL     1      49.892  33.423   4.695  1.00  0.00     0.006 C 
BRANCH   4   5
ATOM      5  C   UNL     1      49.595  32.663   5.994  1.00  0.00     0.053 C 
BRANCH   5   6
ATOM      6  C   UNL     1      49.290  33.623   7.101  1.00  0.00     0.041 C 
ATOM      7  O   UNL     1      48.474  33.307   8.006  1.00  0.00    -0.550 OA
ATOM      8  O   UNL     1      49.871  34.884   7.107  1.00  0.00    -0.550 OA
ENDBRANCH   5   6
ENDBRANCH   4   5
ENDBRANCH   3   4
ENDBRANCH   2   3
ENDBRANCH   1   2
BRANCH   1   9
ATOM      9  C   UNL     1      50.040  33.365   0.337  1.00  0.00     0.000 C 
BRANCH   9  10
ATOM     10  C   UNL     1      51.147  32.346   0.040  1.00  0.00    -0.000 C 
BRANCH  10  11
ATOM     11  C   UNL     1      52.113  32.879  -1.028  1.00  0.00    -0.000 C 
BRANCH  11  12
ATOM     12  C   UNL     1      53.560  33.010  -0.518  1.00  0.00    -0.000 C 
BRANCH  12  13
ATOM     13  C   UNL     1      53.915  34.388   0.069  1.00  0.00    -0.003 C 
ATOM     14  C   UNL     1      54.962  34.314   1.179  1.00  0.00     0.004 C 
ENDBRANCH  12  13
ENDBRANCH  11  12
ENDBRANCH  10  11
ENDBRANCH   9  10
ENDBRANCH   1   9
TORSDOF 10
ENDMDL
MODEL 6
REMARK VINA RESULT:    -4.106      1.504      2.945
REMARK INTER + INTRA:          -7.190
REMARK INTER:                  -6.702
REMARK INTRA:                  -0.489
REMARK UNBOUND:                -0.684
REMARK SMILES CCCCCCCCCCCC(=O)[O-]
REMARK SMILES IDX 7 1 8 2 9 3 10 4 11 5 12 6 13 7 14 8 6 9 5 10 4 11 3 12 2 13
REMARK SMILES IDX 1 14
REMARK H PARENT
REMARK Flexibility Score: inf
ROOT
ATOM      1  C   UNL     1      49.938  32.461   6.522  1.00  0.00     0.000 C 
ENDROOT
BRANCH   1   2
ATOM      2  C   UNL     1      49.791  33.276   5.224  1.00  0.00     0.000 C 
BRANCH   2   3
ATOM      3  C   UNL     1      50.939  33.101   4.208  1.00  0.00     0.000 C 
BRANCH   3   4
ATOM      4  C   UNL     1      50.667  33.680   2.809  1.00  0.00     0.006 C 
BRANCH   4   5
ATOM      5  C   UNL     1      51.679  33.202   1.760  1.00  0.00     0.053 C 
BRANCH   5   6
ATOM      6  C   UNL     1      51.054  33.189   0.400  1.00  0.00     0.041 C 
ATOM      7  O   UNL     1      49.801  33.172   0.279  1.00  0.00    -0.550 OA
ATOM      8  O   UNL     1      51.856  33.147  -0.733  1.00  0.00    -0.550 OA
ENDBRANCH   5   6
ENDBRANCH   4   5
ENDBRANCH   3   4
ENDBRANCH   2   3
ENDBRANCH   1   2
BRANCH   1   9
ATOM      9  C   UNL     1      49.351  33.178   7.747  1.00  0.00     0.000 C 
BRANCH   9  10
ATOM     10  C   UNL     1      49.789  34.647   7.783  1.00  0.00    -0.000 C 
BRANCH  10  11
ATOM     11  C   UNL     1      50.055  35.105   9.225  1.00  0.00    -0.000 C 
BRANCH  11  12
ATOM     12  C   UNL     1      49.010  34.577  10.226  1.00  0.00    -0.000 C 
BRANCH  12  13
ATOM     13  C   UNL     1      47.658  35.314  10.196  1.00  0.00    -0.003 C 
ATOM     14  C   UNL     1      46.472  34.379   9.963  1.00  0.00     0.004 C 
ENDBRANCH  12  13
ENDBRANCH  11  12
ENDBRANCH  10  11
ENDBRANCH   9  10
ENDBRANCH   1   9
TORSDOF 10
ENDMDL
MODEL 7
REMARK VINA RESULT:    -4.102     14.050     16.585
REMARK INTER + INTRA:          -7.184
REMARK INTER:                  -6.332
REMARK INTRA:                  -0.852
REMARK UNBOUND:                -0.684
REMARK SMILES CCCCCCCCCCCC(=O)[O-]
REMARK SMILES IDX 7 1 8 2 9 3 10 4 11 5 12 6 13 7 14 8 6 9 5 10 4 11 3 12 2 13
REMARK SMILES IDX 1 14
REMARK H PARENT
REMARK Flexibility Score: inf
ROOT
ATOM      1  C   UNL     1      51.496  46.846  10.836  1.00  0.00     0.000 C 
ENDROOT
BRANCH   1   2
ATOM      2  C   UNL     1      50.756  48.117  10.379  1.00  0.00     0.000 C 
BRANCH   2   3
ATOM      3  C   UNL     1      49.799  48.728  11.423  1.00  0.00     0.000 C 
BRANCH   3   4
ATOM      4  C   UNL     1      48.312  48.718  11.030  1.00  0.00     0.006 C 
BRANCH   4   5
ATOM      5  C   UNL     1      47.516  47.614  11.738  1.00  0.00     0.053 C 
BRANCH   5   6
ATOM      6  C   UNL     1      46.408  47.125  10.859  1.00  0.00     0.041 C 
ATOM      7  O   UNL     1      45.832  47.916  10.067  1.00  0.00    -0.550 OA
ATOM      8  O   UNL     1      45.978  45.808  10.951  1.00  0.00    -0.550 OA
ENDBRANCH   5   6
ENDBRANCH   4   5
ENDBRANCH   3   4
ENDBRANCH   2   3
ENDBRANCH   1   2
BRANCH   1   9
ATOM      9  C   UNL     1      51.033  46.350  12.214  1.00  0.00     0.000 C 
BRANCH   9  10
ATOM     10  C   UNL     1      52.221  46.209  13.173  1.00  0.00    -0.000 C 
BRANCH  10  11
ATOM     11  C   UNL     1      53.540  46.558  12.469  1.00  0.00    -0.000 C 
BRANCH  11  12
ATOM     12  C   UNL     1      54.458  45.337  12.273  1.00  0.00    -0.000 C 
BRANCH  12  13
ATOM     13  C   UNL     1      54.674  44.920  10.807  1.00  0.00    -0.003 C 
ATOM     14  C   UNL     1      54.025  43.581  10.464  1.00  0.00     0.004 C 
ENDBRANCH  12  13
ENDBRANCH  11  12
ENDBRANCH  10  11
ENDBRANCH   9  10
ENDBRANCH   1   9
TORSDOF 10
ENDMDL
MODEL 8
REMARK VINA RESULT:    -4.099     15.657     16.976
REMARK INTER + INTRA:          -7.178
REMARK INTER:                  -5.901
REMARK INTRA:                  -1.277
REMARK UNBOUND:                -0.684
REMARK SMILES CCCCCCCCCCCC(=O)[O-]
REMARK SMILES IDX 7 1 8 2 9 3 10 4 11 5 12 6 13 7 14 8 6 9 5 10 4 11 3 12 2 13
REMARK SMILES IDX 1 14
REMARK H PARENT
REMARK Flexibility Score: inf
ROOT
ATOM      1  C   UNL     1      50.537  48.290  10.356  1.00  0.00     0.000 C 
ENDROOT
BRANCH   1   2
ATOM      2  C   UNL     1      51.587  47.166  10.427  1.00  0.00     0.000 C 
BRANCH   2   3
ATOM      3  C   UNL     1      51.389  46.158  11.577  1.00  0.00     0.000 C 
BRANCH   3   4
ATOM      4  C   UNL     1      52.383  46.295  12.744  1.00  0.00     0.006 C 
BRANCH   4   5
ATOM      5  C   UNL     1      53.828  46.507  12.273  1.00  0.00     0.053 C 
BRANCH   5   6
ATOM      6  C   UNL     1      54.473  45.193  11.963  1.00  0.00     0.041 C 
ATOM      7  O   UNL     1      54.820  44.921  10.784  1.00  0.00    -0.550 OA
ATOM      8  O   UNL     1      54.646  44.250  12.967  1.00  0.00    -0.550 OA
ENDBRANCH   5   6
ENDBRANCH   4   5
ENDBRANCH   3   4
ENDBRANCH   2   3
ENDBRANCH   1   2
BRANCH   1   9
ATOM      9  C   UNL     1      50.754  49.377  11.418  1.00  0.00     0.000 C 
BRANCH   9  10
ATOM     10  C   UNL     1      49.515  49.528  12.309  1.00  0.00    -0.000 C 
BRANCH  10  11
ATOM     11  C   UNL     1      48.235  49.180  11.534  1.00  0.00    -0.000 C 
BRANCH  11  12
ATOM     12  C   UNL     1      47.302  48.233  12.310  1.00  0.00    -0.000 C 
BRANCH  12  13
ATOM     13  C   UNL     1      47.725  46.753  12.292  1.00  0.00    -0.003 C 
ATOM     14  C   UNL     1      48.358  46.295  13.605  1.00  0.00     0.004 C 
ENDBRANCH  12  13
ENDBRANCH  11  12
ENDBRANCH  10  11
ENDBRANCH   9  10
ENDBRANCH   1   9
TORSDOF 10
ENDMDL
MODEL 9
REMARK VINA RESULT:    -4.061      1.308      1.745
REMARK INTER + INTRA:          -7.119
REMARK INTER:                  -6.682
REMARK INTRA:                  -0.436
REMARK UNBOUND:                -0.684
REMARK SMILES CCCCCCCCCCCC(=O)[O-]
REMARK SMILES IDX 7 1 8 2 9 3 10 4 11 5 12 6 13 7 14 8 6 9 5 10 4 11 3 12 2 13
REMARK SMILES IDX 1 14
REMARK H PARENT
REMARK Flexibility Score: inf
ROOT
ATOM      1  C   UNL     1      50.512  33.741   3.871  1.00  0.00     0.000 C 
ENDROOT
BRANCH   1   2
ATOM      2  C   UNL     1      50.928  33.432   2.421  1.00  0.00     0.000 C 
BRANCH   2   3
ATOM      3  C   UNL     1      49.869  33.771   1.351  1.00  0.00     0.000 C 
BRANCH   3   4
ATOM      4  C   UNL     1      50.027  33.022   0.016  1.00  0.00     0.006 C 
BRANCH   4   5
ATOM      5  C   UNL     1      51.342  32.236  -0.073  1.00  0.00     0.053 C 
BRANCH   5   6
ATOM      6  C   UNL     1      52.310  32.941  -0.971  1.00  0.00     0.041 C 
ATOM      7  O   UNL     1      52.921  33.963  -0.565  1.00  0.00    -0.550 OA
ATOM      8  O   UNL     1      52.500  32.496  -2.274  1.00  0.00    -0.550 OA
ENDBRANCH   5   6
ENDBRANCH   4   5
ENDBRANCH   3   4
ENDBRANCH   2   3
ENDBRANCH   1   2
BRANCH   1   9
ATOM      9  C   UNL     1      50.934  32.644   4.859  1.00  0.00     0.000 C 
BRANCH   9  10
ATOM     10  C   UNL     1      49.825  32.373   5.883  1.00  0.00    -0.000 C 
BRANCH  10  11
ATOM     11  C   UNL     1      49.399  33.670   6.588  1.00  0.00    -0.000 C 
BRANCH  11  12
ATOM     12  C   UNL     1      49.744  33.680   8.088  1.00  0.00    -0.000 C 
BRANCH  12  13
ATOM     13  C   UNL     1      50.096  35.065   8.661  1.00  0.00    -0.003 C 
ATOM     14  C   UNL     1      49.389  35.363   9.982  1.00  0.00     0.004 C 
ENDBRANCH  12  13
ENDBRANCH  11  12
ENDBRANCH  10  11
ENDBRANCH   9  10
ENDBRANCH   1   9
TORSDOF 10
ENDMDL
