MODEL 1
REMARK VINA RESULT:    25.575      0.000      0.000
REMARK INTER + INTRA:          30.557
REMARK INTER:                  30.060
REMARK INTRA:                   0.496
REMARK UNBOUND:                 0.496
REMARK SMILES O=c1c(O)c(-c2ccc(O)cc2)oc2cc(O)cc(O)c12
REMARK SMILES IDX 5 1 3 2 2 3 1 4 21 5 19 6 18 7 16 8 15 9 14 10 13 11 6 12
REMARK SMILES IDX 7 13 8 14 9 15 12 16 11 17 10 18 4 20 20 22 17 24
REMARK H PARENT 10 19 4 21 20 23 17 25
REMARK Flexibility Score: inf
ROOT
ATOM      1  C   UNL     1      -7.608  -4.491  21.296  1.00  0.00     0.180 A 
ATOM      2  C   UNL     1      -7.892  -5.123  20.073  1.00  0.00     0.208 A 
ATOM      3  C   UNL     1      -8.338  -6.453  20.081  1.00  0.00     0.238 A 
ATOM      4  O   UNL     1      -8.643  -6.996  18.987  1.00  0.00    -0.285 OA
ATOM      5  C   UNL     1      -8.478  -7.143  21.310  1.00  0.00     0.111 A 
ATOM      6  C   UNL     1      -8.884  -8.505  21.434  1.00  0.00     0.134 A 
ATOM      7  C   UNL     1      -9.115  -9.045  22.706  1.00  0.00     0.093 A 
ATOM      8  C   UNL     1      -8.893  -8.293  23.858  1.00  0.00     0.123 A 
ATOM      9  C   UNL     1      -8.438  -6.977  23.751  1.00  0.00     0.094 A 
ATOM     10  C   UNL     1      -8.234  -6.399  22.495  1.00  0.00     0.146 A 
ATOM     11  O   UNL     1      -7.812  -5.143  22.435  1.00  0.00    -0.452 OA
ENDROOT
BRANCH   1  12
ATOM     12  C   UNL     1      -7.110  -3.098  21.368  1.00  0.00     0.021 A 
ATOM     13  C   UNL     1      -7.187  -2.353  22.559  1.00  0.00     0.016 A 
ATOM     14  C   UNL     1      -6.732  -1.032  22.596  1.00  0.00     0.047 A 
ATOM     15  C   UNL     1      -6.210  -0.433  21.446  1.00  0.00     0.115 A 
ATOM     16  C   UNL     1      -6.604  -2.485  20.211  1.00  0.00     0.016 A 
ATOM     17  C   UNL     1      -6.149  -1.162  20.250  1.00  0.00     0.047 A 
BRANCH  15  18
ATOM     18  O   UNL     1      -5.759   0.884  21.498  1.00  0.00    -0.508 OA
ATOM     19  H   UNL     1      -6.388   1.652  21.699  1.00  0.00     0.293 HD
ENDBRANCH  15  18
ENDBRANCH   1  12
BRANCH   2  20
ATOM     20  O   UNL     1      -7.768  -4.418  18.873  1.00  0.00    -0.502 OA
ATOM     21  H   UNL     1      -7.537  -3.433  18.842  1.00  0.00     0.293 HD
ENDBRANCH   2  20
BRANCH   6  22
ATOM     22  O   UNL     1      -9.045  -9.373  20.349  1.00  0.00    -0.507 OA
ATOM     23  H   UNL     1      -8.821  -9.145  19.393  1.00  0.00     0.293 HD
ENDBRANCH   6  22
BRANCH   8  24
ATOM     24  O   UNL     1      -9.118  -8.866  25.107  1.00  0.00    -0.508 OA
ATOM     25  H   UNL     1      -9.025  -9.863  25.258  1.00  0.00     0.293 HD
ENDBRANCH   8  24
TORSDOF 5
ENDMDL
MODEL 2
REMARK VINA RESULT:    25.638      0.129      1.063
REMARK INTER + INTRA:          30.631
REMARK INTER:                  30.268
REMARK INTRA:                   0.363
REMARK UNBOUND:                 0.496
REMARK SMILES O=c1c(O)c(-c2ccc(O)cc2)oc2cc(O)cc(O)c12
REMARK SMILES IDX 5 1 3 2 2 3 1 4 21 5 19 6 18 7 16 8 15 9 14 10 13 11 6 12
REMARK SMILES IDX 7 13 8 14 9 15 12 16 11 17 10 18 4 20 20 22 17 24
REMARK H PARENT 10 19 4 21 20 23 17 25
REMARK Flexibility Score: inf
ROOT
ATOM      1  C   UNL     1      -7.652  -4.599  21.256  1.00  0.00     0.180 A 
ATOM      2  C   UNL     1      -7.927  -5.251  20.041  1.00  0.00     0.208 A 
ATOM      3  C   UNL     1      -8.359  -6.586  20.067  1.00  0.00     0.238 A 
ATOM      4  O   UNL     1      -8.657  -7.147  18.980  1.00  0.00    -0.285 OA
ATOM      5  C   UNL     1      -8.494  -7.260  21.305  1.00  0.00     0.111 A 
ATOM      6  C   UNL     1      -8.886  -8.624  21.447  1.00  0.00     0.134 A 
ATOM      7  C   UNL     1      -9.114  -9.148  22.726  1.00  0.00     0.093 A 
ATOM      8  C   UNL     1      -8.901  -8.378  23.868  1.00  0.00     0.123 A 
ATOM      9  C   UNL     1      -8.461  -7.059  23.743  1.00  0.00     0.094 A 
ATOM     10  C   UNL     1      -8.260  -6.497  22.479  1.00  0.00     0.146 A 
ATOM     11  O   UNL     1      -7.851  -5.237  22.403  1.00  0.00    -0.452 OA
ENDROOT
BRANCH   1  12
ATOM     12  C   UNL     1      -7.168  -3.201  21.308  1.00  0.00     0.021 A 
ATOM     13  C   UNL     1      -6.532  -2.603  20.205  1.00  0.00     0.016 A 
ATOM     14  C   UNL     1      -6.062  -1.289  20.286  1.00  0.00     0.047 A 
ATOM     15  C   UNL     1      -6.208  -0.560  21.470  1.00  0.00     0.115 A 
ATOM     16  C   UNL     1      -7.293  -2.471  22.501  1.00  0.00     0.016 A 
ATOM     17  C   UNL     1      -6.823  -1.155  22.580  1.00  0.00     0.047 A 
BRANCH  15  18
ATOM     18  O   UNL     1      -5.737   0.749  21.537  1.00  0.00    -0.508 OA
ATOM     19  H   UNL     1      -6.366   1.533  21.665  1.00  0.00     0.293 HD
ENDBRANCH  15  18
ENDBRANCH   1  12
BRANCH   2  20
ATOM     20  O   UNL     1      -7.809  -4.561  18.831  1.00  0.00    -0.502 OA
ATOM     21  H   UNL     1      -8.597  -4.112  18.381  1.00  0.00     0.293 HD
ENDBRANCH   2  20
BRANCH   6  22
ATOM     22  O   UNL     1      -9.037  -9.509  20.375  1.00  0.00    -0.507 OA
ATOM     23  H   UNL     1      -9.433 -10.433  20.445  1.00  0.00     0.293 HD
ENDBRANCH   6  22
BRANCH   8  24
ATOM     24  O   UNL     1      -9.123  -8.935  25.125  1.00  0.00    -0.508 OA
ATOM     25  H   UNL     1     -10.002  -8.811  25.613  1.00  0.00     0.293 HD
ENDBRANCH   8  24
TORSDOF 5
ENDMDL
