MODEL 1
REMARK VINA RESULT:    -5.258      0.000      0.000
REMARK INTER + INTRA:          -6.476
REMARK INTER:                  -6.180
REMARK INTRA:                  -0.295
REMARK UNBOUND:                -0.295
REMARK SMILES O=c1c(O)c(-c2ccc(O)c(O)c2)oc2cc(O)ccc12
REMARK SMILES IDX 5 1 3 2 2 3 1 4 21 5 15 6 14 7 16 8 17 9 19 10 20 11 6 12
REMARK SMILES IDX 7 13 8 14 9 15 13 16 11 17 10 18 12 20 4 22 18 24
REMARK H PARENT 10 19 12 21 4 23 18 25
REMARK Flexibility Score: inf
ROOT
ATOM      1  C   UNL     1      42.754 -42.662  31.215  1.00  0.00     0.180 A 
ATOM      2  C   UNL     1      42.166 -42.250  32.430  1.00  0.00     0.208 A 
ATOM      3  C   UNL     1      42.617 -41.066  33.032  1.00  0.00     0.235 A 
ATOM      4  O   UNL     1      42.114 -40.684  34.125  1.00  0.00    -0.285 OA
ATOM      5  C   UNL     1      43.622 -40.312  32.407  1.00  0.00     0.069 A 
ATOM      6  C   UNL     1      44.143 -40.778  31.181  1.00  0.00     0.142 A 
ATOM      7  O   UNL     1      43.695 -41.909  30.648  1.00  0.00    -0.452 OA
ATOM      8  C   UNL     1      45.139 -40.049  30.522  1.00  0.00     0.094 A 
ATOM      9  C   UNL     1      45.624 -38.857  31.076  1.00  0.00     0.119 A 
ATOM     10  C   UNL     1      45.111 -38.394  32.291  1.00  0.00     0.047 A 
ATOM     11  C   UNL     1      44.114 -39.114  32.957  1.00  0.00     0.020 A 
ENDROOT
BRANCH   1  12
ATOM     12  C   UNL     1      42.347 -43.907  30.526  1.00  0.00     0.025 A 
ATOM     13  C   UNL     1      41.528 -43.831  29.388  1.00  0.00     0.016 A 
ATOM     14  C   UNL     1      41.149 -44.992  28.710  1.00  0.00     0.051 A 
ATOM     15  C   UNL     1      41.596 -46.245  29.149  1.00  0.00     0.157 A 
ATOM     16  C   UNL     1      42.811 -45.165  30.951  1.00  0.00     0.062 A 
ATOM     17  C   UNL     1      42.435 -46.329  30.273  1.00  0.00     0.158 A 
BRANCH  15  18
ATOM     18  O   UNL     1      41.214 -47.402  28.472  1.00  0.00    -0.504 OA
ATOM     19  H   UNL     1      40.665 -47.362  27.621  1.00  0.00     0.293 HD
ENDBRANCH  15  18
BRANCH  17  20
ATOM     20  O   UNL     1      42.908 -47.560  30.727  1.00  0.00    -0.504 OA
ATOM     21  H   UNL     1      42.617 -48.437  30.310  1.00  0.00     0.293 HD
ENDBRANCH  17  20
ENDBRANCH   1  12
BRANCH   2  22
ATOM     22  O   UNL     1      41.133 -42.996  33.003  1.00  0.00    -0.502 OA
ATOM     23  H   UNL     1      40.346 -42.561  33.470  1.00  0.00     0.293 HD
ENDBRANCH   2  22
BRANCH   9  24
ATOM     24  O   UNL     1      46.616 -38.126  30.427  1.00  0.00    -0.508 OA
ATOM     25  H   UNL     1      46.632 -37.112  30.455  1.00  0.00     0.293 HD
ENDBRANCH   9  24
TORSDOF 5
ENDMDL
MODEL 2
REMARK VINA RESULT:    -5.137      5.373      8.629
REMARK INTER + INTRA:          -6.333
REMARK INTER:                  -6.018
REMARK INTRA:                  -0.315
REMARK UNBOUND:                -0.295
REMARK SMILES O=c1c(O)c(-c2ccc(O)c(O)c2)oc2cc(O)ccc12
REMARK SMILES IDX 5 1 3 2 2 3 1 4 21 5 15 6 14 7 16 8 17 9 19 10 20 11 6 12
REMARK SMILES IDX 7 13 8 14 9 15 13 16 11 17 10 18 12 20 4 22 18 24
REMARK H PARENT 10 19 12 21 4 23 18 25
REMARK Flexibility Score: inf
ROOT
ATOM      1  C   UNL     1      38.260 -44.272  27.215  1.00  0.00     0.180 A 
ATOM      2  C   UNL     1      38.035 -42.895  27.003  1.00  0.00     0.208 A 
ATOM      3  C   UNL     1      37.637 -42.464  25.729  1.00  0.00     0.235 A 
ATOM      4  O   UNL     1      37.440 -41.236  25.512  1.00  0.00    -0.285 OA
ATOM      5  C   UNL     1      37.455 -43.407  24.706  1.00  0.00     0.069 A 
ATOM      6  C   UNL     1      37.677 -44.769  25.003  1.00  0.00     0.142 A 
ATOM      7  O   UNL     1      38.061 -45.135  26.221  1.00  0.00    -0.452 OA
ATOM      8  C   UNL     1      37.495 -45.740  24.014  1.00  0.00     0.094 A 
ATOM      9  C   UNL     1      37.095 -45.367  22.723  1.00  0.00     0.119 A 
ATOM     10  C   UNL     1      36.875 -44.019  22.426  1.00  0.00     0.047 A 
ATOM     11  C   UNL     1      37.052 -43.040  23.409  1.00  0.00     0.020 A 
ENDROOT
BRANCH   1  12
ATOM     12  C   UNL     1      38.699 -44.805  28.525  1.00  0.00     0.025 A 
ATOM     13  C   UNL     1      37.737 -45.150  29.487  1.00  0.00     0.016 A 
ATOM     14  C   UNL     1      38.128 -45.674  30.722  1.00  0.00     0.051 A 
ATOM     15  C   UNL     1      39.485 -45.875  31.007  1.00  0.00     0.157 A 
ATOM     16  C   UNL     1      40.059 -45.028  28.807  1.00  0.00     0.062 A 
ATOM     17  C   UNL     1      40.453 -45.554  30.042  1.00  0.00     0.158 A 
BRANCH  15  18
ATOM     18  O   UNL     1      39.872 -46.396  32.241  1.00  0.00    -0.504 OA
ATOM     19  H   UNL     1      40.752 -46.885  32.358  1.00  0.00     0.293 HD
ENDBRANCH  15  18
BRANCH  17  20
ATOM     20  O   UNL     1      41.811 -45.756  30.289  1.00  0.00    -0.504 OA
ATOM     21  H   UNL     1      42.189 -45.783  31.228  1.00  0.00     0.293 HD
ENDBRANCH  17  20
ENDBRANCH   1  12
BRANCH   2  22
ATOM     22  O   UNL     1      38.177 -41.985  28.054  1.00  0.00    -0.502 OA
ATOM     23  H   UNL     1      38.798 -42.153  28.836  1.00  0.00     0.293 HD
ENDBRANCH   2  22
BRANCH   9  24
ATOM     24  O   UNL     1      36.913 -46.328  21.732  1.00  0.00    -0.508 OA
ATOM     25  H   UNL     1      37.253 -46.186  20.787  1.00  0.00     0.293 HD
ENDBRANCH   9  24
TORSDOF 5
ENDMDL
MODEL 3
REMARK VINA RESULT:    -5.055      8.085     10.686
REMARK INTER + INTRA:          -6.236
REMARK INTER:                  -6.766
REMARK INTRA:                   0.529
REMARK UNBOUND:                -0.295
REMARK SMILES O=c1c(O)c(-c2ccc(O)c(O)c2)oc2cc(O)ccc12
REMARK SMILES IDX 5 1 3 2 2 3 1 4 21 5 15 6 14 7 16 8 17 9 19 10 20 11 6 12
REMARK SMILES IDX 7 13 8 14 9 15 13 16 11 17 10 18 12 20 4 22 18 24
REMARK H PARENT 10 19 12 21 4 23 18 25
REMARK Flexibility Score: inf
ROOT
ATOM      1  C   UNL     1      38.195 -43.042  22.766  1.00  0.00     0.180 A 
ATOM      2  C   UNL     1      38.316 -43.869  21.629  1.00  0.00     0.208 A 
ATOM      3  C   UNL     1      38.648 -43.283  20.399  1.00  0.00     0.235 A 
ATOM      4  O   UNL     1      38.752 -44.001  19.366  1.00  0.00    -0.285 OA
ATOM      5  C   UNL     1      38.869 -41.898  20.330  1.00  0.00     0.069 A 
ATOM      6  C   UNL     1      38.751 -41.143  21.515  1.00  0.00     0.142 A 
ATOM      7  O   UNL     1      38.427 -41.735  22.660  1.00  0.00    -0.452 OA
ATOM      8  C   UNL     1      38.974 -39.762  21.491  1.00  0.00     0.094 A 
ATOM      9  C   UNL     1      39.312 -39.123  20.289  1.00  0.00     0.119 A 
ATOM     10  C   UNL     1      39.428 -39.870  19.113  1.00  0.00     0.047 A 
ATOM     11  C   UNL     1      39.209 -41.252  19.128  1.00  0.00     0.020 A 
ENDROOT
BRANCH   1  12
ATOM     12  C   UNL     1      37.831 -43.580  24.096  1.00  0.00     0.025 A 
ATOM     13  C   UNL     1      37.744 -44.969  24.279  1.00  0.00     0.016 A 
ATOM     14  C   UNL     1      37.423 -45.499  25.531  1.00  0.00     0.051 A 
ATOM     15  C   UNL     1      37.198 -44.649  26.622  1.00  0.00     0.157 A 
ATOM     16  C   UNL     1      37.625 -42.731  25.198  1.00  0.00     0.062 A 
ATOM     17  C   UNL     1      37.305 -43.258  26.454  1.00  0.00     0.158 A 
BRANCH  15  18
ATOM     18  O   UNL     1      36.875 -45.181  27.870  1.00  0.00    -0.504 OA
ATOM     19  H   UNL     1      36.362 -44.642  28.559  1.00  0.00     0.293 HD
ENDBRANCH  15  18
BRANCH  17  20
ATOM     20  O   UNL     1      37.102 -42.386  27.523  1.00  0.00    -0.504 OA
ATOM     21  H   UNL     1      37.612 -42.474  28.394  1.00  0.00     0.293 HD
ENDBRANCH  17  20
ENDBRANCH   1  12
BRANCH   2  22
ATOM     22  O   UNL     1      38.139 -45.251  21.739  1.00  0.00    -0.502 OA
ATOM     23  H   UNL     1      37.410 -45.660  22.310  1.00  0.00     0.293 HD
ENDBRANCH   2  22
BRANCH   9  24
ATOM     24  O   UNL     1      39.534 -37.749  20.255  1.00  0.00    -0.508 OA
ATOM     25  H   UNL     1      39.005 -37.141  19.640  1.00  0.00     0.293 HD
ENDBRANCH   9  24
TORSDOF 5
ENDMDL
MODEL 4
REMARK VINA RESULT:    -5.028      1.199      6.506
REMARK INTER + INTRA:          -6.205
REMARK INTER:                  -6.243
REMARK INTRA:                   0.038
REMARK UNBOUND:                -0.295
REMARK SMILES O=c1c(O)c(-c2ccc(O)c(O)c2)oc2cc(O)ccc12
REMARK SMILES IDX 5 1 3 2 2 3 1 4 21 5 15 6 14 7 16 8 17 9 19 10 20 11 6 12
REMARK SMILES IDX 7 13 8 14 9 15 13 16 11 17 10 18 12 20 4 22 18 24
REMARK H PARENT 10 19 12 21 4 23 18 25
REMARK Flexibility Score: inf
ROOT
ATOM      1  C   UNL     1      42.966 -41.701  31.522  1.00  0.00     0.180 A 
ATOM      2  C   UNL     1      42.260 -42.009  32.704  1.00  0.00     0.208 A 
ATOM      3  C   UNL     1      41.494 -43.184  32.747  1.00  0.00     0.235 A 
ATOM      4  O   UNL     1      40.845 -43.475  33.790  1.00  0.00    -0.285 OA
ATOM      5  C   UNL     1      41.462 -44.029  31.627  1.00  0.00     0.069 A 
ATOM      6  C   UNL     1      42.214 -43.663  30.491  1.00  0.00     0.142 A 
ATOM      7  O   UNL     1      42.921 -42.538  30.488  1.00  0.00    -0.452 OA
ATOM      8  C   UNL     1      42.217 -44.485  29.359  1.00  0.00     0.094 A 
ATOM      9  C   UNL     1      41.472 -45.672  29.347  1.00  0.00     0.119 A 
ATOM     10  C   UNL     1      40.725 -46.036  30.472  1.00  0.00     0.047 A 
ATOM     11  C   UNL     1      40.717 -45.223  31.609  1.00  0.00     0.020 A 
ENDROOT
BRANCH   1  12
ATOM     12  C   UNL     1      43.782 -40.473  31.391  1.00  0.00     0.025 A 
ATOM     13  C   UNL     1      43.234 -39.235  31.761  1.00  0.00     0.016 A 
ATOM     14  C   UNL     1      43.993 -38.067  31.664  1.00  0.00     0.051 A 
ATOM     15  C   UNL     1      45.318 -38.120  31.211  1.00  0.00     0.157 A 
ATOM     16  C   UNL     1      45.119 -40.526  30.956  1.00  0.00     0.062 A 
ATOM     17  C   UNL     1      45.883 -39.358  30.860  1.00  0.00     0.158 A 
BRANCH  15  18
ATOM     18  O   UNL     1      46.073 -36.952  31.113  1.00  0.00    -0.504 OA
ATOM     19  H   UNL     1      46.086 -36.399  30.265  1.00  0.00     0.293 HD
ENDBRANCH  15  18
BRANCH  17  20
ATOM     20  O   UNL     1      47.204 -39.447  30.420  1.00  0.00    -0.504 OA
ATOM     21  H   UNL     1      47.466 -39.253  29.460  1.00  0.00     0.293 HD
ENDBRANCH  17  20
ENDBRANCH   1  12
BRANCH   2  22
ATOM     22  O   UNL     1      42.351 -41.173  33.820  1.00  0.00    -0.502 OA
ATOM     23  H   UNL     1      43.239 -40.859  34.190  1.00  0.00     0.293 HD
ENDBRANCH   2  22
BRANCH   9  24
ATOM     24  O   UNL     1      41.468 -46.495  28.224  1.00  0.00    -0.508 OA
ATOM     25  H   UNL     1      40.628 -46.978  27.922  1.00  0.00     0.293 HD
ENDBRANCH   9  24
TORSDOF 5
ENDMDL
MODEL 5
REMARK VINA RESULT:    -4.807      2.647      7.019
REMARK INTER + INTRA:          -5.946
REMARK INTER:                  -5.848
REMARK INTRA:                  -0.098
REMARK UNBOUND:                -0.295
REMARK SMILES O=c1c(O)c(-c2ccc(O)c(O)c2)oc2cc(O)ccc12
REMARK SMILES IDX 5 1 3 2 2 3 1 4 21 5 15 6 14 7 16 8 17 9 19 10 20 11 6 12
REMARK SMILES IDX 7 13 8 14 9 15 13 16 11 17 10 18 12 20 4 22 18 24
REMARK H PARENT 10 19 12 21 4 23 18 25
REMARK Flexibility Score: inf
ROOT
ATOM      1  C   UNL     1      40.998 -43.744  31.446  1.00  0.00     0.180 A 
ATOM      2  C   UNL     1      40.421 -44.223  32.641  1.00  0.00     0.208 A 
ATOM      3  C   UNL     1      39.341 -45.116  32.559  1.00  0.00     0.235 A 
ATOM      4  O   UNL     1      38.802 -45.550  33.614  1.00  0.00    -0.285 OA
ATOM      5  C   UNL     1      38.875 -45.523  31.299  1.00  0.00     0.069 A 
ATOM      6  C   UNL     1      39.521 -45.016  30.151  1.00  0.00     0.142 A 
ATOM      7  O   UNL     1      40.535 -44.167  30.272  1.00  0.00    -0.452 OA
ATOM      8  C   UNL     1      39.093 -45.406  28.878  1.00  0.00     0.094 A 
ATOM      9  C   UNL     1      38.021 -46.298  28.737  1.00  0.00     0.119 A 
ATOM     10  C   UNL     1      37.379 -46.800  29.873  1.00  0.00     0.047 A 
ATOM     11  C   UNL     1      37.801 -46.418  31.150  1.00  0.00     0.020 A 
ENDROOT
BRANCH   1  12
ATOM     12  C   UNL     1      42.128 -42.787  31.447  1.00  0.00     0.025 A 
ATOM     13  C   UNL     1      43.297 -43.098  30.735  1.00  0.00     0.016 A 
ATOM     14  C   UNL     1      44.367 -42.201  30.705  1.00  0.00     0.051 A 
ATOM     15  C   UNL     1      44.279 -40.972  31.374  1.00  0.00     0.157 A 
ATOM     16  C   UNL     1      42.035 -41.544  32.099  1.00  0.00     0.062 A 
ATOM     17  C   UNL     1      43.104 -40.642  32.070  1.00  0.00     0.158 A 
BRANCH  15  18
ATOM     18  O   UNL     1      45.350 -40.079  31.344  1.00  0.00    -0.504 OA
ATOM     19  H   UNL     1      46.279 -40.356  31.637  1.00  0.00     0.293 HD
ENDBRANCH  15  18
BRANCH  17  20
ATOM     20  O   UNL     1      42.979 -39.422  32.733  1.00  0.00    -0.504 OA
ATOM     21  H   UNL     1      43.547 -39.185  33.538  1.00  0.00     0.293 HD
ENDBRANCH  17  20
ENDBRANCH   1  12
BRANCH   2  22
ATOM     22  O   UNL     1      40.939 -43.839  33.881  1.00  0.00    -0.502 OA
ATOM     23  H   UNL     1      40.355 -43.464  34.618  1.00  0.00     0.293 HD
ENDBRANCH   2  22
BRANCH   9  24
ATOM     24  O   UNL     1      37.587 -46.691  27.473  1.00  0.00    -0.508 OA
ATOM     25  H   UNL     1      36.609 -46.644  27.209  1.00  0.00     0.293 HD
ENDBRANCH   9  24
TORSDOF 5
ENDMDL
MODEL 6
REMARK VINA RESULT:    -4.733      2.208      6.835
REMARK INTER + INTRA:          -5.858
REMARK INTER:                  -6.295
REMARK INTRA:                   0.436
REMARK UNBOUND:                -0.295
REMARK SMILES O=c1c(O)c(-c2ccc(O)c(O)c2)oc2cc(O)ccc12
REMARK SMILES IDX 5 1 3 2 2 3 1 4 21 5 15 6 14 7 16 8 17 9 19 10 20 11 6 12
REMARK SMILES IDX 7 13 8 14 9 15 13 16 11 17 10 18 12 20 4 22 18 24
REMARK H PARENT 10 19 12 21 4 23 18 25
REMARK Flexibility Score: inf
ROOT
ATOM      1  C   UNL     1      42.661 -42.968  31.132  1.00  0.00     0.180 A 
ATOM      2  C   UNL     1      42.835 -44.035  30.227  1.00  0.00     0.208 A 
ATOM      3  C   UNL     1      41.962 -45.132  30.298  1.00  0.00     0.235 A 
ATOM      4  O   UNL     1      42.105 -46.103  29.505  1.00  0.00    -0.285 OA
ATOM      5  C   UNL     1      40.931 -45.133  31.250  1.00  0.00     0.069 A 
ATOM      6  C   UNL     1      40.808 -44.017  32.105  1.00  0.00     0.142 A 
ATOM      7  O   UNL     1      41.660 -43.002  32.010  1.00  0.00    -0.452 OA
ATOM      8  C   UNL     1      39.786 -43.976  33.059  1.00  0.00     0.094 A 
ATOM      9  C   UNL     1      38.883 -45.042  33.173  1.00  0.00     0.119 A 
ATOM     10  C   UNL     1      39.004 -46.149  32.328  1.00  0.00     0.047 A 
ATOM     11  C   UNL     1      40.021 -46.199  31.369  1.00  0.00     0.020 A 
ENDROOT
BRANCH   1  12
ATOM     12  C   UNL     1      43.549 -41.784  31.134  1.00  0.00     0.025 A 
ATOM     13  C   UNL     1      43.233 -40.684  31.946  1.00  0.00     0.016 A 
ATOM     14  C   UNL     1      44.068 -39.564  31.979  1.00  0.00     0.051 A 
ATOM     15  C   UNL     1      45.240 -39.534  31.211  1.00  0.00     0.157 A 
ATOM     16  C   UNL     1      44.737 -41.759  30.381  1.00  0.00     0.062 A 
ATOM     17  C   UNL     1      45.577 -40.640  30.412  1.00  0.00     0.158 A 
BRANCH  15  18
ATOM     18  O   UNL     1      46.071 -38.415  31.243  1.00  0.00    -0.504 OA
ATOM     19  H   UNL     1      47.030 -38.457  30.917  1.00  0.00     0.293 HD
ENDBRANCH  15  18
BRANCH  17  20
ATOM     20  O   UNL     1      46.743 -40.648  29.648  1.00  0.00    -0.504 OA
ATOM     21  H   UNL     1      47.422 -41.398  29.708  1.00  0.00     0.293 HD
ENDBRANCH  17  20
ENDBRANCH   1  12
BRANCH   2  22
ATOM     22  O   UNL     1      43.840 -43.983  29.257  1.00  0.00    -0.502 OA
ATOM     23  H   UNL     1      43.788 -43.365  28.457  1.00  0.00     0.293 HD
ENDBRANCH   2  22
BRANCH   9  24
ATOM     24  O   UNL     1      37.864 -45.010  34.122  1.00  0.00    -0.508 OA
ATOM     25  H   UNL     1      36.889 -44.953  33.851  1.00  0.00     0.293 HD
ENDBRANCH   9  24
TORSDOF 5
ENDMDL
MODEL 7
REMARK VINA RESULT:    -4.658      2.031      6.957
REMARK INTER + INTRA:          -5.771
REMARK INTER:                  -5.515
REMARK INTRA:                  -0.256
REMARK UNBOUND:                -0.295
REMARK SMILES O=c1c(O)c(-c2ccc(O)c(O)c2)oc2cc(O)ccc12
REMARK SMILES IDX 5 1 3 2 2 3 1 4 21 5 15 6 14 7 16 8 17 9 19 10 20 11 6 12
REMARK SMILES IDX 7 13 8 14 9 15 13 16 11 17 10 18 12 20 4 22 18 24
REMARK H PARENT 10 19 12 21 4 23 18 25
REMARK Flexibility Score: inf
ROOT
ATOM      1  C   UNL     1      42.342 -43.077  31.187  1.00  0.00     0.180 A 
ATOM      2  C   UNL     1      42.972 -44.333  31.056  1.00  0.00     0.208 A 
ATOM      3  C   UNL     1      42.269 -45.381  30.442  1.00  0.00     0.235 A 
ATOM      4  O   UNL     1      42.808 -46.516  30.323  1.00  0.00    -0.285 OA
ATOM      5  C   UNL     1      40.971 -45.153  29.959  1.00  0.00     0.069 A 
ATOM      6  C   UNL     1      40.419 -43.862  30.107  1.00  0.00     0.142 A 
ATOM      7  O   UNL     1      41.115 -42.899  30.701  1.00  0.00    -0.452 OA
ATOM      8  C   UNL     1      39.133 -43.592  29.629  1.00  0.00     0.094 A 
ATOM      9  C   UNL     1      38.386 -44.600  29.004  1.00  0.00     0.119 A 
ATOM     10  C   UNL     1      38.930 -45.880  28.857  1.00  0.00     0.047 A 
ATOM     11  C   UNL     1      40.217 -46.159  29.330  1.00  0.00     0.020 A 
ENDROOT
BRANCH   1  12
ATOM     12  C   UNL     1      43.008 -41.926  31.837  1.00  0.00     0.025 A 
ATOM     13  C   UNL     1      42.661 -41.579  33.152  1.00  0.00     0.016 A 
ATOM     14  C   UNL     1      43.292 -40.510  33.792  1.00  0.00     0.051 A 
ATOM     15  C   UNL     1      44.291 -39.782  33.134  1.00  0.00     0.157 A 
ATOM     16  C   UNL     1      44.027 -41.206  31.187  1.00  0.00     0.062 A 
ATOM     17  C   UNL     1      44.662 -40.136  31.826  1.00  0.00     0.158 A 
BRANCH  15  18
ATOM     18  O   UNL     1      44.918 -38.713  33.774  1.00  0.00    -0.504 OA
ATOM     19  H   UNL     1      45.578 -38.118  33.289  1.00  0.00     0.293 HD
ENDBRANCH  15  18
BRANCH  17  20
ATOM     20  O   UNL     1      45.663 -39.441  31.148  1.00  0.00    -0.504 OA
ATOM     21  H   UNL     1      46.316 -38.831  31.628  1.00  0.00     0.293 HD
ENDBRANCH  17  20
ENDBRANCH   1  12
BRANCH   2  22
ATOM     22  O   UNL     1      44.283 -44.516  31.502  1.00  0.00    -0.502 OA
ATOM     23  H   UNL     1      45.006 -43.821  31.360  1.00  0.00     0.293 HD
ENDBRANCH   2  22
BRANCH   9  24
ATOM     24  O   UNL     1      37.104 -44.340  28.526  1.00  0.00    -0.508 OA
ATOM     25  H   UNL     1      36.947 -44.011  27.580  1.00  0.00     0.293 HD
ENDBRANCH   9  24
TORSDOF 5
ENDMDL
MODEL 8
REMARK VINA RESULT:    -4.619      2.234      3.819
REMARK INTER + INTRA:          -5.725
REMARK INTER:                  -5.404
REMARK INTRA:                  -0.321
REMARK UNBOUND:                -0.295
REMARK SMILES O=c1c(O)c(-c2ccc(O)c(O)c2)oc2cc(O)ccc12
REMARK SMILES IDX 5 1 3 2 2 3 1 4 21 5 15 6 14 7 16 8 17 9 19 10 20 11 6 12
REMARK SMILES IDX 7 13 8 14 9 15 13 16 11 17 10 18 12 20 4 22 18 24
REMARK H PARENT 10 19 12 21 4 23 18 25
REMARK Flexibility Score: inf
ROOT
ATOM      1  C   UNL     1      41.262 -44.189  30.757  1.00  0.00     0.180 A 
ATOM      2  C   UNL     1      42.561 -44.737  30.822  1.00  0.00     0.208 A 
ATOM      3  C   UNL     1      43.579 -43.993  31.437  1.00  0.00     0.235 A 
ATOM      4  O   UNL     1      44.751 -44.459  31.497  1.00  0.00    -0.285 OA
ATOM      5  C   UNL     1      43.281 -42.737  31.987  1.00  0.00     0.069 A 
ATOM      6  C   UNL     1      41.952 -42.268  31.903  1.00  0.00     0.142 A 
ATOM      7  O   UNL     1      41.018 -43.000  31.305  1.00  0.00    -0.452 OA
ATOM      8  C   UNL     1      41.613 -41.026  32.449  1.00  0.00     0.094 A 
ATOM      9  C   UNL     1      42.589 -40.241  33.079  1.00  0.00     0.119 A 
ATOM     10  C   UNL     1      43.906 -40.703  33.162  1.00  0.00     0.047 A 
ATOM     11  C   UNL     1      44.255 -41.945  32.621  1.00  0.00     0.020 A 
ENDROOT
BRANCH   1  12
ATOM     12  C   UNL     1      40.138 -44.902  30.110  1.00  0.00     0.025 A 
ATOM     13  C   UNL     1      39.235 -45.630  30.901  1.00  0.00     0.016 A 
ATOM     14  C   UNL     1      38.155 -46.294  30.313  1.00  0.00     0.051 A 
ATOM     15  C   UNL     1      37.953 -46.227  28.928  1.00  0.00     0.157 A 
ATOM     16  C   UNL     1      39.920 -44.820  28.723  1.00  0.00     0.062 A 
ATOM     17  C   UNL     1      38.838 -45.482  28.131  1.00  0.00     0.158 A 
BRANCH  15  18
ATOM     18  O   UNL     1      36.876 -46.892  28.344  1.00  0.00    -0.504 OA
ATOM     19  H   UNL     1      36.051 -47.137  28.879  1.00  0.00     0.293 HD
ENDBRANCH  15  18
BRANCH  17  20
ATOM     20  O   UNL     1      38.656 -45.383  26.752  1.00  0.00    -0.504 OA
ATOM     21  H   UNL     1      38.504 -46.198  26.169  1.00  0.00     0.293 HD
ENDBRANCH  17  20
ENDBRANCH   1  12
BRANCH   2  22
ATOM     22  O   UNL     1      42.816 -46.012  30.309  1.00  0.00    -0.502 OA
ATOM     23  H   UNL     1      42.622 -46.856  30.834  1.00  0.00     0.293 HD
ENDBRANCH   2  22
BRANCH   9  24
ATOM     24  O   UNL     1      42.260 -39.003  33.624  1.00  0.00    -0.508 OA
ATOM     25  H   UNL     1      42.520 -38.754  34.572  1.00  0.00     0.293 HD
ENDBRANCH   9  24
TORSDOF 5
ENDMDL
MODEL 9
REMARK VINA RESULT:    -4.506      2.590      3.628
REMARK INTER + INTRA:          -5.591
REMARK INTER:                  -5.362
REMARK INTRA:                  -0.229
REMARK UNBOUND:                -0.295
REMARK SMILES O=c1c(O)c(-c2ccc(O)c(O)c2)oc2cc(O)ccc12
REMARK SMILES IDX 5 1 3 2 2 3 1 4 21 5 15 6 14 7 16 8 17 9 19 10 20 11 6 12
REMARK SMILES IDX 7 13 8 14 9 15 13 16 11 17 10 18 12 20 4 22 18 24
REMARK H PARENT 10 19 12 21 4 23 18 25
REMARK Flexibility Score: inf
ROOT
ATOM      1  C   UNL     1      41.361 -44.005  31.096  1.00  0.00     0.180 A 
ATOM      2  C   UNL     1      42.516 -44.300  30.341  1.00  0.00     0.208 A 
ATOM      3  C   UNL     1      43.580 -43.386  30.347  1.00  0.00     0.235 A 
ATOM      4  O   UNL     1      44.619 -43.623  29.671  1.00  0.00    -0.285 OA
ATOM      5  C   UNL     1      43.481 -42.215  31.115  1.00  0.00     0.069 A 
ATOM      6  C   UNL     1      42.302 -42.003  31.863  1.00  0.00     0.142 A 
ATOM      7  O   UNL     1      41.314 -42.890  31.823  1.00  0.00    -0.452 OA
ATOM      8  C   UNL     1      42.169 -40.855  32.649  1.00  0.00     0.094 A 
ATOM      9  C   UNL     1      43.203 -39.908  32.697  1.00  0.00     0.119 A 
ATOM     10  C   UNL     1      44.370 -40.115  31.956  1.00  0.00     0.047 A 
ATOM     11  C   UNL     1      44.514 -41.262  31.168  1.00  0.00     0.020 A 
ENDROOT
BRANCH   1  12
ATOM     12  C   UNL     1      40.189 -44.908  31.127  1.00  0.00     0.025 A 
ATOM     13  C   UNL     1      39.375 -45.024  29.990  1.00  0.00     0.016 A 
ATOM     14  C   UNL     1      38.275 -45.885  29.991  1.00  0.00     0.051 A 
ATOM     15  C   UNL     1      37.983 -46.658  31.123  1.00  0.00     0.157 A 
ATOM     16  C   UNL     1      39.905 -45.701  32.254  1.00  0.00     0.062 A 
ATOM     17  C   UNL     1      38.806 -46.567  32.258  1.00  0.00     0.158 A 
BRANCH  15  18
ATOM     18  O   UNL     1      36.884 -47.516  31.122  1.00  0.00    -0.504 OA
ATOM     19  H   UNL     1      35.967 -47.204  31.421  1.00  0.00     0.293 HD
ENDBRANCH  15  18
BRANCH  17  20
ATOM     20  O   UNL     1      38.551 -47.332  33.395  1.00  0.00    -0.504 OA
ATOM     21  H   UNL     1      37.790 -47.119  34.029  1.00  0.00     0.293 HD
ENDBRANCH  17  20
ENDBRANCH   1  12
BRANCH   2  22
ATOM     22  O   UNL     1      42.606 -45.497  29.625  1.00  0.00    -0.502 OA
ATOM     23  H   UNL     1      41.805 -45.918  29.172  1.00  0.00     0.293 HD
ENDBRANCH   2  22
BRANCH   9  24
ATOM     24  O   UNL     1      43.078 -38.761  33.476  1.00  0.00    -0.508 OA
ATOM     25  H   UNL     1      43.495 -38.698  34.398  1.00  0.00     0.293 HD
ENDBRANCH   9  24
TORSDOF 5
ENDMDL
