MODEL 1
REMARK VINA RESULT:    -4.793      0.000      0.000
REMARK INTER + INTRA:          -7.382
REMARK INTER:                  -7.314
REMARK INTRA:                  -0.068
REMARK UNBOUND:                -0.068
REMARK SMILES CC1=CCC[C@@H](C)C(=O)C[C@@H](C(C)C)C(=O)C1
REMARK SMILES IDX 8 1 9 2 6 3 7 4 5 5 4 6 3 7 2 8 1 9 10 11 11 12 15 13 16 14
REMARK SMILES IDX 17 15 12 17 13 18 14 19
REMARK H PARENT
REMARK Flexibility Score: 70.00
ROOT
ATOM      1  C   UNL     1      20.342  28.973 -12.071  1.00  0.00     0.136 C 
ATOM      2  O   UNL     1      19.922  29.094 -10.924  1.00  0.00    -0.299 OA
ENDROOT
BRANCH   1   3
ATOM      3  C   UNL     1      21.838  28.695 -12.297  1.00  0.00     0.053 C 
ATOM      4  C   UNL     1      22.677  29.232 -11.120  1.00  0.00     0.016 C 
BRANCH   3   5
ATOM      5  C   UNL     1      22.372  29.296 -13.630  1.00  0.00     0.015 C 
BRANCH   5   6
ATOM      6  C   UNL     1      22.878  28.275 -14.674  1.00  0.00     0.028 C 
BRANCH   6   7
ATOM      7  C   UNL     1      22.635  28.721 -16.101  1.00  0.00    -0.028 C 
ATOM      8  C   UNL     1      21.549  28.414 -16.852  1.00  0.00    -0.070 CG0
ATOM      9  C   UNL     1      21.525  28.874 -18.291  1.00  0.00     0.039 C 
ATOM     10  G   UNL     1      20.395  27.556 -16.350  1.00  0.00     0.000 G0
ENDBRANCH   6   7
ENDBRANCH   5   6
ENDBRANCH   3   5
ENDBRANCH   1   3
BRANCH   1  11
ATOM     11  C   UNL     1      19.356  29.217 -13.199  1.00  0.00     0.087 C 
BRANCH  11  12
ATOM     12  C   UNL     1      19.052  27.969 -14.077  1.00  0.00     0.066 C 
BRANCH  12  13
ATOM     13  C   UNL     1      19.328  28.282 -15.547  1.00  0.00     0.140 C 
ATOM     14  O   UNL     1      18.777  29.248 -16.072  1.00  0.00    -0.299 OA
BRANCH  13  15
ATOM     15  C   UNL     1      20.383  27.538 -16.361  1.00  0.00     0.106 CG0
ATOM     16  G   UNL     1      21.537  28.412 -16.835  1.00  0.00     0.000 G0
ENDBRANCH  13  15
ENDBRANCH  12  13
BRANCH  12  17
ATOM     17  C   UNL     1      17.648  27.347 -13.792  1.00  0.00    -0.006 C 
ATOM     18  C   UNL     1      17.541  26.869 -12.332  1.00  0.00     0.008 C 
ATOM     19  C   UNL     1      17.224  26.204 -14.740  1.00  0.00     0.008 C 
ENDBRANCH  12  17
ENDBRANCH  11  12
ENDBRANCH   1  11
TORSDOF 1
ENDMDL
MODEL 2
REMARK VINA RESULT:    -4.606      1.968      5.043
REMARK INTER + INTRA:          -7.098
REMARK INTER:                  -6.709
REMARK INTRA:                  -0.389
REMARK UNBOUND:                -0.068
REMARK SMILES CC1=CCC[C@@H](C)C(=O)C[C@@H](C(C)C)C(=O)C1
REMARK SMILES IDX 8 1 9 2 6 3 7 4 5 5 4 6 3 7 2 8 1 9 10 11 11 12 15 13 16 14
REMARK SMILES IDX 17 15 12 17 13 18 14 19
REMARK H PARENT
REMARK Flexibility Score: 70.00
ROOT
ATOM      1  C   UNL     1      22.869  29.205 -14.902  1.00  0.00     0.136 C 
ATOM      2  O   UNL     1      22.995  30.081 -15.754  1.00  0.00    -0.299 OA
ENDROOT
BRANCH   1   3
ATOM      3  C   UNL     1      22.652  27.749 -15.350  1.00  0.00     0.053 C 
ATOM      4  C   UNL     1      23.831  27.264 -16.219  1.00  0.00     0.016 C 
BRANCH   3   5
ATOM      5  C   UNL     1      21.320  27.546 -16.128  1.00  0.00     0.015 C 
BRANCH   5   6
ATOM      6  C   UNL     1      20.153  28.474 -15.719  1.00  0.00     0.028 C 
BRANCH   6   7
ATOM      7  C   UNL     1      19.202  27.828 -14.732  1.00  0.00    -0.028 C 
ATOM      8  C   UNL     1      19.111  28.125 -13.412  1.00  0.00    -0.070 CG0
ATOM      9  C   UNL     1      18.164  27.309 -12.563  1.00  0.00     0.039 C 
ATOM     10  G   UNL     1      19.974  29.174 -12.725  1.00  0.00     0.000 G0
ENDBRANCH   6   7
ENDBRANCH   5   6
ENDBRANCH   3   5
ENDBRANCH   1   3
BRANCH   1  11
ATOM     11  C   UNL     1      22.828  29.649 -13.451  1.00  0.00     0.087 C 
BRANCH  11  12
ATOM     12  C   UNL     1      22.556  28.507 -12.431  1.00  0.00     0.066 C 
BRANCH  12  13
ATOM     13  C   UNL     1      21.130  28.613 -11.894  1.00  0.00     0.140 C 
ATOM     14  O   UNL     1      20.908  28.345 -10.714  1.00  0.00    -0.299 OA
BRANCH  13  15
ATOM     15  C   UNL     1      19.982  29.187 -12.718  1.00  0.00     0.106 CG0
ATOM     16  G   UNL     1      19.119  28.137 -13.404  1.00  0.00     0.000 G0
ENDBRANCH  13  15
ENDBRANCH  12  13
BRANCH  12  17
ATOM     17  C   UNL     1      23.662  28.388 -11.334  1.00  0.00    -0.006 C 
ATOM     18  C   UNL     1      24.141  29.780 -10.880  1.00  0.00     0.008 C 
ATOM     19  C   UNL     1      24.883  27.522 -11.714  1.00  0.00     0.008 C 
ENDBRANCH  12  17
ENDBRANCH  11  12
ENDBRANCH   1  11
TORSDOF 1
ENDMDL
MODEL 3
REMARK VINA RESULT:    -4.454      2.143      5.096
REMARK INTER + INTRA:          -6.865
REMARK INTER:                  -7.072
REMARK INTRA:                   0.207
REMARK UNBOUND:                -0.068
REMARK SMILES CC1=CCC[C@@H](C)C(=O)C[C@@H](C(C)C)C(=O)C1
REMARK SMILES IDX 8 1 9 2 6 3 7 4 5 5 4 6 3 7 2 8 1 9 10 11 11 12 15 13 16 14
REMARK SMILES IDX 17 15 12 17 13 18 14 19
REMARK H PARENT
REMARK Flexibility Score: 70.00
ROOT
ATOM      1  C   UNL     1      19.869  27.658 -15.712  1.00  0.00     0.136 C 
ATOM      2  O   UNL     1      19.893  26.585 -16.309  1.00  0.00    -0.299 OA
ENDROOT
BRANCH   1   3
ATOM      3  C   UNL     1      18.976  27.803 -14.468  1.00  0.00     0.053 C 
ATOM      4  C   UNL     1      17.505  28.028 -14.875  1.00  0.00     0.016 C 
BRANCH   3   5
ATOM      5  C   UNL     1      19.433  28.954 -13.525  1.00  0.00     0.015 C 
BRANCH   5   6
ATOM      6  C   UNL     1      20.287  28.530 -12.309  1.00  0.00     0.028 C 
BRANCH   6   7
ATOM      7  C   UNL     1      21.412  29.498 -12.011  1.00  0.00    -0.028 C 
ATOM      8  C   UNL     1      22.600  29.557 -12.663  1.00  0.00    -0.070 CG0
ATOM      9  C   UNL     1      23.640  30.532 -12.163  1.00  0.00     0.039 C 
ATOM     10  G   UNL     1      22.973  28.631 -13.813  1.00  0.00     0.000 G0
ENDBRANCH   6   7
ENDBRANCH   5   6
ENDBRANCH   3   5
ENDBRANCH   1   3
BRANCH   1  11
ATOM     11  C   UNL     1      20.652  28.808 -16.320  1.00  0.00     0.087 C 
BRANCH  11  12
ATOM     12  C   UNL     1      22.189  28.580 -16.391  1.00  0.00     0.066 C 
BRANCH  12  13
ATOM     13  C   UNL     1      22.876  29.269 -15.213  1.00  0.00     0.140 C 
ATOM     14  O   UNL     1      23.255  30.433 -15.333  1.00  0.00    -0.299 OA
BRANCH  13  15
ATOM     15  C   UNL     1      22.979  28.628 -13.833  1.00  0.00     0.106 CG0
ATOM     16  G   UNL     1      22.610  29.557 -12.683  1.00  0.00     0.000 G0
ENDBRANCH  13  15
ENDBRANCH  12  13
BRANCH  12  17
ATOM     17  C   UNL     1      22.795  28.915 -17.791  1.00  0.00    -0.006 C 
ATOM     18  C   UNL     1      21.726  28.811 -18.895  1.00  0.00     0.008 C 
ATOM     19  C   UNL     1      24.034  28.088 -18.194  1.00  0.00     0.008 C 
ENDBRANCH  12  17
ENDBRANCH  11  12
ENDBRANCH   1  11
TORSDOF 1
ENDMDL
MODEL 4
REMARK VINA RESULT:    -4.412      2.289      4.934
REMARK INTER + INTRA:          -6.801
REMARK INTER:                  -6.693
REMARK INTRA:                  -0.108
REMARK UNBOUND:                -0.068
REMARK SMILES CC1=CCC[C@@H](C)C(=O)C[C@@H](C(C)C)C(=O)C1
REMARK SMILES IDX 8 1 9 2 6 3 7 4 5 5 4 6 3 7 2 8 1 9 10 11 11 12 15 13 16 14
REMARK SMILES IDX 17 15 12 17 13 18 14 19
REMARK H PARENT
REMARK Flexibility Score: 70.00
ROOT
ATOM      1  C   UNL     1      18.809  28.058 -14.028  1.00  0.00     0.136 C 
ATOM      2  O   UNL     1      17.928  27.995 -14.881  1.00  0.00    -0.299 OA
ENDROOT
BRANCH   1   3
ATOM      3  C   UNL     1      18.586  27.374 -12.668  1.00  0.00     0.053 C 
ATOM      4  C   UNL     1      17.089  27.070 -12.449  1.00  0.00     0.016 C 
BRANCH   3   5
ATOM      5  C   UNL     1      19.123  28.214 -11.473  1.00  0.00     0.015 C 
BRANCH   5   6
ATOM      6  C   UNL     1      20.444  27.718 -10.841  1.00  0.00     0.028 C 
BRANCH   6   7
ATOM      7  C   UNL     1      21.399  28.845 -10.508  1.00  0.00    -0.028 C 
ATOM      8  C   UNL     1      22.537  29.144 -11.183  1.00  0.00    -0.070 CG0
ATOM      9  C   UNL     1      23.413  30.252 -10.646  1.00  0.00     0.039 C 
ATOM     10  G   UNL     1      23.021  28.365 -12.399  1.00  0.00     0.000 G0
ENDBRANCH   6   7
ENDBRANCH   5   6
ENDBRANCH   3   5
ENDBRANCH   1   3
BRANCH   1  11
ATOM     11  C   UNL     1      20.025  28.908 -14.349  1.00  0.00     0.087 C 
BRANCH  11  12
ATOM     12  C   UNL     1      21.356  28.114 -14.478  1.00  0.00     0.066 C 
BRANCH  12  13
ATOM     13  C   UNL     1      22.476  28.845 -13.741  1.00  0.00     0.140 C 
ATOM     14  O   UNL     1      22.868  29.932 -14.163  1.00  0.00    -0.299 OA
BRANCH  13  15
ATOM     15  C   UNL     1      23.034  28.361 -12.406  1.00  0.00     0.106 CG0
ATOM     16  G   UNL     1      22.539  29.147 -11.199  1.00  0.00     0.000 G0
ENDBRANCH  13  15
ENDBRANCH  12  13
BRANCH  12  17
ATOM     17  C   UNL     1      21.692  27.716 -15.951  1.00  0.00    -0.006 C 
ATOM     18  C   UNL     1      23.200  27.454 -16.122  1.00  0.00     0.008 C 
ATOM     19  C   UNL     1      21.216  28.710 -17.032  1.00  0.00     0.008 C 
ENDBRANCH  12  17
ENDBRANCH  11  12
ENDBRANCH   1  11
TORSDOF 1
ENDMDL
MODEL 5
REMARK VINA RESULT:    -4.408      1.734      4.282
REMARK INTER + INTRA:          -6.795
REMARK INTER:                  -6.783
REMARK INTRA:                  -0.012
REMARK UNBOUND:                -0.068
REMARK SMILES CC1=CCC[C@@H](C)C(=O)C[C@@H](C(C)C)C(=O)C1
REMARK SMILES IDX 8 1 9 2 6 3 7 4 5 5 4 6 3 7 2 8 1 9 10 11 11 12 15 13 16 14
REMARK SMILES IDX 17 15 12 17 13 18 14 19
REMARK H PARENT
REMARK Flexibility Score: 70.00
ROOT
ATOM      1  C   UNL     1      23.093  28.426 -13.621  1.00  0.00     0.136 C 
ATOM      2  O   UNL     1      23.958  27.783 -13.033  1.00  0.00    -0.299 OA
ENDROOT
BRANCH   1   3
ATOM      3  C   UNL     1      22.244  29.436 -12.832  1.00  0.00     0.053 C 
ATOM      4  C   UNL     1      23.114  30.208 -11.818  1.00  0.00     0.016 C 
BRANCH   3   5
ATOM      5  C   UNL     1      21.049  28.773 -12.087  1.00  0.00     0.015 C 
BRANCH   5   6
ATOM      6  C   UNL     1      19.641  29.231 -12.531  1.00  0.00     0.028 C 
BRANCH   6   7
ATOM      7  C   UNL     1      18.753  28.082 -12.960  1.00  0.00    -0.028 C 
ATOM      8  C   UNL     1      18.494  27.717 -14.240  1.00  0.00    -0.070 CG0
ATOM      9  C   UNL     1      17.508  26.597 -14.476  1.00  0.00     0.039 C 
ATOM     10  G   UNL     1      19.075  28.433 -15.451  1.00  0.00     0.000 G0
ENDBRANCH   6   7
ENDBRANCH   5   6
ENDBRANCH   3   5
ENDBRANCH   1   3
BRANCH   1  11
ATOM     11  C   UNL     1      22.853  28.091 -15.082  1.00  0.00     0.087 C 
BRANCH  11  12
ATOM     12  C   UNL     1      21.682  28.875 -15.743  1.00  0.00     0.066 C 
BRANCH  12  13
ATOM     13  C   UNL     1      20.457  27.971 -15.876  1.00  0.00     0.140 C 
ATOM     14  O   UNL     1      20.608  26.794 -16.198  1.00  0.00    -0.299 OA
BRANCH  13  15
ATOM     15  C   UNL     1      19.056  28.423 -15.477  1.00  0.00     0.106 CG0
ATOM     16  G   UNL     1      18.499  27.721 -14.246  1.00  0.00     0.000 G0
ENDBRANCH  13  15
ENDBRANCH  12  13
BRANCH  12  17
ATOM     17  C   UNL     1      22.100  29.610 -17.056  1.00  0.00    -0.006 C 
ATOM     18  C   UNL     1      21.732  28.776 -18.297  1.00  0.00     0.008 C 
ATOM     19  C   UNL     1      23.583  30.030 -17.139  1.00  0.00     0.008 C 
ENDBRANCH  12  17
ENDBRANCH  11  12
ENDBRANCH   1  11
TORSDOF 1
ENDMDL
MODEL 6
REMARK VINA RESULT:    -4.354      1.789      4.150
REMARK INTER + INTRA:          -6.712
REMARK INTER:                  -6.572
REMARK INTRA:                  -0.141
REMARK UNBOUND:                -0.068
REMARK SMILES CC1=CCC[C@@H](C)C(=O)C[C@@H](C(C)C)C(=O)C1
REMARK SMILES IDX 8 1 9 2 6 3 7 4 5 5 4 6 3 7 2 8 1 9 10 11 11 12 15 13 16 14
REMARK SMILES IDX 17 15 12 17 13 18 14 19
REMARK H PARENT
REMARK Flexibility Score: 70.00
ROOT
ATOM      1  C   UNL     1      19.479  27.970 -12.383  1.00  0.00     0.136 C 
ATOM      2  O   UNL     1      18.773  27.298 -11.636  1.00  0.00    -0.299 OA
ENDROOT
BRANCH   1   3
ATOM      3  C   UNL     1      18.897  28.467 -13.718  1.00  0.00     0.053 C 
ATOM      4  C   UNL     1      17.357  28.534 -13.651  1.00  0.00     0.016 C 
BRANCH   3   5
ATOM      5  C   UNL     1      19.325  27.590 -14.930  1.00  0.00     0.015 C 
BRANCH   5   6
ATOM      6  C   UNL     1      20.010  28.339 -16.095  1.00  0.00     0.028 C 
BRANCH   6   7
ATOM      7  C   UNL     1      21.336  27.725 -16.493  1.00  0.00    -0.028 C 
ATOM      8  C   UNL     1      22.556  28.120 -16.051  1.00  0.00    -0.070 CG0
ATOM      9  C   UNL     1      23.777  27.445 -16.632  1.00  0.00     0.039 C 
ATOM     10  G   UNL     1      22.763  29.266 -15.070  1.00  0.00     0.000 G0
ENDBRANCH   6   7
ENDBRANCH   5   6
ENDBRANCH   3   5
ENDBRANCH   1   3
BRANCH   1  11
ATOM     11  C   UNL     1      20.927  28.170 -11.975  1.00  0.00     0.087 C 
BRANCH  11  12
ATOM     12  C   UNL     1      21.631  29.381 -12.653  1.00  0.00     0.066 C 
BRANCH  12  13
ATOM     13  C   UNL     1      22.731  28.889 -13.592  1.00  0.00     0.140 C 
ATOM     14  O   UNL     1      23.541  28.056 -13.188  1.00  0.00    -0.299 OA
BRANCH  13  15
ATOM     15  C   UNL     1      22.784  29.272 -15.068  1.00  0.00     0.106 CG0
ATOM     16  G   UNL     1      22.572  28.106 -16.024  1.00  0.00     0.000 G0
ENDBRANCH  13  15
ENDBRANCH  12  13
BRANCH  12  17
ATOM     17  C   UNL     1      22.079  30.478 -11.636  1.00  0.00    -0.006 C 
ATOM     18  C   UNL     1      22.972  31.531 -12.317  1.00  0.00     0.008 C 
ATOM     19  C   UNL     1      22.777  29.957 -10.362  1.00  0.00     0.008 C 
ENDBRANCH  12  17
ENDBRANCH  11  12
ENDBRANCH   1  11
TORSDOF 1
ENDMDL
MODEL 7
REMARK VINA RESULT:    -4.079     15.430     17.828
REMARK INTER + INTRA:          -6.293
REMARK INTER:                  -5.971
REMARK INTRA:                  -0.322
REMARK UNBOUND:                -0.068
REMARK SMILES CC1=CCC[C@@H](C)C(=O)C[C@@H](C(C)C)C(=O)C1
REMARK SMILES IDX 8 1 9 2 6 3 7 4 5 5 4 6 3 7 2 8 1 9 10 11 11 12 15 13 16 14
REMARK SMILES IDX 17 15 12 17 13 18 14 19
REMARK H PARENT
REMARK Flexibility Score: 70.00
ROOT
ATOM      1  C   UNL     1      31.765  36.849 -21.828  1.00  0.00     0.136 C 
ATOM      2  O   UNL     1      32.695  37.158 -21.089  1.00  0.00    -0.299 OA
ENDROOT
BRANCH   1   3
ATOM      3  C   UNL     1      31.595  35.378 -22.244  1.00  0.00     0.053 C 
ATOM      4  C   UNL     1      31.122  34.523 -21.050  1.00  0.00     0.016 C 
BRANCH   3   5
ATOM      5  C   UNL     1      32.895  34.762 -22.838  1.00  0.00     0.015 C 
BRANCH   5   6
ATOM      6  C   UNL     1      33.252  35.201 -24.276  1.00  0.00     0.028 C 
BRANCH   6   7
ATOM      7  C   UNL     1      34.476  36.092 -24.335  1.00  0.00    -0.028 C 
ATOM      8  C   UNL     1      34.505  37.367 -24.795  1.00  0.00    -0.070 CG0
ATOM      9  C   UNL     1      35.840  38.070 -24.862  1.00  0.00     0.039 C 
ATOM     10  G   UNL     1      33.279  38.095 -25.330  1.00  0.00     0.000 G0
ENDBRANCH   6   7
ENDBRANCH   5   6
ENDBRANCH   3   5
ENDBRANCH   1   3
BRANCH   1  11
ATOM     11  C   UNL     1      30.904  37.977 -22.368  1.00  0.00     0.087 C 
BRANCH  11  12
ATOM     12  C   UNL     1      31.012  38.195 -23.905  1.00  0.00     0.066 C 
BRANCH  12  13
ATOM     13  C   UNL     1      32.392  38.744 -24.261  1.00  0.00     0.140 C 
ATOM     14  O   UNL     1      32.877  39.647 -23.580  1.00  0.00    -0.299 OA
BRANCH  13  15
ATOM     15  C   UNL     1      33.273  38.118 -25.338  1.00  0.00     0.106 CG0
ATOM     16  G   UNL     1      34.487  37.374 -24.797  1.00  0.00     0.000 G0
ENDBRANCH  13  15
ENDBRANCH  12  13
BRANCH  12  17
ATOM     17  C   UNL     1      29.813  39.003 -24.495  1.00  0.00    -0.006 C 
ATOM     18  C   UNL     1      28.609  38.985 -23.535  1.00  0.00     0.008 C 
ATOM     19  C   UNL     1      29.353  38.575 -25.905  1.00  0.00     0.008 C 
ENDBRANCH  12  17
ENDBRANCH  11  12
ENDBRANCH   1  11
TORSDOF 1
ENDMDL
MODEL 8
REMARK VINA RESULT:    -4.006     15.958     17.731
REMARK INTER + INTRA:          -6.182
REMARK INTER:                  -6.109
REMARK INTRA:                  -0.073
REMARK UNBOUND:                -0.068
REMARK SMILES CC1=CCC[C@@H](C)C(=O)C[C@@H](C(C)C)C(=O)C1
REMARK SMILES IDX 8 1 9 2 6 3 7 4 5 5 4 6 3 7 2 8 1 9 10 11 11 12 15 13 16 14
REMARK SMILES IDX 17 15 12 17 13 18 14 19
REMARK H PARENT
REMARK Flexibility Score: 70.00
ROOT
ATOM      1  C   UNL     1      32.596  34.822 -22.906  1.00  0.00     0.136 C 
ATOM      2  O   UNL     1      31.778  33.912 -22.807  1.00  0.00    -0.299 OA
ENDROOT
BRANCH   1   3
ATOM      3  C   UNL     1      33.114  35.506 -21.629  1.00  0.00     0.053 C 
ATOM      4  C   UNL     1      33.587  34.458 -20.601  1.00  0.00     0.016 C 
BRANCH   3   5
ATOM      5  C   UNL     1      32.057  36.438 -20.969  1.00  0.00     0.015 C 
BRANCH   5   6
ATOM      6  C   UNL     1      31.890  37.832 -21.615  1.00  0.00     0.028 C 
BRANCH   6   7
ATOM      7  C   UNL     1      30.499  38.067 -22.165  1.00  0.00    -0.028 C 
ATOM      8  C   UNL     1      30.203  38.452 -23.431  1.00  0.00    -0.070 CG0
ATOM      9  C   UNL     1      28.757  38.725 -23.773  1.00  0.00     0.039 C 
ATOM     10  G   UNL     1      31.258  38.709 -24.499  1.00  0.00     0.000 G0
ENDBRANCH   6   7
ENDBRANCH   5   6
ENDBRANCH   3   5
ENDBRANCH   1   3
BRANCH   1  11
ATOM     11  C   UNL     1      32.958  35.281 -24.307  1.00  0.00     0.087 C 
BRANCH  11  12
ATOM     12  C   UNL     1      33.150  36.817 -24.457  1.00  0.00     0.066 C 
BRANCH  12  13
ATOM     13  C   UNL     1      31.901  37.444 -25.075  1.00  0.00     0.140 C 
ATOM     14  O   UNL     1      31.314  36.853 -25.980  1.00  0.00    -0.299 OA
BRANCH  13  15
ATOM     15  C   UNL     1      31.253  38.706 -24.515  1.00  0.00     0.106 CG0
ATOM     16  G   UNL     1      30.210  38.447 -23.436  1.00  0.00     0.000 G0
ENDBRANCH  13  15
ENDBRANCH  12  13
BRANCH  12  17
ATOM     17  C   UNL     1      34.492  37.202 -25.158  1.00  0.00    -0.006 C 
ATOM     18  C   UNL     1      35.598  36.182 -24.831  1.00  0.00     0.008 C 
ATOM     19  C   UNL     1      35.006  38.629 -24.871  1.00  0.00     0.008 C 
ENDBRANCH  12  17
ENDBRANCH  11  12
ENDBRANCH   1  11
TORSDOF 1
ENDMDL
MODEL 9
REMARK VINA RESULT:    -3.808      9.528     11.834
REMARK INTER + INTRA:          -5.880
REMARK INTER:                  -5.883
REMARK INTRA:                   0.003
REMARK UNBOUND:                -0.068
REMARK SMILES CC1=CCC[C@@H](C)C(=O)C[C@@H](C(C)C)C(=O)C1
REMARK SMILES IDX 8 1 9 2 6 3 7 4 5 5 4 6 3 7 2 8 1 9 10 11 11 12 15 13 16 14
REMARK SMILES IDX 17 15 12 17 13 18 14 19
REMARK H PARENT
REMARK Flexibility Score: 70.00
ROOT
ATOM      1  C   UNL     1      21.948  25.535 -23.281  1.00  0.00     0.136 C 
ATOM      2  O   UNL     1      21.754  25.111 -22.145  1.00  0.00    -0.299 OA
ENDROOT
BRANCH   1   3
ATOM      3  C   UNL     1      21.155  26.759 -23.769  1.00  0.00     0.053 C 
ATOM      4  C   UNL     1      21.800  28.066 -23.263  1.00  0.00     0.016 C 
BRANCH   3   5
ATOM      5  C   UNL     1      19.659  26.722 -23.343  1.00  0.00     0.015 C 
BRANCH   5   6
ATOM      6  C   UNL     1      18.743  25.798 -24.178  1.00  0.00     0.028 C 
BRANCH   6   7
ATOM      7  C   UNL     1      19.004  25.896 -25.667  1.00  0.00    -0.028 C 
ATOM      8  C   UNL     1      19.435  24.887 -26.463  1.00  0.00    -0.070 CG0
ATOM      9  C   UNL     1      19.728  25.198 -27.912  1.00  0.00     0.039 C 
ATOM     10  G   UNL     1      19.723  23.480 -25.954  1.00  0.00     0.000 G0
ENDBRANCH   6   7
ENDBRANCH   5   6
ENDBRANCH   3   5
ENDBRANCH   1   3
BRANCH   1  11
ATOM     11  C   UNL     1      22.892  24.741 -24.166  1.00  0.00     0.087 C 
BRANCH  11  12
ATOM     12  C   UNL     1      22.268  24.250 -25.503  1.00  0.00     0.066 C 
BRANCH  12  13
ATOM     13  C   UNL     1      21.073  23.341 -25.221  1.00  0.00     0.140 C 
ATOM     14  O   UNL     1      21.126  22.548 -24.282  1.00  0.00    -0.299 OA
BRANCH  13  15
ATOM     15  C   UNL     1      19.745  23.475 -25.961  1.00  0.00     0.106 CG0
ATOM     16  G   UNL     1      19.440  24.886 -26.446  1.00  0.00     0.000 G0
ENDBRANCH  13  15
ENDBRANCH  12  13
BRANCH  12  17
ATOM     17  C   UNL     1      23.323  23.658 -26.492  1.00  0.00    -0.006 C 
ATOM     18  C   UNL     1      24.636  23.322 -25.762  1.00  0.00     0.008 C 
ATOM     19  C   UNL     1      23.630  24.525 -27.732  1.00  0.00     0.008 C 
ENDBRANCH  12  17
ENDBRANCH  11  12
ENDBRANCH   1  11
TORSDOF 1
ENDMDL
