MODEL 1
REMARK VINA RESULT:     6.417      0.000      0.000
REMARK INTER + INTRA:           7.486
REMARK INTER:                   6.980
REMARK INTRA:                   0.505
REMARK UNBOUND:                 0.505
REMARK SMILES C[C@H]1[C@H](C)CC[C@]2(C(=O)[O-])CC[C@@]3(C)C(=CC[C@H]4[C@@]5(C)CC[C@H](O)C(C)(C)[C@@H]5CC[C@]43C)[C@H]12
REMARK SMILES IDX 7 1 6 2 11 3 33 4 5 5 12 6 15 7 2 8 3 9 13 10 16 11 1 12
REMARK SMILES IDX 4 13 14 14 31 15 17 16 18 17 30 18 32 19 19 20 29 21 28 22
REMARK SMILES IDX 21 23 20 24 25 25 22 26 23 27 26 28 27 29 8 30 9 31 10 32
REMARK SMILES IDX 24 33
REMARK H PARENT 24 34
REMARK Flexibility Score: inf
ROOT
ATOM      1  C   UNL     1       7.531  28.798  23.352  1.00  0.00     0.017 C 
ATOM      2  C   UNL     1       9.010  28.417  23.649  1.00  0.00     0.014 C 
ATOM      3  C   UNL     1       7.183  30.025  24.251  1.00  0.00     0.014 C 
ATOM      4  C   UNL     1       6.584  27.567  23.649  1.00  0.00     0.030 C 
ATOM      5  C   UNL     1       9.477  27.186  22.869  1.00  0.00     0.004 C 
ATOM      6  C   UNL     1       5.730  30.038  24.744  1.00  0.00     0.013 C 
ATOM      7  C   UNL     1       6.119  27.568  25.129  1.00  0.00    -0.063 C 
ATOM      8  C   UNL     1       7.111  26.205  23.031  1.00  0.00    -0.003 C 
ATOM      9  C   UNL     1       8.639  25.946  23.212  1.00  0.00    -0.011 C 
ATOM     10  C   UNL     1       5.325  28.787  25.622  1.00  0.00    -0.006 C 
ATOM     11  C   UNL     1       6.144  26.466  25.896  1.00  0.00    -0.027 C 
ATOM     12  C   UNL     1       6.744  26.092  21.536  1.00  0.00     0.008 C 
ATOM     13  C   UNL     1       9.014  25.390  24.596  1.00  0.00     0.008 C 
ATOM     14  C   UNL     1       3.832  28.468  25.288  1.00  0.00     0.017 C 
ATOM     15  C   UNL     1       5.489  29.038  27.213  1.00  0.00    -0.020 C 
ATOM     16  C   UNL     1       5.954  26.466  27.374  1.00  0.00     0.032 C 
ATOM     17  C   UNL     1       5.257  27.692  28.037  1.00  0.00     0.006 C 
ATOM     18  C   UNL     1       6.915  29.574  27.540  1.00  0.00     0.008 C 
ATOM     19  C   UNL     1       4.433  30.116  27.646  1.00  0.00     0.012 C 
ATOM     20  C   UNL     1       5.604  27.781  29.609  1.00  0.00    -0.025 C 
ATOM     21  C   UNL     1       7.248  29.691  29.036  1.00  0.00     0.005 C 
ATOM     22  C   UNL     1       7.067  28.348  29.780  1.00  0.00     0.003 C 
ATOM     23  C   UNL     1       5.543  26.359  30.275  1.00  0.00     0.010 C 
ATOM     24  C   UNL     1       4.521  28.651  30.333  1.00  0.00     0.012 C 
ATOM     25  C   UNL     1       7.664  28.310  31.248  1.00  0.00    -0.006 C 
ATOM     26  C   UNL     1       6.069  26.314  31.719  1.00  0.00     0.033 C 
ATOM     27  C   UNL     1       7.508  26.856  31.809  1.00  0.00     0.120 C 
ATOM     28  C   UNL     1       7.023  29.354  32.200  1.00  0.00     0.014 C 
ATOM     29  C   UNL     1       9.187  28.619  31.197  1.00  0.00     0.014 C 
ENDROOT
BRANCH   1  30
ATOM     30  C   UNL     1       7.391  29.264  21.903  1.00  0.00     0.048 C 
ATOM     31  O   UNL     1       6.528  30.125  21.583  1.00  0.00    -0.550 OA
ATOM     32  O   UNL     1       8.295  28.838  20.932  1.00  0.00    -0.550 OA
ENDBRANCH   1  30
BRANCH  27  33
ATOM     33  O   UNL     1       7.999  26.737  33.125  1.00  0.00    -0.393 OA
ATOM     34  H   UNL     1       7.264  26.962  33.754  1.00  0.00     0.210 HD
ENDBRANCH  27  33
TORSDOF 2
ENDMDL
MODEL 2
REMARK VINA RESULT:     7.929      1.808      7.750
REMARK INTER + INTRA:           9.130
REMARK INTER:                   8.232
REMARK INTRA:                   0.898
REMARK UNBOUND:                 0.505
REMARK SMILES C[C@H]1[C@H](C)CC[C@]2(C(=O)[O-])CC[C@@]3(C)C(=CC[C@H]4[C@@]5(C)CC[C@H](O)C(C)(C)[C@@H]5CC[C@]43C)[C@H]12
REMARK SMILES IDX 7 1 6 2 11 3 33 4 5 5 12 6 15 7 2 8 3 9 13 10 16 11 1 12
REMARK SMILES IDX 4 13 14 14 31 15 17 16 18 17 30 18 32 19 19 20 29 21 28 22
REMARK SMILES IDX 21 23 20 24 25 25 22 26 23 27 26 28 27 29 8 30 9 31 10 32
REMARK SMILES IDX 24 33
REMARK H PARENT 24 34
REMARK Flexibility Score: inf
ROOT
ATOM      1  C   UNL     1       6.577  28.998  30.896  1.00  0.00     0.017 C 
ATOM      2  C   UNL     1       5.356  29.766  30.314  1.00  0.00     0.014 C 
ATOM      3  C   UNL     1       7.859  29.641  30.282  1.00  0.00     0.014 C 
ATOM      4  C   UNL     1       6.468  27.460  30.547  1.00  0.00     0.030 C 
ATOM      5  C   UNL     1       4.015  29.205  30.794  1.00  0.00     0.004 C 
ATOM      6  C   UNL     1       8.993  28.637  30.028  1.00  0.00     0.013 C 
ATOM      7  C   UNL     1       7.130  27.152  29.178  1.00  0.00    -0.063 C 
ATOM      8  C   UNL     1       5.033  26.850  30.838  1.00  0.00    -0.003 C 
ATOM      9  C   UNL     1       3.833  27.738  30.382  1.00  0.00    -0.011 C 
ATOM     10  C   UNL     1       8.625  27.471  29.026  1.00  0.00    -0.006 C 
ATOM     11  C   UNL     1       6.538  26.393  28.243  1.00  0.00    -0.027 C 
ATOM     12  C   UNL     1       4.871  26.494  32.332  1.00  0.00     0.008 C 
ATOM     13  C   UNL     1       3.510  27.620  28.883  1.00  0.00     0.008 C 
ATOM     14  C   UNL     1       9.372  26.194  29.529  1.00  0.00     0.017 C 
ATOM     15  C   UNL     1       9.044  27.785  27.494  1.00  0.00    -0.020 C 
ATOM     16  C   UNL     1       7.008  26.277  26.833  1.00  0.00     0.032 C 
ATOM     17  C   UNL     1       8.479  26.672  26.501  1.00  0.00     0.006 C 
ATOM     18  C   UNL     1       8.490  29.169  27.045  1.00  0.00     0.008 C 
ATOM     19  C   UNL     1      10.612  27.818  27.417  1.00  0.00     0.012 C 
ATOM     20  C   UNL     1       8.656  26.997  24.932  1.00  0.00    -0.025 C 
ATOM     21  C   UNL     1       8.679  29.504  25.556  1.00  0.00     0.005 C 
ATOM     22  C   UNL     1       8.062  28.428  24.635  1.00  0.00     0.003 C 
ATOM     23  C   UNL     1       7.883  25.947  24.054  1.00  0.00     0.010 C 
ATOM     24  C   UNL     1      10.167  26.868  24.542  1.00  0.00     0.012 C 
ATOM     25  C   UNL     1       7.955  28.836  23.106  1.00  0.00    -0.006 C 
ATOM     26  C   UNL     1       7.815  26.301  22.559  1.00  0.00     0.033 C 
ATOM     27  C   UNL     1       7.203  27.696  22.340  1.00  0.00     0.120 C 
ATOM     28  C   UNL     1       9.328  29.144  22.454  1.00  0.00     0.014 C 
ATOM     29  C   UNL     1       7.092  30.124  22.973  1.00  0.00     0.014 C 
ENDROOT
BRANCH   1  30
ATOM     30  C   UNL     1       6.661  29.215  32.407  1.00  0.00     0.048 C 
ATOM     31  O   UNL     1       5.625  29.155  33.125  1.00  0.00    -0.550 OA
ATOM     32  O   UNL     1       7.896  29.361  33.035  1.00  0.00    -0.550 OA
ENDBRANCH   1  30
BRANCH  27  33
ATOM     33  O   UNL     1       7.080  27.971  20.963  1.00  0.00    -0.393 OA
ATOM     34  H   UNL     1       6.451  27.311  20.569  1.00  0.00     0.210 HD
ENDBRANCH  27  33
TORSDOF 2
ENDMDL
MODEL 3
REMARK VINA RESULT:     8.261      2.683      7.463
REMARK INTER + INTRA:           9.491
REMARK INTER:                   9.401
REMARK INTRA:                   0.090
REMARK UNBOUND:                 0.505
REMARK SMILES C[C@H]1[C@H](C)CC[C@]2(C(=O)[O-])CC[C@@]3(C)C(=CC[C@H]4[C@@]5(C)CC[C@H](O)C(C)(C)[C@@H]5CC[C@]43C)[C@H]12
REMARK SMILES IDX 7 1 6 2 11 3 33 4 5 5 12 6 15 7 2 8 3 9 13 10 16 11 1 12
REMARK SMILES IDX 4 13 14 14 31 15 17 16 18 17 30 18 32 19 19 20 29 21 28 22
REMARK SMILES IDX 21 23 20 24 25 25 22 26 23 27 26 28 27 29 8 30 9 31 10 32
REMARK SMILES IDX 24 33
REMARK H PARENT 24 34
REMARK Flexibility Score: inf
ROOT
ATOM      1  C   UNL     1       5.585  27.476  30.339  1.00  0.00     0.017 C 
ATOM      2  C   UNL     1       6.642  26.675  31.152  1.00  0.00     0.014 C 
ATOM      3  C   UNL     1       5.438  26.770  28.955  1.00  0.00     0.014 C 
ATOM      4  C   UNL     1       6.048  28.980  30.184  1.00  0.00     0.030 C 
ATOM      5  C   UNL     1       6.928  27.287  32.525  1.00  0.00     0.004 C 
ATOM      6  C   UNL     1       5.165  27.737  27.794  1.00  0.00     0.013 C 
ATOM      7  C   UNL     1       6.926  29.163  28.918  1.00  0.00    -0.063 C 
ATOM      8  C   UNL     1       6.548  29.627  31.542  1.00  0.00    -0.003 C 
ATOM      9  C   UNL     1       7.476  28.716  32.405  1.00  0.00    -0.011 C 
ATOM     10  C   UNL     1       6.296  28.818  27.561  1.00  0.00    -0.006 C 
ATOM     11  C   UNL     1       8.082  29.847  28.932  1.00  0.00    -0.027 C 
ATOM     12  C   UNL     1       5.360  30.110  32.401  1.00  0.00     0.008 C 
ATOM     13  C   UNL     1       8.943  28.710  31.941  1.00  0.00     0.008 C 
ATOM     14  C   UNL     1       5.578  30.125  27.095  1.00  0.00     0.017 C 
ATOM     15  C   UNL     1       7.394  28.371  26.457  1.00  0.00    -0.020 C 
ATOM     16  C   UNL     1       9.078  29.838  27.824  1.00  0.00     0.032 C 
ATOM     17  C   UNL     1       8.610  29.401  26.403  1.00  0.00     0.006 C 
ATOM     18  C   UNL     1       7.961  26.959  26.788  1.00  0.00     0.008 C 
ATOM     19  C   UNL     1       6.681  28.314  25.060  1.00  0.00     0.012 C 
ATOM     20  C   UNL     1       9.859  28.942  25.493  1.00  0.00    -0.025 C 
ATOM     21  C   UNL     1       9.134  26.497  25.908  1.00  0.00     0.005 C 
ATOM     22  C   UNL     1      10.312  27.496  25.935  1.00  0.00     0.003 C 
ATOM     23  C   UNL     1      11.074  29.922  25.678  1.00  0.00     0.010 C 
ATOM     24  C   UNL     1       9.457  29.022  23.981  1.00  0.00     0.012 C 
ATOM     25  C   UNL     1      11.660  26.961  25.295  1.00  0.00    -0.006 C 
ATOM     26  C   UNL     1      12.378  29.442  25.018  1.00  0.00     0.033 C 
ATOM     27  C   UNL     1      12.775  28.040  25.513  1.00  0.00     0.120 C 
ATOM     28  C   UNL     1      11.524  26.586  23.797  1.00  0.00     0.014 C 
ATOM     29  C   UNL     1      12.115  25.676  26.045  1.00  0.00     0.014 C 
ENDROOT
BRANCH   1  30
ATOM     30  C   UNL     1       4.220  27.387  31.022  1.00  0.00     0.048 C 
ATOM     31  O   UNL     1       4.070  26.710  32.075  1.00  0.00    -0.550 OA
ATOM     32  O   UNL     1       3.149  28.151  30.565  1.00  0.00    -0.550 OA
ENDBRANCH   1  30
BRANCH  27  33
ATOM     33  O   UNL     1      14.009  27.650  24.956  1.00  0.00    -0.393 OA
ATOM     34  H   UNL     1      14.356  26.878  25.474  1.00  0.00     0.210 HD
ENDBRANCH  27  33
TORSDOF 2
ENDMDL
MODEL 4
REMARK VINA RESULT:     9.121      2.520      4.344
REMARK INTER + INTRA:          10.426
REMARK INTER:                  10.075
REMARK INTRA:                   0.352
REMARK UNBOUND:                 0.505
REMARK SMILES C[C@H]1[C@H](C)CC[C@]2(C(=O)[O-])CC[C@@]3(C)C(=CC[C@H]4[C@@]5(C)CC[C@H](O)C(C)(C)[C@@H]5CC[C@]43C)[C@H]12
REMARK SMILES IDX 7 1 6 2 11 3 33 4 5 5 12 6 15 7 2 8 3 9 13 10 16 11 1 12
REMARK SMILES IDX 4 13 14 14 31 15 17 16 18 17 30 18 32 19 19 20 29 21 28 22
REMARK SMILES IDX 21 23 20 24 25 25 22 26 23 27 26 28 27 29 8 30 9 31 10 32
REMARK SMILES IDX 24 33
REMARK H PARENT 24 34
REMARK Flexibility Score: inf
ROOT
ATOM      1  C   UNL     1       8.191  26.581  25.904  1.00  0.00     0.017 C 
ATOM      2  C   UNL     1       7.126  25.512  25.528  1.00  0.00     0.014 C 
ATOM      3  C   UNL     1       8.551  26.362  27.407  1.00  0.00     0.014 C 
ATOM      4  C   UNL     1       7.619  28.031  25.643  1.00  0.00     0.030 C 
ATOM      5  C   UNL     1       6.636  25.639  24.084  1.00  0.00     0.004 C 
ATOM      6  C   UNL     1       8.866  27.662  28.162  1.00  0.00     0.013 C 
ATOM      7  C   UNL     1       6.873  28.568  26.894  1.00  0.00    -0.063 C 
ATOM      8  C   UNL     1       6.917  28.185  24.230  1.00  0.00    -0.003 C 
ATOM      9  C   UNL     1       5.982  27.003  23.825  1.00  0.00    -0.011 C 
ATOM     10  C   UNL     1       7.677  28.704  28.195  1.00  0.00    -0.006 C 
ATOM     11  C   UNL     1       5.668  29.155  26.821  1.00  0.00    -0.027 C 
ATOM     12  C   UNL     1       7.957  28.425  23.114  1.00  0.00     0.008 C 
ATOM     13  C   UNL     1       4.582  27.075  24.458  1.00  0.00     0.008 C 
ATOM     14  C   UNL     1       8.325  30.125  28.132  1.00  0.00     0.017 C 
ATOM     15  C   UNL     1       6.752  28.582  29.518  1.00  0.00    -0.020 C 
ATOM     16  C   UNL     1       4.805  29.453  27.999  1.00  0.00     0.032 C 
ATOM     17  C   UNL     1       5.464  29.516  29.410  1.00  0.00     0.006 C 
ATOM     18  C   UNL     1       6.277  27.113  29.721  1.00  0.00     0.008 C 
ATOM     19  C   UNL     1       7.617  29.010  30.756  1.00  0.00     0.012 C 
ATOM     20  C   UNL     1       4.369  29.313  30.575  1.00  0.00    -0.025 C 
ATOM     21  C   UNL     1       5.253  26.901  30.849  1.00  0.00     0.005 C 
ATOM     22  C   UNL     1       3.997  27.782  30.668  1.00  0.00     0.003 C 
ATOM     23  C   UNL     1       3.059  30.123  30.257  1.00  0.00     0.010 C 
ATOM     24  C   UNL     1       4.926  29.892  31.919  1.00  0.00     0.012 C 
ATOM     25  C   UNL     1       2.779  27.416  31.616  1.00  0.00    -0.006 C 
ATOM     26  C   UNL     1       1.883  29.818  31.199  1.00  0.00     0.033 C 
ATOM     27  C   UNL     1       1.558  28.313  31.223  1.00  0.00     0.120 C 
ATOM     28  C   UNL     1       3.113  27.546  33.125  1.00  0.00     0.014 C 
ATOM     29  C   UNL     1       2.359  25.938  31.371  1.00  0.00     0.014 C 
ENDROOT
BRANCH   1  30
ATOM     30  C   UNL     1       9.475  26.344  25.108  1.00  0.00     0.048 C 
ATOM     31  O   UNL     1       9.469  25.614  24.080  1.00  0.00    -0.550 OA
ATOM     32  O   UNL     1      10.645  27.027  25.431  1.00  0.00    -0.550 OA
ENDBRANCH   1  30
BRANCH  27  33
ATOM     33  O   UNL     1       0.431  28.064  32.032  1.00  0.00    -0.393 OA
ATOM     34  H   UNL     1      -0.384  28.205  31.484  1.00  0.00     0.210 HD
ENDBRANCH  27  33
TORSDOF 2
ENDMDL
