MODEL 1
REMARK VINA RESULT:    -3.430      0.000      0.000
REMARK INTER + INTRA:          -5.218
REMARK INTER:                  -4.633
REMARK INTRA:                  -0.584
REMARK UNBOUND:                -0.584
REMARK SMILES CCCCCCCC(=O)[O-]
REMARK SMILES IDX 5 1 6 2 7 3 8 4 9 5 10 6 4 7 3 8 2 9 1 10
REMARK H PARENT
REMARK Flexibility Score: inf
ROOT
ATOM      1  C   UNL     1      14.270  41.583  29.077  1.00  0.00     0.000 C 
ENDROOT
BRANCH   1   2
ATOM      2  C   UNL     1      15.727  41.157  29.306  1.00  0.00     0.006 C 
BRANCH   2   3
ATOM      3  C   UNL     1      15.807  39.972  30.273  1.00  0.00     0.053 C 
BRANCH   3   4
ATOM      4  C   UNL     1      16.787  38.956  29.778  1.00  0.00     0.041 C 
ATOM      5  O   UNL     1      17.992  39.271  29.602  1.00  0.00    -0.550 OA
ATOM      6  O   UNL     1      16.357  37.673  29.462  1.00  0.00    -0.550 OA
ENDBRANCH   3   4
ENDBRANCH   2   3
ENDBRANCH   1   2
BRANCH   1   7
ATOM      7  C   UNL     1      13.734  41.175  27.693  1.00  0.00     0.000 C 
BRANCH   7   8
ATOM      8  C   UNL     1      12.772  39.973  27.697  1.00  0.00    -0.000 C 
BRANCH   8   9
ATOM      9  C   UNL     1      13.482  38.637  27.434  1.00  0.00    -0.003 C 
ATOM     10  C   UNL     1      14.709  38.832  26.548  1.00  0.00     0.004 C 
ENDBRANCH   8   9
ENDBRANCH   7   8
ENDBRANCH   1   7
TORSDOF 6
ENDMDL
MODEL 2
REMARK VINA RESULT:    -3.416     12.782     14.006
REMARK INTER + INTRA:          -5.198
REMARK INTER:                  -4.774
REMARK INTRA:                  -0.424
REMARK UNBOUND:                -0.584
REMARK SMILES CCCCCCCC(=O)[O-]
REMARK SMILES IDX 5 1 6 2 7 3 8 4 9 5 10 6 4 7 3 8 2 9 1 10
REMARK H PARENT
REMARK Flexibility Score: inf
ROOT
ATOM      1  C   UNL     1      10.592  45.663  19.786  1.00  0.00     0.000 C 
ENDROOT
BRANCH   1   2
ATOM      2  C   UNL     1       9.649  46.629  19.053  1.00  0.00     0.006 C 
BRANCH   2   3
ATOM      3  C   UNL     1      10.156  48.070  19.152  1.00  0.00     0.053 C 
BRANCH   3   4
ATOM      4  C   UNL     1       9.405  48.956  18.209  1.00  0.00     0.041 C 
ATOM      5  O   UNL     1       8.239  48.652  17.846  1.00  0.00    -0.550 OA
ATOM      6  O   UNL     1      10.013  50.093  17.691  1.00  0.00    -0.550 OA
ENDBRANCH   3   4
ENDBRANCH   2   3
ENDBRANCH   1   2
BRANCH   1   7
ATOM      7  C   UNL     1      11.809  45.251  18.938  1.00  0.00     0.000 C 
BRANCH   7   8
ATOM      8  C   UNL     1      13.134  45.931  19.331  1.00  0.00    -0.000 C 
BRANCH   8   9
ATOM      9  C   UNL     1      13.926  46.441  18.118  1.00  0.00    -0.003 C 
ATOM     10  C   UNL     1      12.991  46.859  16.987  1.00  0.00     0.004 C 
ENDBRANCH   8   9
ENDBRANCH   7   8
ENDBRANCH   1   7
TORSDOF 6
ENDMDL
MODEL 3
REMARK VINA RESULT:    -3.406      1.807      3.408
REMARK INTER + INTRA:          -5.185
REMARK INTER:                  -4.549
REMARK INTRA:                  -0.636
REMARK UNBOUND:                -0.584
REMARK SMILES CCCCCCCC(=O)[O-]
REMARK SMILES IDX 5 1 6 2 7 3 8 4 9 5 10 6 4 7 3 8 2 9 1 10
REMARK H PARENT
REMARK Flexibility Score: inf
ROOT
ATOM      1  C   UNL     1      14.020  41.709  28.912  1.00  0.00     0.000 C 
ENDROOT
BRANCH   1   2
ATOM      2  C   UNL     1      13.683  41.119  27.535  1.00  0.00     0.006 C 
BRANCH   2   3
ATOM      3  C   UNL     1      12.997  39.757  27.676  1.00  0.00     0.053 C 
BRANCH   3   4
ATOM      4  C   UNL     1      13.912  38.660  27.232  1.00  0.00     0.041 C 
ATOM      5  O   UNL     1      14.778  38.877  26.345  1.00  0.00    -0.550 OA
ATOM      6  O   UNL     1      13.775  37.383  27.764  1.00  0.00    -0.550 OA
ENDBRANCH   3   4
ENDBRANCH   2   3
ENDBRANCH   1   2
BRANCH   1   7
ATOM      7  C   UNL     1      15.457  41.394  29.366  1.00  0.00     0.000 C 
BRANCH   7   8
ATOM      8  C   UNL     1      15.586  40.202  30.333  1.00  0.00    -0.000 C 
BRANCH   8   9
ATOM      9  C   UNL     1      16.560  39.126  29.830  1.00  0.00    -0.003 C 
ATOM     10  C   UNL     1      17.390  39.641  28.658  1.00  0.00     0.004 C 
ENDBRANCH   8   9
ENDBRANCH   7   8
ENDBRANCH   1   7
TORSDOF 6
ENDMDL
MODEL 4
REMARK VINA RESULT:    -3.359     10.146     11.489
REMARK INTER + INTRA:          -5.121
REMARK INTER:                  -4.520
REMARK INTRA:                  -0.602
REMARK UNBOUND:                -0.584
REMARK SMILES CCCCCCCC(=O)[O-]
REMARK SMILES IDX 5 1 6 2 7 3 8 4 9 5 10 6 4 7 3 8 2 9 1 10
REMARK H PARENT
REMARK Flexibility Score: inf
ROOT
ATOM      1  C   UNL     1      10.950  46.627  19.409  1.00  0.00     0.000 C 
ENDROOT
BRANCH   1   2
ATOM      2  C   UNL     1       9.889  45.520  19.482  1.00  0.00     0.006 C 
BRANCH   2   3
ATOM      3  C   UNL     1      10.262  44.472  20.535  1.00  0.00     0.053 C 
BRANCH   3   4
ATOM      4  C   UNL     1      10.471  43.136  19.894  1.00  0.00     0.041 C 
ATOM      5  O   UNL     1       9.490  42.380  19.673  1.00  0.00    -0.550 OA
ATOM      6  O   UNL     1      11.756  42.706  19.587  1.00  0.00    -0.550 OA
ENDBRANCH   3   4
ENDBRANCH   2   3
ENDBRANCH   1   2
BRANCH   1   7
ATOM      7  C   UNL     1      11.974  46.406  18.280  1.00  0.00     0.000 C 
BRANCH   7   8
ATOM      8  C   UNL     1      13.279  45.713  18.714  1.00  0.00    -0.000 C 
BRANCH   8   9
ATOM      9  C   UNL     1      13.814  46.232  20.056  1.00  0.00    -0.003 C 
ATOM     10  C   UNL     1      13.929  45.104  21.076  1.00  0.00     0.004 C 
ENDBRANCH   8   9
ENDBRANCH   7   8
ENDBRANCH   1   7
TORSDOF 6
ENDMDL
MODEL 5
REMARK VINA RESULT:    -3.343     11.406     12.624
REMARK INTER + INTRA:          -5.100
REMARK INTER:                  -4.683
REMARK INTRA:                  -0.417
REMARK UNBOUND:                -0.584
REMARK SMILES CCCCCCCC(=O)[O-]
REMARK SMILES IDX 5 1 6 2 7 3 8 4 9 5 10 6 4 7 3 8 2 9 1 10
REMARK H PARENT
REMARK Flexibility Score: inf
ROOT
ATOM      1  C   UNL     1      13.791  44.790  20.118  1.00  0.00     0.000 C 
ENDROOT
BRANCH   1   2
ATOM      2  C   UNL     1      12.296  44.779  19.772  1.00  0.00     0.006 C 
BRANCH   2   3
ATOM      3  C   UNL     1      11.740  46.204  19.693  1.00  0.00     0.053 C 
BRANCH   3   4
ATOM      4  C   UNL     1      10.258  46.178  19.492  1.00  0.00     0.041 C 
ATOM      5  O   UNL     1       9.602  45.135  19.746  1.00  0.00    -0.550 OA
ATOM      6  O   UNL     1       9.608  47.293  18.976  1.00  0.00    -0.550 OA
ENDBRANCH   3   4
ENDBRANCH   2   3
ENDBRANCH   1   2
BRANCH   1   7
ATOM      7  C   UNL     1      14.530  46.019  19.557  1.00  0.00     0.000 C 
BRANCH   7   8
ATOM      8  C   UNL     1      14.990  45.887  18.093  1.00  0.00    -0.000 C 
BRANCH   8   9
ATOM      9  C   UNL     1      14.652  47.123  17.246  1.00  0.00    -0.003 C 
ATOM     10  C   UNL     1      13.413  46.881  16.390  1.00  0.00     0.004 C 
ENDBRANCH   8   9
ENDBRANCH   7   8
ENDBRANCH   1   7
TORSDOF 6
ENDMDL
MODEL 6
REMARK VINA RESULT:    -3.324     11.367     12.583
REMARK INTER + INTRA:          -5.075
REMARK INTER:                  -4.590
REMARK INTRA:                  -0.485
REMARK UNBOUND:                -0.584
REMARK SMILES CCCCCCCC(=O)[O-]
REMARK SMILES IDX 5 1 6 2 7 3 8 4 9 5 10 6 4 7 3 8 2 9 1 10
REMARK H PARENT
REMARK Flexibility Score: inf
ROOT
ATOM      1  C   UNL     1      12.781  46.050  17.224  1.00  0.00     0.000 C 
ENDROOT
BRANCH   1   2
ATOM      2  C   UNL     1      11.746  46.666  18.177  1.00  0.00     0.006 C 
BRANCH   2   3
ATOM      3  C   UNL     1      11.826  46.022  19.564  1.00  0.00     0.053 C 
BRANCH   3   4
ATOM      4  C   UNL     1      10.941  44.818  19.634  1.00  0.00     0.041 C 
ATOM      5  O   UNL     1      11.440  43.663  19.628  1.00  0.00    -0.550 OA
ATOM      6  O   UNL     1       9.559  44.972  19.656  1.00  0.00    -0.550 OA
ENDBRANCH   3   4
ENDBRANCH   2   3
ENDBRANCH   1   2
BRANCH   1   7
ATOM      7  C   UNL     1      13.813  47.073  16.715  1.00  0.00     0.000 C 
BRANCH   7   8
ATOM      8  C   UNL     1      15.167  47.049  17.447  1.00  0.00    -0.000 C 
BRANCH   8   9
ATOM      9  C   UNL     1      15.409  45.741  18.215  1.00  0.00    -0.003 C 
ATOM     10  C   UNL     1      15.673  46.012  19.693  1.00  0.00     0.004 C 
ENDBRANCH   8   9
ENDBRANCH   7   8
ENDBRANCH   1   7
TORSDOF 6
ENDMDL
MODEL 7
REMARK VINA RESULT:    -3.288     10.933     12.063
REMARK INTER + INTRA:          -5.026
REMARK INTER:                  -4.621
REMARK INTRA:                  -0.406
REMARK UNBOUND:                -0.584
REMARK SMILES CCCCCCCC(=O)[O-]
REMARK SMILES IDX 5 1 6 2 7 3 8 4 9 5 10 6 4 7 3 8 2 9 1 10
REMARK H PARENT
REMARK Flexibility Score: inf
ROOT
ATOM      1  C   UNL     1      12.829  44.795  19.891  1.00  0.00     0.000 C 
ENDROOT
BRANCH   1   2
ATOM      2  C   UNL     1      13.573  46.056  20.354  1.00  0.00     0.006 C 
BRANCH   2   3
ATOM      3  C   UNL     1      15.076  45.933  20.091  1.00  0.00     0.053 C 
BRANCH   3   4
ATOM      4  C   UNL     1      15.346  45.834  18.623  1.00  0.00     0.041 C 
ATOM      5  O   UNL     1      15.017  46.774  17.853  1.00  0.00    -0.550 OA
ATOM      6  O   UNL     1      15.915  44.680  18.097  1.00  0.00    -0.550 OA
ENDBRANCH   3   4
ENDBRANCH   2   3
ENDBRANCH   1   2
BRANCH   1   7
ATOM      7  C   UNL     1      11.692  45.098  18.899  1.00  0.00     0.000 C 
BRANCH   7   8
ATOM      8  C   UNL     1      11.403  46.594  18.677  1.00  0.00    -0.000 C 
BRANCH   8   9
ATOM      9  C   UNL     1      10.020  47.019  19.191  1.00  0.00    -0.003 C 
ATOM     10  C   UNL     1       9.591  48.348  18.578  1.00  0.00     0.004 C 
ENDBRANCH   8   9
ENDBRANCH   7   8
ENDBRANCH   1   7
TORSDOF 6
ENDMDL
MODEL 8
REMARK VINA RESULT:    -3.267      1.279      3.118
REMARK INTER + INTRA:          -4.997
REMARK INTER:                  -4.394
REMARK INTRA:                  -0.603
REMARK UNBOUND:                -0.584
REMARK SMILES CCCCCCCC(=O)[O-]
REMARK SMILES IDX 5 1 6 2 7 3 8 4 9 5 10 6 4 7 3 8 2 9 1 10
REMARK H PARENT
REMARK Flexibility Score: inf
ROOT
ATOM      1  C   UNL     1      12.811  39.901  27.759  1.00  0.00     0.000 C 
ENDROOT
BRANCH   1   2
ATOM      2  C   UNL     1      13.485  38.584  27.349  1.00  0.00     0.006 C 
BRANCH   2   3
ATOM      3  C   UNL     1      14.831  38.845  26.668  1.00  0.00     0.053 C 
BRANCH   3   4
ATOM      4  C   UNL     1      15.903  38.006  27.286  1.00  0.00     0.041 C 
ATOM      5  O   UNL     1      17.033  37.917  26.740  1.00  0.00    -0.550 OA
ATOM      6  O   UNL     1      15.638  37.280  28.441  1.00  0.00    -0.550 OA
ENDBRANCH   3   4
ENDBRANCH   2   3
ENDBRANCH   1   2
BRANCH   1   7
ATOM      7  C   UNL     1      13.736  41.122  27.610  1.00  0.00     0.000 C 
BRANCH   7   8
ATOM      8  C   UNL     1      14.193  41.757  28.936  1.00  0.00    -0.000 C 
BRANCH   8   9
ATOM      9  C   UNL     1      15.596  41.302  29.364  1.00  0.00    -0.003 C 
ATOM     10  C   UNL     1      15.519  40.178  30.393  1.00  0.00     0.004 C 
ENDBRANCH   8   9
ENDBRANCH   7   8
ENDBRANCH   1   7
TORSDOF 6
ENDMDL
MODEL 9
REMARK VINA RESULT:    -3.265     12.049     13.285
REMARK INTER + INTRA:          -4.994
REMARK INTER:                  -4.682
REMARK INTRA:                  -0.312
REMARK UNBOUND:                -0.584
REMARK SMILES CCCCCCCC(=O)[O-]
REMARK SMILES IDX 5 1 6 2 7 3 8 4 9 5 10 6 4 7 3 8 2 9 1 10
REMARK H PARENT
REMARK Flexibility Score: inf
ROOT
ATOM      1  C   UNL     1       9.848  46.141  19.418  1.00  0.00     0.000 C 
ENDROOT
BRANCH   1   2
ATOM      2  C   UNL     1      10.975  45.248  19.955  1.00  0.00     0.006 C 
BRANCH   2   3
ATOM      3  C   UNL     1      12.348  45.846  19.635  1.00  0.00     0.053 C 
BRANCH   3   4
ATOM      4  C   UNL     1      12.927  45.205  18.413  1.00  0.00     0.041 C 
ATOM      5  O   UNL     1      13.777  44.283  18.523  1.00  0.00    -0.550 OA
ATOM      6  O   UNL     1      12.565  45.662  17.152  1.00  0.00    -0.550 OA
ENDBRANCH   3   4
ENDBRANCH   2   3
ENDBRANCH   1   2
BRANCH   1   7
ATOM      7  C   UNL     1      10.230  47.632  19.374  1.00  0.00     0.000 C 
BRANCH   7   8
ATOM      8  C   UNL     1      10.191  48.272  17.974  1.00  0.00    -0.000 C 
BRANCH   8   9
ATOM      9  C   UNL     1       9.577  49.680  17.977  1.00  0.00    -0.003 C 
ATOM     10  C   UNL     1       8.247  49.701  17.230  1.00  0.00     0.004 C 
ENDBRANCH   8   9
ENDBRANCH   7   8
ENDBRANCH   1   7
TORSDOF 6
ENDMDL
