MODEL 1
REMARK VINA RESULT:    -4.184      0.000      0.000
REMARK INTER + INTRA:          -5.677
REMARK INTER:                  -5.407
REMARK INTRA:                  -0.270
REMARK UNBOUND:                -0.270
REMARK SMILES C=CC(=O)CCCCC
REMARK SMILES IDX 6 1 7 2 8 3 9 4 5 5 3 6 4 7 2 8 1 9
REMARK H PARENT
REMARK Flexibility Score: inf
ROOT
ATOM      1  C   UNL     1     -24.604  19.877 -34.576  1.00  0.00     0.008 C 
ENDROOT
BRANCH   1   2
ATOM      2  C   UNL     1     -23.129  19.974 -34.158  1.00  0.00     0.000 C 
BRANCH   2   3
ATOM      3  C   UNL     1     -22.969  20.843 -32.906  1.00  0.00    -0.003 C 
ATOM      4  C   UNL     1     -22.358  20.048 -31.756  1.00  0.00     0.004 C 
ENDBRANCH   2   3
ENDBRANCH   1   2
BRANCH   1   5
ATOM      5  C   UNL     1     -25.509  19.422 -33.423  1.00  0.00     0.080 C 
BRANCH   5   6
ATOM      6  C   UNL     1     -26.938  19.828 -33.642  1.00  0.00     0.155 C 
ATOM      7  O   UNL     1     -27.858  18.996 -33.410  1.00  0.00    -0.295 OA
BRANCH   6   8
ATOM      8  C   UNL     1     -27.262  21.196 -34.095  1.00  0.00     0.039 C 
ATOM      9  C   UNL     1     -27.519  22.188 -33.245  1.00  0.00     0.012 C 
ENDBRANCH   6   8
ENDBRANCH   5   6
ENDBRANCH   1   5
TORSDOF 5
ENDMDL
MODEL 2
REMARK VINA RESULT:    -4.026      2.127      4.351
REMARK INTER + INTRA:          -5.472
REMARK INTER:                  -5.209
REMARK INTRA:                  -0.263
REMARK UNBOUND:                -0.270
REMARK SMILES C=CC(=O)CCCCC
REMARK SMILES IDX 6 1 7 2 8 3 9 4 5 5 3 6 4 7 2 8 1 9
REMARK H PARENT
REMARK Flexibility Score: inf
ROOT
ATOM      1  C   UNL     1     -25.267  20.369 -34.557  1.00  0.00     0.008 C 
ENDROOT
BRANCH   1   2
ATOM      2  C   UNL     1     -26.415  19.766 -33.735  1.00  0.00     0.000 C 
BRANCH   2   3
ATOM      3  C   UNL     1     -27.691  20.604 -33.874  1.00  0.00    -0.003 C 
ATOM      4  C   UNL     1     -27.474  22.027 -33.366  1.00  0.00     0.004 C 
ENDBRANCH   2   3
ENDBRANCH   1   2
BRANCH   1   5
ATOM      5  C   UNL     1     -23.947  19.612 -34.359  1.00  0.00     0.080 C 
BRANCH   5   6
ATOM      6  C   UNL     1     -23.312  19.933 -33.036  1.00  0.00     0.155 C 
ATOM      7  O   UNL     1     -22.960  21.120 -32.794  1.00  0.00    -0.295 OA
BRANCH   6   8
ATOM      8  C   UNL     1     -23.130  18.875 -32.022  1.00  0.00     0.039 C 
ATOM      9  C   UNL     1     -24.155  18.206 -31.497  1.00  0.00     0.012 C 
ENDBRANCH   6   8
ENDBRANCH   5   6
ENDBRANCH   1   5
TORSDOF 5
ENDMDL
MODEL 3
REMARK VINA RESULT:    -3.957      1.971      4.692
REMARK INTER + INTRA:          -5.383
REMARK INTER:                  -5.221
REMARK INTRA:                  -0.162
REMARK UNBOUND:                -0.270
REMARK SMILES C=CC(=O)CCCCC
REMARK SMILES IDX 6 1 7 2 8 3 9 4 5 5 3 6 4 7 2 8 1 9
REMARK H PARENT
REMARK Flexibility Score: inf
ROOT
ATOM      1  C   UNL     1     -26.563  20.751 -33.815  1.00  0.00     0.008 C 
ENDROOT
BRANCH   1   2
ATOM      2  C   UNL     1     -27.928  20.196 -34.246  1.00  0.00     0.000 C 
BRANCH   2   3
ATOM      3  C   UNL     1     -28.655  19.544 -33.065  1.00  0.00    -0.003 C 
ATOM      4  C   UNL     1     -29.977  18.923 -33.505  1.00  0.00     0.004 C 
ENDBRANCH   2   3
ENDBRANCH   1   2
BRANCH   1   5
ATOM      5  C   UNL     1     -25.555  19.638 -33.495  1.00  0.00     0.080 C 
BRANCH   5   6
ATOM      6  C   UNL     1     -24.254  19.838 -34.219  1.00  0.00     0.155 C 
ATOM      7  O   UNL     1     -24.172  19.519 -35.437  1.00  0.00    -0.295 OA
BRANCH   6   8
ATOM      8  C   UNL     1     -23.096  20.427 -33.517  1.00  0.00     0.039 C 
ATOM      9  C   UNL     1     -22.637  19.942 -32.365  1.00  0.00     0.012 C 
ENDBRANCH   6   8
ENDBRANCH   5   6
ENDBRANCH   1   5
TORSDOF 5
ENDMDL
MODEL 4
REMARK VINA RESULT:    -3.922      8.511      9.871
REMARK INTER + INTRA:          -5.338
REMARK INTER:                  -4.745
REMARK INTRA:                  -0.592
REMARK UNBOUND:                -0.270
REMARK SMILES C=CC(=O)CCCCC
REMARK SMILES IDX 6 1 7 2 8 3 9 4 5 5 3 6 4 7 2 8 1 9
REMARK H PARENT
REMARK Flexibility Score: inf
ROOT
ATOM      1  C   UNL     1     -27.352  11.027 -28.157  1.00  0.00     0.008 C 
ENDROOT
BRANCH   1   2
ATOM      2  C   UNL     1     -28.147  12.339 -28.225  1.00  0.00     0.000 C 
BRANCH   2   3
ATOM      3  C   UNL     1     -29.322  12.220 -29.201  1.00  0.00    -0.003 C 
ATOM      4  C   UNL     1     -29.161  13.177 -30.378  1.00  0.00     0.004 C 
ENDBRANCH   2   3
ENDBRANCH   1   2
BRANCH   1   5
ATOM      5  C   UNL     1     -25.851  11.241 -28.395  1.00  0.00     0.080 C 
BRANCH   5   6
ATOM      6  C   UNL     1     -25.581  11.857 -29.739  1.00  0.00     0.155 C 
ATOM      7  O   UNL     1     -25.948  11.248 -30.781  1.00  0.00    -0.295 OA
BRANCH   6   8
ATOM      8  C   UNL     1     -24.921  13.175 -29.833  1.00  0.00     0.039 C 
ATOM      9  C   UNL     1     -25.580  14.282 -30.168  1.00  0.00     0.012 C 
ENDBRANCH   6   8
ENDBRANCH   5   6
ENDBRANCH   1   5
TORSDOF 5
ENDMDL
MODEL 5
REMARK VINA RESULT:    -3.801      1.584      2.139
REMARK INTER + INTRA:          -5.182
REMARK INTER:                  -4.884
REMARK INTRA:                  -0.298
REMARK UNBOUND:                -0.270
REMARK SMILES C=CC(=O)CCCCC
REMARK SMILES IDX 6 1 7 2 8 3 9 4 5 5 3 6 4 7 2 8 1 9
REMARK H PARENT
REMARK Flexibility Score: inf
ROOT
ATOM      1  C   UNL     1     -24.938  20.368 -33.773  1.00  0.00     0.008 C 
ENDROOT
BRANCH   1   2
ATOM      2  C   UNL     1     -24.760  19.059 -32.990  1.00  0.00     0.000 C 
BRANCH   2   3
ATOM      3  C   UNL     1     -23.372  18.988 -32.347  1.00  0.00    -0.003 C 
ATOM      4  C   UNL     1     -22.602  20.289 -32.550  1.00  0.00     0.004 C 
ENDBRANCH   2   3
ENDBRANCH   1   2
BRANCH   1   5
ATOM      5  C   UNL     1     -26.248  20.397 -34.572  1.00  0.00     0.080 C 
BRANCH   5   6
ATOM      6  C   UNL     1     -27.402  20.872 -33.736  1.00  0.00     0.155 C 
ATOM      7  O   UNL     1     -27.417  22.066 -33.329  1.00  0.00    -0.295 OA
BRANCH   6   8
ATOM      8  C   UNL     1     -28.519  19.959 -33.421  1.00  0.00     0.039 C 
ATOM      9  C   UNL     1     -28.367  18.637 -33.374  1.00  0.00     0.012 C 
ENDBRANCH   6   8
ENDBRANCH   5   6
ENDBRANCH   1   5
TORSDOF 5
ENDMDL
MODEL 6
REMARK VINA RESULT:    -3.776      8.281      9.437
REMARK INTER + INTRA:          -5.149
REMARK INTER:                  -4.525
REMARK INTRA:                  -0.623
REMARK UNBOUND:                -0.270
REMARK SMILES C=CC(=O)CCCCC
REMARK SMILES IDX 6 1 7 2 8 3 9 4 5 5 3 6 4 7 2 8 1 9
REMARK H PARENT
REMARK Flexibility Score: inf
ROOT
ATOM      1  C   UNL     1     -29.240  12.356 -29.712  1.00  0.00     0.008 C 
ENDROOT
BRANCH   1   2
ATOM      2  C   UNL     1     -28.485  12.347 -28.375  1.00  0.00     0.000 C 
BRANCH   2   3
ATOM      3  C   UNL     1     -27.923  10.955 -28.069  1.00  0.00    -0.003 C 
ATOM      4  C   UNL     1     -26.399  10.978 -28.002  1.00  0.00     0.004 C 
ENDBRANCH   2   3
ENDBRANCH   1   2
BRANCH   1   5
ATOM      5  C   UNL     1     -28.559  13.246 -30.761  1.00  0.00     0.080 C 
BRANCH   5   6
ATOM      6  C   UNL     1     -27.252  12.665 -31.222  1.00  0.00     0.155 C 
ATOM      7  O   UNL     1     -27.234  11.505 -31.716  1.00  0.00    -0.295 OA
BRANCH   6   8
ATOM      8  C   UNL     1     -26.010  13.458 -31.123  1.00  0.00     0.039 C 
ATOM      9  C   UNL     1     -25.652  14.087 -30.005  1.00  0.00     0.012 C 
ENDBRANCH   6   8
ENDBRANCH   5   6
ENDBRANCH   1   5
TORSDOF 5
ENDMDL
MODEL 7
REMARK VINA RESULT:    -3.761      7.771      8.620
REMARK INTER + INTRA:          -5.130
REMARK INTER:                  -4.561
REMARK INTRA:                  -0.569
REMARK UNBOUND:                -0.270
REMARK SMILES C=CC(=O)CCCCC
REMARK SMILES IDX 6 1 7 2 8 3 9 4 5 5 3 6 4 7 2 8 1 9
REMARK H PARENT
REMARK Flexibility Score: inf
ROOT
ATOM      1  C   UNL     1     -26.373  14.050 -30.737  1.00  0.00     0.008 C 
ENDROOT
BRANCH   1   2
ATOM      2  C   UNL     1     -25.423  13.418 -29.710  1.00  0.00     0.000 C 
BRANCH   2   3
ATOM      3  C   UNL     1     -25.386  11.893 -29.861  1.00  0.00    -0.003 C 
ATOM      4  C   UNL     1     -25.424  11.203 -28.501  1.00  0.00     0.004 C 
ENDBRANCH   2   3
ENDBRANCH   1   2
BRANCH   1   5
ATOM      5  C   UNL     1     -27.395  13.044 -31.284  1.00  0.00     0.080 C 
BRANCH   5   6
ATOM      6  C   UNL     1     -28.778  13.313 -30.763  1.00  0.00     0.155 C 
ATOM      7  O   UNL     1     -29.398  14.336 -31.163  1.00  0.00    -0.295 OA
BRANCH   6   8
ATOM      8  C   UNL     1     -29.412  12.373 -29.817  1.00  0.00     0.039 C 
ATOM      9  C   UNL     1     -29.036  12.281 -28.542  1.00  0.00     0.012 C 
ENDBRANCH   6   8
ENDBRANCH   5   6
ENDBRANCH   1   5
TORSDOF 5
ENDMDL
MODEL 8
REMARK VINA RESULT:    -3.746      7.887      9.143
REMARK INTER + INTRA:          -5.110
REMARK INTER:                  -4.518
REMARK INTRA:                  -0.593
REMARK UNBOUND:                -0.270
REMARK SMILES C=CC(=O)CCCCC
REMARK SMILES IDX 6 1 7 2 8 3 9 4 5 5 3 6 4 7 2 8 1 9
REMARK H PARENT
REMARK Flexibility Score: inf
ROOT
ATOM      1  C   UNL     1     -26.759  11.555 -29.374  1.00  0.00     0.008 C 
ENDROOT
BRANCH   1   2
ATOM      2  C   UNL     1     -27.598  11.941 -28.147  1.00  0.00     0.000 C 
BRANCH   2   3
ATOM      3  C   UNL     1     -29.025  12.324 -28.554  1.00  0.00    -0.003 C 
ATOM      4  C   UNL     1     -29.521  11.457 -29.707  1.00  0.00     0.004 C 
ENDBRANCH   2   3
ENDBRANCH   1   2
BRANCH   1   5
ATOM      5  C   UNL     1     -25.589  12.520 -29.608  1.00  0.00     0.080 C 
BRANCH   5   6
ATOM      6  C   UNL     1     -26.005  13.716 -30.416  1.00  0.00     0.155 C 
ATOM      7  O   UNL     1     -25.442  14.826 -30.208  1.00  0.00    -0.295 OA
BRANCH   6   8
ATOM      8  C   UNL     1     -27.039  13.584 -31.462  1.00  0.00     0.039 C 
ATOM      9  C   UNL     1     -28.095  14.391 -31.527  1.00  0.00     0.012 C 
ENDBRANCH   6   8
ENDBRANCH   5   6
ENDBRANCH   1   5
TORSDOF 5
ENDMDL
MODEL 9
REMARK VINA RESULT:    -3.696      7.492      9.004
REMARK INTER + INTRA:          -5.045
REMARK INTER:                  -4.552
REMARK INTRA:                  -0.493
REMARK UNBOUND:                -0.270
REMARK SMILES C=CC(=O)CCCCC
REMARK SMILES IDX 6 1 7 2 8 3 9 4 5 5 3 6 4 7 2 8 1 9
REMARK H PARENT
REMARK Flexibility Score: inf
ROOT
ATOM      1  C   UNL     1     -28.003  14.084 -31.517  1.00  0.00     0.008 C 
ENDROOT
BRANCH   1   2
ATOM      2  C   UNL     1     -29.177  13.683 -30.611  1.00  0.00     0.000 C 
BRANCH   2   3
ATOM      3  C   UNL     1     -29.057  12.221 -30.169  1.00  0.00    -0.003 C 
ATOM      4  C   UNL     1     -29.111  12.098 -28.649  1.00  0.00     0.004 C 
ENDBRANCH   2   3
ENDBRANCH   1   2
BRANCH   1   5
ATOM      5  C   UNL     1     -26.792  13.157 -31.345  1.00  0.00     0.080 C 
BRANCH   5   6
ATOM      6  C   UNL     1     -25.746  13.765 -30.454  1.00  0.00     0.155 C 
ATOM      7  O   UNL     1     -25.612  15.019 -30.428  1.00  0.00    -0.295 OA
BRANCH   6   8
ATOM      8  C   UNL     1     -24.907  12.903 -29.598  1.00  0.00     0.039 C 
ATOM      9  C   UNL     1     -25.328  11.725 -29.140  1.00  0.00     0.012 C 
ENDBRANCH   6   8
ENDBRANCH   5   6
ENDBRANCH   1   5
TORSDOF 5
ENDMDL
