MODEL 1
REMARK VINA RESULT:    -5.387      0.000      0.000
REMARK INTER + INTRA:          -8.170
REMARK INTER:                  -7.434
REMARK INTRA:                  -0.735
REMARK UNBOUND:                -0.735
REMARK SMILES C[C@@H]1OC(=O)[C@H](C)[C@H]1C[C@@H](O)[C@](C)(O)[C@H]1CC[C@@]2(O)C3=CC(=O)[C@H]4C[C@@H](O)[C@H](O)C[C@@]4(C)[C@@H]3CC[C@@]12C
REMARK SMILES IDX 12 1 13 2 10 3 9 4 8 5 7 6 6 7 4 8 2 9 3 10 5 11 1 12 11 13
REMARK SMILES IDX 15 15 16 16 36 17 17 18 18 19 35 20 37 21 20 22 34 23 33 24
REMARK SMILES IDX 21 25 31 26 22 27 24 28 30 29 32 30 23 31 25 32 28 33 26 34
REMARK SMILES IDX 19 35 29 37 27 39 14 41
REMARK H PARENT 11 14 19 36 29 38 27 40 14 42
REMARK Flexibility Score: inf
ROOT
ATOM      1  C   UNL     1      18.123  19.567   7.745  1.00  0.00     0.091 C 
ATOM      2  C   UNL     1      16.858  19.843   8.594  1.00  0.00     0.045 C 
ENDROOT
BRANCH   1   3
ATOM      3  C   UNL     1      17.922  20.201   6.313  1.00  0.00     0.146 C 
BRANCH   3   4
ATOM      4  C   UNL     1      16.542  20.901   6.105  1.00  0.00     0.043 C 
BRANCH   4   5
ATOM      5  C   UNL     1      16.078  20.931   4.630  1.00  0.00     0.046 C 
ATOM      6  C   UNL     1      17.254  22.424   2.908  1.00  0.00     0.020 C 
ATOM      7  C   UNL     1      16.230  22.366   4.045  1.00  0.00     0.103 C 
ATOM      8  C   UNL     1      14.868  22.675   3.561  1.00  0.00     0.309 C 
ATOM      9  C   UNL     1      14.567  20.565   4.470  1.00  0.00     0.177 C 
ATOM     10  O   UNL     1      13.968  21.658   3.794  1.00  0.00    -0.462 OA
ATOM     11  O   UNL     1      14.536  23.774   3.042  1.00  0.00    -0.252 OA
ATOM     12  C   UNL     1      14.358  19.284   3.658  1.00  0.00     0.053 C 
ENDBRANCH   4   5
ENDBRANCH   3   4
BRANCH   3  13
ATOM     13  O   UNL     1      18.990  21.071   6.000  1.00  0.00    -0.390 OA
ATOM     14  H   UNL     1      19.839  20.571   6.079  1.00  0.00     0.211 HD
ENDBRANCH   3  13
ENDBRANCH   1   3
BRANCH   1  15
ATOM     15  C   UNL     1      18.445  18.014   7.595  1.00  0.00     0.032 C 
ATOM     16  C   UNL     1      17.776  17.145   8.686  1.00  0.00     0.010 C 
ATOM     17  C   UNL     1      18.187  17.211   6.271  1.00  0.00     0.006 C 
ATOM     18  C   UNL     1      17.790  15.701   8.177  1.00  0.00     0.041 C 
ATOM     19  C   UNL     1      18.424  15.731   6.771  1.00  0.00     0.092 C 
ATOM     20  C   UNL     1      16.717  17.382   5.736  1.00  0.00     0.011 C 
ATOM     21  C   UNL     1      19.178  17.609   5.138  1.00  0.00     0.015 C 
ATOM     22  C   UNL     1      17.791  14.704   5.813  1.00  0.00    -0.031 C 
ATOM     23  C   UNL     1      16.275  16.280   4.743  1.00  0.00     0.009 C 
ATOM     24  C   UNL     1      16.331  14.912   5.448  1.00  0.00     0.025 C 
ATOM     25  C   UNL     1      18.567  13.980   4.988  1.00  0.00     0.050 C 
ATOM     26  C   UNL     1      15.663  13.663   4.730  1.00  0.00    -0.013 C 
ATOM     27  C   UNL     1      18.039  13.395   3.756  1.00  0.00     0.159 C 
ATOM     28  C   UNL     1      16.590  13.013   3.625  1.00  0.00     0.070 C 
ATOM     29  C   UNL     1      15.357  12.610   5.837  1.00  0.00     0.042 C 
ATOM     30  C   UNL     1      14.315  14.112   4.091  1.00  0.00     0.013 C 
ATOM     31  O   UNL     1      18.830  13.161   2.803  1.00  0.00    -0.295 OA
ATOM     32  C   UNL     1      16.546  11.458   3.594  1.00  0.00     0.047 C 
ATOM     33  C   UNL     1      14.702  11.296   5.341  1.00  0.00     0.143 C 
ATOM     34  C   UNL     1      15.163  10.881   3.919  1.00  0.00     0.143 C 
BRANCH  19  35
ATOM     35  O   UNL     1      19.801  15.460   6.988  1.00  0.00    -0.385 OA
ATOM     36  H   UNL     1      19.945  14.494   7.138  1.00  0.00     0.211 HD
ENDBRANCH  19  35
BRANCH  33  37
ATOM     37  O   UNL     1      13.305  11.420   5.382  1.00  0.00    -0.390 OA
ATOM     38  H   UNL     1      13.079  12.302   4.992  1.00  0.00     0.211 HD
ENDBRANCH  33  37
BRANCH  34  39
ATOM     39  O   UNL     1      15.213   9.479   3.849  1.00  0.00    -0.390 OA
ATOM     40  H   UNL     1      14.788   9.130   4.679  1.00  0.00     0.211 HD
ENDBRANCH  34  39
ENDBRANCH   1  15
BRANCH   1  41
ATOM     41  O   UNL     1      19.212  20.243   8.333  1.00  0.00    -0.387 OA
ATOM     42  H   UNL     1      19.023  21.210   8.334  1.00  0.00     0.211 HD
ENDBRANCH   1  41
TORSDOF 9
ENDMDL
MODEL 2
REMARK VINA RESULT:    -5.262      1.443      1.648
REMARK INTER + INTRA:          -7.996
REMARK INTER:                  -6.972
REMARK INTRA:                  -1.025
REMARK UNBOUND:                -0.735
REMARK SMILES C[C@@H]1OC(=O)[C@H](C)[C@H]1C[C@@H](O)[C@](C)(O)[C@H]1CC[C@@]2(O)C3=CC(=O)[C@H]4C[C@@H](O)[C@H](O)C[C@@]4(C)[C@@H]3CC[C@@]12C
REMARK SMILES IDX 12 1 13 2 10 3 9 4 8 5 7 6 6 7 4 8 2 9 3 10 5 11 1 12 11 13
REMARK SMILES IDX 15 15 16 16 36 17 17 18 18 19 35 20 37 21 20 22 34 23 33 24
REMARK SMILES IDX 21 25 31 26 22 27 24 28 30 29 32 30 23 31 25 32 28 33 26 34
REMARK SMILES IDX 19 35 29 37 27 39 14 41
REMARK H PARENT 11 14 19 36 29 38 27 40 14 42
REMARK Flexibility Score: inf
ROOT
ATOM      1  C   UNL     1      18.469  20.181   7.188  1.00  0.00     0.091 C 
ATOM      2  C   UNL     1      17.828  21.269   8.084  1.00  0.00     0.045 C 
ENDROOT
BRANCH   1   3
ATOM      3  C   UNL     1      18.159  20.521   5.677  1.00  0.00     0.146 C 
BRANCH   3   4
ATOM      4  C   UNL     1      16.968  21.509   5.470  1.00  0.00     0.043 C 
BRANCH   4   5
ATOM      5  C   UNL     1      16.049  21.131   4.283  1.00  0.00     0.046 C 
ATOM      6  C   UNL     1      15.901  22.625   2.203  1.00  0.00     0.020 C 
ATOM      7  C   UNL     1      15.436  22.413   3.647  1.00  0.00     0.103 C 
ATOM      8  C   UNL     1      13.982  22.156   3.712  1.00  0.00     0.309 C 
ATOM      9  C   UNL     1      14.834  20.252   4.724  1.00  0.00     0.177 C 
ATOM     10  O   UNL     1      13.673  20.948   4.299  1.00  0.00    -0.462 OA
ATOM     11  O   UNL     1      13.102  22.973   3.331  1.00  0.00    -0.252 OA
ATOM     12  C   UNL     1      14.859  18.860   4.088  1.00  0.00     0.053 C 
ENDBRANCH   4   5
ENDBRANCH   3   4
BRANCH   3  13
ATOM     13  O   UNL     1      19.324  20.977   5.021  1.00  0.00    -0.390 OA
ATOM     14  H   UNL     1      19.060  21.623   4.321  1.00  0.00     0.211 HD
ENDBRANCH   3  13
ENDBRANCH   1   3
BRANCH   1  15
ATOM     15  C   UNL     1      17.944  18.713   7.518  1.00  0.00     0.032 C 
ATOM     16  C   UNL     1      16.401  18.607   7.532  1.00  0.00     0.010 C 
ATOM     17  C   UNL     1      18.396  17.443   6.714  1.00  0.00     0.006 C 
ATOM     18  C   UNL     1      16.055  17.120   7.411  1.00  0.00     0.041 C 
ATOM     19  C   UNL     1      17.391  16.362   7.280  1.00  0.00     0.092 C 
ATOM     20  C   UNL     1      18.208  17.609   5.161  1.00  0.00     0.011 C 
ATOM     21  C   UNL     1      19.880  17.063   6.997  1.00  0.00     0.015 C 
ATOM     22  C   UNL     1      17.292  15.142   6.344  1.00  0.00    -0.031 C 
ATOM     23  C   UNL     1      18.182  16.273   4.381  1.00  0.00     0.009 C 
ATOM     24  C   UNL     1      17.001  15.419   4.879  1.00  0.00     0.025 C 
ATOM     25  C   UNL     1      17.885  13.983   6.678  1.00  0.00     0.050 C 
ATOM     26  C   UNL     1      16.596  14.128   4.047  1.00  0.00    -0.013 C 
ATOM     27  C   UNL     1      18.257  12.994   5.666  1.00  0.00     0.159 C 
ATOM     28  C   UNL     1      17.502  12.873   4.370  1.00  0.00     0.070 C 
ATOM     29  C   UNL     1      15.113  13.804   4.400  1.00  0.00     0.042 C 
ATOM     30  C   UNL     1      16.680  14.463   2.528  1.00  0.00     0.013 C 
ATOM     31  O   UNL     1      19.199  12.193   5.912  1.00  0.00    -0.295 OA
ATOM     32  C   UNL     1      16.724  11.528   4.440  1.00  0.00     0.047 C 
ATOM     33  C   UNL     1      14.520  12.560   3.692  1.00  0.00     0.143 C 
ATOM     34  C   UNL     1      15.566  11.443   3.437  1.00  0.00     0.143 C 
BRANCH  19  35
ATOM     35  O   UNL     1      17.722  15.975   8.605  1.00  0.00    -0.385 OA
ATOM     36  H   UNL     1      16.902  15.853   9.144  1.00  0.00     0.211 HD
ENDBRANCH  19  35
BRANCH  33  37
ATOM     37  O   UNL     1      13.917  12.946   2.485  1.00  0.00    -0.390 OA
ATOM     38  H   UNL     1      14.644  13.219   1.871  1.00  0.00     0.211 HD
ENDBRANCH  33  37
BRANCH  34  39
ATOM     39  O   UNL     1      14.934  10.194   3.558  1.00  0.00    -0.390 OA
ATOM     40  H   UNL     1      15.204   9.654   2.766  1.00  0.00     0.211 HD
ENDBRANCH  34  39
ENDBRANCH   1  15
BRANCH   1  41
ATOM     41  O   UNL     1      19.870  20.249   7.334  1.00  0.00    -0.387 OA
ATOM     42  H   UNL     1      20.110  21.141   7.679  1.00  0.00     0.211 HD
ENDBRANCH   1  41
TORSDOF 9
ENDMDL
MODEL 3
REMARK VINA RESULT:    -4.956      2.172      3.864
REMARK INTER + INTRA:          -7.574
REMARK INTER:                  -6.728
REMARK INTRA:                  -0.846
REMARK UNBOUND:                -0.735
REMARK SMILES C[C@@H]1OC(=O)[C@H](C)[C@H]1C[C@@H](O)[C@](C)(O)[C@H]1CC[C@@]2(O)C3=CC(=O)[C@H]4C[C@@H](O)[C@H](O)C[C@@]4(C)[C@@H]3CC[C@@]12C
REMARK SMILES IDX 12 1 13 2 10 3 9 4 8 5 7 6 6 7 4 8 2 9 3 10 5 11 1 12 11 13
REMARK SMILES IDX 15 15 16 16 36 17 17 18 18 19 35 20 37 21 20 22 34 23 33 24
REMARK SMILES IDX 21 25 31 26 22 27 24 28 30 29 32 30 23 31 25 32 28 33 26 34
REMARK SMILES IDX 19 35 29 37 27 39 14 41
REMARK H PARENT 11 14 19 36 29 38 27 40 14 42
REMARK Flexibility Score: inf
ROOT
ATOM      1  C   UNL     1      14.397  21.015   3.596  1.00  0.00     0.091 C 
ATOM      2  C   UNL     1      13.860  20.722   2.174  1.00  0.00     0.045 C 
ENDROOT
BRANCH   1   3
ATOM      3  C   UNL     1      15.133  22.411   3.583  1.00  0.00     0.146 C 
BRANCH   3   4
ATOM      4  C   UNL     1      16.500  22.413   2.827  1.00  0.00     0.043 C 
BRANCH   4   5
ATOM      5  C   UNL     1      17.689  21.933   3.694  1.00  0.00     0.046 C 
ATOM      6  C   UNL     1      17.600  22.087   6.253  1.00  0.00     0.020 C 
ATOM      7  C   UNL     1      17.846  22.846   4.945  1.00  0.00     0.103 C 
ATOM      8  C   UNL     1      19.246  23.310   4.846  1.00  0.00     0.309 C 
ATOM      9  C   UNL     1      19.052  22.013   2.935  1.00  0.00     0.177 C 
ATOM     10  O   UNL     1      19.898  22.825   3.734  1.00  0.00    -0.462 OA
ATOM     11  O   UNL     1      19.782  24.115   5.654  1.00  0.00    -0.252 OA
ATOM     12  C   UNL     1      19.696  20.638   2.742  1.00  0.00     0.053 C 
ENDBRANCH   4   5
ENDBRANCH   3   4
BRANCH   3  13
ATOM     13  O   UNL     1      14.276  23.422   3.095  1.00  0.00    -0.390 OA
ATOM     14  H   UNL     1      14.419  23.515   2.121  1.00  0.00     0.211 HD
ENDBRANCH   3  13
ENDBRANCH   1   3
BRANCH   1  15
ATOM     15  C   UNL     1      15.398  19.894   4.127  1.00  0.00     0.032 C 
ATOM     16  C   UNL     1      15.101  19.450   5.579  1.00  0.00     0.010 C 
ATOM     17  C   UNL     1      15.648  18.543   3.369  1.00  0.00     0.006 C 
ATOM     18  C   UNL     1      15.811  18.109   5.789  1.00  0.00     0.041 C 
ATOM     19  C   UNL     1      16.484  17.748   4.450  1.00  0.00     0.092 C 
ATOM     20  C   UNL     1      14.314  17.779   3.034  1.00  0.00     0.011 C 
ATOM     21  C   UNL     1      16.449  18.747   2.048  1.00  0.00     0.015 C 
ATOM     22  C   UNL     1      16.470  16.233   4.169  1.00  0.00    -0.031 C 
ATOM     23  C   UNL     1      14.507  16.274   2.730  1.00  0.00     0.009 C 
ATOM     24  C   UNL     1      15.113  15.582   3.966  1.00  0.00     0.025 C 
ATOM     25  C   UNL     1      17.559  15.629   3.664  1.00  0.00     0.050 C 
ATOM     26  C   UNL     1      15.148  13.995   4.003  1.00  0.00    -0.013 C 
ATOM     27  C   UNL     1      17.464  14.369   2.925  1.00  0.00     0.159 C 
ATOM     28  C   UNL     1      16.362  13.381   3.196  1.00  0.00     0.070 C 
ATOM     29  C   UNL     1      15.254  13.576   5.500  1.00  0.00     0.042 C 
ATOM     30  C   UNL     1      13.804  13.450   3.432  1.00  0.00     0.013 C 
ATOM     31  O   UNL     1      18.356  14.087   2.081  1.00  0.00    -0.295 OA
ATOM     32  C   UNL     1      17.029  12.156   3.884  1.00  0.00     0.047 C 
ATOM     33  C   UNL     1      15.310  12.049   5.759  1.00  0.00     0.143 C 
ATOM     34  C   UNL     1      16.033  11.263   4.633  1.00  0.00     0.143 C 
BRANCH  19  35
ATOM     35  O   UNL     1      17.809  18.244   4.563  1.00  0.00    -0.385 OA
ATOM     36  H   UNL     1      18.461  17.559   4.275  1.00  0.00     0.211 HD
ENDBRANCH  19  35
BRANCH  33  37
ATOM     37  O   UNL     1      14.010  11.553   5.941  1.00  0.00    -0.390 OA
ATOM     38  H   UNL     1      13.542  11.637   5.073  1.00  0.00     0.211 HD
ENDBRANCH  33  37
BRANCH  34  39
ATOM     39  O   UNL     1      16.717  10.177   5.205  1.00  0.00    -0.390 OA
ATOM     40  H   UNL     1      17.341  10.551   5.885  1.00  0.00     0.211 HD
ENDBRANCH  34  39
ENDBRANCH   1  15
BRANCH   1  41
ATOM     41  O   UNL     1      13.299  21.150   4.470  1.00  0.00    -0.387 OA
ATOM     42  H   UNL     1      13.096  22.109   4.579  1.00  0.00     0.211 HD
ENDBRANCH   1  41
TORSDOF 9
ENDMDL
MODEL 4
REMARK VINA RESULT:    -4.793      1.752      3.443
REMARK INTER + INTRA:          -7.349
REMARK INTER:                  -5.938
REMARK INTRA:                  -1.411
REMARK UNBOUND:                -0.735
REMARK SMILES C[C@@H]1OC(=O)[C@H](C)[C@H]1C[C@@H](O)[C@](C)(O)[C@H]1CC[C@@]2(O)C3=CC(=O)[C@H]4C[C@@H](O)[C@H](O)C[C@@]4(C)[C@@H]3CC[C@@]12C
REMARK SMILES IDX 12 1 13 2 10 3 9 4 8 5 7 6 6 7 4 8 2 9 3 10 5 11 1 12 11 13
REMARK SMILES IDX 15 15 16 16 36 17 17 18 18 19 35 20 37 21 20 22 34 23 33 24
REMARK SMILES IDX 21 25 31 26 22 27 24 28 30 29 32 30 23 31 25 32 28 33 26 34
REMARK SMILES IDX 19 35 29 37 27 39 14 41
REMARK H PARENT 11 14 19 36 29 38 27 40 14 42
REMARK Flexibility Score: inf
ROOT
ATOM      1  C   UNL     1      17.366  19.448   6.179  1.00  0.00     0.091 C 
ATOM      2  C   UNL     1      16.455  19.688   7.408  1.00  0.00     0.045 C 
ENDROOT
BRANCH   1   3
ATOM      3  C   UNL     1      17.539  20.811   5.402  1.00  0.00     0.146 C 
BRANCH   3   4
ATOM      4  C   UNL     1      16.295  21.752   5.464  1.00  0.00     0.043 C 
BRANCH   4   5
ATOM      5  C   UNL     1      15.528  21.855   4.123  1.00  0.00     0.046 C 
ATOM      6  C   UNL     1      12.974  21.625   4.045  1.00  0.00     0.020 C 
ATOM      7  C   UNL     1      14.312  20.883   4.122  1.00  0.00     0.103 C 
ATOM      8  C   UNL     1      14.543  20.061   2.914  1.00  0.00     0.309 C 
ATOM      9  C   UNL     1      16.406  21.441   2.899  1.00  0.00     0.177 C 
ATOM     10  O   UNL     1      15.700  20.398   2.246  1.00  0.00    -0.462 OA
ATOM     11  O   UNL     1      13.801  19.109   2.555  1.00  0.00    -0.252 OA
ATOM     12  C   UNL     1      16.629  22.598   1.922  1.00  0.00     0.053 C 
ENDBRANCH   4   5
ENDBRANCH   3   4
BRANCH   3  13
ATOM     13  O   UNL     1      18.709  21.480   5.825  1.00  0.00    -0.390 OA
ATOM     14  H   UNL     1      19.343  21.520   5.067  1.00  0.00     0.211 HD
ENDBRANCH   3  13
ENDBRANCH   1   3
BRANCH   1  15
ATOM     15  C   UNL     1      16.793  18.342   5.185  1.00  0.00     0.032 C 
ATOM     16  C   UNL     1      17.634  18.187   3.896  1.00  0.00     0.010 C 
ATOM     17  C   UNL     1      16.509  16.862   5.624  1.00  0.00     0.006 C 
ATOM     18  C   UNL     1      17.255  16.839   3.276  1.00  0.00     0.041 C 
ATOM     19  C   UNL     1      16.228  16.187   4.223  1.00  0.00     0.092 C 
ATOM     20  C   UNL     1      17.749  16.189   6.321  1.00  0.00     0.011 C 
ATOM     21  C   UNL     1      15.284  16.755   6.579  1.00  0.00     0.015 C 
ATOM     22  C   UNL     1      16.378  14.655   4.297  1.00  0.00    -0.031 C 
ATOM     23  C   UNL     1      17.698  14.642   6.342  1.00  0.00     0.009 C 
ATOM     24  C   UNL     1      17.667  14.117   4.894  1.00  0.00     0.025 C 
ATOM     25  C   UNL     1      15.289  13.868   4.293  1.00  0.00     0.050 C 
ATOM     26  C   UNL     1      17.892  12.565   4.647  1.00  0.00    -0.013 C 
ATOM     27  C   UNL     1      15.318  12.516   4.850  1.00  0.00     0.159 C 
ATOM     28  C   UNL     1      16.585  11.704   4.875  1.00  0.00     0.070 C 
ATOM     29  C   UNL     1      18.371  12.402   3.173  1.00  0.00     0.042 C 
ATOM     30  C   UNL     1      19.025  12.065   5.592  1.00  0.00     0.013 C 
ATOM     31  O   UNL     1      14.246  12.005   5.271  1.00  0.00    -0.295 OA
ATOM     32  C   UNL     1      16.391  10.556   3.844  1.00  0.00     0.047 C 
ATOM     33  C   UNL     1      18.643  10.945   2.722  1.00  0.00     0.143 C 
ATOM     34  C   UNL     1      17.709   9.908   3.400  1.00  0.00     0.143 C 
BRANCH  19  35
ATOM     35  O   UNL     1      14.962  16.561   3.701  1.00  0.00    -0.385 OA
ATOM     36  H   UNL     1      14.330  16.761   4.434  1.00  0.00     0.211 HD
ENDBRANCH  19  35
BRANCH  33  37
ATOM     37  O   UNL     1      19.987  10.619   2.962  1.00  0.00    -0.390 OA
ATOM     38  H   UNL     1      19.994   9.764   3.463  1.00  0.00     0.211 HD
ENDBRANCH  33  37
BRANCH  34  39
ATOM     39  O   UNL     1      17.438   8.875   2.487  1.00  0.00    -0.390 OA
ATOM     40  H   UNL     1      16.476   8.946   2.244  1.00  0.00     0.211 HD
ENDBRANCH  34  39
ENDBRANCH   1  15
BRANCH   1  41
ATOM     41  O   UNL     1      18.649  19.083   6.637  1.00  0.00    -0.387 OA
ATOM     42  H   UNL     1      18.551  18.411   7.352  1.00  0.00     0.211 HD
ENDBRANCH   1  41
TORSDOF 9
ENDMDL
MODEL 5
REMARK VINA RESULT:    -4.782      1.957      3.330
REMARK INTER + INTRA:          -7.335
REMARK INTER:                  -5.839
REMARK INTRA:                  -1.495
REMARK UNBOUND:                -0.735
REMARK SMILES C[C@@H]1OC(=O)[C@H](C)[C@H]1C[C@@H](O)[C@](C)(O)[C@H]1CC[C@@]2(O)C3=CC(=O)[C@H]4C[C@@H](O)[C@H](O)C[C@@]4(C)[C@@H]3CC[C@@]12C
REMARK SMILES IDX 12 1 13 2 10 3 9 4 8 5 7 6 6 7 4 8 2 9 3 10 5 11 1 12 11 13
REMARK SMILES IDX 15 15 16 16 36 17 17 18 18 19 35 20 37 21 20 22 34 23 33 24
REMARK SMILES IDX 21 25 31 26 22 27 24 28 30 29 32 30 23 31 25 32 28 33 26 34
REMARK SMILES IDX 19 35 29 37 27 39 14 41
REMARK H PARENT 11 14 19 36 29 38 27 40 14 42
REMARK Flexibility Score: inf
ROOT
ATOM      1  C   UNL     1      17.792  19.957   5.965  1.00  0.00     0.091 C 
ATOM      2  C   UNL     1      16.730  20.125   7.078  1.00  0.00     0.045 C 
ENDROOT
BRANCH   1   3
ATOM      3  C   UNL     1      18.186  21.385   5.420  1.00  0.00     0.146 C 
BRANCH   3   4
ATOM      4  C   UNL     1      16.997  22.392   5.330  1.00  0.00     0.043 C 
BRANCH   4   5
ATOM      5  C   UNL     1      16.525  22.668   3.882  1.00  0.00     0.046 C 
ATOM      6  C   UNL     1      14.093  23.316   3.389  1.00  0.00     0.020 C 
ATOM      7  C   UNL     1      15.063  22.169   3.687  1.00  0.00     0.103 C 
ATOM      8  C   UNL     1      15.177  21.246   2.538  1.00  0.00     0.309 C 
ATOM      9  C   UNL     1      17.381  21.906   2.820  1.00  0.00     0.177 C 
ATOM     10  O   UNL     1      16.465  21.128   2.066  1.00  0.00    -0.462 OA
ATOM     11  O   UNL     1      14.215  20.583   2.067  1.00  0.00    -0.252 OA
ATOM     12  C   UNL     1      18.136  22.856   1.886  1.00  0.00     0.053 C 
ENDBRANCH   4   5
ENDBRANCH   3   4
BRANCH   3  13
ATOM     13  O   UNL     1      19.259  21.923   6.165  1.00  0.00    -0.390 OA
ATOM     14  H   UNL     1      18.892  22.525   6.859  1.00  0.00     0.211 HD
ENDBRANCH   3  13
ENDBRANCH   1   3
BRANCH   1  15
ATOM     15  C   UNL     1      17.288  19.050   4.755  1.00  0.00     0.032 C 
ATOM     16  C   UNL     1      18.431  18.276   4.056  1.00  0.00     0.010 C 
ATOM     17  C   UNL     1      16.151  17.979   4.905  1.00  0.00     0.006 C 
ATOM     18  C   UNL     1      17.779  17.148   3.252  1.00  0.00     0.041 C 
ATOM     19  C   UNL     1      16.262  17.233   3.515  1.00  0.00     0.092 C 
ATOM     20  C   UNL     1      16.416  16.976   6.089  1.00  0.00     0.011 C 
ATOM     21  C   UNL     1      14.751  18.629   5.107  1.00  0.00     0.015 C 
ATOM     22  C   UNL     1      15.590  15.848   3.564  1.00  0.00    -0.031 C 
ATOM     23  C   UNL     1      15.612  15.658   5.991  1.00  0.00     0.009 C 
ATOM     24  C   UNL     1      16.003  14.922   4.696  1.00  0.00     0.025 C 
ATOM     25  C   UNL     1      14.402  15.651   2.968  1.00  0.00     0.050 C 
ATOM     26  C   UNL     1      15.524  13.419   4.505  1.00  0.00    -0.013 C 
ATOM     27  C   UNL     1      13.504  14.573   3.385  1.00  0.00     0.159 C 
ATOM     28  C   UNL     1      14.032  13.303   3.995  1.00  0.00     0.070 C 
ATOM     29  C   UNL     1      16.482  12.764   3.464  1.00  0.00     0.042 C 
ATOM     30  C   UNL     1      15.680  12.667   5.860  1.00  0.00     0.013 C 
ATOM     31  O   UNL     1      12.267  14.695   3.180  1.00  0.00    -0.295 OA
ATOM     32  C   UNL     1      13.805  12.182   2.941  1.00  0.00     0.047 C 
ATOM     33  C   UNL     1      16.180  11.283   3.126  1.00  0.00     0.143 C 
ATOM     34  C   UNL     1      14.668  10.937   3.182  1.00  0.00     0.143 C 
BRANCH  19  35
ATOM     35  O   UNL     1      15.752  18.022   2.450  1.00  0.00    -0.385 OA
ATOM     36  H   UNL     1      15.040  17.533   1.968  1.00  0.00     0.211 HD
ENDBRANCH  19  35
BRANCH  33  37
ATOM     37  O   UNL     1      16.902  10.444   3.989  1.00  0.00    -0.390 OA
ATOM     38  H   UNL     1      17.803  10.841   4.093  1.00  0.00     0.211 HD
ENDBRANCH  33  37
BRANCH  34  39
ATOM     39  O   UNL     1      14.386   9.975   2.197  1.00  0.00    -0.390 OA
ATOM     40  H   UNL     1      14.300   9.099   2.662  1.00  0.00     0.211 HD
ENDBRANCH  34  39
ENDBRANCH   1  15
BRANCH   1  41
ATOM     41  O   UNL     1      18.959  19.411   6.538  1.00  0.00    -0.387 OA
ATOM     42  H   UNL     1      19.005  18.452   6.312  1.00  0.00     0.211 HD
ENDBRANCH   1  41
TORSDOF 9
ENDMDL
MODEL 6
REMARK VINA RESULT:    -4.732      4.959      8.714
REMARK INTER + INTRA:          -7.265
REMARK INTER:                  -6.862
REMARK INTRA:                  -0.403
REMARK UNBOUND:                -0.735
REMARK SMILES C[C@@H]1OC(=O)[C@H](C)[C@H]1C[C@@H](O)[C@](C)(O)[C@H]1CC[C@@]2(O)C3=CC(=O)[C@H]4C[C@@H](O)[C@H](O)C[C@@]4(C)[C@@H]3CC[C@@]12C
REMARK SMILES IDX 12 1 13 2 10 3 9 4 8 5 7 6 6 7 4 8 2 9 3 10 5 11 1 12 11 13
REMARK SMILES IDX 15 15 16 16 36 17 17 18 18 19 35 20 37 21 20 22 34 23 33 24
REMARK SMILES IDX 21 25 31 26 22 27 24 28 30 29 32 30 23 31 25 32 28 33 26 34
REMARK SMILES IDX 19 35 29 37 27 39 14 41
REMARK H PARENT 11 14 19 36 29 38 27 40 14 42
REMARK Flexibility Score: inf
ROOT
ATOM      1  C   UNL     1      20.168  20.384  11.921  1.00  0.00     0.091 C 
ATOM      2  C   UNL     1      21.125  19.421  12.664  1.00  0.00     0.045 C 
ENDROOT
BRANCH   1   3
ATOM      3  C   UNL     1      19.369  21.229  12.989  1.00  0.00     0.146 C 
BRANCH   3   4
ATOM      4  C   UNL     1      19.601  20.786  14.468  1.00  0.00     0.043 C 
BRANCH   4   5
ATOM      5  C   UNL     1      19.086  21.807  15.510  1.00  0.00     0.046 C 
ATOM      6  C   UNL     1      20.633  23.625  16.449  1.00  0.00     0.020 C 
ATOM      7  C   UNL     1      20.213  22.154  16.527  1.00  0.00     0.103 C 
ATOM      8  C   UNL     1      19.594  21.839  17.832  1.00  0.00     0.309 C 
ATOM      9  C   UNL     1      17.902  21.247  16.362  1.00  0.00     0.177 C 
ATOM     10  O   UNL     1      18.310  21.352  17.716  1.00  0.00    -0.462 OA
ATOM     11  O   UNL     1      20.187  21.941  18.938  1.00  0.00    -0.252 OA
ATOM     12  C   UNL     1      16.608  22.037  16.154  1.00  0.00     0.053 C 
ENDBRANCH   4   5
ENDBRANCH   3   4
BRANCH   3  13
ATOM     13  O   UNL     1      19.621  22.609  12.822  1.00  0.00    -0.390 OA
ATOM     14  H   UNL     1      19.584  22.823  11.857  1.00  0.00     0.211 HD
ENDBRANCH   3  13
ENDBRANCH   1   3
BRANCH   1  15
ATOM     15  C   UNL     1      19.138  19.627  10.968  1.00  0.00     0.032 C 
ATOM     16  C   UNL     1      17.696  20.177  11.071  1.00  0.00     0.010 C 
ATOM     17  C   UNL     1      19.364  19.465   9.424  1.00  0.00     0.006 C 
ATOM     18  C   UNL     1      16.944  19.693   9.828  1.00  0.00     0.041 C 
ATOM     19  C   UNL     1      17.957  18.900   8.977  1.00  0.00     0.092 C 
ATOM     20  C   UNL     1      19.661  20.833   8.707  1.00  0.00     0.011 C 
ATOM     21  C   UNL     1      20.519  18.472   9.098  1.00  0.00     0.015 C 
ATOM     22  C   UNL     1      17.731  19.084   7.464  1.00  0.00    -0.031 C 
ATOM     23  C   UNL     1      19.424  20.809   7.177  1.00  0.00     0.009 C 
ATOM     24  C   UNL     1      17.946  20.478   6.899  1.00  0.00     0.025 C 
ATOM     25  C   UNL     1      17.817  18.030   6.635  1.00  0.00     0.050 C 
ATOM     26  C   UNL     1      17.393  20.666   5.423  1.00  0.00    -0.013 C 
ATOM     27  C   UNL     1      18.114  18.196   5.212  1.00  0.00     0.159 C 
ATOM     28  C   UNL     1      17.735  19.450   4.471  1.00  0.00     0.070 C 
ATOM     29  C   UNL     1      15.846  20.822   5.531  1.00  0.00     0.042 C 
ATOM     30  C   UNL     1      17.981  21.982   4.830  1.00  0.00     0.013 C 
ATOM     31  O   UNL     1      18.654  17.245   4.585  1.00  0.00    -0.295 OA
ATOM     32  C   UNL     1      16.583  19.057   3.502  1.00  0.00     0.047 C 
ATOM     33  C   UNL     1      15.103  21.012   4.185  1.00  0.00     0.143 C 
ATOM     34  C   UNL     1      15.771  20.259   3.004  1.00  0.00     0.143 C 
BRANCH  19  35
ATOM     35  O   UNL     1      17.781  17.547   9.369  1.00  0.00    -0.385 OA
ATOM     36  H   UNL     1      17.433  17.011   8.615  1.00  0.00     0.211 HD
ENDBRANCH  19  35
BRANCH  33  37
ATOM     37  O   UNL     1      14.999  22.381   3.891  1.00  0.00    -0.390 OA
ATOM     38  H   UNL     1      14.650  22.454   2.967  1.00  0.00     0.211 HD
ENDBRANCH  33  37
BRANCH  34  39
ATOM     39  O   UNL     1      14.769  19.813   2.125  1.00  0.00    -0.390 OA
ATOM     40  H   UNL     1      13.988  20.419   2.243  1.00  0.00     0.211 HD
ENDBRANCH  34  39
ENDBRANCH   1  15
BRANCH   1  41
ATOM     41  O   UNL     1      20.941  21.302  11.182  1.00  0.00    -0.387 OA
ATOM     42  H   UNL     1      20.438  21.566  10.376  1.00  0.00     0.211 HD
ENDBRANCH   1  41
TORSDOF 9
ENDMDL
MODEL 7
REMARK VINA RESULT:    -4.586      1.816      3.321
REMARK INTER + INTRA:          -7.064
REMARK INTER:                  -5.966
REMARK INTRA:                  -1.098
REMARK UNBOUND:                -0.735
REMARK SMILES C[C@@H]1OC(=O)[C@H](C)[C@H]1C[C@@H](O)[C@](C)(O)[C@H]1CC[C@@]2(O)C3=CC(=O)[C@H]4C[C@@H](O)[C@H](O)C[C@@]4(C)[C@@H]3CC[C@@]12C
REMARK SMILES IDX 12 1 13 2 10 3 9 4 8 5 7 6 6 7 4 8 2 9 3 10 5 11 1 12 11 13
REMARK SMILES IDX 15 15 16 16 36 17 17 18 18 19 35 20 37 21 20 22 34 23 33 24
REMARK SMILES IDX 21 25 31 26 22 27 24 28 30 29 32 30 23 31 25 32 28 33 26 34
REMARK SMILES IDX 19 35 29 37 27 39 14 41
REMARK H PARENT 11 14 19 36 29 38 27 40 14 42
REMARK Flexibility Score: inf
ROOT
ATOM      1  C   UNL     1      19.246  22.180   7.271  1.00  0.00     0.091 C 
ATOM      2  C   UNL     1      18.602  23.497   7.769  1.00  0.00     0.045 C 
ENDROOT
BRANCH   1   3
ATOM      3  C   UNL     1      19.248  22.181   5.692  1.00  0.00     0.146 C 
BRANCH   3   4
ATOM      4  C   UNL     1      18.149  23.082   5.046  1.00  0.00     0.043 C 
BRANCH   4   5
ATOM      5  C   UNL     1      17.352  22.378   3.922  1.00  0.00     0.046 C 
ATOM      6  C   UNL     1      14.987  23.153   3.299  1.00  0.00     0.020 C 
ATOM      7  C   UNL     1      15.837  22.338   4.279  1.00  0.00     0.103 C 
ATOM      8  C   UNL     1      15.514  20.897   4.202  1.00  0.00     0.309 C 
ATOM      9  C   UNL     1      17.782  20.889   3.725  1.00  0.00     0.177 C 
ATOM     10  O   UNL     1      16.603  20.117   3.881  1.00  0.00    -0.462 OA
ATOM     11  O   UNL     1      14.381  20.413   4.462  1.00  0.00    -0.252 OA
ATOM     12  C   UNL     1      18.384  20.633   2.341  1.00  0.00     0.053 C 
ENDBRANCH   4   5
ENDBRANCH   3   4
BRANCH   3  13
ATOM     13  O   UNL     1      20.531  22.502   5.197  1.00  0.00    -0.390 OA
ATOM     14  H   UNL     1      21.015  21.662   5.004  1.00  0.00     0.211 HD
ENDBRANCH   3  13
ENDBRANCH   1   3
BRANCH   1  15
ATOM     15  C   UNL     1      18.490  20.880   7.798  1.00  0.00     0.032 C 
ATOM     16  C   UNL     1      17.002  20.829   7.380  1.00  0.00     0.010 C 
ATOM     17  C   UNL     1      19.004  19.422   7.523  1.00  0.00     0.006 C 
ATOM     18  C   UNL     1      16.540  19.379   7.550  1.00  0.00     0.041 C 
ATOM     19  C   UNL     1      17.767  18.574   8.023  1.00  0.00     0.092 C 
ATOM     20  C   UNL     1      19.273  19.153   5.996  1.00  0.00     0.011 C 
ATOM     21  C   UNL     1      20.299  19.092   8.322  1.00  0.00     0.015 C 
ATOM     22  C   UNL     1      17.797  17.144   7.449  1.00  0.00    -0.031 C 
ATOM     23  C   UNL     1      19.317  17.653   5.618  1.00  0.00     0.009 C 
ATOM     24  C   UNL     1      17.957  17.009   5.945  1.00  0.00     0.025 C 
ATOM     25  C   UNL     1      18.142  16.108   8.232  1.00  0.00     0.050 C 
ATOM     26  C   UNL     1      17.658  15.550   5.394  1.00  0.00    -0.013 C 
ATOM     27  C   UNL     1      18.668  14.864   7.669  1.00  0.00     0.159 C 
ATOM     28  C   UNL     1      18.294  14.408   6.285  1.00  0.00     0.070 C 
ATOM     29  C   UNL     1      16.109  15.382   5.361  1.00  0.00     0.042 C 
ATOM     30  C   UNL     1      18.197  15.443   3.936  1.00  0.00     0.013 C 
ATOM     31  O   UNL     1      19.410  14.136   8.382  1.00  0.00    -0.295 OA
ATOM     32  C   UNL     1      17.382  13.161   6.465  1.00  0.00     0.047 C 
ATOM     33  C   UNL     1      15.602  14.008   4.856  1.00  0.00     0.143 C 
ATOM     34  C   UNL     1      16.546  12.833   5.222  1.00  0.00     0.143 C 
BRANCH  19  35
ATOM     35  O   UNL     1      17.672  18.564   9.440  1.00  0.00    -0.385 OA
ATOM     36  H   UNL     1      17.601  17.637   9.775  1.00  0.00     0.211 HD
ENDBRANCH  19  35
BRANCH  33  37
ATOM     37  O   UNL     1      15.404  14.059   3.467  1.00  0.00    -0.390 OA
ATOM     38  H   UNL     1      15.554  14.997   3.186  1.00  0.00     0.211 HD
ENDBRANCH  33  37
BRANCH  34  39
ATOM     39  O   UNL     1      15.771  11.687   5.467  1.00  0.00    -0.390 OA
ATOM     40  H   UNL     1      15.158  11.906   6.220  1.00  0.00     0.211 HD
ENDBRANCH  34  39
ENDBRANCH   1  15
BRANCH   1  41
ATOM     41  O   UNL     1      20.597  22.163   7.673  1.00  0.00    -0.387 OA
ATOM     42  H   UNL     1      20.636  22.051   8.652  1.00  0.00     0.211 HD
ENDBRANCH   1  41
TORSDOF 9
ENDMDL
MODEL 8
REMARK VINA RESULT:    -4.563      1.991      4.222
REMARK INTER + INTRA:          -7.032
REMARK INTER:                  -6.198
REMARK INTRA:                  -0.835
REMARK UNBOUND:                -0.735
REMARK SMILES C[C@@H]1OC(=O)[C@H](C)[C@H]1C[C@@H](O)[C@](C)(O)[C@H]1CC[C@@]2(O)C3=CC(=O)[C@H]4C[C@@H](O)[C@H](O)C[C@@]4(C)[C@@H]3CC[C@@]12C
REMARK SMILES IDX 12 1 13 2 10 3 9 4 8 5 7 6 6 7 4 8 2 9 3 10 5 11 1 12 11 13
REMARK SMILES IDX 15 15 16 16 36 17 17 18 18 19 35 20 37 21 20 22 34 23 33 24
REMARK SMILES IDX 21 25 31 26 22 27 24 28 30 29 32 30 23 31 25 32 28 33 26 34
REMARK SMILES IDX 19 35 29 37 27 39 14 41
REMARK H PARENT 11 14 19 36 29 38 27 40 14 42
REMARK Flexibility Score: inf
ROOT
ATOM      1  C   UNL     1      16.817  20.116   5.896  1.00  0.00     0.091 C 
ATOM      2  C   UNL     1      17.661  20.186   4.601  1.00  0.00     0.045 C 
ENDROOT
BRANCH   1   3
ATOM      3  C   UNL     1      17.416  21.128   6.949  1.00  0.00     0.146 C 
BRANCH   3   4
ATOM      4  C   UNL     1      18.855  20.771   7.439  1.00  0.00     0.043 C 
BRANCH   4   5
ATOM      5  C   UNL     1      18.878  19.786   8.633  1.00  0.00     0.046 C 
ATOM      6  C   UNL     1      16.858  19.569  10.200  1.00  0.00     0.020 C 
ATOM      7  C   UNL     1      18.102  20.388   9.842  1.00  0.00     0.103 C 
ATOM      8  C   UNL     1      19.102  20.352  10.931  1.00  0.00     0.309 C 
ATOM      9  C   UNL     1      20.325  19.508   9.152  1.00  0.00     0.177 C 
ATOM     10  O   UNL     1      20.320  19.848  10.529  1.00  0.00    -0.462 OA
ATOM     11  O   UNL     1      18.896  20.790  12.094  1.00  0.00    -0.252 OA
ATOM     12  C   UNL     1      20.733  18.041   8.988  1.00  0.00     0.053 C 
ENDBRANCH   4   5
ENDBRANCH   3   4
BRANCH   3  13
ATOM     13  O   UNL     1      17.355  22.451   6.459  1.00  0.00    -0.390 OA
ATOM     14  H   UNL     1      17.775  23.053   7.121  1.00  0.00     0.211 HD
ENDBRANCH   3  13
ENDBRANCH   1   3
BRANCH   1  15
ATOM     15  C   UNL     1      16.773  18.655   6.532  1.00  0.00     0.032 C 
ATOM     16  C   UNL     1      15.341  18.187   6.885  1.00  0.00     0.010 C 
ATOM     17  C   UNL     1      17.413  17.401   5.839  1.00  0.00     0.006 C 
ATOM     18  C   UNL     1      15.397  16.666   7.050  1.00  0.00     0.041 C 
ATOM     19  C   UNL     1      16.848  16.239   6.749  1.00  0.00     0.092 C 
ATOM     20  C   UNL     1      16.931  17.218   4.352  1.00  0.00     0.011 C 
ATOM     21  C   UNL     1      18.970  17.449   5.855  1.00  0.00     0.015 C 
ATOM     22  C   UNL     1      16.930  14.875   6.037  1.00  0.00    -0.031 C 
ATOM     23  C   UNL     1      17.141  15.791   3.792  1.00  0.00     0.009 C 
ATOM     24  C   UNL     1      16.335  14.791   4.641  1.00  0.00     0.025 C 
ATOM     25  C   UNL     1      17.863  13.978   6.398  1.00  0.00     0.050 C 
ATOM     26  C   UNL     1      16.164  13.306   4.104  1.00  0.00    -0.013 C 
ATOM     27  C   UNL     1      18.316  12.933   5.481  1.00  0.00     0.159 C 
ATOM     28  C   UNL     1      17.418  12.389   4.403  1.00  0.00     0.070 C 
ATOM     29  C   UNL     1      14.906  12.710   4.802  1.00  0.00     0.042 C 
ATOM     30  C   UNL     1      15.900  13.355   2.569  1.00  0.00     0.013 C 
ATOM     31  O   UNL     1      19.468  12.443   5.634  1.00  0.00    -0.295 OA
ATOM     32  C   UNL     1      17.057  10.936   4.823  1.00  0.00     0.047 C 
ATOM     33  C   UNL     1      14.563  11.248   4.417  1.00  0.00     0.143 C 
ATOM     34  C   UNL     1      15.816  10.386   4.108  1.00  0.00     0.143 C 
BRANCH  19  35
ATOM     35  O   UNL     1      17.487  16.203   8.017  1.00  0.00    -0.385 OA
ATOM     36  H   UNL     1      16.930  15.714   8.671  1.00  0.00     0.211 HD
ENDBRANCH  19  35
BRANCH  33  37
ATOM     37  O   UNL     1      13.687  11.241   3.321  1.00  0.00    -0.390 OA
ATOM     38  H   UNL     1      14.010  11.928   2.685  1.00  0.00     0.211 HD
ENDBRANCH  33  37
BRANCH  34  39
ATOM     39  O   UNL     1      15.577   9.069   4.533  1.00  0.00    -0.390 OA
ATOM     40  H   UNL     1      16.163   8.906   5.321  1.00  0.00     0.211 HD
ENDBRANCH  34  39
ENDBRANCH   1  15
BRANCH   1  41
ATOM     41  O   UNL     1      15.513  20.567   5.605  1.00  0.00    -0.387 OA
ATOM     42  H   UNL     1      15.481  21.545   5.725  1.00  0.00     0.211 HD
ENDBRANCH   1  41
TORSDOF 9
ENDMDL
MODEL 9
REMARK VINA RESULT:    -4.460      2.496      8.433
REMARK INTER + INTRA:          -6.890
REMARK INTER:                  -5.591
REMARK INTRA:                  -1.299
REMARK UNBOUND:                -0.735
REMARK SMILES C[C@@H]1OC(=O)[C@H](C)[C@H]1C[C@@H](O)[C@](C)(O)[C@H]1CC[C@@]2(O)C3=CC(=O)[C@H]4C[C@@H](O)[C@H](O)C[C@@]4(C)[C@@H]3CC[C@@]12C
REMARK SMILES IDX 12 1 13 2 10 3 9 4 8 5 7 6 6 7 4 8 2 9 3 10 5 11 1 12 11 13
REMARK SMILES IDX 15 15 16 16 36 17 17 18 18 19 35 20 37 21 20 22 34 23 33 24
REMARK SMILES IDX 21 25 31 26 22 27 24 28 30 29 32 30 23 31 25 32 28 33 26 34
REMARK SMILES IDX 19 35 29 37 27 39 14 41
REMARK H PARENT 11 14 19 36 29 38 27 40 14 42
REMARK Flexibility Score: inf
ROOT
ATOM      1  C   UNL     1      15.178  16.105   3.563  1.00  0.00     0.091 C 
ATOM      2  C   UNL     1      13.922  15.210   3.692  1.00  0.00     0.045 C 
ENDROOT
BRANCH   1   3
ATOM      3  C   UNL     1      16.456  15.235   3.883  1.00  0.00     0.146 C 
BRANCH   3   4
ATOM      4  C   UNL     1      16.148  13.854   4.544  1.00  0.00     0.043 C 
BRANCH   4   5
ATOM      5  C   UNL     1      17.222  13.399   5.561  1.00  0.00     0.046 C 
ATOM      6  C   UNL     1      17.444  14.545   7.845  1.00  0.00     0.020 C 
ATOM      7  C   UNL     1      17.770  14.624   6.350  1.00  0.00     0.103 C 
ATOM      8  C   UNL     1      19.227  14.550   6.112  1.00  0.00     0.309 C 
ATOM      9  C   UNL     1      18.463  12.749   4.869  1.00  0.00     0.177 C 
ATOM     10  O   UNL     1      19.589  13.497   5.301  1.00  0.00    -0.462 OA
ATOM     11  O   UNL     1      20.058  15.391   6.547  1.00  0.00    -0.252 OA
ATOM     12  C   UNL     1      18.645  11.279   5.255  1.00  0.00     0.053 C 
ENDBRANCH   4   5
ENDBRANCH   3   4
BRANCH   3  13
ATOM     13  O   UNL     1      17.256  15.083   2.729  1.00  0.00    -0.390 OA
ATOM     14  H   UNL     1      17.449  15.979   2.358  1.00  0.00     0.211 HD
ENDBRANCH   3  13
ENDBRANCH   1   3
BRANCH   1  15
ATOM     15  C   UNL     1      15.144  17.370   4.533  1.00  0.00     0.032 C 
ATOM     16  C   UNL     1      14.869  16.998   6.009  1.00  0.00     0.010 C 
ATOM     17  C   UNL     1      16.317  18.409   4.624  1.00  0.00     0.006 C 
ATOM     18  C   UNL     1      15.301  18.196   6.859  1.00  0.00     0.041 C 
ATOM     19  C   UNL     1      15.870  19.249   5.886  1.00  0.00     0.092 C 
ATOM     20  C   UNL     1      17.712  17.728   4.883  1.00  0.00     0.011 C 
ATOM     21  C   UNL     1      16.424  19.291   3.345  1.00  0.00     0.015 C 
ATOM     22  C   UNL     1      17.052  20.034   6.487  1.00  0.00    -0.031 C 
ATOM     23  C   UNL     1      18.789  18.689   5.440  1.00  0.00     0.009 C 
ATOM     24  C   UNL     1      18.315  19.249   6.795  1.00  0.00     0.025 C 
ATOM     25  C   UNL     1      17.144  21.362   6.304  1.00  0.00     0.050 C 
ATOM     26  C   UNL     1      19.359  20.036   7.695  1.00  0.00    -0.013 C 
ATOM     27  C   UNL     1      18.427  22.061   6.392  1.00  0.00     0.159 C 
ATOM     28  C   UNL     1      19.545  21.545   7.256  1.00  0.00     0.070 C 
ATOM     29  C   UNL     1      18.830  19.983   9.160  1.00  0.00     0.042 C 
ATOM     30  C   UNL     1      20.730  19.297   7.638  1.00  0.00     0.013 C 
ATOM     31  O   UNL     1      18.576  23.146   5.768  1.00  0.00    -0.295 OA
ATOM     32  C   UNL     1      19.679  22.541   8.443  1.00  0.00     0.047 C 
ATOM     33  C   UNL     1      19.710  20.708  10.210  1.00  0.00     0.143 C 
ATOM     34  C   UNL     1      20.434  21.958   9.644  1.00  0.00     0.143 C 
BRANCH  19  35
ATOM     35  O   UNL     1      14.774  20.103   5.592  1.00  0.00    -0.385 OA
ATOM     36  H   UNL     1      14.161  20.157   6.366  1.00  0.00     0.211 HD
ENDBRANCH  19  35
BRANCH  33  37
ATOM     37  O   UNL     1      20.643  19.808  10.748  1.00  0.00    -0.390 OA
ATOM     38  H   UNL     1      20.151  18.977  10.968  1.00  0.00     0.211 HD
ENDBRANCH  33  37
BRANCH  34  39
ATOM     39  O   UNL     1      20.523  22.928  10.656  1.00  0.00    -0.390 OA
ATOM     40  H   UNL     1      19.599  23.083  10.993  1.00  0.00     0.211 HD
ENDBRANCH  34  39
ENDBRANCH   1  15
BRANCH   1  41
ATOM     41  O   UNL     1      15.300  16.516   2.220  1.00  0.00    -0.387 OA
ATOM     42  H   UNL     1      14.945  17.432   2.135  1.00  0.00     0.211 HD
ENDBRANCH   1  41
TORSDOF 9
ENDMDL
