MODEL 1
REMARK VINA RESULT:    -4.216      0.000      0.000
REMARK INTER + INTRA:          -6.697
REMARK INTER:                  -5.695
REMARK INTRA:                  -1.003
REMARK UNBOUND:                -1.003
REMARK SMILES CC(=O)CCC=C(C)CCC=C(C)C
REMARK SMILES IDX 7 1 6 2 8 3 9 4 10 5 11 6 13 7 12 8 14 9 5 10 4 11 2 12 3 13
REMARK SMILES IDX 1 14
REMARK H PARENT
REMARK Flexibility Score: inf
ROOT
ATOM      1  C   UNL     1       2.313  76.041 -29.145  1.00  0.00    -0.077 C 
ATOM      2  C   UNL     1       3.603  76.440 -29.225  1.00  0.00    -0.028 C 
ATOM      3  C   UNL     1       1.772  74.912 -29.990  1.00  0.00     0.039 C 
ENDROOT
BRANCH   1   4
ATOM      4  C   UNL     1       1.388  76.742 -28.172  1.00  0.00     0.034 C 
BRANCH   4   5
ATOM      5  C   UNL     1       1.469  78.264 -28.340  1.00  0.00     0.032 C 
BRANCH   5   6
ATOM      6  C   UNL     1       0.505  78.751 -29.395  1.00  0.00    -0.028 C 
ATOM      7  C   UNL     1       2.370  79.468 -30.893  1.00  0.00     0.039 C 
ATOM      8  C   UNL     1       0.906  79.301 -30.561  1.00  0.00    -0.080 C 
ATOM      9  C   UNL     1      -0.140  79.755 -31.545  1.00  0.00     0.039 C 
ENDBRANCH   5   6
ENDBRANCH   4   5
ENDBRANCH   1   4
BRANCH   2  10
ATOM     10  C   UNL     1       4.650  75.805 -30.111  1.00  0.00     0.035 C 
BRANCH  10  11
ATOM     11  C   UNL     1       5.202  76.806 -31.133  1.00  0.00     0.079 C 
BRANCH  11  12
ATOM     12  C   UNL     1       6.706  76.764 -31.198  1.00  0.00     0.130 C 
ATOM     13  O   UNL     1       7.312  77.675 -31.739  1.00  0.00    -0.300 OA
ATOM     14  C   UNL     1       7.479  75.621 -30.609  1.00  0.00     0.087 C 
ENDBRANCH  11  12
ENDBRANCH  10  11
ENDBRANCH   2  10
TORSDOF 6
ENDMDL
MODEL 2
REMARK VINA RESULT:    -4.163      2.758      5.558
REMARK INTER + INTRA:          -6.627
REMARK INTER:                  -5.986
REMARK INTRA:                  -0.640
REMARK UNBOUND:                -1.003
REMARK SMILES CC(=O)CCC=C(C)CCC=C(C)C
REMARK SMILES IDX 7 1 6 2 8 3 9 4 10 5 11 6 13 7 12 8 14 9 5 10 4 11 2 12 3 13
REMARK SMILES IDX 1 14
REMARK H PARENT
REMARK Flexibility Score: inf
ROOT
ATOM      1  C   UNL     1       3.600  76.640 -30.287  1.00  0.00    -0.077 C 
ATOM      2  C   UNL     1       2.690  77.624 -30.105  1.00  0.00    -0.028 C 
ATOM      3  C   UNL     1       4.887  76.872 -31.043  1.00  0.00     0.039 C 
ENDROOT
BRANCH   1   4
ATOM      4  C   UNL     1       3.323  75.269 -29.708  1.00  0.00     0.034 C 
BRANCH   4   5
ATOM      5  C   UNL     1       1.839  74.908 -29.842  1.00  0.00     0.032 C 
BRANCH   5   6
ATOM      6  C   UNL     1       1.441  73.847 -28.844  1.00  0.00    -0.028 C 
ATOM      7  C   UNL     1       0.907  75.556 -27.105  1.00  0.00     0.039 C 
ATOM      8  C   UNL     1       1.016  74.132 -27.596  1.00  0.00    -0.080 C 
ATOM      9  C   UNL     1       0.646  72.995 -26.679  1.00  0.00     0.039 C 
ENDBRANCH   5   6
ENDBRANCH   4   5
ENDBRANCH   1   4
BRANCH   2  10
ATOM     10  C   UNL     1       2.851  79.050 -30.582  1.00  0.00     0.035 C 
BRANCH  10  11
ATOM     11  C   UNL     1       1.905  80.000 -29.841  1.00  0.00     0.079 C 
BRANCH  11  12
ATOM     12  C   UNL     1       0.480  79.841 -30.304  1.00  0.00     0.130 C 
ATOM     13  O   UNL     1      -0.424  79.835 -29.483  1.00  0.00    -0.300 OA
ATOM     14  C   UNL     1       0.146  79.692 -31.758  1.00  0.00     0.087 C 
ENDBRANCH  11  12
ENDBRANCH  10  11
ENDBRANCH   2  10
TORSDOF 6
ENDMDL
MODEL 3
REMARK VINA RESULT:    -4.161      3.024      4.399
REMARK INTER + INTRA:          -6.623
REMARK INTER:                  -5.728
REMARK INTRA:                  -0.895
REMARK UNBOUND:                -1.003
REMARK SMILES CC(=O)CCC=C(C)CCC=C(C)C
REMARK SMILES IDX 7 1 6 2 8 3 9 4 10 5 11 6 13 7 12 8 14 9 5 10 4 11 2 12 3 13
REMARK SMILES IDX 1 14
REMARK H PARENT
REMARK Flexibility Score: inf
ROOT
ATOM      1  C   UNL     1       3.580  77.025 -29.507  1.00  0.00    -0.077 C 
ATOM      2  C   UNL     1       3.450  75.764 -29.978  1.00  0.00    -0.028 C 
ATOM      3  C   UNL     1       3.407  77.353 -28.043  1.00  0.00     0.039 C 
ENDROOT
BRANCH   1   4
ATOM      4  C   UNL     1       3.917  78.138 -30.477  1.00  0.00     0.034 C 
BRANCH   4   5
ATOM      5  C   UNL     1       3.085  79.392 -30.182  1.00  0.00     0.032 C 
BRANCH   5   6
ATOM      6  C   UNL     1       1.969  79.558 -31.186  1.00  0.00    -0.028 C 
ATOM      7  C   UNL     1       0.226  79.404 -29.405  1.00  0.00     0.039 C 
ATOM      8  C   UNL     1       0.664  79.563 -30.841  1.00  0.00    -0.080 C 
ATOM      9  C   UNL     1      -0.369  79.734 -31.924  1.00  0.00     0.039 C 
ENDBRANCH   5   6
ENDBRANCH   4   5
ENDBRANCH   1   4
BRANCH   2  10
ATOM     10  C   UNL     1       3.164  74.549 -29.125  1.00  0.00     0.035 C 
BRANCH  10  11
ATOM     11  C   UNL     1       1.669  74.214 -29.109  1.00  0.00     0.079 C 
BRANCH  11  12
ATOM     12  C   UNL     1       1.175  73.934 -27.713  1.00  0.00     0.130 C 
ATOM     13  O   UNL     1       1.059  72.779 -27.334  1.00  0.00    -0.300 OA
ATOM     14  C   UNL     1       0.823  75.050 -26.774  1.00  0.00     0.087 C 
ENDBRANCH  11  12
ENDBRANCH  10  11
ENDBRANCH   2  10
TORSDOF 6
ENDMDL
MODEL 4
REMARK VINA RESULT:    -4.160      3.029      6.037
REMARK INTER + INTRA:          -6.621
REMARK INTER:                  -5.899
REMARK INTRA:                  -0.722
REMARK UNBOUND:                -1.003
REMARK SMILES CC(=O)CCC=C(C)CCC=C(C)C
REMARK SMILES IDX 7 1 6 2 8 3 9 4 10 5 11 6 13 7 12 8 14 9 5 10 4 11 2 12 3 13
REMARK SMILES IDX 1 14
REMARK H PARENT
REMARK Flexibility Score: inf
ROOT
ATOM      1  C   UNL     1       2.429  76.109 -29.867  1.00  0.00    -0.077 C 
ATOM      2  C   UNL     1       1.735  77.225 -29.548  1.00  0.00    -0.028 C 
ATOM      3  C   UNL     1       3.892  76.158 -30.241  1.00  0.00     0.039 C 
ENDROOT
BRANCH   1   4
ATOM      4  C   UNL     1       1.720  74.771 -29.839  1.00  0.00     0.034 C 
BRANCH   4   5
ATOM      5  C   UNL     1       1.568  74.263 -28.400  1.00  0.00     0.032 C 
BRANCH   5   6
ATOM      6  C   UNL     1       1.952  72.807 -28.290  1.00  0.00    -0.028 C 
ATOM      7  C   UNL     1       4.318  73.383 -27.735  1.00  0.00     0.039 C 
ATOM      8  C   UNL     1       3.202  72.396 -27.989  1.00  0.00    -0.080 C 
ATOM      9  C   UNL     1       3.478  70.918 -27.906  1.00  0.00     0.039 C 
ENDBRANCH   5   6
ENDBRANCH   4   5
ENDBRANCH   1   4
BRANCH   2  10
ATOM     10  C   UNL     1       2.319  78.618 -29.486  1.00  0.00     0.035 C 
BRANCH  10  11
ATOM     11  C   UNL     1       1.951  79.435 -30.729  1.00  0.00     0.079 C 
BRANCH  11  12
ATOM     12  C   UNL     1       0.487  79.789 -30.751  1.00  0.00     0.130 C 
ATOM     13  O   UNL     1      -0.051  80.194 -29.733  1.00  0.00    -0.300 OA
ATOM     14  C   UNL     1      -0.326  79.657 -32.004  1.00  0.00     0.087 C 
ENDBRANCH  11  12
ENDBRANCH  10  11
ENDBRANCH   2  10
TORSDOF 6
ENDMDL
MODEL 5
REMARK VINA RESULT:    -4.140     11.209     14.658
REMARK INTER + INTRA:          -6.595
REMARK INTER:                  -5.607
REMARK INTRA:                  -0.988
REMARK UNBOUND:                -1.003
REMARK SMILES CC(=O)CCC=C(C)CCC=C(C)C
REMARK SMILES IDX 7 1 6 2 8 3 9 4 10 5 11 6 13 7 12 8 14 9 5 10 4 11 2 12 3 13
REMARK SMILES IDX 1 14
REMARK H PARENT
REMARK Flexibility Score: inf
ROOT
ATOM      1  C   UNL     1      14.937  68.262 -28.660  1.00  0.00    -0.077 C 
ATOM      2  C   UNL     1      14.051  68.015 -27.667  1.00  0.00    -0.028 C 
ATOM      3  C   UNL     1      15.156  69.652 -29.208  1.00  0.00     0.039 C 
ENDROOT
BRANCH   1   4
ATOM      4  C   UNL     1      15.739  67.111 -29.229  1.00  0.00     0.034 C 
BRANCH   4   5
ATOM      5  C   UNL     1      14.935  65.805 -29.177  1.00  0.00     0.032 C 
BRANCH   5   6
ATOM      6  C   UNL     1      14.057  65.654 -30.396  1.00  0.00    -0.028 C 
ATOM      7  C   UNL     1      11.997  65.468 -28.997  1.00  0.00     0.039 C 
ATOM      8  C   UNL     1      12.718  65.499 -30.324  1.00  0.00    -0.080 C 
ATOM      9  C   UNL     1      11.936  65.356 -31.604  1.00  0.00     0.039 C 
ENDBRANCH   5   6
ENDBRANCH   4   5
ENDBRANCH   1   4
BRANCH   2  10
ATOM     10  C   UNL     1      13.219  69.068 -26.971  1.00  0.00     0.035 C 
BRANCH  10  11
ATOM     11  C   UNL     1      11.902  69.322 -27.713  1.00  0.00     0.079 C 
BRANCH  11  12
ATOM     12  C   UNL     1      11.533  70.783 -27.709  1.00  0.00     0.130 C 
ATOM     13  O   UNL     1      10.526  71.152 -28.292  1.00  0.00    -0.300 OA
ATOM     14  C   UNL     1      12.379  71.797 -26.998  1.00  0.00     0.087 C 
ENDBRANCH  11  12
ENDBRANCH  10  11
ENDBRANCH   2  10
TORSDOF 6
ENDMDL
MODEL 6
REMARK VINA RESULT:    -4.092     14.207     15.085
REMARK INTER + INTRA:          -6.529
REMARK INTER:                  -5.749
REMARK INTRA:                  -0.781
REMARK UNBOUND:                -1.003
REMARK SMILES CC(=O)CCC=C(C)CCC=C(C)C
REMARK SMILES IDX 7 1 6 2 8 3 9 4 10 5 11 6 13 7 12 8 14 9 5 10 4 11 2 12 3 13
REMARK SMILES IDX 1 14
REMARK H PARENT
REMARK Flexibility Score: inf
ROOT
ATOM      1  C   UNL     1       9.862  78.780 -17.099  1.00  0.00    -0.077 C 
ATOM      2  C   UNL     1      11.194  78.608 -16.941  1.00  0.00    -0.028 C 
ATOM      3  C   UNL     1       8.933  77.619 -17.367  1.00  0.00     0.039 C 
ENDROOT
BRANCH   1   4
ATOM      4  C   UNL     1       9.285  80.176 -16.994  1.00  0.00     0.034 C 
BRANCH   4   5
ATOM      5  C   UNL     1       9.736  81.045 -18.175  1.00  0.00     0.032 C 
BRANCH   5   6
ATOM      6  C   UNL     1      10.750  82.076 -17.740  1.00  0.00    -0.028 C 
ATOM      7  C   UNL     1      12.500  81.116 -19.239  1.00  0.00     0.039 C 
ATOM      8  C   UNL     1      12.011  82.116 -18.218  1.00  0.00    -0.080 C 
ATOM      9  C   UNL     1      12.943  83.188 -17.716  1.00  0.00     0.039 C 
ENDBRANCH   5   6
ENDBRANCH   4   5
ENDBRANCH   1   4
BRANCH   2  10
ATOM     10  C   UNL     1      11.903  77.273 -16.972  1.00  0.00     0.035 C 
BRANCH  10  11
ATOM     11  C   UNL     1      12.349  76.907 -18.391  1.00  0.00     0.079 C 
BRANCH  11  12
ATOM     12  C   UNL     1      12.495  75.418 -18.563  1.00  0.00     0.130 C 
ATOM     13  O   UNL     1      11.790  74.663 -17.912  1.00  0.00    -0.300 OA
ATOM     14  C   UNL     1      13.492  74.840 -19.523  1.00  0.00     0.087 C 
ENDBRANCH  11  12
ENDBRANCH  10  11
ENDBRANCH   2  10
TORSDOF 6
ENDMDL
MODEL 7
REMARK VINA RESULT:    -4.079     10.862     13.598
REMARK INTER + INTRA:          -6.513
REMARK INTER:                  -6.107
REMARK INTRA:                  -0.406
REMARK UNBOUND:                -1.003
REMARK SMILES CC(=O)CCC=C(C)CCC=C(C)C
REMARK SMILES IDX 7 1 6 2 8 3 9 4 10 5 11 6 13 7 12 8 14 9 5 10 4 11 2 12 3 13
REMARK SMILES IDX 1 14
REMARK H PARENT
REMARK Flexibility Score: inf
ROOT
ATOM      1  C   UNL     1      12.851  71.131 -27.139  1.00  0.00    -0.077 C 
ATOM      2  C   UNL     1      13.804  72.069 -26.935  1.00  0.00    -0.028 C 
ATOM      3  C   UNL     1      11.384  71.486 -27.208  1.00  0.00     0.039 C 
ENDROOT
BRANCH   1   4
ATOM      4  C   UNL     1      13.268  69.687 -27.312  1.00  0.00     0.034 C 
BRANCH   4   5
ATOM      5  C   UNL     1      14.025  69.490 -28.632  1.00  0.00     0.032 C 
BRANCH   5   6
ATOM      6  C   UNL     1      13.496  68.298 -29.394  1.00  0.00    -0.028 C 
ATOM      7  C   UNL     1      15.660  67.075 -29.155  1.00  0.00     0.039 C 
ATOM      8  C   UNL     1      14.233  67.195 -29.638  1.00  0.00    -0.080 C 
ATOM      9  C   UNL     1      13.608  66.062 -30.410  1.00  0.00     0.039 C 
ENDBRANCH   5   6
ENDBRANCH   4   5
ENDBRANCH   1   4
BRANCH   2  10
ATOM     10  C   UNL     1      13.543  73.551 -26.793  1.00  0.00     0.035 C 
BRANCH  10  11
ATOM     11  C   UNL     1      14.308  74.144 -25.606  1.00  0.00     0.079 C 
BRANCH  11  12
ATOM     12  C   UNL     1      14.269  75.650 -25.613  1.00  0.00     0.130 C 
ATOM     13  O   UNL     1      13.608  76.233 -26.459  1.00  0.00    -0.300 OA
ATOM     14  C   UNL     1      15.027  76.454 -24.598  1.00  0.00     0.087 C 
ENDBRANCH  11  12
ENDBRANCH  10  11
ENDBRANCH   2  10
TORSDOF 6
ENDMDL
MODEL 8
REMARK VINA RESULT:    -4.007      9.826     11.655
REMARK INTER + INTRA:          -6.416
REMARK INTER:                  -5.480
REMARK INTRA:                  -0.935
REMARK UNBOUND:                -1.003
REMARK SMILES CC(=O)CCC=C(C)CCC=C(C)C
REMARK SMILES IDX 7 1 6 2 8 3 9 4 10 5 11 6 13 7 12 8 14 9 5 10 4 11 2 12 3 13
REMARK SMILES IDX 1 14
REMARK H PARENT
REMARK Flexibility Score: inf
ROOT
ATOM      1  C   UNL     1       0.965  75.281 -18.891  1.00  0.00    -0.077 C 
ATOM      2  C   UNL     1       1.060  76.630 -18.869  1.00  0.00    -0.028 C 
ATOM      3  C   UNL     1       2.160  74.392 -18.643  1.00  0.00     0.039 C 
ENDROOT
BRANCH   1   4
ATOM      4  C   UNL     1      -0.382  74.646 -19.163  1.00  0.00     0.034 C 
BRANCH   4   5
ATOM      5  C   UNL     1      -0.521  74.269 -20.643  1.00  0.00     0.032 C 
BRANCH   5   6
ATOM      6  C   UNL     1      -1.122  75.401 -21.442  1.00  0.00    -0.028 C 
ATOM      7  C   UNL     1       1.030  75.819 -22.636  1.00  0.00     0.039 C 
ATOM      8  C   UNL     1      -0.423  76.113 -22.351  1.00  0.00    -0.080 C 
ATOM      9  C   UNL     1      -1.121  77.224 -23.092  1.00  0.00     0.039 C 
ENDBRANCH   5   6
ENDBRANCH   4   5
ENDBRANCH   1   4
BRANCH   2  10
ATOM     10  C   UNL     1       2.323  77.403 -18.564  1.00  0.00     0.035 C 
BRANCH  10  11
ATOM     11  C   UNL     1       2.097  78.430 -17.450  1.00  0.00     0.079 C 
BRANCH  11  12
ATOM     12  C   UNL     1       3.247  78.458 -16.477  1.00  0.00     0.130 C 
ATOM     13  O   UNL     1       3.835  79.508 -16.269  1.00  0.00    -0.300 OA
ATOM     14  C   UNL     1       3.685  77.220 -15.753  1.00  0.00     0.087 C 
ENDBRANCH  11  12
ENDBRANCH  10  11
ENDBRANCH   2  10
TORSDOF 6
ENDMDL
MODEL 9
REMARK VINA RESULT:    -3.887     12.396     13.703
REMARK INTER + INTRA:          -6.253
REMARK INTER:                  -5.242
REMARK INTRA:                  -1.012
REMARK UNBOUND:                -1.003
REMARK SMILES CC(=O)CCC=C(C)CCC=C(C)C
REMARK SMILES IDX 7 1 6 2 8 3 9 4 10 5 11 6 13 7 12 8 14 9 5 10 4 11 2 12 3 13
REMARK SMILES IDX 1 14
REMARK H PARENT
REMARK Flexibility Score: inf
ROOT
ATOM      1  C   UNL     1      12.977  75.477 -21.135  1.00  0.00    -0.077 C 
ATOM      2  C   UNL     1      13.345  76.752 -21.401  1.00  0.00    -0.028 C 
ATOM      3  C   UNL     1      12.242  74.631 -22.147  1.00  0.00     0.039 C 
ENDROOT
BRANCH   1   4
ATOM      4  C   UNL     1      13.323  74.881 -19.787  1.00  0.00     0.034 C 
BRANCH   4   5
ATOM      5  C   UNL     1      12.107  74.897 -18.853  1.00  0.00     0.032 C 
BRANCH   5   6
ATOM      6  C   UNL     1      12.267  75.929 -17.763  1.00  0.00    -0.028 C 
ATOM      7  C   UNL     1      10.681  77.493 -18.890  1.00  0.00     0.039 C 
ATOM      8  C   UNL     1      11.622  77.115 -17.772  1.00  0.00    -0.080 C 
ATOM      9  C   UNL     1      11.855  78.074 -16.634  1.00  0.00     0.039 C 
ENDBRANCH   5   6
ENDBRANCH   4   5
ENDBRANCH   1   4
BRANCH   2  10
ATOM     10  C   UNL     1      13.112  77.462 -22.714  1.00  0.00     0.035 C 
BRANCH  10  11
ATOM     11  C   UNL     1      14.420  77.648 -23.491  1.00  0.00     0.079 C 
BRANCH  11  12
ATOM     12  C   UNL     1      14.411  76.884 -24.790  1.00  0.00     0.130 C 
ATOM     13  O   UNL     1      14.055  77.443 -25.816  1.00  0.00    -0.300 OA
ATOM     14  C   UNL     1      14.834  75.447 -24.850  1.00  0.00     0.087 C 
ENDBRANCH  11  12
ENDBRANCH  10  11
ENDBRANCH   2  10
TORSDOF 6
ENDMDL
