MODEL 1
REMARK VINA RESULT:    -6.434      0.000      0.000
REMARK INTER + INTRA:          -7.826
REMARK INTER:                  -7.562
REMARK INTRA:                  -0.263
REMARK UNBOUND:                -0.263
REMARK SMILES O=c1cc(-c2ccc(O)c(O)c2)oc2cc(O)cc(O)c12
REMARK SMILES IDX 4 1 3 2 2 3 1 4 21 5 19 6 18 7 16 8 15 9 14 10 13 11 5 12
REMARK SMILES IDX 6 13 7 14 8 15 12 16 10 17 9 18 11 20 20 22 17 24
REMARK H PARENT 9 19 11 21 20 23 17 25
REMARK Flexibility Score: inf
ROOT
ATOM      1  C   UNL     1      14.507  55.828  34.542  1.00  0.00     0.138 A 
ATOM      2  C   UNL     1      14.436  55.506  33.180  1.00  0.00     0.100 A 
ATOM      3  C   UNL     1      14.930  56.405  32.233  1.00  0.00     0.197 A 
ATOM      4  O   UNL     1      14.909  56.062  31.022  1.00  0.00    -0.289 OA
ATOM      5  C   UNL     1      15.469  57.643  32.652  1.00  0.00     0.107 A 
ATOM      6  C   UNL     1      15.964  58.653  31.773  1.00  0.00     0.134 A 
ATOM      7  C   UNL     1      16.582  59.791  32.307  1.00  0.00     0.093 A 
ATOM      8  C   UNL     1      16.668  59.983  33.689  1.00  0.00     0.123 A 
ATOM      9  C   UNL     1      16.139  59.028  34.555  1.00  0.00     0.094 A 
ATOM     10  C   UNL     1      15.548  57.867  34.052  1.00  0.00     0.146 A 
ATOM     11  O   UNL     1      15.069  56.974  34.913  1.00  0.00    -0.456 OA
ENDROOT
BRANCH   1  12
ATOM     12  C   UNL     1      13.997  54.910  35.592  1.00  0.00     0.021 A 
ATOM     13  C   UNL     1      14.869  53.981  36.183  1.00  0.00     0.016 A 
ATOM     14  C   UNL     1      14.415  53.112  37.178  1.00  0.00     0.051 A 
ATOM     15  C   UNL     1      13.083  53.164  37.608  1.00  0.00     0.157 A 
ATOM     16  C   UNL     1      12.662  54.966  36.037  1.00  0.00     0.062 A 
ATOM     17  C   UNL     1      12.204  54.098  37.036  1.00  0.00     0.158 A 
BRANCH  15  18
ATOM     18  O   UNL     1      12.632  52.294  38.599  1.00  0.00    -0.504 OA
ATOM     19  H   UNL     1      13.151  51.461  38.851  1.00  0.00     0.293 HD
ENDBRANCH  15  18
BRANCH  17  20
ATOM     20  O   UNL     1      10.875  54.182  37.450  1.00  0.00    -0.504 OA
ATOM     21  H   UNL     1      10.178  54.696  36.924  1.00  0.00     0.293 HD
ENDBRANCH  17  20
ENDBRANCH   1  12
BRANCH   6  22
ATOM     22  O   UNL     1      15.854  58.600  30.380  1.00  0.00    -0.507 OA
ATOM     23  H   UNL     1      15.006  58.776  29.863  1.00  0.00     0.293 HD
ENDBRANCH   6  22
BRANCH   8  24
ATOM     24  O   UNL     1      17.271  61.125  34.212  1.00  0.00    -0.508 OA
ATOM     25  H   UNL     1      17.454  61.221  35.204  1.00  0.00     0.293 HD
ENDBRANCH   8  24
TORSDOF 5
ENDMDL
MODEL 2
REMARK VINA RESULT:    -6.264      0.677      1.499
REMARK INTER + INTRA:          -7.626
REMARK INTER:                  -7.362
REMARK INTRA:                  -0.264
REMARK UNBOUND:                -0.263
REMARK SMILES O=c1cc(-c2ccc(O)c(O)c2)oc2cc(O)cc(O)c12
REMARK SMILES IDX 4 1 3 2 2 3 1 4 21 5 19 6 18 7 16 8 15 9 14 10 13 11 5 12
REMARK SMILES IDX 6 13 7 14 8 15 12 16 10 17 9 18 11 20 20 22 17 24
REMARK H PARENT 9 19 11 21 20 23 17 25
REMARK Flexibility Score: inf
ROOT
ATOM      1  C   UNL     1      14.557  55.654  34.581  1.00  0.00     0.138 A 
ATOM      2  C   UNL     1      14.490  55.318  33.223  1.00  0.00     0.100 A 
ATOM      3  C   UNL     1      14.967  56.216  32.266  1.00  0.00     0.197 A 
ATOM      4  O   UNL     1      14.950  55.860  31.059  1.00  0.00    -0.289 OA
ATOM      5  C   UNL     1      15.483  57.468  32.672  1.00  0.00     0.107 A 
ATOM      6  C   UNL     1      15.959  58.478  31.783  1.00  0.00     0.134 A 
ATOM      7  C   UNL     1      16.557  59.632  32.305  1.00  0.00     0.093 A 
ATOM      8  C   UNL     1      16.641  59.840  33.684  1.00  0.00     0.123 A 
ATOM      9  C   UNL     1      16.130  58.884  34.561  1.00  0.00     0.094 A 
ATOM     10  C   UNL     1      15.559  57.707  34.070  1.00  0.00     0.146 A 
ATOM     11  O   UNL     1      15.098  56.815  34.941  1.00  0.00    -0.456 OA
ENDROOT
BRANCH   1  12
ATOM     12  C   UNL     1      14.064  54.738  35.641  1.00  0.00     0.021 A 
ATOM     13  C   UNL     1      12.877  55.047  36.326  1.00  0.00     0.016 A 
ATOM     14  C   UNL     1      12.389  54.197  37.322  1.00  0.00     0.051 A 
ATOM     15  C   UNL     1      13.073  53.018  37.643  1.00  0.00     0.157 A 
ATOM     16  C   UNL     1      14.740  53.544  35.960  1.00  0.00     0.062 A 
ATOM     17  C   UNL     1      14.252  52.689  36.955  1.00  0.00     0.158 A 
BRANCH  15  18
ATOM     18  O   UNL     1      12.584  52.174  38.638  1.00  0.00    -0.504 OA
ATOM     19  H   UNL     1      12.009  52.523  39.397  1.00  0.00     0.293 HD
ENDBRANCH  15  18
BRANCH  17  20
ATOM     20  O   UNL     1      14.950  51.518  37.245  1.00  0.00    -0.504 OA
ATOM     21  H   UNL     1      15.877  51.529  37.653  1.00  0.00     0.293 HD
ENDBRANCH  17  20
ENDBRANCH   1  12
BRANCH   6  22
ATOM     22  O   UNL     1      15.848  58.409  30.390  1.00  0.00    -0.507 OA
ATOM     23  H   UNL     1      15.118  57.920  29.895  1.00  0.00     0.293 HD
ENDBRANCH   6  22
BRANCH   8  24
ATOM     24  O   UNL     1      17.223  60.998  34.195  1.00  0.00    -0.508 OA
ATOM     25  H   UNL     1      16.691  61.854  34.305  1.00  0.00     0.293 HD
ENDBRANCH   8  24
TORSDOF 5
ENDMDL
MODEL 3
REMARK VINA RESULT:    -5.936      1.800      2.011
REMARK INTER + INTRA:          -7.240
REMARK INTER:                  -6.970
REMARK INTRA:                  -0.270
REMARK UNBOUND:                -0.263
REMARK SMILES O=c1cc(-c2ccc(O)c(O)c2)oc2cc(O)cc(O)c12
REMARK SMILES IDX 4 1 3 2 2 3 1 4 21 5 19 6 18 7 16 8 15 9 14 10 13 11 5 12
REMARK SMILES IDX 6 13 7 14 8 15 12 16 10 17 9 18 11 20 20 22 17 24
REMARK H PARENT 9 19 11 21 20 23 17 25
REMARK Flexibility Score: inf
ROOT
ATOM      1  C   UNL     1      14.211  56.050  34.874  1.00  0.00     0.138 A 
ATOM      2  C   UNL     1      13.029  56.429  34.224  1.00  0.00     0.100 A 
ATOM      3  C   UNL     1      12.957  57.671  33.591  1.00  0.00     0.197 A 
ATOM      4  O   UNL     1      11.904  57.957  32.963  1.00  0.00    -0.289 OA
ATOM      5  C   UNL     1      14.065  58.549  33.636  1.00  0.00     0.107 A 
ATOM      6  C   UNL     1      14.091  59.855  33.062  1.00  0.00     0.134 A 
ATOM      7  C   UNL     1      15.284  60.588  33.068  1.00  0.00     0.093 A 
ATOM      8  C   UNL     1      16.435  60.087  33.682  1.00  0.00     0.123 A 
ATOM      9  C   UNL     1      16.405  58.835  34.293  1.00  0.00     0.094 A 
ATOM     10  C   UNL     1      15.239  58.066  34.273  1.00  0.00     0.146 A 
ATOM     11  O   UNL     1      15.257  56.871  34.855  1.00  0.00    -0.456 OA
ENDROOT
BRANCH   1  12
ATOM     12  C   UNL     1      14.343  54.742  35.564  1.00  0.00     0.021 A 
ATOM     13  C   UNL     1      15.378  53.866  35.196  1.00  0.00     0.016 A 
ATOM     14  C   UNL     1      15.528  52.633  35.836  1.00  0.00     0.051 A 
ATOM     15  C   UNL     1      14.651  52.258  36.861  1.00  0.00     0.157 A 
ATOM     16  C   UNL     1      13.473  54.364  36.605  1.00  0.00     0.062 A 
ATOM     17  C   UNL     1      13.622  53.130  37.250  1.00  0.00     0.158 A 
BRANCH  15  18
ATOM     18  O   UNL     1      14.802  51.026  37.496  1.00  0.00    -0.504 OA
ATOM     19  H   UNL     1      14.521  50.161  37.049  1.00  0.00     0.293 HD
ENDBRANCH  15  18
BRANCH  17  20
ATOM     20  O   UNL     1      12.739  52.790  38.274  1.00  0.00    -0.504 OA
ATOM     21  H   UNL     1      12.941  52.049  38.935  1.00  0.00     0.293 HD
ENDBRANCH  17  20
ENDBRANCH   1  12
BRANCH   6  22
ATOM     22  O   UNL     1      12.976  60.483  32.498  1.00  0.00    -0.507 OA
ATOM     23  H   UNL     1      12.024  60.350  32.804  1.00  0.00     0.293 HD
ENDBRANCH   6  22
BRANCH   8  24
ATOM     24  O   UNL     1      17.613  60.830  33.697  1.00  0.00    -0.508 OA
ATOM     25  H   UNL     1      18.138  60.974  34.552  1.00  0.00     0.293 HD
ENDBRANCH   8  24
TORSDOF 5
ENDMDL
MODEL 4
REMARK VINA RESULT:    -5.429      1.765      2.331
REMARK INTER + INTRA:          -6.644
REMARK INTER:                  -6.348
REMARK INTRA:                  -0.297
REMARK UNBOUND:                -0.263
REMARK SMILES O=c1cc(-c2ccc(O)c(O)c2)oc2cc(O)cc(O)c12
REMARK SMILES IDX 4 1 3 2 2 3 1 4 21 5 19 6 18 7 16 8 15 9 14 10 13 11 5 12
REMARK SMILES IDX 6 13 7 14 8 15 12 16 10 17 9 18 11 20 20 22 17 24
REMARK H PARENT 9 19 11 21 20 23 17 25
REMARK Flexibility Score: inf
ROOT
ATOM      1  C   UNL     1      14.267  55.820  34.626  1.00  0.00     0.138 A 
ATOM      2  C   UNL     1      15.398  55.594  33.831  1.00  0.00     0.100 A 
ATOM      3  C   UNL     1      15.751  56.525  32.853  1.00  0.00     0.197 A 
ATOM      4  O   UNL     1      16.807  56.324  32.197  1.00  0.00    -0.289 OA
ATOM      5  C   UNL     1      14.949  57.671  32.651  1.00  0.00     0.107 A 
ATOM      6  C   UNL     1      15.189  58.666  31.657  1.00  0.00     0.134 A 
ATOM      7  C   UNL     1      14.393  59.818  31.627  1.00  0.00     0.093 A 
ATOM      8  C   UNL     1      13.328  59.983  32.517  1.00  0.00     0.123 A 
ATOM      9  C   UNL     1      13.052  58.991  33.457  1.00  0.00     0.094 A 
ATOM     10  C   UNL     1      13.849  57.847  33.533  1.00  0.00     0.146 A 
ATOM     11  O   UNL     1      13.560  56.933  34.454  1.00  0.00    -0.456 OA
ENDROOT
BRANCH   1  12
ATOM     12  C   UNL     1      13.845  54.863  35.681  1.00  0.00     0.021 A 
ATOM     13  C   UNL     1      12.667  55.108  36.406  1.00  0.00     0.016 A 
ATOM     14  C   UNL     1      12.245  54.218  37.398  1.00  0.00     0.051 A 
ATOM     15  C   UNL     1      12.987  53.064  37.675  1.00  0.00     0.157 A 
ATOM     16  C   UNL     1      14.580  53.693  35.955  1.00  0.00     0.062 A 
ATOM     17  C   UNL     1      14.158  52.799  36.946  1.00  0.00     0.158 A 
BRANCH  15  18
ATOM     18  O   UNL     1      12.564  52.180  38.666  1.00  0.00    -0.504 OA
ATOM     19  H   UNL     1      11.596  52.138  38.962  1.00  0.00     0.293 HD
ENDBRANCH  15  18
BRANCH  17  20
ATOM     20  O   UNL     1      14.914  51.653  37.191  1.00  0.00    -0.504 OA
ATOM     21  H   UNL     1      15.288  51.440  38.108  1.00  0.00     0.293 HD
ENDBRANCH  17  20
ENDBRANCH   1  12
BRANCH   6  22
ATOM     22  O   UNL     1      16.171  58.562  30.667  1.00  0.00    -0.507 OA
ATOM     23  H   UNL     1      16.263  57.788  30.026  1.00  0.00     0.293 HD
ENDBRANCH   6  22
BRANCH   8  24
ATOM     24  O   UNL     1      12.532  61.125  32.470  1.00  0.00    -0.508 OA
ATOM     25  H   UNL     1      11.820  61.246  31.759  1.00  0.00     0.293 HD
ENDBRANCH   8  24
TORSDOF 5
ENDMDL
MODEL 5
REMARK VINA RESULT:    -5.312      2.209      6.831
REMARK INTER + INTRA:          -6.507
REMARK INTER:                  -6.212
REMARK INTRA:                  -0.295
REMARK UNBOUND:                -0.263
REMARK SMILES O=c1cc(-c2ccc(O)c(O)c2)oc2cc(O)cc(O)c12
REMARK SMILES IDX 4 1 3 2 2 3 1 4 21 5 19 6 18 7 16 8 15 9 14 10 13 11 5 12
REMARK SMILES IDX 6 13 7 14 8 15 12 16 10 17 9 18 11 20 20 22 17 24
REMARK H PARENT 9 19 11 21 20 23 17 25
REMARK Flexibility Score: inf
ROOT
ATOM      1  C   UNL     1      15.453  55.748  33.288  1.00  0.00     0.138 A 
ATOM      2  C   UNL     1      14.885  55.164  32.149  1.00  0.00     0.100 A 
ATOM      3  C   UNL     1      14.456  53.836  32.196  1.00  0.00     0.197 A 
ATOM      4  O   UNL     1      13.893  53.358  31.177  1.00  0.00    -0.289 OA
ATOM      5  C   UNL     1      14.626  53.083  33.381  1.00  0.00     0.107 A 
ATOM      6  C   UNL     1      14.264  51.711  33.531  1.00  0.00     0.134 A 
ATOM      7  C   UNL     1      14.372  51.103  34.788  1.00  0.00     0.093 A 
ATOM      8  C   UNL     1      14.886  51.799  35.885  1.00  0.00     0.123 A 
ATOM      9  C   UNL     1      15.293  53.124  35.735  1.00  0.00     0.094 A 
ATOM     10  C   UNL     1      15.165  53.768  34.503  1.00  0.00     0.146 A 
ATOM     11  O   UNL     1      15.552  55.036  34.407  1.00  0.00    -0.456 OA
ENDROOT
BRANCH   1  12
ATOM     12  C   UNL     1      15.927  57.156  33.294  1.00  0.00     0.021 A 
ATOM     13  C   UNL     1      16.746  57.606  34.343  1.00  0.00     0.016 A 
ATOM     14  C   UNL     1      17.211  58.923  34.367  1.00  0.00     0.051 A 
ATOM     15  C   UNL     1      16.875  59.810  33.337  1.00  0.00     0.157 A 
ATOM     16  C   UNL     1      15.604  58.049  32.254  1.00  0.00     0.062 A 
ATOM     17  C   UNL     1      16.071  59.369  32.274  1.00  0.00     0.158 A 
BRANCH  15  18
ATOM     18  O   UNL     1      17.339  61.124  33.365  1.00  0.00    -0.504 OA
ATOM     19  H   UNL     1      17.979  61.477  32.662  1.00  0.00     0.293 HD
ENDBRANCH  15  18
BRANCH  17  20
ATOM     20  O   UNL     1      15.727  60.225  31.229  1.00  0.00    -0.504 OA
ATOM     21  H   UNL     1      16.424  60.655  30.632  1.00  0.00     0.293 HD
ENDBRANCH  17  20
ENDBRANCH   1  12
BRANCH   6  22
ATOM     22  O   UNL     1      13.819  50.901  32.482  1.00  0.00    -0.507 OA
ATOM     23  H   UNL     1      13.564  49.929  32.574  1.00  0.00     0.293 HD
ENDBRANCH   6  22
BRANCH   8  24
ATOM     24  O   UNL     1      15.004  51.181  37.128  1.00  0.00    -0.508 OA
ATOM     25  H   UNL     1      15.672  51.504  37.819  1.00  0.00     0.293 HD
ENDBRANCH   8  24
TORSDOF 5
ENDMDL
MODEL 6
REMARK VINA RESULT:    -5.271      1.412      3.056
REMARK INTER + INTRA:          -6.459
REMARK INTER:                  -6.196
REMARK INTRA:                  -0.263
REMARK UNBOUND:                -0.263
REMARK SMILES O=c1cc(-c2ccc(O)c(O)c2)oc2cc(O)cc(O)c12
REMARK SMILES IDX 4 1 3 2 2 3 1 4 21 5 19 6 18 7 16 8 15 9 14 10 13 11 5 12
REMARK SMILES IDX 6 13 7 14 8 15 12 16 10 17 9 18 11 20 20 22 17 24
REMARK H PARENT 9 19 11 21 20 23 17 25
REMARK Flexibility Score: inf
ROOT
ATOM      1  C   UNL     1      14.298  55.707  34.312  1.00  0.00     0.138 A 
ATOM      2  C   UNL     1      14.724  57.024  34.526  1.00  0.00     0.100 A 
ATOM      3  C   UNL     1      15.116  57.808  33.439  1.00  0.00     0.197 A 
ATOM      4  O   UNL     1      15.434  59.006  33.656  1.00  0.00    -0.289 OA
ATOM      5  C   UNL     1      15.111  57.257  32.137  1.00  0.00     0.107 A 
ATOM      6  C   UNL     1      15.528  57.949  30.960  1.00  0.00     0.134 A 
ATOM      7  C   UNL     1      15.369  57.341  29.709  1.00  0.00     0.093 A 
ATOM      8  C   UNL     1      14.864  56.043  29.597  1.00  0.00     0.123 A 
ATOM      9  C   UNL     1      14.504  55.338  30.744  1.00  0.00     0.094 A 
ATOM     10  C   UNL     1      14.619  55.932  32.004  1.00  0.00     0.146 A 
ATOM     11  O   UNL     1      14.250  55.230  33.071  1.00  0.00    -0.456 OA
ENDROOT
BRANCH   1  12
ATOM     12  C   UNL     1      13.871  54.829  35.431  1.00  0.00     0.021 A 
ATOM     13  C   UNL     1      14.801  53.953  36.017  1.00  0.00     0.016 A 
ATOM     14  C   UNL     1      14.425  53.123  37.077  1.00  0.00     0.051 A 
ATOM     15  C   UNL     1      13.117  53.160  37.575  1.00  0.00     0.157 A 
ATOM     16  C   UNL     1      12.561  54.871  35.945  1.00  0.00     0.062 A 
ATOM     17  C   UNL     1      12.183  54.042  37.008  1.00  0.00     0.158 A 
BRANCH  15  18
ATOM     18  O   UNL     1      12.745  52.329  38.630  1.00  0.00    -0.504 OA
ATOM     19  H   UNL     1      11.794  52.310  38.980  1.00  0.00     0.293 HD
ENDBRANCH  15  18
BRANCH  17  20
ATOM     20  O   UNL     1      10.875  54.110  37.488  1.00  0.00    -0.504 OA
ATOM     21  H   UNL     1      10.658  54.023  38.474  1.00  0.00     0.293 HD
ENDBRANCH  17  20
ENDBRANCH   1  12
BRANCH   6  22
ATOM     22  O   UNL     1      16.123  59.214  30.967  1.00  0.00    -0.507 OA
ATOM     23  H   UNL     1      16.505  59.675  30.155  1.00  0.00     0.293 HD
ENDBRANCH   6  22
BRANCH   8  24
ATOM     24  O   UNL     1      14.723  55.440  28.349  1.00  0.00    -0.508 OA
ATOM     25  H   UNL     1      15.411  55.571  27.616  1.00  0.00     0.293 HD
ENDBRANCH   8  24
TORSDOF 5
ENDMDL
MODEL 7
REMARK VINA RESULT:    -5.247     11.132     12.452
REMARK INTER + INTRA:          -6.431
REMARK INTER:                  -6.137
REMARK INTRA:                  -0.294
REMARK UNBOUND:                -0.263
REMARK SMILES O=c1cc(-c2ccc(O)c(O)c2)oc2cc(O)cc(O)c12
REMARK SMILES IDX 4 1 3 2 2 3 1 4 21 5 19 6 18 7 16 8 15 9 14 10 13 11 5 12
REMARK SMILES IDX 6 13 7 14 8 15 12 16 10 17 9 18 11 20 20 22 17 24
REMARK H PARENT 9 19 11 21 20 23 17 25
REMARK Flexibility Score: inf
ROOT
ATOM      1  C   UNL     1      25.875  53.556  31.485  1.00  0.00     0.138 A 
ATOM      2  C   UNL     1      25.547  52.338  30.876  1.00  0.00     0.100 A 
ATOM      3  C   UNL     1      24.670  52.324  29.791  1.00  0.00     0.197 A 
ATOM      4  O   UNL     1      24.443  51.221  29.226  1.00  0.00    -0.289 OA
ATOM      5  C   UNL     1      24.096  53.533  29.334  1.00  0.00     0.107 A 
ATOM      6  C   UNL     1      23.159  53.633  28.263  1.00  0.00     0.134 A 
ATOM      7  C   UNL     1      22.747  54.897  27.822  1.00  0.00     0.093 A 
ATOM      8  C   UNL     1      23.192  56.062  28.454  1.00  0.00     0.123 A 
ATOM      9  C   UNL     1      24.066  55.971  29.536  1.00  0.00     0.094 A 
ATOM     10  C   UNL     1      24.521  54.726  29.976  1.00  0.00     0.146 A 
ATOM     11  O   UNL     1      25.365  54.685  31.002  1.00  0.00    -0.456 OA
ENDROOT
BRANCH   1  12
ATOM     12  C   UNL     1      26.802  53.630  32.643  1.00  0.00     0.021 A 
ATOM     13  C   UNL     1      27.387  54.861  32.984  1.00  0.00     0.016 A 
ATOM     14  C   UNL     1      28.256  54.958  34.074  1.00  0.00     0.051 A 
ATOM     15  C   UNL     1      28.547  53.828  34.849  1.00  0.00     0.157 A 
ATOM     16  C   UNL     1      27.088  52.501  33.435  1.00  0.00     0.062 A 
ATOM     17  C   UNL     1      27.956  52.595  34.529  1.00  0.00     0.158 A 
BRANCH  15  18
ATOM     18  O   UNL     1      29.415  53.928  35.934  1.00  0.00    -0.504 OA
ATOM     19  H   UNL     1      29.231  53.447  36.807  1.00  0.00     0.293 HD
ENDBRANCH  15  18
BRANCH  17  20
ATOM     20  O   UNL     1      28.217  51.455  35.288  1.00  0.00    -0.504 OA
ATOM     21  H   UNL     1      28.273  50.532  34.872  1.00  0.00     0.293 HD
ENDBRANCH  17  20
ENDBRANCH   1  12
BRANCH   6  22
ATOM     22  O   UNL     1      22.586  52.532  27.618  1.00  0.00    -0.507 OA
ATOM     23  H   UNL     1      22.158  51.749  28.088  1.00  0.00     0.293 HD
ENDBRANCH   6  22
BRANCH   8  24
ATOM     24  O   UNL     1      22.765  57.314  28.019  1.00  0.00    -0.508 OA
ATOM     25  H   UNL     1      22.170  57.419  27.205  1.00  0.00     0.293 HD
ENDBRANCH   8  24
TORSDOF 5
ENDMDL
MODEL 8
REMARK VINA RESULT:    -5.154      2.714      6.576
REMARK INTER + INTRA:          -6.321
REMARK INTER:                  -6.058
REMARK INTRA:                  -0.263
REMARK UNBOUND:                -0.263
REMARK SMILES O=c1cc(-c2ccc(O)c(O)c2)oc2cc(O)cc(O)c12
REMARK SMILES IDX 4 1 3 2 2 3 1 4 21 5 19 6 18 7 16 8 15 9 14 10 13 11 5 12
REMARK SMILES IDX 6 13 7 14 8 15 12 16 10 17 9 18 11 20 20 22 17 24
REMARK H PARENT 9 19 11 21 20 23 17 25
REMARK Flexibility Score: inf
ROOT
ATOM      1  C   UNL     1      15.248  55.787  33.703  1.00  0.00     0.138 A 
ATOM      2  C   UNL     1      14.881  54.909  34.731  1.00  0.00     0.100 A 
ATOM      3  C   UNL     1      14.487  53.607  34.419  1.00  0.00     0.197 A 
ATOM      4  O   UNL     1      14.223  52.824  35.368  1.00  0.00    -0.289 OA
ATOM      5  C   UNL     1      14.431  53.194  33.068  1.00  0.00     0.107 A 
ATOM      6  C   UNL     1      14.006  51.904  32.630  1.00  0.00     0.134 A 
ATOM      7  C   UNL     1      14.103  51.569  31.273  1.00  0.00     0.093 A 
ATOM      8  C   UNL     1      14.554  52.498  30.331  1.00  0.00     0.123 A 
ATOM      9  C   UNL     1      14.920  53.779  30.743  1.00  0.00     0.094 A 
ATOM     10  C   UNL     1      14.867  54.130  32.093  1.00  0.00     0.146 A 
ATOM     11  O   UNL     1      15.239  55.358  32.444  1.00  0.00    -0.456 OA
ENDROOT
BRANCH   1  12
ATOM     12  C   UNL     1      15.674  57.183  33.977  1.00  0.00     0.021 A 
ATOM     13  C   UNL     1      17.043  57.482  34.076  1.00  0.00     0.016 A 
ATOM     14  C   UNL     1      17.470  58.789  34.325  1.00  0.00     0.051 A 
ATOM     15  C   UNL     1      16.536  59.822  34.471  1.00  0.00     0.157 A 
ATOM     16  C   UNL     1      14.740  58.229  34.112  1.00  0.00     0.062 A 
ATOM     17  C   UNL     1      15.164  59.540  34.359  1.00  0.00     0.158 A 
BRANCH  15  18
ATOM     18  O   UNL     1      16.964  61.124  34.722  1.00  0.00    -0.504 OA
ATOM     19  H   UNL     1      17.943  61.382  34.663  1.00  0.00     0.293 HD
ENDBRANCH  15  18
BRANCH  17  20
ATOM     20  O   UNL     1      14.210  60.548  34.489  1.00  0.00    -0.504 OA
ATOM     21  H   UNL     1      14.365  61.366  35.067  1.00  0.00     0.293 HD
ENDBRANCH  17  20
ENDBRANCH   1  12
BRANCH   6  22
ATOM     22  O   UNL     1      13.462  50.932  33.474  1.00  0.00    -0.507 OA
ATOM     23  H   UNL     1      13.191  50.004  33.185  1.00  0.00     0.293 HD
ENDBRANCH   6  22
BRANCH   8  24
ATOM     24  O   UNL     1      14.632  52.162  28.982  1.00  0.00    -0.508 OA
ATOM     25  H   UNL     1      13.941  52.483  28.314  1.00  0.00     0.293 HD
ENDBRANCH   8  24
TORSDOF 5
ENDMDL
