MODEL 1
REMARK VINA RESULT:    -4.103      0.000      0.000
REMARK INTER + INTRA:          -5.913
REMARK INTER:                  -6.261
REMARK INTRA:                   0.349
REMARK UNBOUND:                 0.349
REMARK SMILES CC1=CCC[C@H](C)C(=O)C[C@@H](C(C)C)C(=O)C1
REMARK SMILES IDX 8 1 9 2 6 3 7 4 5 5 4 6 3 7 2 8 1 9 10 11 11 12 15 13 16 14
REMARK SMILES IDX 17 15 12 17 13 18 14 19
REMARK H PARENT
REMARK Flexibility Score: 70.00
ROOT
ATOM      1  C   UNL     1       5.835  -2.554  46.872  1.00  0.00     0.136 C 
ATOM      2  O   UNL     1       4.869  -2.007  47.386  1.00  0.00    -0.299 OA
ENDROOT
BRANCH   1   3
ATOM      3  C   UNL     1       6.990  -1.724  46.339  1.00  0.00     0.053 C 
ATOM      4  C   UNL     1       6.873  -0.240  46.724  1.00  0.00     0.016 C 
BRANCH   3   5
ATOM      5  C   UNL     1       8.352  -2.313  46.762  1.00  0.00     0.015 C 
BRANCH   5   6
ATOM      6  C   UNL     1       8.569  -2.341  48.288  1.00  0.00     0.028 C 
BRANCH   6   7
ATOM      7  C   UNL     1       8.867  -3.742  48.757  1.00  0.00    -0.028 C 
ATOM      8  C   UNL     1       7.968  -4.563  49.349  1.00  0.00    -0.070 CG0
ATOM      9  C   UNL     1       8.410  -5.962  49.698  1.00  0.00     0.039 C 
ATOM     10  G   UNL     1       6.549  -4.132  49.691  1.00  0.00     0.000 G0
ENDBRANCH   6   7
ENDBRANCH   5   6
ENDBRANCH   3   5
ENDBRANCH   1   3
BRANCH   1  11
ATOM     11  C   UNL     1       5.858  -4.061  46.783  1.00  0.00     0.087 C 
BRANCH  11  12
ATOM     12  C   UNL     1       4.847  -4.721  47.758  1.00  0.00     0.066 C 
BRANCH  12  13
ATOM     13  C   UNL     1       5.496  -5.046  49.095  1.00  0.00     0.140 C 
ATOM     14  O   UNL     1       5.129  -6.026  49.729  1.00  0.00    -0.299 OA
BRANCH  13  15
ATOM     15  C   UNL     1       6.542  -4.133  49.689  1.00  0.00     0.106 CG0
ATOM     16  G   UNL     1       7.958  -4.568  49.341  1.00  0.00     0.000 G0
ENDBRANCH  13  15
ENDBRANCH  12  13
BRANCH  12  17
ATOM     17  C   UNL     1       4.141  -5.957  47.117  1.00  0.00    -0.006 C 
ATOM     18  C   UNL     1       4.428  -6.048  45.609  1.00  0.00     0.008 C 
ATOM     19  C   UNL     1       2.626  -6.022  47.373  1.00  0.00     0.008 C 
ENDBRANCH  12  17
ENDBRANCH  11  12
ENDBRANCH   1  11
TORSDOF 1
ENDMDL
MODEL 2
REMARK VINA RESULT:    -4.043      2.366      3.945
REMARK INTER + INTRA:          -5.822
REMARK INTER:                  -5.569
REMARK INTRA:                  -0.253
REMARK UNBOUND:                 0.349
REMARK SMILES CC1=CCC[C@H](C)C(=O)C[C@@H](C(C)C)C(=O)C1
REMARK SMILES IDX 8 1 9 2 6 3 7 4 5 5 4 6 3 7 2 8 1 9 10 11 11 12 15 13 16 14
REMARK SMILES IDX 17 15 12 17 13 18 14 19
REMARK H PARENT
REMARK Flexibility Score: 70.00
ROOT
ATOM      1  C   UNL     1       6.095  -1.701  49.991  1.00  0.00     0.136 C 
ATOM      2  O   UNL     1       5.025  -1.108  50.029  1.00  0.00    -0.299 OA
ENDROOT
BRANCH   1   3
ATOM      3  C   UNL     1       6.491  -2.637  51.120  1.00  0.00     0.053 C 
ATOM      4  C   UNL     1       6.689  -1.896  52.453  1.00  0.00     0.016 C 
BRANCH   3   5
ATOM      5  C   UNL     1       5.494  -3.804  51.264  1.00  0.00     0.015 C 
BRANCH   5   6
ATOM      6  C   UNL     1       5.617  -4.867  50.154  1.00  0.00     0.028 C 
BRANCH   6   7
ATOM      7  C   UNL     1       6.993  -5.481  50.156  1.00  0.00    -0.028 C 
ATOM      8  C   UNL     1       7.828  -5.501  49.090  1.00  0.00    -0.070 CG0
ATOM      9  C   UNL     1       9.201  -6.097  49.278  1.00  0.00     0.039 C 
ATOM     10  G   UNL     1       7.436  -4.971  47.719  1.00  0.00     0.000 G0
ENDBRANCH   6   7
ENDBRANCH   5   6
ENDBRANCH   3   5
ENDBRANCH   1   3
BRANCH   1  11
ATOM     11  C   UNL     1       7.004  -1.490  48.803  1.00  0.00     0.087 C 
BRANCH  11  12
ATOM     12  C   UNL     1       6.687  -2.469  47.642  1.00  0.00     0.066 C 
BRANCH  12  13
ATOM     13  C   UNL     1       7.763  -3.536  47.506  1.00  0.00     0.140 C 
ATOM     14  O   UNL     1       8.899  -3.218  47.183  1.00  0.00    -0.299 OA
BRANCH  13  15
ATOM     15  C   UNL     1       7.432  -4.997  47.695  1.00  0.00     0.106 CG0
ATOM     16  G   UNL     1       7.841  -5.513  49.067  1.00  0.00     0.000 G0
ENDBRANCH  13  15
ENDBRANCH  12  13
BRANCH  12  17
ATOM     17  C   UNL     1       6.416  -1.714  46.303  1.00  0.00    -0.006 C 
ATOM     18  C   UNL     1       6.425  -0.190  46.504  1.00  0.00     0.008 C 
ATOM     19  C   UNL     1       5.127  -2.146  45.584  1.00  0.00     0.008 C 
ENDBRANCH  12  17
ENDBRANCH  11  12
ENDBRANCH   1  11
TORSDOF 1
ENDMDL
MODEL 3
REMARK VINA RESULT:    -4.033      1.411      2.156
REMARK INTER + INTRA:          -5.807
REMARK INTER:                  -5.729
REMARK INTRA:                  -0.078
REMARK UNBOUND:                 0.349
REMARK SMILES CC1=CCC[C@H](C)C(=O)C[C@@H](C(C)C)C(=O)C1
REMARK SMILES IDX 8 1 9 2 6 3 7 4 5 5 4 6 3 7 2 8 1 9 10 11 11 12 15 13 16 14
REMARK SMILES IDX 17 15 12 17 13 18 14 19
REMARK H PARENT
REMARK Flexibility Score: 70.00
ROOT
ATOM      1  C   UNL     1       5.002  -2.715  46.926  1.00  0.00     0.136 C 
ATOM      2  O   UNL     1       3.985  -2.341  47.494  1.00  0.00    -0.299 OA
ENDROOT
BRANCH   1   3
ATOM      3  C   UNL     1       5.722  -1.791  45.958  1.00  0.00     0.053 C 
ATOM      4  C   UNL     1       4.805  -1.297  44.827  1.00  0.00     0.016 C 
BRANCH   3   5
ATOM      5  C   UNL     1       6.396  -0.615  46.694  1.00  0.00     0.015 C 
BRANCH   5   6
ATOM      6  C   UNL     1       6.909  -0.977  48.102  1.00  0.00     0.028 C 
BRANCH   6   7
ATOM      7  C   UNL     1       8.285  -1.587  48.027  1.00  0.00    -0.028 C 
ATOM      8  C   UNL     1       8.688  -2.667  48.738  1.00  0.00    -0.070 CG0
ATOM      9  C   UNL     1      10.080  -3.193  48.496  1.00  0.00     0.039 C 
ATOM     10  G   UNL     1       7.810  -3.352  49.776  1.00  0.00     0.000 G0
ENDBRANCH   6   7
ENDBRANCH   5   6
ENDBRANCH   3   5
ENDBRANCH   1   3
BRANCH   1  11
ATOM     11  C   UNL     1       5.527  -4.102  47.208  1.00  0.00     0.087 C 
BRANCH  11  12
ATOM     12  C   UNL     1       5.615  -4.396  48.729  1.00  0.00     0.066 C 
BRANCH  12  13
ATOM     13  C   UNL     1       7.061  -4.546  49.183  1.00  0.00     0.140 C 
ATOM     14  O   UNL     1       7.607  -5.639  49.123  1.00  0.00    -0.299 OA
BRANCH  13  15
ATOM     15  C   UNL     1       7.811  -3.378  49.773  1.00  0.00     0.106 CG0
ATOM     16  G   UNL     1       8.673  -2.660  48.745  1.00  0.00     0.000 G0
ENDBRANCH  13  15
ENDBRANCH  12  13
BRANCH  12  17
ATOM     17  C   UNL     1       4.728  -5.613  49.140  1.00  0.00    -0.006 C 
ATOM     18  C   UNL     1       3.757  -6.005  48.014  1.00  0.00     0.008 C 
ATOM     19  C   UNL     1       3.960  -5.418  50.458  1.00  0.00     0.008 C 
ENDBRANCH  12  17
ENDBRANCH  11  12
ENDBRANCH   1  11
TORSDOF 1
ENDMDL
MODEL 4
REMARK VINA RESULT:    -4.024      2.144      3.996
REMARK INTER + INTRA:          -5.792
REMARK INTER:                  -6.267
REMARK INTRA:                   0.475
REMARK UNBOUND:                 0.349
REMARK SMILES CC1=CCC[C@H](C)C(=O)C[C@@H](C(C)C)C(=O)C1
REMARK SMILES IDX 8 1 9 2 6 3 7 4 5 5 4 6 3 7 2 8 1 9 10 11 11 12 15 13 16 14
REMARK SMILES IDX 17 15 12 17 13 18 14 19
REMARK H PARENT
REMARK Flexibility Score: 70.00
ROOT
ATOM      1  C   UNL     1       5.657  -2.702  50.433  1.00  0.00     0.136 C 
ATOM      2  O   UNL     1       6.449  -2.297  51.272  1.00  0.00    -0.299 OA
ENDROOT
BRANCH   1   3
ATOM      3  C   UNL     1       5.001  -4.063  50.592  1.00  0.00     0.053 C 
ATOM      4  C   UNL     1       4.068  -4.405  49.419  1.00  0.00     0.016 C 
BRANCH   3   5
ATOM      5  C   UNL     1       6.048  -5.171  50.824  1.00  0.00     0.015 C 
BRANCH   5   6
ATOM      6  C   UNL     1       6.763  -5.629  49.538  1.00  0.00     0.028 C 
BRANCH   6   7
ATOM      7  C   UNL     1       8.227  -5.277  49.589  1.00  0.00    -0.028 C 
ATOM      8  C   UNL     1       8.843  -4.420  48.740  1.00  0.00    -0.070 CG0
ATOM      9  C   UNL     1      10.303  -4.124  48.970  1.00  0.00     0.039 C 
ATOM     10  G   UNL     1       8.133  -3.765  47.563  1.00  0.00     0.000 G0
ENDBRANCH   6   7
ENDBRANCH   5   6
ENDBRANCH   3   5
ENDBRANCH   1   3
BRANCH   1  11
ATOM     11  C   UNL     1       5.341  -1.824  49.245  1.00  0.00     0.087 C 
BRANCH  11  12
ATOM     12  C   UNL     1       5.911  -2.401  47.922  1.00  0.00     0.066 C 
BRANCH  12  13
ATOM     13  C   UNL     1       7.430  -2.490  47.964  1.00  0.00     0.140 C 
ATOM     14  O   UNL     1       8.089  -1.504  48.264  1.00  0.00    -0.299 OA
BRANCH  13  15
ATOM     15  C   UNL     1       8.142  -3.761  47.569  1.00  0.00     0.106 CG0
ATOM     16  G   UNL     1       8.855  -4.416  48.744  1.00  0.00     0.000 G0
ENDBRANCH  13  15
ENDBRANCH  12  13
BRANCH  12  17
ATOM     17  C   UNL     1       5.389  -1.623  46.674  1.00  0.00    -0.006 C 
ATOM     18  C   UNL     1       5.149  -2.566  45.484  1.00  0.00     0.008 C 
ATOM     19  C   UNL     1       6.280  -0.444  46.247  1.00  0.00     0.008 C 
ENDBRANCH  12  17
ENDBRANCH  11  12
ENDBRANCH   1  11
TORSDOF 1
ENDMDL
MODEL 5
REMARK VINA RESULT:    -3.701      1.697      3.787
REMARK INTER + INTRA:          -5.300
REMARK INTER:                  -6.815
REMARK INTRA:                   1.515
REMARK UNBOUND:                 0.349
REMARK SMILES CC1=CCC[C@H](C)C(=O)C[C@@H](C(C)C)C(=O)C1
REMARK SMILES IDX 8 1 9 2 6 3 7 4 5 5 4 6 3 7 2 8 1 9 10 11 11 12 15 13 16 14
REMARK SMILES IDX 17 15 12 17 13 18 14 19
REMARK H PARENT
REMARK Flexibility Score: 70.00
ROOT
ATOM      1  C   UNL     1       6.683  -1.714  49.368  1.00  0.00     0.136 C 
ATOM      2  O   UNL     1       6.055  -1.347  50.352  1.00  0.00    -0.299 OA
ENDROOT
BRANCH   1   3
ATOM      3  C   UNL     1       6.254  -1.274  47.979  1.00  0.00     0.053 C 
ATOM      4  C   UNL     1       7.417  -1.294  46.973  1.00  0.00     0.016 C 
BRANCH   3   5
ATOM      5  C   UNL     1       5.052  -2.097  47.471  1.00  0.00     0.015 C 
BRANCH   5   6
ATOM      6  C   UNL     1       5.385  -3.575  47.191  1.00  0.00     0.028 C 
BRANCH   6   7
ATOM      7  C   UNL     1       4.357  -4.481  47.817  1.00  0.00    -0.028 C 
ATOM      8  C   UNL     1       4.254  -4.727  49.144  1.00  0.00    -0.070 CG0
ATOM      9  C   UNL     1       3.123  -5.607  49.615  1.00  0.00     0.039 C 
ATOM     10  G   UNL     1       5.233  -4.173  50.169  1.00  0.00     0.000 G0
ENDBRANCH   6   7
ENDBRANCH   5   6
ENDBRANCH   3   5
ENDBRANCH   1   3
BRANCH   1  11
ATOM     11  C   UNL     1       7.889  -2.603  49.562  1.00  0.00     0.087 C 
BRANCH  11  12
ATOM     12  C   UNL     1       7.620  -4.061  49.105  1.00  0.00     0.066 C 
BRANCH  12  13
ATOM     13  C   UNL     1       6.618  -4.753  50.018  1.00  0.00     0.140 C 
ATOM     14  O   UNL     1       6.922  -5.800  50.574  1.00  0.00    -0.299 OA
BRANCH  13  15
ATOM     15  C   UNL     1       5.223  -4.203  50.194  1.00  0.00     0.106 CG0
ATOM     16  G   UNL     1       4.253  -4.735  49.150  1.00  0.00     0.000 G0
ENDBRANCH  13  15
ENDBRANCH  12  13
BRANCH  12  17
ATOM     17  C   UNL     1       8.943  -4.873  48.942  1.00  0.00    -0.006 C 
ATOM     18  C   UNL     1      10.142  -3.947  48.681  1.00  0.00     0.008 C 
ATOM     19  C   UNL     1       8.880  -5.974  47.869  1.00  0.00     0.008 C 
ENDBRANCH  12  17
ENDBRANCH  11  12
ENDBRANCH   1  11
TORSDOF 1
ENDMDL
MODEL 6
REMARK VINA RESULT:    -3.500     12.611     14.803
REMARK INTER + INTRA:          -4.993
REMARK INTER:                  -4.938
REMARK INTRA:                  -0.055
REMARK UNBOUND:                 0.349
REMARK SMILES CC1=CCC[C@H](C)C(=O)C[C@@H](C(C)C)C(=O)C1
REMARK SMILES IDX 8 1 9 2 6 3 7 4 5 5 4 6 3 7 2 8 1 9 10 11 11 12 15 13 16 14
REMARK SMILES IDX 17 15 12 17 13 18 14 19
REMARK H PARENT
REMARK Flexibility Score: 70.00
ROOT
ATOM      1  C   UNL     1       8.790   9.539  49.442  1.00  0.00     0.136 C 
ATOM      2  O   UNL     1       8.417   9.141  50.537  1.00  0.00    -0.299 OA
ENDROOT
BRANCH   1   3
ATOM      3  C   UNL     1       9.685   8.669  48.576  1.00  0.00     0.053 C 
ATOM      4  C   UNL     1      10.906   8.135  49.344  1.00  0.00     0.016 C 
BRANCH   3   5
ATOM      5  C   UNL     1       8.890   7.525  47.912  1.00  0.00     0.015 C 
BRANCH   5   6
ATOM      6  C   UNL     1       8.659   7.726  46.401  1.00  0.00     0.028 C 
BRANCH   6   7
ATOM      7  C   UNL     1       9.864   8.361  45.757  1.00  0.00    -0.028 C 
ATOM      8  C   UNL     1       9.896   9.619  45.257  1.00  0.00    -0.070 CG0
ATOM      9  C   UNL     1      11.204  10.127  44.705  1.00  0.00     0.039 C 
ATOM     10  G   UNL     1       8.674  10.525  45.209  1.00  0.00     0.000 G0
ENDBRANCH   6   7
ENDBRANCH   5   6
ENDBRANCH   3   5
ENDBRANCH   1   3
BRANCH   1  11
ATOM     11  C   UNL     1       8.342  10.901  48.970  1.00  0.00     0.087 C 
BRANCH  11  12
ATOM     12  C   UNL     1       7.614  10.836  47.601  1.00  0.00     0.066 C 
BRANCH  12  13
ATOM     13  C   UNL     1       8.505  11.336  46.473  1.00  0.00     0.140 C 
ATOM     14  O   UNL     1       9.051  12.427  46.566  1.00  0.00    -0.299 OA
BRANCH  13  15
ATOM     15  C   UNL     1       8.671  10.535  45.205  1.00  0.00     0.106 CG0
ATOM     16  G   UNL     1       9.901   9.639  45.240  1.00  0.00     0.000 G0
ENDBRANCH  13  15
ENDBRANCH  12  13
BRANCH  12  17
ATOM     17  C   UNL     1       6.233  11.562  47.642  1.00  0.00    -0.006 C 
ATOM     18  C   UNL     1       5.610  11.507  49.046  1.00  0.00     0.008 C 
ATOM     19  C   UNL     1       5.224  11.060  46.594  1.00  0.00     0.008 C 
ENDBRANCH  12  17
ENDBRANCH  11  12
ENDBRANCH   1  11
TORSDOF 1
ENDMDL
MODEL 7
REMARK VINA RESULT:    -3.432      9.812     11.379
REMARK INTER + INTRA:          -4.888
REMARK INTER:                  -4.745
REMARK INTRA:                  -0.143
REMARK UNBOUND:                 0.349
REMARK SMILES CC1=CCC[C@H](C)C(=O)C[C@@H](C(C)C)C(=O)C1
REMARK SMILES IDX 8 1 9 2 6 3 7 4 5 5 4 6 3 7 2 8 1 9 10 11 11 12 15 13 16 14
REMARK SMILES IDX 17 15 12 17 13 18 14 19
REMARK H PARENT
REMARK Flexibility Score: 70.00
ROOT
ATOM      1  C   UNL     1       9.278   5.053  52.534  1.00  0.00     0.136 C 
ATOM      2  O   UNL     1       8.481   4.896  51.619  1.00  0.00    -0.299 OA
ENDROOT
BRANCH   1   3
ATOM      3  C   UNL     1       8.848   4.817  53.972  1.00  0.00     0.053 C 
ATOM      4  C   UNL     1       8.112   3.480  54.152  1.00  0.00     0.016 C 
BRANCH   3   5
ATOM      5  C   UNL     1      10.037   4.945  54.946  1.00  0.00     0.015 C 
BRANCH   5   6
ATOM      6  C   UNL     1      10.656   3.592  55.351  1.00  0.00     0.028 C 
BRANCH   6   7
ATOM      7  C   UNL     1      12.153   3.707  55.477  1.00  0.00    -0.028 C 
ATOM      8  C   UNL     1      13.031   3.445  54.480  1.00  0.00    -0.070 CG0
ATOM      9  C   UNL     1      14.497   3.674  54.750  1.00  0.00     0.039 C 
ATOM     10  G   UNL     1      12.607   2.913  53.118  1.00  0.00     0.000 G0
ENDBRANCH   6   7
ENDBRANCH   5   6
ENDBRANCH   3   5
ENDBRANCH   1   3
BRANCH   1  11
ATOM     11  C   UNL     1      10.690   5.477  52.207  1.00  0.00     0.087 C 
BRANCH  11  12
ATOM     12  C   UNL     1      11.426   4.431  51.328  1.00  0.00     0.066 C 
BRANCH  12  13
ATOM     13  C   UNL     1      12.688   3.921  52.010  1.00  0.00     0.140 C 
ATOM     14  O   UNL     1      13.785   4.300  51.624  1.00  0.00    -0.299 OA
BRANCH  13  15
ATOM     15  C   UNL     1      12.608   2.896  53.115  1.00  0.00     0.106 CG0
ATOM     16  G   UNL     1      13.026   3.462  54.465  1.00  0.00     0.000 G0
ENDBRANCH  13  15
ENDBRANCH  12  13
BRANCH  12  17
ATOM     17  C   UNL     1      11.698   4.970  49.888  1.00  0.00    -0.006 C 
ATOM     18  C   UNL     1      11.623   6.504  49.839  1.00  0.00     0.008 C 
ATOM     19  C   UNL     1      10.794   4.359  48.804  1.00  0.00     0.008 C 
ENDBRANCH  12  17
ENDBRANCH  11  12
ENDBRANCH   1  11
TORSDOF 1
ENDMDL
MODEL 8
REMARK VINA RESULT:    -3.405      9.640     11.311
REMARK INTER + INTRA:          -4.848
REMARK INTER:                  -4.954
REMARK INTRA:                   0.107
REMARK UNBOUND:                 0.349
REMARK SMILES CC1=CCC[C@H](C)C(=O)C[C@@H](C(C)C)C(=O)C1
REMARK SMILES IDX 8 1 9 2 6 3 7 4 5 5 4 6 3 7 2 8 1 9 10 11 11 12 15 13 16 14
REMARK SMILES IDX 17 15 12 17 13 18 14 19
REMARK H PARENT
REMARK Flexibility Score: 70.00
ROOT
ATOM      1  C   UNL     1       9.694   4.635  51.871  1.00  0.00     0.136 C 
ATOM      2  O   UNL     1       8.546   4.857  51.510  1.00  0.00    -0.299 OA
ENDROOT
BRANCH   1   3
ATOM      3  C   UNL     1      10.831   5.525  51.400  1.00  0.00     0.053 C 
ATOM      4  C   UNL     1      11.161   5.316  49.913  1.00  0.00     0.016 C 
BRANCH   3   5
ATOM      5  C   UNL     1      10.555   7.010  51.715  1.00  0.00     0.015 C 
BRANCH   5   6
ATOM      6  C   UNL     1      11.064   7.455  53.100  1.00  0.00     0.028 C 
BRANCH   6   7
ATOM      7  C   UNL     1      12.229   6.606  53.538  1.00  0.00    -0.028 C 
ATOM      8  C   UNL     1      12.178   5.677  54.521  1.00  0.00    -0.070 CG0
ATOM      9  C   UNL     1      13.418   4.863  54.791  1.00  0.00     0.039 C 
ATOM     10  G   UNL     1      10.938   5.436  55.371  1.00  0.00     0.000 G0
ENDBRANCH   6   7
ENDBRANCH   5   6
ENDBRANCH   3   5
ENDBRANCH   1   3
BRANCH   1  11
ATOM     11  C   UNL     1       9.954   3.469  52.795  1.00  0.00     0.087 C 
BRANCH  11  12
ATOM     12  C   UNL     1       9.334   3.685  54.201  1.00  0.00     0.066 C 
BRANCH  12  13
ATOM     13  C   UNL     1      10.402   4.018  55.233  1.00  0.00     0.140 C 
ATOM     14  O   UNL     1      10.799   3.151  56.000  1.00  0.00    -0.299 OA
BRANCH  13  15
ATOM     15  C   UNL     1      10.930   5.425  55.374  1.00  0.00     0.106 CG0
ATOM     16  G   UNL     1      12.172   5.667  54.527  1.00  0.00     0.000 G0
ENDBRANCH  13  15
ENDBRANCH  12  13
BRANCH  12  17
ATOM     17  C   UNL     1       8.436   2.484  54.632  1.00  0.00    -0.006 C 
ATOM     18  C   UNL     1       9.069   1.139  54.240  1.00  0.00     0.008 C 
ATOM     19  C   UNL     1       6.989   2.560  54.114  1.00  0.00     0.008 C 
ENDBRANCH  12  17
ENDBRANCH  11  12
ENDBRANCH   1  11
TORSDOF 1
ENDMDL
MODEL 9
REMARK VINA RESULT:    -3.353     10.838     13.987
REMARK INTER + INTRA:          -4.769
REMARK INTER:                  -4.671
REMARK INTRA:                  -0.097
REMARK UNBOUND:                 0.349
REMARK SMILES CC1=CCC[C@H](C)C(=O)C[C@@H](C(C)C)C(=O)C1
REMARK SMILES IDX 8 1 9 2 6 3 7 4 5 5 4 6 3 7 2 8 1 9 10 11 11 12 15 13 16 14
REMARK SMILES IDX 17 15 12 17 13 18 14 19
REMARK H PARENT
REMARK Flexibility Score: 70.00
ROOT
ATOM      1  C   UNL     1       8.507   7.783  46.436  1.00  0.00     0.136 C 
ATOM      2  O   UNL     1       8.826   7.364  45.332  1.00  0.00    -0.299 OA
ENDROOT
BRANCH   1   3
ATOM      3  C   UNL     1       8.848   6.988  47.685  1.00  0.00     0.053 C 
ATOM      4  C   UNL     1       8.167   5.610  47.708  1.00  0.00     0.016 C 
BRANCH   3   5
ATOM      5  C   UNL     1      10.374   6.868  47.879  1.00  0.00     0.015 C 
BRANCH   5   6
ATOM      6  C   UNL     1      10.964   7.929  48.829  1.00  0.00     0.028 C 
BRANCH   6   7
ATOM      7  C   UNL     1      10.167   8.002  50.106  1.00  0.00    -0.028 C 
ATOM      8  C   UNL     1       9.428   9.069  50.491  1.00  0.00    -0.070 CG0
ATOM      9  C   UNL     1       8.634   8.955  51.768  1.00  0.00     0.039 C 
ATOM     10  G   UNL     1       9.381  10.373  49.708  1.00  0.00     0.000 G0
ENDBRANCH   6   7
ENDBRANCH   5   6
ENDBRANCH   3   5
ENDBRANCH   1   3
BRANCH   1  11
ATOM     11  C   UNL     1       7.776   9.101  46.532  1.00  0.00     0.087 C 
BRANCH  11  12
ATOM     12  C   UNL     1       8.648  10.208  47.180  1.00  0.00     0.066 C 
BRANCH  12  13
ATOM     13  C   UNL     1       8.302  10.398  48.650  1.00  0.00     0.140 C 
ATOM     14  O   UNL     1       7.147  10.631  48.979  1.00  0.00    -0.299 OA
BRANCH  13  15
ATOM     15  C   UNL     1       9.379  10.375  49.708  1.00  0.00     0.106 CG0
ATOM     16  G   UNL     1       9.401   9.067  50.487  1.00  0.00     0.000 G0
ENDBRANCH  13  15
ENDBRANCH  12  13
BRANCH  12  17
ATOM     17  C   UNL     1       8.591  11.542  46.373  1.00  0.00    -0.006 C 
ATOM     18  C   UNL     1       9.165  11.367  44.957  1.00  0.00     0.008 C 
ATOM     19  C   UNL     1       9.263  12.735  47.074  1.00  0.00     0.008 C 
ENDBRANCH  12  17
ENDBRANCH  11  12
ENDBRANCH   1  11
TORSDOF 1
ENDMDL
