MODEL 1
REMARK VINA RESULT:    -5.343      0.000      0.000
REMARK INTER + INTRA:          -8.215
REMARK INTER:                  -7.217
REMARK INTRA:                  -0.998
REMARK UNBOUND:                -0.998
REMARK SMILES CC(=O)CCC=C(C)CCC=C(C)C
REMARK SMILES IDX 7 1 6 2 8 3 9 4 10 5 11 6 13 7 12 8 14 9 5 10 4 11 2 12 3 13
REMARK SMILES IDX 1 14
REMARK H PARENT
REMARK Flexibility Score: inf
ROOT
ATOM      1  C   UNL     1      -2.208  28.701  53.506  1.00  0.00    -0.077 C 
ATOM      2  C   UNL     1      -1.978  29.822  52.783  1.00  0.00    -0.028 C 
ATOM      3  C   UNL     1      -2.236  28.812  55.008  1.00  0.00     0.039 C 
ENDROOT
BRANCH   1   4
ATOM      4  C   UNL     1      -2.369  27.331  52.878  1.00  0.00     0.034 C 
BRANCH   4   5
ATOM      5  C   UNL     1      -1.024  26.819  52.350  1.00  0.00     0.032 C 
BRANCH   5   6
ATOM      6  C   UNL     1      -0.214  26.201  53.461  1.00  0.00    -0.028 C 
ATOM      7  C   UNL     1       1.498  28.029  53.449  1.00  0.00     0.039 C 
ATOM      8  C   UNL     1       0.907  26.745  53.984  1.00  0.00    -0.080 C 
ATOM      9  C   UNL     1       1.589  26.032  55.122  1.00  0.00     0.039 C 
ENDBRANCH   5   6
ENDBRANCH   4   5
ENDBRANCH   1   4
BRANCH   2  10
ATOM     10  C   UNL     1      -1.927  29.879  51.277  1.00  0.00     0.035 C 
BRANCH  10  11
ATOM     11  C   UNL     1      -0.511  30.208  50.793  1.00  0.00     0.079 C 
BRANCH  11  12
ATOM     12  C   UNL     1      -0.514  30.533  49.323  1.00  0.00     0.130 C 
ATOM     13  O   UNL     1       0.481  30.296  48.654  1.00  0.00    -0.300 OA
ATOM     14  C   UNL     1      -1.717  31.130  48.655  1.00  0.00     0.087 C 
ENDBRANCH  11  12
ENDBRANCH  10  11
ENDBRANCH   2  10
TORSDOF 6
ENDMDL
MODEL 2
REMARK VINA RESULT:    -5.197      2.235      5.527
REMARK INTER + INTRA:          -8.018
REMARK INTER:                  -7.347
REMARK INTRA:                  -0.671
REMARK UNBOUND:                -0.998
REMARK SMILES CC(=O)CCC=C(C)CCC=C(C)C
REMARK SMILES IDX 7 1 6 2 8 3 9 4 10 5 11 6 13 7 12 8 14 9 5 10 4 11 2 12 3 13
REMARK SMILES IDX 1 14
REMARK H PARENT
REMARK Flexibility Score: inf
ROOT
ATOM      1  C   UNL     1      -1.256  28.302  52.744  1.00  0.00    -0.077 C 
ATOM      2  C   UNL     1      -0.796  27.315  53.548  1.00  0.00    -0.028 C 
ATOM      3  C   UNL     1      -2.395  27.989  51.808  1.00  0.00     0.039 C 
ENDROOT
BRANCH   1   4
ATOM      4  C   UNL     1      -0.635  29.683  52.693  1.00  0.00     0.034 C 
BRANCH   4   5
ATOM      5  C   UNL     1      -1.116  30.445  51.453  1.00  0.00     0.032 C 
BRANCH   5   6
ATOM      6  C   UNL     1      -0.192  30.204  50.286  1.00  0.00    -0.028 C 
ATOM      7  C   UNL     1      -1.821  31.093  48.605  1.00  0.00     0.039 C 
ATOM      8  C   UNL     1      -0.484  30.514  49.004  1.00  0.00    -0.080 C 
ATOM      9  C   UNL     1       0.556  30.253  47.947  1.00  0.00     0.039 C 
ENDBRANCH   5   6
ENDBRANCH   4   5
ENDBRANCH   1   4
BRANCH   2  10
ATOM     10  C   UNL     1       0.327  27.468  54.542  1.00  0.00     0.035 C 
BRANCH  10  11
ATOM     11  C   UNL     1       1.250  26.246  54.511  1.00  0.00     0.079 C 
BRANCH  11  12
ATOM     12  C   UNL     1       2.488  26.535  53.703  1.00  0.00     0.130 C 
ATOM     13  O   UNL     1       3.156  25.607  53.275  1.00  0.00    -0.300 OA
ATOM     14  C   UNL     1       2.915  27.941  53.402  1.00  0.00     0.087 C 
ENDBRANCH  11  12
ENDBRANCH  10  11
ENDBRANCH   2  10
TORSDOF 6
ENDMDL
MODEL 3
REMARK VINA RESULT:    -5.092      2.284      5.289
REMARK INTER + INTRA:          -7.876
REMARK INTER:                  -7.169
REMARK INTRA:                  -0.706
REMARK UNBOUND:                -0.998
REMARK SMILES CC(=O)CCC=C(C)CCC=C(C)C
REMARK SMILES IDX 7 1 6 2 8 3 9 4 10 5 11 6 13 7 12 8 14 9 5 10 4 11 2 12 3 13
REMARK SMILES IDX 1 14
REMARK H PARENT
REMARK Flexibility Score: inf
ROOT
ATOM      1  C   UNL     1      -2.045  28.451  53.699  1.00  0.00    -0.077 C 
ATOM      2  C   UNL     1      -1.240  27.434  54.084  1.00  0.00    -0.028 C 
ATOM      3  C   UNL     1      -2.878  29.141  54.748  1.00  0.00     0.039 C 
ENDROOT
BRANCH   1   4
ATOM      4  C   UNL     1      -2.199  28.882  52.254  1.00  0.00     0.034 C 
BRANCH   4   5
ATOM      5  C   UNL     1      -1.459  30.201  52.003  1.00  0.00     0.032 C 
BRANCH   5   6
ATOM      6  C   UNL     1      -0.488  30.060  50.860  1.00  0.00    -0.028 C 
ATOM      7  C   UNL     1      -2.069  31.040  49.183  1.00  0.00     0.039 C 
ATOM      8  C   UNL     1      -0.737  30.455  49.592  1.00  0.00    -0.080 C 
ATOM      9  C   UNL     1       0.348  30.288  48.561  1.00  0.00     0.039 C 
ENDBRANCH   5   6
ENDBRANCH   4   5
ENDBRANCH   1   4
BRANCH   2  10
ATOM     10  C   UNL     1      -0.342  26.651  53.160  1.00  0.00     0.035 C 
BRANCH  10  11
ATOM     11  C   UNL     1       0.753  25.926  53.951  1.00  0.00     0.079 C 
BRANCH  11  12
ATOM     12  C   UNL     1       1.758  26.909  54.490  1.00  0.00     0.130 C 
ATOM     13  O   UNL     1       1.879  27.043  55.698  1.00  0.00    -0.300 OA
ATOM     14  C   UNL     1       2.626  27.722  53.575  1.00  0.00     0.087 C 
ENDBRANCH  11  12
ENDBRANCH  10  11
ENDBRANCH   2  10
TORSDOF 6
ENDMDL
MODEL 4
REMARK VINA RESULT:    -4.857      1.244      1.889
REMARK INTER + INTRA:          -7.558
REMARK INTER:                  -7.011
REMARK INTRA:                  -0.548
REMARK UNBOUND:                -0.998
REMARK SMILES CC(=O)CCC=C(C)CCC=C(C)C
REMARK SMILES IDX 7 1 6 2 8 3 9 4 10 5 11 6 13 7 12 8 14 9 5 10 4 11 2 12 3 13
REMARK SMILES IDX 1 14
REMARK H PARENT
REMARK Flexibility Score: inf
ROOT
ATOM      1  C   UNL     1      -1.987  28.706  52.473  1.00  0.00    -0.077 C 
ATOM      2  C   UNL     1      -2.551  29.433  51.481  1.00  0.00    -0.028 C 
ATOM      3  C   UNL     1      -2.576  27.357  52.796  1.00  0.00     0.039 C 
ENDROOT
BRANCH   1   4
ATOM      4  C   UNL     1      -0.837  29.215  53.319  1.00  0.00     0.034 C 
BRANCH   4   5
ATOM      5  C   UNL     1      -0.289  28.097  54.213  1.00  0.00     0.032 C 
BRANCH   5   6
ATOM      6  C   UNL     1       0.900  27.431  53.569  1.00  0.00    -0.028 C 
ATOM      7  C   UNL     1       1.843  26.640  55.750  1.00  0.00     0.039 C 
ATOM      8  C   UNL     1       1.853  26.751  54.243  1.00  0.00    -0.080 C 
ATOM      9  C   UNL     1       2.963  26.101  53.458  1.00  0.00     0.039 C 
ENDBRANCH   5   6
ENDBRANCH   4   5
ENDBRANCH   1   4
BRANCH   2  10
ATOM     10  C   UNL     1      -2.076  30.792  51.033  1.00  0.00     0.035 C 
BRANCH  10  11
ATOM     11  C   UNL     1      -1.774  30.794  49.531  1.00  0.00     0.079 C 
BRANCH  11  12
ATOM     12  C   UNL     1      -0.342  30.405  49.275  1.00  0.00     0.130 C 
ATOM     13  O   UNL     1       0.445  30.363  50.209  1.00  0.00    -0.300 OA
ATOM     14  C   UNL     1       0.140  30.055  47.899  1.00  0.00     0.087 C 
ENDBRANCH  11  12
ENDBRANCH  10  11
ENDBRANCH   2  10
TORSDOF 6
ENDMDL
MODEL 5
REMARK VINA RESULT:    -4.758      3.106      6.025
REMARK INTER + INTRA:          -7.425
REMARK INTER:                  -6.584
REMARK INTRA:                  -0.841
REMARK UNBOUND:                -0.998
REMARK SMILES CC(=O)CCC=C(C)CCC=C(C)C
REMARK SMILES IDX 7 1 6 2 8 3 9 4 10 5 11 6 13 7 12 8 14 9 5 10 4 11 2 12 3 13
REMARK SMILES IDX 1 14
REMARK H PARENT
REMARK Flexibility Score: inf
ROOT
ATOM      1  C   UNL     1      -1.170  28.021  52.781  1.00  0.00    -0.077 C 
ATOM      2  C   UNL     1      -1.952  27.864  53.874  1.00  0.00    -0.028 C 
ATOM      3  C   UNL     1      -1.475  27.195  51.559  1.00  0.00     0.039 C 
ENDROOT
BRANCH   1   4
ATOM      4  C   UNL     1       0.038  28.936  52.754  1.00  0.00     0.034 C 
BRANCH   4   5
ATOM      5  C   UNL     1      -0.377  30.364  52.385  1.00  0.00     0.032 C 
BRANCH   5   6
ATOM      6  C   UNL     1      -0.440  30.533  50.889  1.00  0.00    -0.028 C 
ATOM      7  C   UNL     1      -2.931  30.793  50.862  1.00  0.00     0.039 C 
ATOM      8  C   UNL     1      -1.577  30.752  50.192  1.00  0.00    -0.080 C 
ATOM      9  C   UNL     1      -1.481  30.942  48.701  1.00  0.00     0.039 C 
ENDBRANCH   5   6
ENDBRANCH   4   5
ENDBRANCH   1   4
BRANCH   2  10
ATOM     10  C   UNL     1      -1.783  28.619  55.169  1.00  0.00     0.035 C 
BRANCH  10  11
ATOM     11  C   UNL     1      -3.138  29.098  55.699  1.00  0.00     0.079 C 
BRANCH  11  12
ATOM     12  C   UNL     1      -3.001  29.634  57.100  1.00  0.00     0.130 C 
ATOM     13  O   UNL     1      -2.183  29.135  57.857  1.00  0.00    -0.300 OA
ATOM     14  C   UNL     1      -3.841  30.778  57.586  1.00  0.00     0.087 C 
ENDBRANCH  11  12
ENDBRANCH  10  11
ENDBRANCH   2  10
TORSDOF 6
ENDMDL
MODEL 6
REMARK VINA RESULT:    -4.504      3.091      4.878
REMARK INTER + INTRA:          -7.082
REMARK INTER:                  -6.086
REMARK INTRA:                  -0.995
REMARK UNBOUND:                -0.998
REMARK SMILES CC(=O)CCC=C(C)CCC=C(C)C
REMARK SMILES IDX 7 1 6 2 8 3 9 4 10 5 11 6 13 7 12 8 14 9 5 10 4 11 2 12 3 13
REMARK SMILES IDX 1 14
REMARK H PARENT
REMARK Flexibility Score: inf
ROOT
ATOM      1  C   UNL     1      -1.384  28.739  53.288  1.00  0.00    -0.077 C 
ATOM      2  C   UNL     1      -1.795  29.301  54.448  1.00  0.00    -0.028 C 
ATOM      3  C   UNL     1      -0.585  29.582  52.328  1.00  0.00     0.039 C 
ENDROOT
BRANCH   1   4
ATOM      4  C   UNL     1      -1.748  27.325  52.880  1.00  0.00     0.034 C 
BRANCH   4   5
ATOM      5  C   UNL     1      -0.488  26.469  52.719  1.00  0.00     0.032 C 
BRANCH   5   6
ATOM      6  C   UNL     1       0.187  26.256  54.050  1.00  0.00    -0.028 C 
ATOM      7  C   UNL     1       2.256  27.499  53.383  1.00  0.00     0.039 C 
ATOM      8  C   UNL     1       1.409  26.734  54.373  1.00  0.00    -0.080 C 
ATOM      9  C   UNL     1       1.938  26.476  55.760  1.00  0.00     0.039 C 
ENDBRANCH   5   6
ENDBRANCH   4   5
ENDBRANCH   1   4
BRANCH   2  10
ATOM     10  C   UNL     1      -2.593  28.592  55.513  1.00  0.00     0.035 C 
BRANCH  10  11
ATOM     11  C   UNL     1      -3.729  29.483  56.025  1.00  0.00     0.079 C 
BRANCH  11  12
ATOM     12  C   UNL     1      -3.338  30.152  57.317  1.00  0.00     0.130 C 
ATOM     13  O   UNL     1      -2.365  29.745  57.934  1.00  0.00    -0.300 OA
ATOM     14  C   UNL     1      -4.112  31.316  57.861  1.00  0.00     0.087 C 
ENDBRANCH  11  12
ENDBRANCH  10  11
ENDBRANCH   2  10
TORSDOF 6
ENDMDL
MODEL 7
REMARK VINA RESULT:    -4.440      3.080      5.799
REMARK INTER + INTRA:          -6.995
REMARK INTER:                  -6.326
REMARK INTRA:                  -0.669
REMARK UNBOUND:                -0.998
REMARK SMILES CC(=O)CCC=C(C)CCC=C(C)C
REMARK SMILES IDX 7 1 6 2 8 3 9 4 10 5 11 6 13 7 12 8 14 9 5 10 4 11 2 12 3 13
REMARK SMILES IDX 1 14
REMARK H PARENT
REMARK Flexibility Score: inf
ROOT
ATOM      1  C   UNL     1      -1.027  27.340  53.918  1.00  0.00    -0.077 C 
ATOM      2  C   UNL     1      -1.086  28.129  55.016  1.00  0.00    -0.028 C 
ATOM      3  C   UNL     1       0.285  26.680  53.581  1.00  0.00     0.039 C 
ENDROOT
BRANCH   1   4
ATOM      4  C   UNL     1      -2.198  27.147  52.976  1.00  0.00     0.034 C 
BRANCH   4   5
ATOM      5  C   UNL     1      -1.837  27.619  51.563  1.00  0.00     0.032 C 
BRANCH   5   6
ATOM      6  C   UNL     1      -1.152  28.960  51.606  1.00  0.00    -0.028 C 
ATOM      7  C   UNL     1      -3.297  30.242  51.434  1.00  0.00     0.039 C 
ATOM      8  C   UNL     1      -1.795  30.148  51.575  1.00  0.00    -0.080 C 
ATOM      9  C   UNL     1      -0.978  31.410  51.668  1.00  0.00     0.039 C 
ENDBRANCH   5   6
ENDBRANCH   4   5
ENDBRANCH   1   4
BRANCH   2  10
ATOM     10  C   UNL     1      -2.321  28.851  55.491  1.00  0.00     0.035 C 
BRANCH  10  11
ATOM     11  C   UNL     1      -2.368  28.898  57.022  1.00  0.00     0.079 C 
BRANCH  11  12
ATOM     12  C   UNL     1      -3.129  30.109  57.494  1.00  0.00     0.130 C 
ATOM     13  O   UNL     1      -4.125  30.468  56.885  1.00  0.00    -0.300 OA
ATOM     14  C   UNL     1      -2.697  30.881  58.706  1.00  0.00     0.087 C 
ENDBRANCH  11  12
ENDBRANCH  10  11
ENDBRANCH   2  10
TORSDOF 6
ENDMDL
MODEL 8
REMARK VINA RESULT:    -4.412      1.557      3.626
REMARK INTER + INTRA:          -6.957
REMARK INTER:                  -6.418
REMARK INTRA:                  -0.540
REMARK UNBOUND:                -0.998
REMARK SMILES CC(=O)CCC=C(C)CCC=C(C)C
REMARK SMILES IDX 7 1 6 2 8 3 9 4 10 5 11 6 13 7 12 8 14 9 5 10 4 11 2 12 3 13
REMARK SMILES IDX 1 14
REMARK H PARENT
REMARK Flexibility Score: inf
ROOT
ATOM      1  C   UNL     1      -0.811  27.879  53.104  1.00  0.00    -0.077 C 
ATOM      2  C   UNL     1      -1.142  28.046  51.802  1.00  0.00    -0.028 C 
ATOM      3  C   UNL     1       0.038  26.692  53.480  1.00  0.00     0.039 C 
ENDROOT
BRANCH   1   4
ATOM      4  C   UNL     1      -1.310  28.791  54.206  1.00  0.00     0.034 C 
BRANCH   4   5
ATOM      5  C   UNL     1      -2.621  28.258  54.794  1.00  0.00     0.032 C 
BRANCH   5   6
ATOM      6  C   UNL     1      -3.338  29.335  55.567  1.00  0.00    -0.028 C 
ATOM      7  C   UNL     1      -2.205  28.767  57.727  1.00  0.00     0.039 C 
ATOM      8  C   UNL     1      -3.143  29.594  56.879  1.00  0.00    -0.080 C 
ATOM      9  C   UNL     1      -3.902  30.732  57.508  1.00  0.00     0.039 C 
ENDBRANCH   5   6
ENDBRANCH   4   5
ENDBRANCH   1   4
BRANCH   2  10
ATOM     10  C   UNL     1      -1.975  29.181  51.264  1.00  0.00     0.035 C 
BRANCH  10  11
ATOM     11  C   UNL     1      -1.116  30.432  51.050  1.00  0.00     0.079 C 
BRANCH  11  12
ATOM     12  C   UNL     1      -0.820  30.630  49.587  1.00  0.00     0.130 C 
ATOM     13  O   UNL     1       0.290  30.357  49.156  1.00  0.00    -0.300 OA
ATOM     14  C   UNL     1      -1.865  31.144  48.640  1.00  0.00     0.087 C 
ENDBRANCH  11  12
ENDBRANCH  10  11
ENDBRANCH   2  10
TORSDOF 6
ENDMDL
MODEL 9
REMARK VINA RESULT:    -4.304      2.177      5.134
REMARK INTER + INTRA:          -6.811
REMARK INTER:                  -6.111
REMARK INTRA:                  -0.700
REMARK UNBOUND:                -0.998
REMARK SMILES CC(=O)CCC=C(C)CCC=C(C)C
REMARK SMILES IDX 7 1 6 2 8 3 9 4 10 5 11 6 13 7 12 8 14 9 5 10 4 11 2 12 3 13
REMARK SMILES IDX 1 14
REMARK H PARENT
REMARK Flexibility Score: inf
ROOT
ATOM      1  C   UNL     1      -2.893  29.683  51.939  1.00  0.00    -0.077 C 
ATOM      2  C   UNL     1      -2.256  28.699  52.615  1.00  0.00    -0.028 C 
ATOM      3  C   UNL     1      -3.589  30.760  52.731  1.00  0.00     0.039 C 
ENDROOT
BRANCH   1   4
ATOM      4  C   UNL     1      -2.997  29.714  50.427  1.00  0.00     0.034 C 
BRANCH   4   5
ATOM      5  C   UNL     1      -2.460  31.040  49.877  1.00  0.00     0.032 C 
BRANCH   5   6
ATOM      6  C   UNL     1      -1.425  30.795  48.809  1.00  0.00    -0.028 C 
ATOM      7  C   UNL     1       0.386  30.272  50.457  1.00  0.00     0.039 C 
ATOM      8  C   UNL     1      -0.149  30.425  49.052  1.00  0.00    -0.080 C 
ATOM      9  C   UNL     1       0.763  30.175  47.880  1.00  0.00     0.039 C 
ENDBRANCH   5   6
ENDBRANCH   4   5
ENDBRANCH   1   4
BRANCH   2  10
ATOM     10  C   UNL     1      -1.509  27.558  51.972  1.00  0.00     0.035 C 
BRANCH  10  11
ATOM     11  C   UNL     1      -0.874  26.656  53.036  1.00  0.00     0.079 C 
BRANCH  11  12
ATOM     12  C   UNL     1       0.096  27.436  53.884  1.00  0.00     0.130 C 
ATOM     13  O   UNL     1      -0.276  27.895  54.953  1.00  0.00    -0.300 OA
ATOM     14  C   UNL     1       1.515  27.653  53.451  1.00  0.00     0.087 C 
ENDBRANCH  11  12
ENDBRANCH  10  11
ENDBRANCH   2  10
TORSDOF 6
ENDMDL
