MODEL 1
REMARK VINA RESULT:    -3.365      0.000      0.000
REMARK INTER + INTRA:         -13.519
REMARK INTER:                  -8.479
REMARK INTRA:                  -5.040
REMARK UNBOUND:                -5.040
REMARK SMILES CCCCCCCCCCCCCCCCCCCCCCCCCCCC(=O)[O-]
REMARK SMILES IDX 15 1 16 2 17 3 18 4 19 5 20 6 21 7 22 8 23 9 24 10 25 11
REMARK SMILES IDX 26 12 27 13 28 14 29 15 30 16 14 17 13 18 12 19 11 20 10 21
REMARK SMILES IDX 9 22 8 23 7 24 6 25 5 26 4 27 3 28 2 29 1 30
REMARK H PARENT
REMARK Flexibility Score: inf
ROOT
ATOM      1  C   UNL     1      23.677  18.431  25.722  1.00  0.00     0.000 C 
ENDROOT
BRANCH   1   2
ATOM      2  C   UNL     1      24.346  19.734  26.214  1.00  0.00     0.000 C 
BRANCH   2   3
ATOM      3  C   UNL     1      23.404  20.644  27.024  1.00  0.00     0.000 C 
BRANCH   3   4
ATOM      4  C   UNL     1      23.783  22.137  27.025  1.00  0.00     0.000 C 
BRANCH   4   5
ATOM      5  C   UNL     1      22.596  23.084  26.742  1.00  0.00     0.000 C 
BRANCH   5   6
ATOM      6  C   UNL     1      23.014  24.563  26.674  1.00  0.00     0.000 C 
BRANCH   6   7
ATOM      7  C   UNL     1      22.844  25.166  25.272  1.00  0.00     0.000 C 
BRANCH   7   8
ATOM      8  C   UNL     1      23.308  26.630  25.195  1.00  0.00     0.000 C 
BRANCH   8   9
ATOM      9  C   UNL     1      24.152  26.879  23.939  1.00  0.00     0.000 C 
BRANCH   9  10
ATOM     10  C   UNL     1      25.568  26.315  24.112  1.00  0.00     0.000 C 
BRANCH  10  11
ATOM     11  C   UNL     1      26.539  26.930  23.097  1.00  0.00     0.000 C 
BRANCH  11  12
ATOM     12  C   UNL     1      26.123  26.575  21.661  1.00  0.00     0.006 C 
BRANCH  12  13
ATOM     13  C   UNL     1      26.982  25.450  21.064  1.00  0.00     0.053 C 
BRANCH  13  14
ATOM     14  C   UNL     1      26.768  25.292  19.589  1.00  0.00     0.041 C 
ATOM     15  O   UNL     1      25.770  25.818  19.030  1.00  0.00    -0.550 OA
ATOM     16  O   UNL     1      27.687  24.578  18.827  1.00  0.00    -0.550 OA
ENDBRANCH  13  14
ENDBRANCH  12  13
ENDBRANCH  11  12
ENDBRANCH  10  11
ENDBRANCH   9  10
ENDBRANCH   8   9
ENDBRANCH   7   8
ENDBRANCH   6   7
ENDBRANCH   5   6
ENDBRANCH   4   5
ENDBRANCH   3   4
ENDBRANCH   2   3
ENDBRANCH   1   2
BRANCH   1  17
ATOM     17  C   UNL     1      24.063  18.072  24.277  1.00  0.00     0.000 C 
BRANCH  17  18
ATOM     18  C   UNL     1      24.212  19.309  23.374  1.00  0.00     0.000 C 
BRANCH  18  19
ATOM     19  C   UNL     1      22.884  19.973  22.952  1.00  0.00     0.000 C 
BRANCH  19  20
ATOM     20  C   UNL     1      22.804  21.491  23.209  1.00  0.00     0.000 C 
BRANCH  20  21
ATOM     21  C   UNL     1      24.165  22.186  23.411  1.00  0.00     0.000 C 
BRANCH  21  22
ATOM     22  C   UNL     1      24.498  23.276  22.372  1.00  0.00    -0.000 C 
BRANCH  22  23
ATOM     23  C   UNL     1      23.277  24.015  21.788  1.00  0.00    -0.000 C 
BRANCH  23  24
ATOM     24  C   UNL     1      23.055  23.807  20.277  1.00  0.00    -0.000 C 
BRANCH  24  25
ATOM     25  C   UNL     1      23.746  22.561  19.691  1.00  0.00    -0.000 C 
BRANCH  25  26
ATOM     26  C   UNL     1      22.785  21.373  19.474  1.00  0.00    -0.000 C 
BRANCH  26  27
ATOM     27  C   UNL     1      23.517  20.107  18.998  1.00  0.00    -0.000 C 
BRANCH  27  28
ATOM     28  C   UNL     1      24.943  19.997  19.564  1.00  0.00    -0.000 C 
BRANCH  28  29
ATOM     29  C   UNL     1      25.336  18.558  19.964  1.00  0.00    -0.003 C 
ATOM     30  C   UNL     1      24.250  17.541  19.611  1.00  0.00     0.004 C 
ENDBRANCH  28  29
ENDBRANCH  27  28
ENDBRANCH  26  27
ENDBRANCH  25  26
ENDBRANCH  24  25
ENDBRANCH  23  24
ENDBRANCH  22  23
ENDBRANCH  21  22
ENDBRANCH  20  21
ENDBRANCH  19  20
ENDBRANCH  18  19
ENDBRANCH  17  18
ENDBRANCH   1  17
TORSDOF 26
ENDMDL
MODEL 2
REMARK VINA RESULT:    -3.364      6.176      9.635
REMARK INTER + INTRA:         -13.517
REMARK INTER:                  -8.854
REMARK INTRA:                  -4.663
REMARK UNBOUND:                -5.040
REMARK SMILES CCCCCCCCCCCCCCCCCCCCCCCCCCCC(=O)[O-]
REMARK SMILES IDX 15 1 16 2 17 3 18 4 19 5 20 6 21 7 22 8 23 9 24 10 25 11
REMARK SMILES IDX 26 12 27 13 28 14 29 15 30 16 14 17 13 18 12 19 11 20 10 21
REMARK SMILES IDX 9 22 8 23 7 24 6 25 5 26 4 27 3 28 2 29 1 30
REMARK H PARENT
REMARK Flexibility Score: inf
ROOT
ATOM      1  C   UNL     1      26.642  11.039  26.537  1.00  0.00     0.000 C 
ENDROOT
BRANCH   1   2
ATOM      2  C   UNL     1      26.732  12.562  26.291  1.00  0.00     0.000 C 
BRANCH   2   3
ATOM      3  C   UNL     1      25.387  13.294  26.454  1.00  0.00     0.000 C 
BRANCH   3   4
ATOM      4  C   UNL     1      25.012  14.231  25.289  1.00  0.00     0.000 C 
BRANCH   4   5
ATOM      5  C   UNL     1      23.945  15.287  25.654  1.00  0.00     0.000 C 
BRANCH   5   6
ATOM      6  C   UNL     1      24.372  16.189  26.825  1.00  0.00     0.000 C 
BRANCH   6   7
ATOM      7  C   UNL     1      23.921  17.647  26.648  1.00  0.00     0.000 C 
BRANCH   7   8
ATOM      8  C   UNL     1      24.673  18.367  25.517  1.00  0.00     0.000 C 
BRANCH   8   9
ATOM      9  C   UNL     1      23.708  18.851  24.428  1.00  0.00     0.000 C 
BRANCH   9  10
ATOM     10  C   UNL     1      23.896  18.047  23.136  1.00  0.00     0.000 C 
BRANCH  10  11
ATOM     11  C   UNL     1      22.682  17.152  22.857  1.00  0.00     0.000 C 
BRANCH  11  12
ATOM     12  C   UNL     1      23.109  15.870  22.125  1.00  0.00     0.006 C 
BRANCH  12  13
ATOM     13  C   UNL     1      23.777  16.162  20.774  1.00  0.00     0.053 C 
BRANCH  13  14
ATOM     14  C   UNL     1      22.782  16.534  19.715  1.00  0.00     0.041 C 
ATOM     15  O   UNL     1      22.384  17.724  19.605  1.00  0.00    -0.550 OA
ATOM     16  O   UNL     1      22.311  15.566  18.835  1.00  0.00    -0.550 OA
ENDBRANCH  13  14
ENDBRANCH  12  13
ENDBRANCH  11  12
ENDBRANCH  10  11
ENDBRANCH   9  10
ENDBRANCH   8   9
ENDBRANCH   7   8
ENDBRANCH   6   7
ENDBRANCH   5   6
ENDBRANCH   4   5
ENDBRANCH   3   4
ENDBRANCH   2   3
ENDBRANCH   1   2
BRANCH   1  17
ATOM     17  C   UNL     1      25.197  10.554  26.745  1.00  0.00     0.000 C 
BRANCH  17  18
ATOM     18  C   UNL     1      24.661   9.744  25.552  1.00  0.00     0.000 C 
BRANCH  18  19
ATOM     19  C   UNL     1      23.289  10.203  25.015  1.00  0.00     0.000 C 
BRANCH  19  20
ATOM     20  C   UNL     1      23.339  11.005  23.699  1.00  0.00     0.000 C 
BRANCH  20  21
ATOM     21  C   UNL     1      22.451  10.447  22.569  1.00  0.00     0.000 C 
BRANCH  21  22
ATOM     22  C   UNL     1      23.063  10.543  21.156  1.00  0.00    -0.000 C 
BRANCH  22  23
ATOM     23  C   UNL     1      22.765  11.856  20.403  1.00  0.00    -0.000 C 
BRANCH  23  24
ATOM     24  C   UNL     1      24.012  12.650  19.967  1.00  0.00    -0.000 C 
BRANCH  24  25
ATOM     25  C   UNL     1      25.338  12.147  20.568  1.00  0.00    -0.000 C 
BRANCH  25  26
ATOM     26  C   UNL     1      25.787  12.941  21.813  1.00  0.00    -0.000 C 
BRANCH  26  27
ATOM     27  C   UNL     1      26.779  12.152  22.684  1.00  0.00    -0.000 C 
BRANCH  27  28
ATOM     28  C   UNL     1      26.768  10.644  22.380  1.00  0.00    -0.000 C 
BRANCH  28  29
ATOM     29  C   UNL     1      27.762   9.836  23.242  1.00  0.00    -0.003 C 
ATOM     30  C   UNL     1      29.096   9.607  22.529  1.00  0.00     0.004 C 
ENDBRANCH  28  29
ENDBRANCH  27  28
ENDBRANCH  26  27
ENDBRANCH  25  26
ENDBRANCH  24  25
ENDBRANCH  23  24
ENDBRANCH  22  23
ENDBRANCH  21  22
ENDBRANCH  20  21
ENDBRANCH  19  20
ENDBRANCH  18  19
ENDBRANCH  17  18
ENDBRANCH   1  17
TORSDOF 26
ENDMDL
MODEL 3
REMARK VINA RESULT:    -3.343      3.098      7.649
REMARK INTER + INTRA:         -13.464
REMARK INTER:                  -8.881
REMARK INTRA:                  -4.583
REMARK UNBOUND:                -5.040
REMARK SMILES CCCCCCCCCCCCCCCCCCCCCCCCCCCC(=O)[O-]
REMARK SMILES IDX 15 1 16 2 17 3 18 4 19 5 20 6 21 7 22 8 23 9 24 10 25 11
REMARK SMILES IDX 26 12 27 13 28 14 29 15 30 16 14 17 13 18 12 19 11 20 10 21
REMARK SMILES IDX 9 22 8 23 7 24 6 25 5 26 4 27 3 28 2 29 1 30
REMARK H PARENT
REMARK Flexibility Score: inf
ROOT
ATOM      1  C   UNL     1      22.898  26.128  25.020  1.00  0.00     0.000 C 
ENDROOT
BRANCH   1   2
ATOM      2  C   UNL     1      24.264  25.406  25.053  1.00  0.00     0.000 C 
BRANCH   2   3
ATOM      3  C   UNL     1      24.363  24.227  24.067  1.00  0.00     0.000 C 
BRANCH   3   4
ATOM      4  C   UNL     1      23.015  23.594  23.674  1.00  0.00     0.000 C 
BRANCH   4   5
ATOM      5  C   UNL     1      22.911  23.220  22.179  1.00  0.00     0.000 C 
BRANCH   5   6
ATOM      6  C   UNL     1      24.285  23.020  21.515  1.00  0.00     0.000 C 
BRANCH   6   7
ATOM      7  C   UNL     1      24.183  22.726  20.011  1.00  0.00     0.000 C 
BRANCH   7   8
ATOM      8  C   UNL     1      24.614  21.294  19.656  1.00  0.00     0.000 C 
BRANCH   8   9
ATOM      9  C   UNL     1      23.533  20.277  20.038  1.00  0.00     0.000 C 
BRANCH   9  10
ATOM     10  C   UNL     1      24.138  19.102  20.816  1.00  0.00     0.000 C 
BRANCH  10  11
ATOM     11  C   UNL     1      23.458  18.928  22.179  1.00  0.00     0.000 C 
BRANCH  11  12
ATOM     12  C   UNL     1      24.483  19.040  23.318  1.00  0.00     0.006 C 
BRANCH  12  13
ATOM     13  C   UNL     1      24.303  20.324  24.142  1.00  0.00     0.053 C 
BRANCH  13  14
ATOM     14  C   UNL     1      24.494  20.090  25.610  1.00  0.00     0.041 C 
ATOM     15  O   UNL     1      24.341  21.033  26.431  1.00  0.00    -0.550 OA
ATOM     16  O   UNL     1      24.822  18.819  26.073  1.00  0.00    -0.550 OA
ENDBRANCH  13  14
ENDBRANCH  12  13
ENDBRANCH  11  12
ENDBRANCH  10  11
ENDBRANCH   9  10
ENDBRANCH   8   9
ENDBRANCH   7   8
ENDBRANCH   6   7
ENDBRANCH   5   6
ENDBRANCH   4   5
ENDBRANCH   3   4
ENDBRANCH   2   3
ENDBRANCH   1   2
BRANCH   1  17
ATOM     17  C   UNL     1      23.021  27.619  24.665  1.00  0.00     0.000 C 
BRANCH  17  18
ATOM     18  C   UNL     1      22.270  27.989  23.374  1.00  0.00     0.000 C 
BRANCH  18  19
ATOM     19  C   UNL     1      22.112  26.839  22.358  1.00  0.00     0.000 C 
BRANCH  19  20
ATOM     20  C   UNL     1      23.068  26.901  21.149  1.00  0.00     0.000 C 
BRANCH  20  21
ATOM     21  C   UNL     1      24.564  26.992  21.511  1.00  0.00     0.000 C 
BRANCH  21  22
ATOM     22  C   UNL     1      25.512  26.251  20.546  1.00  0.00    -0.000 C 
BRANCH  22  23
ATOM     23  C   UNL     1      26.823  25.744  21.180  1.00  0.00    -0.000 C 
BRANCH  23  24
ATOM     24  C   UNL     1      27.056  26.193  22.636  1.00  0.00    -0.000 C 
BRANCH  24  25
ATOM     25  C   UNL     1      27.640  27.610  22.786  1.00  0.00    -0.000 C 
BRANCH  25  26
ATOM     26  C   UNL     1      29.180  27.630  22.892  1.00  0.00    -0.000 C 
BRANCH  26  27
ATOM     27  C   UNL     1      29.838  28.367  21.713  1.00  0.00    -0.000 C 
BRANCH  27  28
ATOM     28  C   UNL     1      28.811  28.916  20.707  1.00  0.00    -0.000 C 
BRANCH  28  29
ATOM     29  C   UNL     1      29.229  28.721  19.234  1.00  0.00    -0.003 C 
ATOM     30  C   UNL     1      28.280  27.787  18.481  1.00  0.00     0.004 C 
ENDBRANCH  28  29
ENDBRANCH  27  28
ENDBRANCH  26  27
ENDBRANCH  25  26
ENDBRANCH  24  25
ENDBRANCH  23  24
ENDBRANCH  22  23
ENDBRANCH  21  22
ENDBRANCH  20  21
ENDBRANCH  19  20
ENDBRANCH  18  19
ENDBRANCH  17  18
ENDBRANCH   1  17
TORSDOF 26
ENDMDL
MODEL 4
REMARK VINA RESULT:    -3.342      6.617     11.328
REMARK INTER + INTRA:         -13.462
REMARK INTER:                  -8.413
REMARK INTRA:                  -5.050
REMARK UNBOUND:                -5.040
REMARK SMILES CCCCCCCCCCCCCCCCCCCCCCCCCCCC(=O)[O-]
REMARK SMILES IDX 15 1 16 2 17 3 18 4 19 5 20 6 21 7 22 8 23 9 24 10 25 11
REMARK SMILES IDX 26 12 27 13 28 14 29 15 30 16 14 17 13 18 12 19 11 20 10 21
REMARK SMILES IDX 9 22 8 23 7 24 6 25 5 26 4 27 3 28 2 29 1 30
REMARK H PARENT
REMARK Flexibility Score: inf
ROOT
ATOM      1  C   UNL     1      26.018  13.738  22.787  1.00  0.00     0.000 C 
ENDROOT
BRANCH   1   2
ATOM      2  C   UNL     1      26.652  12.328  22.752  1.00  0.00     0.000 C 
BRANCH   2   3
ATOM      3  C   UNL     1      26.079  11.421  21.647  1.00  0.00     0.000 C 
BRANCH   3   4
ATOM      4  C   UNL     1      25.491  12.167  20.434  1.00  0.00     0.000 C 
BRANCH   4   5
ATOM      5  C   UNL     1      24.132  11.610  19.956  1.00  0.00     0.000 C 
BRANCH   5   6
ATOM      6  C   UNL     1      23.082  11.545  21.079  1.00  0.00     0.000 C 
BRANCH   6   7
ATOM      7  C   UNL     1      22.691  10.106  21.445  1.00  0.00     0.000 C 
BRANCH   7   8
ATOM      8  C   UNL     1      22.063  10.000  22.845  1.00  0.00     0.000 C 
BRANCH   8   9
ATOM      9  C   UNL     1      22.733  10.966  23.829  1.00  0.00     0.000 C 
BRANCH   9  10
ATOM     10  C   UNL     1      22.415  10.577  25.278  1.00  0.00     0.000 C 
BRANCH  10  11
ATOM     11  C   UNL     1      23.674  10.111  26.018  1.00  0.00     0.000 C 
BRANCH  11  12
ATOM     12  C   UNL     1      24.924  10.313  25.148  1.00  0.00     0.006 C 
BRANCH  12  13
ATOM     13  C   UNL     1      26.173   9.660  25.757  1.00  0.00     0.053 C 
BRANCH  13  14
ATOM     14  C   UNL     1      27.184  10.673  26.204  1.00  0.00     0.041 C 
ATOM     15  O   UNL     1      26.852  11.877  26.366  1.00  0.00    -0.550 OA
ATOM     16  O   UNL     1      28.493  10.279  26.463  1.00  0.00    -0.550 OA
ENDBRANCH  13  14
ENDBRANCH  12  13
ENDBRANCH  11  12
ENDBRANCH  10  11
ENDBRANCH   9  10
ENDBRANCH   8   9
ENDBRANCH   7   8
ENDBRANCH   6   7
ENDBRANCH   5   6
ENDBRANCH   4   5
ENDBRANCH   3   4
ENDBRANCH   2   3
ENDBRANCH   1   2
BRANCH   1  17
ATOM     17  C   UNL     1      25.017  13.912  23.941  1.00  0.00     0.000 C 
BRANCH  17  18
ATOM     18  C   UNL     1      23.674  14.507  23.482  1.00  0.00     0.000 C 
BRANCH  18  19
ATOM     19  C   UNL     1      23.657  15.040  22.034  1.00  0.00     0.000 C 
BRANCH  19  20
ATOM     20  C   UNL     1      22.261  15.401  21.488  1.00  0.00     0.000 C 
BRANCH  20  21
ATOM     21  C   UNL     1      22.082  15.182  19.973  1.00  0.00     0.000 C 
BRANCH  21  22
ATOM     22  C   UNL     1      23.396  15.035  19.179  1.00  0.00    -0.000 C 
BRANCH  22  23
ATOM     23  C   UNL     1      23.940  16.343  18.569  1.00  0.00    -0.000 C 
BRANCH  23  24
ATOM     24  C   UNL     1      22.883  17.227  17.879  1.00  0.00    -0.000 C 
BRANCH  24  25
ATOM     25  C   UNL     1      23.001  18.731  18.188  1.00  0.00    -0.000 C 
BRANCH  25  26
ATOM     26  C   UNL     1      24.128  19.064  19.189  1.00  0.00    -0.000 C 
BRANCH  26  27
ATOM     27  C   UNL     1      23.611  19.187  20.632  1.00  0.00    -0.000 C 
BRANCH  27  28
ATOM     28  C   UNL     1      24.558  18.545  21.661  1.00  0.00    -0.000 C 
BRANCH  28  29
ATOM     29  C   UNL     1      23.990  18.534  23.096  1.00  0.00    -0.003 C 
ATOM     30  C   UNL     1      22.481  18.784  23.126  1.00  0.00     0.004 C 
ENDBRANCH  28  29
ENDBRANCH  27  28
ENDBRANCH  26  27
ENDBRANCH  25  26
ENDBRANCH  24  25
ENDBRANCH  23  24
ENDBRANCH  22  23
ENDBRANCH  21  22
ENDBRANCH  20  21
ENDBRANCH  19  20
ENDBRANCH  18  19
ENDBRANCH  17  18
ENDBRANCH   1  17
TORSDOF 26
ENDMDL
MODEL 5
REMARK VINA RESULT:    -3.339      2.983      8.023
REMARK INTER + INTRA:         -13.454
REMARK INTER:                  -7.847
REMARK INTRA:                  -5.607
REMARK UNBOUND:                -5.040
REMARK SMILES CCCCCCCCCCCCCCCCCCCCCCCCCCCC(=O)[O-]
REMARK SMILES IDX 15 1 16 2 17 3 18 4 19 5 20 6 21 7 22 8 23 9 24 10 25 11
REMARK SMILES IDX 26 12 27 13 28 14 29 15 30 16 14 17 13 18 12 19 11 20 10 21
REMARK SMILES IDX 9 22 8 23 7 24 6 25 5 26 4 27 3 28 2 29 1 30
REMARK H PARENT
REMARK Flexibility Score: inf
ROOT
ATOM      1  C   UNL     1      27.652  24.933  17.905  1.00  0.00     0.000 C 
ENDROOT
BRANCH   1   2
ATOM      2  C   UNL     1      27.305  24.004  16.720  1.00  0.00     0.000 C 
BRANCH   2   3
ATOM      3  C   UNL     1      26.344  24.640  15.698  1.00  0.00     0.000 C 
BRANCH   3   4
ATOM      4  C   UNL     1      26.144  26.160  15.853  1.00  0.00     0.000 C 
BRANCH   4   5
ATOM      5  C   UNL     1      24.715  26.563  16.278  1.00  0.00     0.000 C 
BRANCH   5   6
ATOM      6  C   UNL     1      23.824  25.352  16.605  1.00  0.00     0.000 C 
BRANCH   6   7
ATOM      7  C   UNL     1      23.347  25.341  18.065  1.00  0.00     0.000 C 
BRANCH   7   8
ATOM      8  C   UNL     1      23.334  23.930  18.674  1.00  0.00     0.000 C 
BRANCH   8   9
ATOM      9  C   UNL     1      23.749  22.875  17.642  1.00  0.00     0.000 C 
BRANCH   9  10
ATOM     10  C   UNL     1      24.710  21.854  18.262  1.00  0.00     0.000 C 
BRANCH  10  11
ATOM     11  C   UNL     1      24.597  21.841  19.792  1.00  0.00     0.000 C 
BRANCH  11  12
ATOM     12  C   UNL     1      24.058  20.490  20.287  1.00  0.00     0.006 C 
BRANCH  12  13
ATOM     13  C   UNL     1      24.015  19.434  19.173  1.00  0.00     0.053 C 
BRANCH  13  14
ATOM     14  C   UNL     1      24.751  18.182  19.546  1.00  0.00     0.041 C 
ATOM     15  O   UNL     1      24.306  17.055  19.203  1.00  0.00    -0.550 OA
ATOM     16  O   UNL     1      25.943  18.265  20.259  1.00  0.00    -0.550 OA
ENDBRANCH  13  14
ENDBRANCH  12  13
ENDBRANCH  11  12
ENDBRANCH  10  11
ENDBRANCH   9  10
ENDBRANCH   8   9
ENDBRANCH   7   8
ENDBRANCH   6   7
ENDBRANCH   5   6
ENDBRANCH   4   5
ENDBRANCH   3   4
ENDBRANCH   2   3
ENDBRANCH   1   2
BRANCH   1  17
ATOM     17  C   UNL     1      27.161  24.384  19.255  1.00  0.00     0.000 C 
BRANCH  17  18
ATOM     18  C   UNL     1      26.404  25.434  20.087  1.00  0.00     0.000 C 
BRANCH  18  19
ATOM     19  C   UNL     1      26.552  26.889  19.594  1.00  0.00     0.000 C 
BRANCH  19  20
ATOM     20  C   UNL     1      25.294  27.765  19.760  1.00  0.00     0.000 C 
BRANCH  20  21
ATOM     21  C   UNL     1      24.566  27.601  21.110  1.00  0.00     0.000 C 
BRANCH  21  22
ATOM     22  C   UNL     1      23.027  27.659  21.029  1.00  0.00    -0.000 C 
BRANCH  22  23
ATOM     23  C   UNL     1      22.287  27.120  22.269  1.00  0.00    -0.000 C 
BRANCH  23  24
ATOM     24  C   UNL     1      22.305  28.056  23.493  1.00  0.00    -0.000 C 
BRANCH  24  25
ATOM     25  C   UNL     1      23.099  27.522  24.700  1.00  0.00    -0.000 C 
BRANCH  25  26
ATOM     26  C   UNL     1      23.098  25.981  24.801  1.00  0.00    -0.000 C 
BRANCH  26  27
ATOM     27  C   UNL     1      24.515  25.404  24.946  1.00  0.00    -0.000 C 
BRANCH  27  28
ATOM     28  C   UNL     1      25.161  25.065  23.592  1.00  0.00    -0.000 C 
BRANCH  28  29
ATOM     29  C   UNL     1      24.344  24.057  22.755  1.00  0.00    -0.003 C 
ATOM     30  C   UNL     1      24.119  22.737  23.495  1.00  0.00     0.004 C 
ENDBRANCH  28  29
ENDBRANCH  27  28
ENDBRANCH  26  27
ENDBRANCH  25  26
ENDBRANCH  24  25
ENDBRANCH  23  24
ENDBRANCH  22  23
ENDBRANCH  21  22
ENDBRANCH  20  21
ENDBRANCH  19  20
ENDBRANCH  18  19
ENDBRANCH  17  18
ENDBRANCH   1  17
TORSDOF 26
ENDMDL
MODEL 6
REMARK VINA RESULT:    -3.308      7.110     11.643
REMARK INTER + INTRA:         -13.376
REMARK INTER:                  -9.403
REMARK INTRA:                  -3.973
REMARK UNBOUND:                -5.040
REMARK SMILES CCCCCCCCCCCCCCCCCCCCCCCCCCCC(=O)[O-]
REMARK SMILES IDX 15 1 16 2 17 3 18 4 19 5 20 6 21 7 22 8 23 9 24 10 25 11
REMARK SMILES IDX 26 12 27 13 28 14 29 15 30 16 14 17 13 18 12 19 11 20 10 21
REMARK SMILES IDX 9 22 8 23 7 24 6 25 5 26 4 27 3 28 2 29 1 30
REMARK H PARENT
REMARK Flexibility Score: inf
ROOT
ATOM      1  C   UNL     1      24.514  12.979  19.982  1.00  0.00     0.000 C 
ENDROOT
BRANCH   1   2
ATOM      2  C   UNL     1      24.225  11.509  20.363  1.00  0.00     0.000 C 
BRANCH   2   3
ATOM      3  C   UNL     1      22.844  11.299  21.010  1.00  0.00     0.000 C 
BRANCH   3   4
ATOM      4  C   UNL     1      22.868  10.594  22.380  1.00  0.00     0.000 C 
BRANCH   4   5
ATOM      5  C   UNL     1      23.558  11.413  23.493  1.00  0.00     0.000 C 
BRANCH   5   6
ATOM      6  C   UNL     1      25.052  11.077  23.645  1.00  0.00     0.000 C 
BRANCH   6   7
ATOM      7  C   UNL     1      25.954  12.317  23.550  1.00  0.00     0.000 C 
BRANCH   7   8
ATOM      8  C   UNL     1      27.157  12.106  22.617  1.00  0.00     0.000 C 
BRANCH   8   9
ATOM      9  C   UNL     1      27.243  10.651  22.141  1.00  0.00     0.000 C 
BRANCH   9  10
ATOM     10  C   UNL     1      28.698  10.167  22.122  1.00  0.00     0.000 C 
BRANCH  10  11
ATOM     11  C   UNL     1      28.866   8.876  22.933  1.00  0.00     0.000 C 
BRANCH  11  12
ATOM     12  C   UNL     1      27.996   8.912  24.199  1.00  0.00     0.006 C 
BRANCH  12  13
ATOM     13  C   UNL     1      28.723   9.553  25.390  1.00  0.00     0.053 C 
BRANCH  13  14
ATOM     14  C   UNL     1      27.813   9.775  26.561  1.00  0.00     0.041 C 
ATOM     15  O   UNL     1      26.889   8.957  26.814  1.00  0.00    -0.550 OA
ATOM     16  O   UNL     1      28.001  10.879  27.386  1.00  0.00    -0.550 OA
ENDBRANCH  13  14
ENDBRANCH  12  13
ENDBRANCH  11  12
ENDBRANCH  10  11
ENDBRANCH   9  10
ENDBRANCH   8   9
ENDBRANCH   7   8
ENDBRANCH   6   7
ENDBRANCH   5   6
ENDBRANCH   4   5
ENDBRANCH   3   4
ENDBRANCH   2   3
ENDBRANCH   1   2
BRANCH   1  17
ATOM     17  C   UNL     1      23.236  13.773  19.661  1.00  0.00     0.000 C 
BRANCH  17  18
ATOM     18  C   UNL     1      22.910  14.836  20.725  1.00  0.00     0.000 C 
BRANCH  18  19
ATOM     19  C   UNL     1      23.918  14.925  21.889  1.00  0.00     0.000 C 
BRANCH  19  20
ATOM     20  C   UNL     1      23.288  15.113  23.284  1.00  0.00     0.000 C 
BRANCH  20  21
ATOM     21  C   UNL     1      24.300  15.192  24.445  1.00  0.00     0.000 C 
BRANCH  21  22
ATOM     22  C   UNL     1      23.720  15.708  25.777  1.00  0.00    -0.000 C 
BRANCH  22  23
ATOM     23  C   UNL     1      24.497  16.876  26.419  1.00  0.00    -0.000 C 
BRANCH  23  24
ATOM     24  C   UNL     1      23.782  18.240  26.361  1.00  0.00    -0.000 C 
BRANCH  24  25
ATOM     25  C   UNL     1      24.330  19.208  25.296  1.00  0.00    -0.000 C 
BRANCH  25  26
ATOM     26  C   UNL     1      24.207  18.667  23.855  1.00  0.00    -0.000 C 
BRANCH  26  27
ATOM     27  C   UNL     1      23.901  19.778  22.837  1.00  0.00    -0.000 C 
BRANCH  27  28
ATOM     28  C   UNL     1      23.666  19.236  21.417  1.00  0.00    -0.000 C 
BRANCH  28  29
ATOM     29  C   UNL     1      24.862  18.433  20.860  1.00  0.00    -0.003 C 
ATOM     30  C   UNL     1      24.604  17.914  19.445  1.00  0.00     0.004 C 
ENDBRANCH  28  29
ENDBRANCH  27  28
ENDBRANCH  26  27
ENDBRANCH  25  26
ENDBRANCH  24  25
ENDBRANCH  23  24
ENDBRANCH  22  23
ENDBRANCH  21  22
ENDBRANCH  20  21
ENDBRANCH  19  20
ENDBRANCH  18  19
ENDBRANCH  17  18
ENDBRANCH   1  17
TORSDOF 26
ENDMDL
MODEL 7
REMARK VINA RESULT:    -3.305      6.790     11.238
REMARK INTER + INTRA:         -13.368
REMARK INTER:                  -8.995
REMARK INTRA:                  -4.373
REMARK UNBOUND:                -5.040
REMARK SMILES CCCCCCCCCCCCCCCCCCCCCCCCCCCC(=O)[O-]
REMARK SMILES IDX 15 1 16 2 17 3 18 4 19 5 20 6 21 7 22 8 23 9 24 10 25 11
REMARK SMILES IDX 26 12 27 13 28 14 29 15 30 16 14 17 13 18 12 19 11 20 10 21
REMARK SMILES IDX 9 22 8 23 7 24 6 25 5 26 4 27 3 28 2 29 1 30
REMARK H PARENT
REMARK Flexibility Score: inf
ROOT
ATOM      1  C   UNL     1      25.706  13.428  22.397  1.00  0.00     0.000 C 
ENDROOT
BRANCH   1   2
ATOM      2  C   UNL     1      25.853  11.995  21.836  1.00  0.00     0.000 C 
BRANCH   2   3
ATOM      3  C   UNL     1      25.185  11.798  20.463  1.00  0.00     0.000 C 
BRANCH   3   4
ATOM      4  C   UNL     1      23.645  11.764  20.489  1.00  0.00     0.000 C 
BRANCH   4   5
ATOM      5  C   UNL     1      23.056  10.401  20.916  1.00  0.00     0.000 C 
BRANCH   5   6
ATOM      6  C   UNL     1      22.233  10.484  22.214  1.00  0.00     0.000 C 
BRANCH   6   7
ATOM      7  C   UNL     1      22.109  11.919  22.748  1.00  0.00     0.000 C 
BRANCH   7   8
ATOM      8  C   UNL     1      22.135  11.983  24.284  1.00  0.00     0.000 C 
BRANCH   8   9
ATOM      9  C   UNL     1      22.384  10.599  24.895  1.00  0.00     0.000 C 
BRANCH   9  10
ATOM     10  C   UNL     1      23.668  10.595  25.732  1.00  0.00     0.000 C 
BRANCH  10  11
ATOM     11  C   UNL     1      24.902  10.340  24.856  1.00  0.00     0.000 C 
BRANCH  11  12
ATOM     12  C   UNL     1      25.977   9.573  25.640  1.00  0.00     0.006 C 
BRANCH  12  13
ATOM     13  C   UNL     1      27.315  10.326  25.690  1.00  0.00     0.053 C 
BRANCH  13  14
ATOM     14  C   UNL     1      28.423   9.563  25.029  1.00  0.00     0.041 C 
ATOM     15  O   UNL     1      29.569   9.524  25.550  1.00  0.00    -0.550 OA
ATOM     16  O   UNL     1      28.181   8.876  23.844  1.00  0.00    -0.550 OA
ENDBRANCH  13  14
ENDBRANCH  12  13
ENDBRANCH  11  12
ENDBRANCH  10  11
ENDBRANCH   9  10
ENDBRANCH   8   9
ENDBRANCH   7   8
ENDBRANCH   6   7
ENDBRANCH   5   6
ENDBRANCH   4   5
ENDBRANCH   3   4
ENDBRANCH   2   3
ENDBRANCH   1   2
BRANCH   1  17
ATOM     17  C   UNL     1      26.161  13.544  23.861  1.00  0.00     0.000 C 
BRANCH  17  18
ATOM     18  C   UNL     1      25.061  14.091  24.787  1.00  0.00     0.000 C 
BRANCH  18  19
ATOM     19  C   UNL     1      24.139  15.152  24.149  1.00  0.00     0.000 C 
BRANCH  19  20
ATOM     20  C   UNL     1      23.327  15.997  25.152  1.00  0.00     0.000 C 
BRANCH  20  21
ATOM     21  C   UNL     1      24.154  16.610  26.299  1.00  0.00     0.000 C 
BRANCH  21  22
ATOM     22  C   UNL     1      24.688  18.031  26.027  1.00  0.00    -0.000 C 
BRANCH  22  23
ATOM     23  C   UNL     1      23.865  18.857  25.017  1.00  0.00    -0.000 C 
BRANCH  23  24
ATOM     24  C   UNL     1      24.511  19.010  23.627  1.00  0.00    -0.000 C 
BRANCH  24  25
ATOM     25  C   UNL     1      23.530  18.890  22.445  1.00  0.00    -0.000 C 
BRANCH  25  26
ATOM     26  C   UNL     1      24.220  18.962  21.066  1.00  0.00    -0.000 C 
BRANCH  26  27
ATOM     27  C   UNL     1      24.497  17.568  20.478  1.00  0.00    -0.000 C 
BRANCH  27  28
ATOM     28  C   UNL     1      23.598  16.477  21.084  1.00  0.00    -0.000 C 
BRANCH  28  29
ATOM     29  C   UNL     1      23.185  15.387  20.071  1.00  0.00    -0.003 C 
ATOM     30  C   UNL     1      23.714  15.672  18.665  1.00  0.00     0.004 C 
ENDBRANCH  28  29
ENDBRANCH  27  28
ENDBRANCH  26  27
ENDBRANCH  25  26
ENDBRANCH  24  25
ENDBRANCH  23  24
ENDBRANCH  22  23
ENDBRANCH  21  22
ENDBRANCH  20  21
ENDBRANCH  19  20
ENDBRANCH  18  19
ENDBRANCH  17  18
ENDBRANCH   1  17
TORSDOF 26
ENDMDL
MODEL 8
REMARK VINA RESULT:    -3.304      1.960      4.451
REMARK INTER + INTRA:         -13.366
REMARK INTER:                  -8.580
REMARK INTRA:                  -4.786
REMARK UNBOUND:                -5.040
REMARK SMILES CCCCCCCCCCCCCCCCCCCCCCCCCCCC(=O)[O-]
REMARK SMILES IDX 15 1 16 2 17 3 18 4 19 5 20 6 21 7 22 8 23 9 24 10 25 11
REMARK SMILES IDX 26 12 27 13 28 14 29 15 30 16 14 17 13 18 12 19 11 20 10 21
REMARK SMILES IDX 9 22 8 23 7 24 6 25 5 26 4 27 3 28 2 29 1 30
REMARK H PARENT
REMARK Flexibility Score: inf
ROOT
ATOM      1  C   UNL     1      24.524  23.339  23.370  1.00  0.00     0.000 C 
ENDROOT
BRANCH   1   2
ATOM      2  C   UNL     1      23.182  23.812  23.974  1.00  0.00     0.000 C 
BRANCH   2   3
ATOM      3  C   UNL     1      23.343  24.629  25.270  1.00  0.00     0.000 C 
BRANCH   3   4
ATOM      4  C   UNL     1      24.522  25.620  25.271  1.00  0.00     0.000 C 
BRANCH   4   5
ATOM      5  C   UNL     1      24.311  26.845  24.355  1.00  0.00     0.000 C 
BRANCH   5   6
ATOM      6  C   UNL     1      23.012  27.609  24.666  1.00  0.00     0.000 C 
BRANCH   6   7
ATOM      7  C   UNL     1      22.150  27.850  23.418  1.00  0.00     0.000 C 
BRANCH   7   8
ATOM      8  C   UNL     1      22.684  27.116  22.177  1.00  0.00     0.000 C 
BRANCH   8   9
ATOM      9  C   UNL     1      22.644  28.018  20.938  1.00  0.00     0.000 C 
BRANCH   9  10
ATOM     10  C   UNL     1      23.956  27.922  20.150  1.00  0.00     0.000 C 
BRANCH  10  11
ATOM     11  C   UNL     1      24.984  27.054  20.886  1.00  0.00     0.000 C 
BRANCH  11  12
ATOM     12  C   UNL     1      26.279  26.932  20.068  1.00  0.00     0.006 C 
BRANCH  12  13
ATOM     13  C   UNL     1      27.531  27.225  20.907  1.00  0.00     0.053 C 
BRANCH  13  14
ATOM     14  C   UNL     1      28.582  27.956  20.127  1.00  0.00     0.041 C 
ATOM     15  O   UNL     1      29.430  28.676  20.719  1.00  0.00    -0.550 OA
ATOM     16  O   UNL     1      28.635  27.826  18.743  1.00  0.00    -0.550 OA
ENDBRANCH  13  14
ENDBRANCH  12  13
ENDBRANCH  11  12
ENDBRANCH  10  11
ENDBRANCH   9  10
ENDBRANCH   8   9
ENDBRANCH   7   8
ENDBRANCH   6   7
ENDBRANCH   5   6
ENDBRANCH   4   5
ENDBRANCH   3   4
ENDBRANCH   2   3
ENDBRANCH   1   2
BRANCH   1  17
ATOM     17  C   UNL     1      24.614  23.584  21.855  1.00  0.00     0.000 C 
BRANCH  17  18
ATOM     18  C   UNL     1      23.234  23.751  21.194  1.00  0.00     0.000 C 
BRANCH  18  19
ATOM     19  C   UNL     1      23.258  23.877  19.656  1.00  0.00     0.000 C 
BRANCH  19  20
ATOM     20  C   UNL     1      24.656  23.763  19.014  1.00  0.00     0.000 C 
BRANCH  20  21
ATOM     21  C   UNL     1      24.839  22.554  18.075  1.00  0.00     0.000 C 
BRANCH  21  22
ATOM     22  C   UNL     1      24.903  21.186  18.783  1.00  0.00    -0.000 C 
BRANCH  22  23
ATOM     23  C   UNL     1      23.615  20.342  18.690  1.00  0.00    -0.000 C 
BRANCH  23  24
ATOM     24  C   UNL     1      23.440  19.301  19.813  1.00  0.00    -0.000 C 
BRANCH  24  25
ATOM     25  C   UNL     1      24.216  19.613  21.106  1.00  0.00    -0.000 C 
BRANCH  25  26
ATOM     26  C   UNL     1      23.310  20.071  22.269  1.00  0.00    -0.000 C 
BRANCH  26  27
ATOM     27  C   UNL     1      23.585  19.293  23.566  1.00  0.00    -0.000 C 
BRANCH  27  28
ATOM     28  C   UNL     1      23.223  20.095  24.829  1.00  0.00    -0.000 C 
BRANCH  28  29
ATOM     29  C   UNL     1      24.454  20.543  25.646  1.00  0.00    -0.003 C 
ATOM     30  C   UNL     1      25.602  19.535  25.566  1.00  0.00     0.004 C 
ENDBRANCH  28  29
ENDBRANCH  27  28
ENDBRANCH  26  27
ENDBRANCH  25  26
ENDBRANCH  24  25
ENDBRANCH  23  24
ENDBRANCH  22  23
ENDBRANCH  21  22
ENDBRANCH  20  21
ENDBRANCH  19  20
ENDBRANCH  18  19
ENDBRANCH  17  18
ENDBRANCH   1  17
TORSDOF 26
ENDMDL
MODEL 9
REMARK VINA RESULT:    -3.259      6.167     10.823
REMARK INTER + INTRA:         -13.252
REMARK INTER:                  -7.817
REMARK INTRA:                  -5.435
REMARK UNBOUND:                -5.040
REMARK SMILES CCCCCCCCCCCCCCCCCCCCCCCCCCCC(=O)[O-]
REMARK SMILES IDX 15 1 16 2 17 3 18 4 19 5 20 6 21 7 22 8 23 9 24 10 25 11
REMARK SMILES IDX 26 12 27 13 28 14 29 15 30 16 14 17 13 18 12 19 11 20 10 21
REMARK SMILES IDX 9 22 8 23 7 24 6 25 5 26 4 27 3 28 2 29 1 30
REMARK H PARENT
REMARK Flexibility Score: inf
ROOT
ATOM      1  C   UNL     1      25.841  13.611  22.684  1.00  0.00     0.000 C 
ENDROOT
BRANCH   1   2
ATOM      2  C   UNL     1      25.434  13.971  24.131  1.00  0.00     0.000 C 
BRANCH   2   3
ATOM      3  C   UNL     1      23.912  14.106  24.328  1.00  0.00     0.000 C 
BRANCH   3   4
ATOM      4  C   UNL     1      23.087  12.889  23.871  1.00  0.00     0.000 C 
BRANCH   4   5
ATOM      5  C   UNL     1      22.923  11.801  24.956  1.00  0.00     0.000 C 
BRANCH   5   6
ATOM      6  C   UNL     1      23.724  10.524  24.650  1.00  0.00     0.000 C 
BRANCH   6   7
ATOM      7  C   UNL     1      25.082  10.487  25.367  1.00  0.00     0.000 C 
BRANCH   7   8
ATOM      8  C   UNL     1      25.028   9.727  26.702  1.00  0.00     0.000 C 
BRANCH   8   9
ATOM      9  C   UNL     1      25.418  10.634  27.875  1.00  0.00     0.000 C 
BRANCH   9  10
ATOM     10  C   UNL     1      25.626  12.078  27.402  1.00  0.00     0.000 C 
BRANCH  10  11
ATOM     11  C   UNL     1      24.625  13.030  28.067  1.00  0.00     0.000 C 
BRANCH  11  12
ATOM     12  C   UNL     1      25.296  14.367  28.418  1.00  0.00     0.006 C 
BRANCH  12  13
ATOM     13  C   UNL     1      24.826  15.513  27.510  1.00  0.00     0.053 C 
BRANCH  13  14
ATOM     14  C   UNL     1      23.476  16.034  27.902  1.00  0.00     0.041 C 
ATOM     15  O   UNL     1      22.466  15.786  27.192  1.00  0.00    -0.550 OA
ATOM     16  O   UNL     1      23.332  16.778  29.069  1.00  0.00    -0.550 OA
ENDBRANCH  13  14
ENDBRANCH  12  13
ENDBRANCH  11  12
ENDBRANCH  10  11
ENDBRANCH   9  10
ENDBRANCH   8   9
ENDBRANCH   7   8
ENDBRANCH   6   7
ENDBRANCH   5   6
ENDBRANCH   4   5
ENDBRANCH   3   4
ENDBRANCH   2   3
ENDBRANCH   1   2
BRANCH   1  17
ATOM     17  C   UNL     1      26.749  12.371  22.613  1.00  0.00     0.000 C 
BRANCH  17  18
ATOM     18  C   UNL     1      26.090  11.190  21.879  1.00  0.00     0.000 C 
BRANCH  18  19
ATOM     19  C   UNL     1      25.250  11.575  20.644  1.00  0.00     0.000 C 
BRANCH  19  20
ATOM     20  C   UNL     1      23.768  11.154  20.707  1.00  0.00     0.000 C 
BRANCH  20  21
ATOM     21  C   UNL     1      22.768  12.231  20.241  1.00  0.00     0.000 C 
BRANCH  21  22
ATOM     22  C   UNL     1      23.331  13.239  19.218  1.00  0.00    -0.000 C 
BRANCH  22  23
ATOM     23  C   UNL     1      23.389  14.701  19.705  1.00  0.00    -0.000 C 
BRANCH  23  24
ATOM     24  C   UNL     1      22.590  14.988  20.992  1.00  0.00    -0.000 C 
BRANCH  24  25
ATOM     25  C   UNL     1      22.690  16.438  21.501  1.00  0.00    -0.000 C 
BRANCH  25  26
ATOM     26  C   UNL     1      24.136  16.880  21.813  1.00  0.00    -0.000 C 
BRANCH  26  27
ATOM     27  C   UNL     1      24.254  18.400  22.009  1.00  0.00    -0.000 C 
BRANCH  27  28
ATOM     28  C   UNL     1      23.734  18.865  23.380  1.00  0.00    -0.000 C 
BRANCH  28  29
ATOM     29  C   UNL     1      24.182  17.959  24.548  1.00  0.00    -0.003 C 
ATOM     30  C   UNL     1      24.804  18.757  25.695  1.00  0.00     0.004 C 
ENDBRANCH  28  29
ENDBRANCH  27  28
ENDBRANCH  26  27
ENDBRANCH  25  26
ENDBRANCH  24  25
ENDBRANCH  23  24
ENDBRANCH  22  23
ENDBRANCH  21  22
ENDBRANCH  20  21
ENDBRANCH  19  20
ENDBRANCH  18  19
ENDBRANCH  17  18
ENDBRANCH   1  17
TORSDOF 26
ENDMDL
