MODEL 1
REMARK VINA RESULT:    -4.147      0.000      0.000
REMARK INTER + INTRA:         -13.988
REMARK INTER:                 -10.935
REMARK INTRA:                  -3.053
REMARK UNBOUND:                -3.053
REMARK SMILES CCCCCCCCCCCCCCCCCCCCCCCCCCCCCC(=O)[O-]
REMARK SMILES IDX 16 1 17 2 18 3 19 4 20 5 21 6 22 7 23 8 24 9 25 10 26 11
REMARK SMILES IDX 27 12 28 13 29 14 30 15 31 16 32 17 15 18 14 19 13 20 12 21
REMARK SMILES IDX 11 22 10 23 9 24 8 25 7 26 6 27 5 28 4 29 3 30 2 31 1 32
REMARK H PARENT
REMARK Flexibility Score: inf
ROOT
ATOM      1  C   UNL     1      15.631   4.262  -5.958  1.00  0.00     0.000 C 
ENDROOT
BRANCH   1   2
ATOM      2  C   UNL     1      15.940   5.204  -7.134  1.00  0.00     0.000 C 
BRANCH   2   3
ATOM      3  C   UNL     1      17.395   5.705  -7.130  1.00  0.00     0.000 C 
BRANCH   3   4
ATOM      4  C   UNL     1      18.277   5.136  -8.258  1.00  0.00     0.000 C 
BRANCH   4   5
ATOM      5  C   UNL     1      19.772   5.420  -8.049  1.00  0.00     0.000 C 
BRANCH   5   6
ATOM      6  C   UNL     1      19.982   6.580  -7.064  1.00  0.00     0.000 C 
BRANCH   6   7
ATOM      7  C   UNL     1      20.113   7.946  -7.761  1.00  0.00     0.000 C 
BRANCH   7   8
ATOM      8  C   UNL     1      19.646   9.156  -6.929  1.00  0.00     0.000 C 
BRANCH   8   9
ATOM      9  C   UNL     1      19.680  10.476  -7.718  1.00  0.00     0.000 C 
BRANCH   9  10
ATOM     10  C   UNL     1      19.121  11.660  -6.913  1.00  0.00     0.000 C 
BRANCH  10  11
ATOM     11  C   UNL     1      17.679  11.427  -6.425  1.00  0.00     0.000 C 
BRANCH  11  12
ATOM     12  C   UNL     1      16.992  12.745  -6.007  1.00  0.00     0.000 C 
BRANCH  12  13
ATOM     13  C   UNL     1      15.963  13.256  -7.030  1.00  0.00     0.006 C 
BRANCH  13  14
ATOM     14  C   UNL     1      16.082  12.562  -8.392  1.00  0.00     0.053 C 
BRANCH  14  15
ATOM     15  C   UNL     1      16.678  13.491  -9.405  1.00  0.00     0.041 C 
ATOM     16  O   UNL     1      15.975  14.397  -9.925  1.00  0.00    -0.550 OA
ATOM     17  O   UNL     1      18.018  13.367  -9.760  1.00  0.00    -0.550 OA
ENDBRANCH  14  15
ENDBRANCH  13  14
ENDBRANCH  12  13
ENDBRANCH  11  12
ENDBRANCH  10  11
ENDBRANCH   9  10
ENDBRANCH   8   9
ENDBRANCH   7   8
ENDBRANCH   6   7
ENDBRANCH   5   6
ENDBRANCH   4   5
ENDBRANCH   3   4
ENDBRANCH   2   3
ENDBRANCH   1   2
BRANCH   1  18
ATOM     18  C   UNL     1      15.771   2.780  -6.345  1.00  0.00     0.000 C 
BRANCH  18  19
ATOM     19  C   UNL     1      16.917   2.084  -5.590  1.00  0.00     0.000 C 
BRANCH  19  20
ATOM     20  C   UNL     1      18.273   2.252  -6.297  1.00  0.00     0.000 C 
BRANCH  20  21
ATOM     21  C   UNL     1      19.401   2.620  -5.314  1.00  0.00     0.000 C 
BRANCH  21  22
ATOM     22  C   UNL     1      18.925   3.550  -4.185  1.00  0.00     0.000 C 
BRANCH  22  23
ATOM     23  C   UNL     1      18.742   2.815  -2.845  1.00  0.00     0.000 C 
BRANCH  23  24
ATOM     24  C   UNL     1      19.024   3.726  -1.630  1.00  0.00    -0.000 C 
BRANCH  24  25
ATOM     25  C   UNL     1      18.043   4.908  -1.496  1.00  0.00    -0.000 C 
BRANCH  25  26
ATOM     26  C   UNL     1      18.174   5.715  -0.194  1.00  0.00    -0.000 C 
BRANCH  26  27
ATOM     27  C   UNL     1      19.419   5.333   0.622  1.00  0.00    -0.000 C 
BRANCH  27  28
ATOM     28  C   UNL     1      19.026   4.789   2.001  1.00  0.00    -0.000 C 
BRANCH  28  29
ATOM     29  C   UNL     1      17.511   4.552   2.087  1.00  0.00    -0.000 C 
BRANCH  29  30
ATOM     30  C   UNL     1      17.151   3.111   2.492  1.00  0.00    -0.000 C 
BRANCH  30  31
ATOM     31  C   UNL     1      16.561   2.250   1.362  1.00  0.00    -0.003 C 
ATOM     32  C   UNL     1      15.297   2.852   0.749  1.00  0.00     0.004 C 
ENDBRANCH  30  31
ENDBRANCH  29  30
ENDBRANCH  28  29
ENDBRANCH  27  28
ENDBRANCH  26  27
ENDBRANCH  25  26
ENDBRANCH  24  25
ENDBRANCH  23  24
ENDBRANCH  22  23
ENDBRANCH  21  22
ENDBRANCH  20  21
ENDBRANCH  19  20
ENDBRANCH  18  19
ENDBRANCH   1  18
TORSDOF 28
ENDMDL
MODEL 2
REMARK VINA RESULT:    -3.878      4.536     10.630
REMARK INTER + INTRA:         -13.278
REMARK INTER:                 -10.722
REMARK INTRA:                  -2.556
REMARK UNBOUND:                -3.053
REMARK SMILES CCCCCCCCCCCCCCCCCCCCCCCCCCCCCC(=O)[O-]
REMARK SMILES IDX 16 1 17 2 18 3 19 4 20 5 21 6 22 7 23 8 24 9 25 10 26 11
REMARK SMILES IDX 27 12 28 13 29 14 30 15 31 16 32 17 15 18 14 19 13 20 12 21
REMARK SMILES IDX 11 22 10 23 9 24 8 25 7 26 6 27 5 28 4 29 3 30 2 31 1 32
REMARK H PARENT
REMARK Flexibility Score: inf
ROOT
ATOM      1  C   UNL     1      18.678   5.079  -7.689  1.00  0.00     0.000 C 
ENDROOT
BRANCH   1   2
ATOM      2  C   UNL     1      17.259   4.542  -7.946  1.00  0.00     0.000 C 
BRANCH   2   3
ATOM      3  C   UNL     1      16.366   4.595  -6.694  1.00  0.00     0.000 C 
BRANCH   3   4
ATOM      4  C   UNL     1      15.791   3.236  -6.254  1.00  0.00     0.000 C 
BRANCH   4   5
ATOM      5  C   UNL     1      16.847   2.121  -6.220  1.00  0.00     0.000 C 
BRANCH   5   6
ATOM      6  C   UNL     1      18.015   2.495  -5.293  1.00  0.00     0.000 C 
BRANCH   6   7
ATOM      7  C   UNL     1      17.553   2.946  -3.895  1.00  0.00     0.000 C 
BRANCH   7   8
ATOM      8  C   UNL     1      18.492   2.559  -2.737  1.00  0.00     0.000 C 
BRANCH   8   9
ATOM      9  C   UNL     1      17.960   2.996  -1.361  1.00  0.00     0.000 C 
BRANCH   9  10
ATOM     10  C   UNL     1      18.812   4.106  -0.723  1.00  0.00     0.000 C 
BRANCH  10  11
ATOM     11  C   UNL     1      18.048   5.434  -0.569  1.00  0.00     0.000 C 
BRANCH  11  12
ATOM     12  C   UNL     1      18.261   6.062   0.825  1.00  0.00     0.000 C 
BRANCH  12  13
ATOM     13  C   UNL     1      18.719   5.054   1.892  1.00  0.00     0.006 C 
BRANCH  13  14
ATOM     14  C   UNL     1      17.547   4.382   2.619  1.00  0.00     0.053 C 
BRANCH  14  15
ATOM     15  C   UNL     1      17.973   3.902   3.972  1.00  0.00     0.041 C 
ATOM     16  O   UNL     1      18.343   2.710   4.135  1.00  0.00    -0.550 OA
ATOM     17  O   UNL     1      17.979   4.780   5.052  1.00  0.00    -0.550 OA
ENDBRANCH  14  15
ENDBRANCH  13  14
ENDBRANCH  12  13
ENDBRANCH  11  12
ENDBRANCH  10  11
ENDBRANCH   9  10
ENDBRANCH   8   9
ENDBRANCH   7   8
ENDBRANCH   6   7
ENDBRANCH   5   6
ENDBRANCH   4   5
ENDBRANCH   3   4
ENDBRANCH   2   3
ENDBRANCH   1   2
BRANCH   1  18
ATOM     18  C   UNL     1      18.671   6.543  -7.220  1.00  0.00     0.000 C 
BRANCH  18  19
ATOM     19  C   UNL     1      20.083   7.154  -7.187  1.00  0.00     0.000 C 
BRANCH  19  20
ATOM     20  C   UNL     1      20.125   8.568  -7.790  1.00  0.00     0.000 C 
BRANCH  20  21
ATOM     21  C   UNL     1      20.115   9.664  -6.707  1.00  0.00     0.000 C 
BRANCH  21  22
ATOM     22  C   UNL     1      19.517  10.989  -7.208  1.00  0.00     0.000 C 
BRANCH  22  23
ATOM     23  C   UNL     1      17.987  11.048  -7.053  1.00  0.00     0.000 C 
BRANCH  23  24
ATOM     24  C   UNL     1      17.553  11.810  -5.781  1.00  0.00    -0.000 C 
BRANCH  24  25
ATOM     25  C   UNL     1      18.419  13.046  -5.468  1.00  0.00    -0.000 C 
BRANCH  25  26
ATOM     26  C   UNL     1      17.962  14.347  -6.146  1.00  0.00    -0.000 C 
BRANCH  26  27
ATOM     27  C   UNL     1      19.029  14.942  -7.077  1.00  0.00    -0.000 C 
BRANCH  27  28
ATOM     28  C   UNL     1      18.712  14.632  -8.546  1.00  0.00    -0.000 C 
BRANCH  28  29
ATOM     29  C   UNL     1      17.194  14.576  -8.779  1.00  0.00    -0.000 C 
BRANCH  29  30
ATOM     30  C   UNL     1      16.739  13.269  -9.454  1.00  0.00    -0.000 C 
BRANCH  30  31
ATOM     31  C   UNL     1      15.271  12.888  -9.201  1.00  0.00    -0.003 C 
ATOM     32  C   UNL     1      14.788  13.268  -7.801  1.00  0.00     0.004 C 
ENDBRANCH  30  31
ENDBRANCH  29  30
ENDBRANCH  28  29
ENDBRANCH  27  28
ENDBRANCH  26  27
ENDBRANCH  25  26
ENDBRANCH  24  25
ENDBRANCH  23  24
ENDBRANCH  22  23
ENDBRANCH  21  22
ENDBRANCH  20  21
ENDBRANCH  19  20
ENDBRANCH  18  19
ENDBRANCH   1  18
TORSDOF 28
ENDMDL
MODEL 3
REMARK VINA RESULT:    -3.775      1.591      2.037
REMARK INTER + INTRA:         -13.007
REMARK INTER:                 -10.430
REMARK INTRA:                  -2.577
REMARK UNBOUND:                -3.053
REMARK SMILES CCCCCCCCCCCCCCCCCCCCCCCCCCCCCC(=O)[O-]
REMARK SMILES IDX 16 1 17 2 18 3 19 4 20 5 21 6 22 7 23 8 24 9 25 10 26 11
REMARK SMILES IDX 27 12 28 13 29 14 30 15 31 16 32 17 15 18 14 19 13 20 12 21
REMARK SMILES IDX 11 22 10 23 9 24 8 25 7 26 6 27 5 28 4 29 3 30 2 31 1 32
REMARK H PARENT
REMARK Flexibility Score: inf
ROOT
ATOM      1  C   UNL     1      15.619   4.148  -5.774  1.00  0.00     0.000 C 
ENDROOT
BRANCH   1   2
ATOM      2  C   UNL     1      15.683   4.973  -7.072  1.00  0.00     0.000 C 
BRANCH   2   3
ATOM      3  C   UNL     1      17.074   5.583  -7.322  1.00  0.00     0.000 C 
BRANCH   3   4
ATOM      4  C   UNL     1      17.848   4.964  -8.500  1.00  0.00     0.000 C 
BRANCH   4   5
ATOM      5  C   UNL     1      19.371   5.005  -8.303  1.00  0.00     0.000 C 
BRANCH   5   6
ATOM      6  C   UNL     1      19.774   6.132  -7.339  1.00  0.00     0.000 C 
BRANCH   6   7
ATOM      7  C   UNL     1      20.124   7.445  -8.062  1.00  0.00     0.000 C 
BRANCH   7   8
ATOM      8  C   UNL     1      20.071   8.712  -7.186  1.00  0.00     0.000 C 
BRANCH   8   9
ATOM      9  C   UNL     1      19.992  10.009  -8.010  1.00  0.00     0.000 C 
BRANCH   9  10
ATOM     10  C   UNL     1      19.401  11.181  -7.211  1.00  0.00     0.000 C 
BRANCH  10  11
ATOM     11  C   UNL     1      17.923  10.968  -6.838  1.00  0.00     0.000 C 
BRANCH  11  12
ATOM     12  C   UNL     1      17.046  12.172  -7.249  1.00  0.00     0.000 C 
BRANCH  12  13
ATOM     13  C   UNL     1      16.432  12.922  -6.055  1.00  0.00     0.006 C 
BRANCH  13  14
ATOM     14  C   UNL     1      17.489  13.514  -5.115  1.00  0.00     0.053 C 
BRANCH  14  15
ATOM     15  C   UNL     1      18.143  14.705  -5.742  1.00  0.00     0.041 C 
ATOM     16  O   UNL     1      19.363  14.669  -6.053  1.00  0.00    -0.550 OA
ATOM     17  O   UNL     1      17.399  15.852  -6.003  1.00  0.00    -0.550 OA
ENDBRANCH  14  15
ENDBRANCH  13  14
ENDBRANCH  12  13
ENDBRANCH  11  12
ENDBRANCH  10  11
ENDBRANCH   9  10
ENDBRANCH   8   9
ENDBRANCH   7   8
ENDBRANCH   6   7
ENDBRANCH   5   6
ENDBRANCH   4   5
ENDBRANCH   3   4
ENDBRANCH   2   3
ENDBRANCH   1   2
BRANCH   1  18
ATOM     18  C   UNL     1      15.839   2.648  -6.026  1.00  0.00     0.000 C 
BRANCH  18  19
ATOM     19  C   UNL     1      17.107   2.118  -5.333  1.00  0.00     0.000 C 
BRANCH  19  20
ATOM     20  C   UNL     1      18.357   2.243  -6.219  1.00  0.00     0.000 C 
BRANCH  20  21
ATOM     21  C   UNL     1      19.639   2.455  -5.392  1.00  0.00     0.000 C 
BRANCH  21  22
ATOM     22  C   UNL     1      19.460   3.494  -4.274  1.00  0.00     0.000 C 
BRANCH  22  23
ATOM     23  C   UNL     1      19.581   2.882  -2.867  1.00  0.00     0.000 C 
BRANCH  23  24
ATOM     24  C   UNL     1      19.762   3.955  -1.771  1.00  0.00    -0.000 C 
BRANCH  24  25
ATOM     25  C   UNL     1      19.003   5.268  -2.051  1.00  0.00    -0.000 C 
BRANCH  25  26
ATOM     26  C   UNL     1      18.493   6.003  -0.801  1.00  0.00    -0.000 C 
BRANCH  26  27
ATOM     27  C   UNL     1      17.917   5.051   0.257  1.00  0.00    -0.000 C 
BRANCH  27  28
ATOM     28  C   UNL     1      18.521   5.334   1.639  1.00  0.00    -0.000 C 
BRANCH  28  29
ATOM     29  C   UNL     1      17.732   4.611   2.741  1.00  0.00    -0.000 C 
BRANCH  29  30
ATOM     30  C   UNL     1      18.545   4.425   4.036  1.00  0.00    -0.000 C 
BRANCH  30  31
ATOM     31  C   UNL     1      18.053   3.289   4.950  1.00  0.00    -0.003 C 
ATOM     32  C   UNL     1      16.540   3.086   4.888  1.00  0.00     0.004 C 
ENDBRANCH  30  31
ENDBRANCH  29  30
ENDBRANCH  28  29
ENDBRANCH  27  28
ENDBRANCH  26  27
ENDBRANCH  25  26
ENDBRANCH  24  25
ENDBRANCH  23  24
ENDBRANCH  22  23
ENDBRANCH  21  22
ENDBRANCH  20  21
ENDBRANCH  19  20
ENDBRANCH  18  19
ENDBRANCH   1  18
TORSDOF 28
ENDMDL
MODEL 4
REMARK VINA RESULT:    -3.736      1.612      4.196
REMARK INTER + INTRA:         -12.903
REMARK INTER:                  -9.958
REMARK INTRA:                  -2.945
REMARK UNBOUND:                -3.053
REMARK SMILES CCCCCCCCCCCCCCCCCCCCCCCCCCCCCC(=O)[O-]
REMARK SMILES IDX 16 1 17 2 18 3 19 4 20 5 21 6 22 7 23 8 24 9 25 10 26 11
REMARK SMILES IDX 27 12 28 13 29 14 30 15 31 16 32 17 15 18 14 19 13 20 12 21
REMARK SMILES IDX 11 22 10 23 9 24 8 25 7 26 6 27 5 28 4 29 3 30 2 31 1 32
REMARK H PARENT
REMARK Flexibility Score: inf
ROOT
ATOM      1  C   UNL     1      20.124   6.509  -7.206  1.00  0.00     0.000 C 
ENDROOT
BRANCH   1   2
ATOM      2  C   UNL     1      20.125   7.924  -6.599  1.00  0.00     0.000 C 
BRANCH   2   3
ATOM      3  C   UNL     1      20.118   9.031  -7.668  1.00  0.00     0.000 C 
BRANCH   3   4
ATOM      4  C   UNL     1      19.567  10.387  -7.189  1.00  0.00     0.000 C 
BRANCH   4   5
ATOM      5  C   UNL     1      18.075  10.334  -6.829  1.00  0.00     0.000 C 
BRANCH   5   6
ATOM      6  C   UNL     1      17.657  11.572  -6.020  1.00  0.00     0.000 C 
BRANCH   6   7
ATOM      7  C   UNL     1      18.842  12.261  -5.319  1.00  0.00     0.000 C 
BRANCH   7   8
ATOM      8  C   UNL     1      18.582  13.708  -4.859  1.00  0.00     0.000 C 
BRANCH   8   9
ATOM      9  C   UNL     1      19.518  14.728  -5.530  1.00  0.00     0.000 C 
BRANCH   9  10
ATOM     10  C   UNL     1      19.079  15.082  -6.960  1.00  0.00     0.000 C 
BRANCH  10  11
ATOM     11  C   UNL     1      19.740  14.192  -8.028  1.00  0.00     0.000 C 
BRANCH  11  12
ATOM     12  C   UNL     1      18.745  13.790  -9.138  1.00  0.00     0.000 C 
BRANCH  12  13
ATOM     13  C   UNL     1      17.321  14.325  -8.914  1.00  0.00     0.006 C 
BRANCH  13  14
ATOM     14  C   UNL     1      16.282  13.209  -8.754  1.00  0.00     0.053 C 
BRANCH  14  15
ATOM     15  C   UNL     1      15.278  13.570  -7.703  1.00  0.00     0.041 C 
ATOM     16  O   UNL     1      15.639  14.185  -6.666  1.00  0.00    -0.550 OA
ATOM     17  O   UNL     1      13.937  13.246  -7.882  1.00  0.00    -0.550 OA
ENDBRANCH  14  15
ENDBRANCH  13  14
ENDBRANCH  12  13
ENDBRANCH  11  12
ENDBRANCH  10  11
ENDBRANCH   9  10
ENDBRANCH   8   9
ENDBRANCH   7   8
ENDBRANCH   6   7
ENDBRANCH   5   6
ENDBRANCH   4   5
ENDBRANCH   3   4
ENDBRANCH   2   3
ENDBRANCH   1   2
BRANCH   1  18
ATOM     18  C   UNL     1      18.882   5.700  -6.796  1.00  0.00     0.000 C 
BRANCH  18  19
ATOM     19  C   UNL     1      17.611   6.170  -7.525  1.00  0.00     0.000 C 
BRANCH  19  20
ATOM     20  C   UNL     1      16.647   5.011  -7.830  1.00  0.00     0.000 C 
BRANCH  20  21
ATOM     21  C   UNL     1      15.532   4.886  -6.774  1.00  0.00     0.000 C 
BRANCH  21  22
ATOM     22  C   UNL     1      15.942   4.010  -5.579  1.00  0.00     0.000 C 
BRANCH  22  23
ATOM     23  C   UNL     1      16.034   2.516  -5.940  1.00  0.00     0.000 C 
BRANCH  23  24
ATOM     24  C   UNL     1      17.145   1.788  -5.152  1.00  0.00    -0.000 C 
BRANCH  24  25
ATOM     25  C   UNL     1      18.477   2.561  -5.092  1.00  0.00    -0.000 C 
BRANCH  25  26
ATOM     26  C   UNL     1      19.240   2.437  -3.764  1.00  0.00    -0.000 C 
BRANCH  26  27
ATOM     27  C   UNL     1      19.026   3.643  -2.838  1.00  0.00    -0.000 C 
BRANCH  27  28
ATOM     28  C   UNL     1      18.932   3.201  -1.372  1.00  0.00    -0.000 C 
BRANCH  28  29
ATOM     29  C   UNL     1      17.909   4.053  -0.606  1.00  0.00    -0.000 C 
BRANCH  29  30
ATOM     30  C   UNL     1      18.126   4.024   0.919  1.00  0.00    -0.000 C 
BRANCH  30  31
ATOM     31  C   UNL     1      17.876   5.364   1.633  1.00  0.00    -0.003 C 
ATOM     32  C   UNL     1      19.134   5.936   2.286  1.00  0.00     0.004 C 
ENDBRANCH  30  31
ENDBRANCH  29  30
ENDBRANCH  28  29
ENDBRANCH  27  28
ENDBRANCH  26  27
ENDBRANCH  25  26
ENDBRANCH  24  25
ENDBRANCH  23  24
ENDBRANCH  22  23
ENDBRANCH  21  22
ENDBRANCH  20  21
ENDBRANCH  19  20
ENDBRANCH  18  19
ENDBRANCH   1  18
TORSDOF 28
ENDMDL
MODEL 5
REMARK VINA RESULT:    -3.683      4.216      9.634
REMARK INTER + INTRA:         -12.764
REMARK INTER:                  -9.715
REMARK INTRA:                  -3.049
REMARK UNBOUND:                -3.053
REMARK SMILES CCCCCCCCCCCCCCCCCCCCCCCCCCCCCC(=O)[O-]
REMARK SMILES IDX 16 1 17 2 18 3 19 4 20 5 21 6 22 7 23 8 24 9 25 10 26 11
REMARK SMILES IDX 27 12 28 13 29 14 30 15 31 16 32 17 15 18 14 19 13 20 12 21
REMARK SMILES IDX 11 22 10 23 9 24 8 25 7 26 6 27 5 28 4 29 3 30 2 31 1 32
REMARK H PARENT
REMARK Flexibility Score: inf
ROOT
ATOM      1  C   UNL     1      15.818   6.115  -7.198  1.00  0.00     0.000 C 
ENDROOT
BRANCH   1   2
ATOM      2  C   UNL     1      15.036   4.929  -6.605  1.00  0.00     0.000 C 
BRANCH   2   3
ATOM      3  C   UNL     1      15.926   3.976  -5.789  1.00  0.00     0.000 C 
BRANCH   3   4
ATOM      4  C   UNL     1      15.714   2.480  -6.088  1.00  0.00     0.000 C 
BRANCH   4   5
ATOM      5  C   UNL     1      17.015   1.753  -6.461  1.00  0.00     0.000 C 
BRANCH   5   6
ATOM      6  C   UNL     1      17.543   2.229  -7.823  1.00  0.00     0.000 C 
BRANCH   6   7
ATOM      7  C   UNL     1      19.074   2.388  -7.854  1.00  0.00     0.000 C 
BRANCH   7   8
ATOM      8  C   UNL     1      19.665   3.273  -6.741  1.00  0.00     0.000 C 
BRANCH   8   9
ATOM      9  C   UNL     1      20.120   2.469  -5.511  1.00  0.00     0.000 C 
BRANCH   9  10
ATOM     10  C   UNL     1      19.865   3.213  -4.191  1.00  0.00     0.000 C 
BRANCH  10  11
ATOM     11  C   UNL     1      18.795   2.534  -3.317  1.00  0.00     0.000 C 
BRANCH  11  12
ATOM     12  C   UNL     1      17.812   3.559  -2.710  1.00  0.00     0.000 C 
BRANCH  12  13
ATOM     13  C   UNL     1      17.908   3.674  -1.179  1.00  0.00     0.006 C 
BRANCH  13  14
ATOM     14  C   UNL     1      16.801   2.901  -0.453  1.00  0.00     0.053 C 
BRANCH  14  15
ATOM     15  C   UNL     1      17.211   2.591   0.954  1.00  0.00     0.041 C 
ATOM     16  O   UNL     1      16.762   3.275   1.911  1.00  0.00    -0.550 OA
ATOM     17  O   UNL     1      18.075   1.531   1.209  1.00  0.00    -0.550 OA
ENDBRANCH  14  15
ENDBRANCH  13  14
ENDBRANCH  12  13
ENDBRANCH  11  12
ENDBRANCH  10  11
ENDBRANCH   9  10
ENDBRANCH   8   9
ENDBRANCH   7   8
ENDBRANCH   6   7
ENDBRANCH   5   6
ENDBRANCH   4   5
ENDBRANCH   3   4
ENDBRANCH   2   3
ENDBRANCH   1   2
BRANCH   1  18
ATOM     18  C   UNL     1      17.279   5.753  -7.508  1.00  0.00     0.000 C 
BRANCH  18  19
ATOM     19  C   UNL     1      18.278   6.650  -6.756  1.00  0.00     0.000 C 
BRANCH  19  20
ATOM     20  C   UNL     1      19.442   7.110  -7.650  1.00  0.00     0.000 C 
BRANCH  20  21
ATOM     21  C   UNL     1      20.125   8.381  -7.110  1.00  0.00     0.000 C 
BRANCH  21  22
ATOM     22  C   UNL     1      19.898   9.605  -8.011  1.00  0.00     0.000 C 
BRANCH  22  23
ATOM     23  C   UNL     1      19.903  10.931  -7.228  1.00  0.00     0.000 C 
BRANCH  23  24
ATOM     24  C   UNL     1      19.630  10.726  -5.721  1.00  0.00    -0.000 C 
BRANCH  24  25
ATOM     25  C   UNL     1      19.805  12.003  -4.876  1.00  0.00    -0.000 C 
BRANCH  25  26
ATOM     26  C   UNL     1      20.022  13.292  -5.685  1.00  0.00    -0.000 C 
BRANCH  26  27
ATOM     27  C   UNL     1      19.460  14.538  -4.984  1.00  0.00    -0.000 C 
BRANCH  27  28
ATOM     28  C   UNL     1      17.990  14.333  -4.595  1.00  0.00    -0.000 C 
BRANCH  28  29
ATOM     29  C   UNL     1      17.057  14.718  -5.754  1.00  0.00    -0.000 C 
BRANCH  29  30
ATOM     30  C   UNL     1      16.062  13.600  -6.119  1.00  0.00    -0.000 C 
BRANCH  30  31
ATOM     31  C   UNL     1      16.098  13.159  -7.592  1.00  0.00    -0.003 C 
ATOM     32  C   UNL     1      14.721  13.182  -8.256  1.00  0.00     0.004 C 
ENDBRANCH  30  31
ENDBRANCH  29  30
ENDBRANCH  28  29
ENDBRANCH  27  28
ENDBRANCH  26  27
ENDBRANCH  25  26
ENDBRANCH  24  25
ENDBRANCH  23  24
ENDBRANCH  22  23
ENDBRANCH  21  22
ENDBRANCH  20  21
ENDBRANCH  19  20
ENDBRANCH  18  19
ENDBRANCH   1  18
TORSDOF 28
ENDMDL
MODEL 6
REMARK VINA RESULT:    -3.657      4.249     10.100
REMARK INTER + INTRA:         -12.695
REMARK INTER:                 -10.746
REMARK INTRA:                  -1.949
REMARK UNBOUND:                -3.053
REMARK SMILES CCCCCCCCCCCCCCCCCCCCCCCCCCCCCC(=O)[O-]
REMARK SMILES IDX 16 1 17 2 18 3 19 4 20 5 21 6 22 7 23 8 24 9 25 10 26 11
REMARK SMILES IDX 27 12 28 13 29 14 30 15 31 16 32 17 15 18 14 19 13 20 12 21
REMARK SMILES IDX 11 22 10 23 9 24 8 25 7 26 6 27 5 28 4 29 3 30 2 31 1 32
REMARK H PARENT
REMARK Flexibility Score: inf
ROOT
ATOM      1  C   UNL     1      15.968   4.369  -6.416  1.00  0.00     0.000 C 
ENDROOT
BRANCH   1   2
ATOM      2  C   UNL     1      16.431   2.924  -6.673  1.00  0.00     0.000 C 
BRANCH   2   3
ATOM      3  C   UNL     1      16.268   2.017  -5.441  1.00  0.00     0.000 C 
BRANCH   3   4
ATOM      4  C   UNL     1      17.556   1.802  -4.624  1.00  0.00     0.000 C 
BRANCH   4   5
ATOM      5  C   UNL     1      18.766   2.550  -5.204  1.00  0.00     0.000 C 
BRANCH   5   6
ATOM      6  C   UNL     1      19.282   3.612  -4.221  1.00  0.00     0.000 C 
BRANCH   6   7
ATOM      7  C   UNL     1      19.647   3.030  -2.843  1.00  0.00     0.000 C 
BRANCH   7   8
ATOM      8  C   UNL     1      19.391   3.966  -1.646  1.00  0.00     0.000 C 
BRANCH   8   9
ATOM      9  C   UNL     1      17.912   4.363  -1.500  1.00  0.00     0.000 C 
BRANCH   9  10
ATOM     10  C   UNL     1      17.453   4.404  -0.033  1.00  0.00     0.000 C 
BRANCH  10  11
ATOM     11  C   UNL     1      16.925   3.048   0.468  1.00  0.00     0.000 C 
BRANCH  11  12
ATOM     12  C   UNL     1      17.259   2.815   1.958  1.00  0.00     0.000 C 
BRANCH  12  13
ATOM     13  C   UNL     1      17.442   4.116   2.759  1.00  0.00     0.006 C 
BRANCH  13  14
ATOM     14  C   UNL     1      18.395   3.954   3.949  1.00  0.00     0.053 C 
BRANCH  14  15
ATOM     15  C   UNL     1      19.307   5.137   4.058  1.00  0.00     0.041 C 
ATOM     16  O   UNL     1      19.582   5.821   3.038  1.00  0.00    -0.550 OA
ATOM     17  O   UNL     1      19.836   5.496   5.294  1.00  0.00    -0.550 OA
ENDBRANCH  14  15
ENDBRANCH  13  14
ENDBRANCH  12  13
ENDBRANCH  11  12
ENDBRANCH  10  11
ENDBRANCH   9  10
ENDBRANCH   8   9
ENDBRANCH   7   8
ENDBRANCH   6   7
ENDBRANCH   5   6
ENDBRANCH   4   5
ENDBRANCH   3   4
ENDBRANCH   2   3
ENDBRANCH   1   2
BRANCH   1  18
ATOM     18  C   UNL     1      16.409   5.330  -7.531  1.00  0.00     0.000 C 
BRANCH  18  19
ATOM     19  C   UNL     1      17.584   6.226  -7.102  1.00  0.00     0.000 C 
BRANCH  19  20
ATOM     20  C   UNL     1      18.949   5.558  -7.337  1.00  0.00     0.000 C 
BRANCH  20  21
ATOM     21  C   UNL     1      20.122   6.529  -7.104  1.00  0.00     0.000 C 
BRANCH  21  22
ATOM     22  C   UNL     1      19.931   7.874  -7.824  1.00  0.00     0.000 C 
BRANCH  22  23
ATOM     23  C   UNL     1      20.018   9.079  -6.869  1.00  0.00     0.000 C 
BRANCH  23  24
ATOM     24  C   UNL     1      19.621  10.404  -7.556  1.00  0.00    -0.000 C 
BRANCH  24  25
ATOM     25  C   UNL     1      18.302  11.007  -7.034  1.00  0.00    -0.000 C 
BRANCH  25  26
ATOM     26  C   UNL     1      17.692  12.103  -7.923  1.00  0.00    -0.000 C 
BRANCH  26  27
ATOM     27  C   UNL     1      16.274  12.503  -7.490  1.00  0.00    -0.000 C 
BRANCH  27  28
ATOM     28  C   UNL     1      16.294  13.803  -6.675  1.00  0.00    -0.000 C 
BRANCH  28  29
ATOM     29  C   UNL     1      17.654  13.998  -5.987  1.00  0.00    -0.000 C 
BRANCH  29  30
ATOM     30  C   UNL     1      17.549  14.779  -4.664  1.00  0.00    -0.000 C 
BRANCH  30  31
ATOM     31  C   UNL     1      18.896  15.218  -4.065  1.00  0.00    -0.003 C 
ATOM     32  C   UNL     1      19.691  14.058  -3.467  1.00  0.00     0.004 C 
ENDBRANCH  30  31
ENDBRANCH  29  30
ENDBRANCH  28  29
ENDBRANCH  27  28
ENDBRANCH  26  27
ENDBRANCH  25  26
ENDBRANCH  24  25
ENDBRANCH  23  24
ENDBRANCH  22  23
ENDBRANCH  21  22
ENDBRANCH  20  21
ENDBRANCH  19  20
ENDBRANCH  18  19
ENDBRANCH   1  18
TORSDOF 28
ENDMDL
MODEL 7
REMARK VINA RESULT:    -3.621      4.006     11.039
REMARK INTER + INTRA:         -12.602
REMARK INTER:                 -10.321
REMARK INTRA:                  -2.281
REMARK UNBOUND:                -3.053
REMARK SMILES CCCCCCCCCCCCCCCCCCCCCCCCCCCCCC(=O)[O-]
REMARK SMILES IDX 16 1 17 2 18 3 19 4 20 5 21 6 22 7 23 8 24 9 25 10 26 11
REMARK SMILES IDX 27 12 28 13 29 14 30 15 31 16 32 17 15 18 14 19 13 20 12 21
REMARK SMILES IDX 11 22 10 23 9 24 8 25 7 26 6 27 5 28 4 29 3 30 2 31 1 32
REMARK H PARENT
REMARK Flexibility Score: inf
ROOT
ATOM      1  C   UNL     1      20.045   7.755  -6.725  1.00  0.00     0.000 C 
ENDROOT
BRANCH   1   2
ATOM      2  C   UNL     1      19.709   6.537  -7.604  1.00  0.00     0.000 C 
BRANCH   2   3
ATOM      3  C   UNL     1      19.765   5.208  -6.829  1.00  0.00     0.000 C 
BRANCH   3   4
ATOM      4  C   UNL     1      18.403   4.701  -6.319  1.00  0.00     0.000 C 
BRANCH   4   5
ATOM      5  C   UNL     1      18.217   3.188  -6.512  1.00  0.00     0.000 C 
BRANCH   5   6
ATOM      6  C   UNL     1      18.438   2.431  -5.193  1.00  0.00     0.000 C 
BRANCH   6   7
ATOM      7  C   UNL     1      18.719   3.365  -4.002  1.00  0.00     0.000 C 
BRANCH   7   8
ATOM      8  C   UNL     1      17.624   3.396  -2.919  1.00  0.00     0.000 C 
BRANCH   8   9
ATOM      9  C   UNL     1      18.072   4.114  -1.634  1.00  0.00     0.000 C 
BRANCH   9  10
ATOM     10  C   UNL     1      16.988   4.106  -0.544  1.00  0.00     0.000 C 
BRANCH  10  11
ATOM     11  C   UNL     1      16.693   2.695  -0.003  1.00  0.00     0.000 C 
BRANCH  11  12
ATOM     12  C   UNL     1      16.406   2.708   1.514  1.00  0.00     0.000 C 
BRANCH  12  13
ATOM     13  C   UNL     1      17.653   2.970   2.375  1.00  0.00     0.006 C 
BRANCH  13  14
ATOM     14  C   UNL     1      17.505   4.199   3.281  1.00  0.00     0.053 C 
BRANCH  14  15
ATOM     15  C   UNL     1      18.671   5.123   3.109  1.00  0.00     0.041 C 
ATOM     16  O   UNL     1      19.424   5.382   4.085  1.00  0.00    -0.550 OA
ATOM     17  O   UNL     1      18.938   5.683   1.864  1.00  0.00    -0.550 OA
ENDBRANCH  14  15
ENDBRANCH  13  14
ENDBRANCH  12  13
ENDBRANCH  11  12
ENDBRANCH  10  11
ENDBRANCH   9  10
ENDBRANCH   8   9
ENDBRANCH   7   8
ENDBRANCH   6   7
ENDBRANCH   5   6
ENDBRANCH   4   5
ENDBRANCH   3   4
ENDBRANCH   2   3
ENDBRANCH   1   2
BRANCH   1  18
ATOM     18  C   UNL     1      19.243   9.003  -7.128  1.00  0.00     0.000 C 
BRANCH  18  19
ATOM     19  C   UNL     1      20.125  10.080  -7.783  1.00  0.00     0.000 C 
BRANCH  19  20
ATOM     20  C   UNL     1      19.775  11.498  -7.302  1.00  0.00     0.000 C 
BRANCH  20  21
ATOM     21  C   UNL     1      19.753  11.603  -5.765  1.00  0.00     0.000 C 
BRANCH  21  22
ATOM     22  C   UNL     1      20.039  13.028  -5.263  1.00  0.00     0.000 C 
BRANCH  22  23
ATOM     23  C   UNL     1      19.005  13.515  -4.232  1.00  0.00     0.000 C 
BRANCH  23  24
ATOM     24  C   UNL     1      18.445  14.913  -4.575  1.00  0.00    -0.000 C 
BRANCH  24  25
ATOM     25  C   UNL     1      17.613  14.952  -5.872  1.00  0.00    -0.000 C 
BRANCH  25  26
ATOM     26  C   UNL     1      16.329  14.107  -5.845  1.00  0.00    -0.000 C 
BRANCH  26  27
ATOM     27  C   UNL     1      16.318  13.004  -6.913  1.00  0.00    -0.000 C 
BRANCH  27  28
ATOM     28  C   UNL     1      14.981  12.980  -7.665  1.00  0.00    -0.000 C 
BRANCH  28  29
ATOM     29  C   UNL     1      15.203  13.063  -9.183  1.00  0.00    -0.000 C 
BRANCH  29  30
ATOM     30  C   UNL     1      16.339  14.027  -9.571  1.00  0.00    -0.000 C 
BRANCH  30  31
ATOM     31  C   UNL     1      17.674  13.345  -9.919  1.00  0.00    -0.003 C 
ATOM     32  C   UNL     1      18.892  14.170  -9.503  1.00  0.00     0.004 C 
ENDBRANCH  30  31
ENDBRANCH  29  30
ENDBRANCH  28  29
ENDBRANCH  27  28
ENDBRANCH  26  27
ENDBRANCH  25  26
ENDBRANCH  24  25
ENDBRANCH  23  24
ENDBRANCH  22  23
ENDBRANCH  21  22
ENDBRANCH  20  21
ENDBRANCH  19  20
ENDBRANCH  18  19
ENDBRANCH   1  18
TORSDOF 28
ENDMDL
MODEL 8
REMARK VINA RESULT:    -3.610      4.068      6.974
REMARK INTER + INTRA:         -12.571
REMARK INTER:                  -8.918
REMARK INTRA:                  -3.653
REMARK UNBOUND:                -3.053
REMARK SMILES CCCCCCCCCCCCCCCCCCCCCCCCCCCCCC(=O)[O-]
REMARK SMILES IDX 16 1 17 2 18 3 19 4 20 5 21 6 22 7 23 8 24 9 25 10 26 11
REMARK SMILES IDX 27 12 28 13 29 14 30 15 31 16 32 17 15 18 14 19 13 20 12 21
REMARK SMILES IDX 11 22 10 23 9 24 8 25 7 26 6 27 5 28 4 29 3 30 2 31 1 32
REMARK H PARENT
REMARK Flexibility Score: inf
ROOT
ATOM      1  C   UNL     1      18.802   4.861  -1.395  1.00  0.00     0.000 C 
ENDROOT
BRANCH   1   2
ATOM      2  C   UNL     1      19.587   5.382  -2.612  1.00  0.00     0.000 C 
BRANCH   2   3
ATOM      3  C   UNL     1      19.653   4.360  -3.761  1.00  0.00     0.000 C 
BRANCH   3   4
ATOM      4  C   UNL     1      18.839   3.073  -3.528  1.00  0.00     0.000 C 
BRANCH   4   5
ATOM      5  C   UNL     1      17.553   3.017  -4.366  1.00  0.00     0.000 C 
BRANCH   5   6
ATOM      6  C   UNL     1      17.676   1.985  -5.498  1.00  0.00     0.000 C 
BRANCH   6   7
ATOM      7  C   UNL     1      18.811   2.309  -6.488  1.00  0.00     0.000 C 
BRANCH   7   8
ATOM      8  C   UNL     1      18.737   1.567  -7.836  1.00  0.00     0.000 C 
BRANCH   8   9
ATOM      9  C   UNL     1      18.917   2.501  -9.046  1.00  0.00     0.000 C 
BRANCH   9  10
ATOM     10  C   UNL     1      17.749   3.487  -9.210  1.00  0.00     0.000 C 
BRANCH  10  11
ATOM     11  C   UNL     1      18.198   4.959  -9.183  1.00  0.00     0.000 C 
BRANCH  11  12
ATOM     12  C   UNL     1      18.618   5.407  -7.767  1.00  0.00     0.000 C 
BRANCH  12  13
ATOM     13  C   UNL     1      17.431   5.656  -6.821  1.00  0.00     0.006 C 
BRANCH  13  14
ATOM     14  C   UNL     1      16.097   5.800  -7.564  1.00  0.00     0.053 C 
BRANCH  14  15
ATOM     15  C   UNL     1      14.956   5.410  -6.678  1.00  0.00     0.041 C 
ATOM     16  O   UNL     1      15.025   4.366  -5.977  1.00  0.00    -0.550 OA
ATOM     17  O   UNL     1      13.821   6.213  -6.609  1.00  0.00    -0.550 OA
ENDBRANCH  14  15
ENDBRANCH  13  14
ENDBRANCH  12  13
ENDBRANCH  11  12
ENDBRANCH  10  11
ENDBRANCH   9  10
ENDBRANCH   8   9
ENDBRANCH   7   8
ENDBRANCH   6   7
ENDBRANCH   5   6
ENDBRANCH   4   5
ENDBRANCH   3   4
ENDBRANCH   2   3
ENDBRANCH   1   2
BRANCH   1  18
ATOM     18  C   UNL     1      18.904   5.807  -0.188  1.00  0.00     0.000 C 
BRANCH  18  19
ATOM     19  C   UNL     1      19.929   5.320   0.852  1.00  0.00     0.000 C 
BRANCH  19  20
ATOM     20  C   UNL     1      19.594   5.799   2.275  1.00  0.00     0.000 C 
BRANCH  20  21
ATOM     21  C   UNL     1      18.209   5.312   2.742  1.00  0.00     0.000 C 
BRANCH  21  22
ATOM     22  C   UNL     1      18.232   4.732   4.166  1.00  0.00     0.000 C 
BRANCH  22  23
ATOM     23  C   UNL     1      19.488   3.886   4.443  1.00  0.00     0.000 C 
BRANCH  23  24
ATOM     24  C   UNL     1      19.528   3.348   5.891  1.00  0.00    -0.000 C 
BRANCH  24  25
ATOM     25  C   UNL     1      19.454   1.812   5.988  1.00  0.00    -0.000 C 
BRANCH  25  26
ATOM     26  C   UNL     1      18.372   1.157   5.114  1.00  0.00    -0.000 C 
BRANCH  26  27
ATOM     27  C   UNL     1      16.948   1.469   5.594  1.00  0.00    -0.000 C 
BRANCH  27  28
ATOM     28  C   UNL     1      16.095   2.039   4.453  1.00  0.00    -0.000 C 
BRANCH  28  29
ATOM     29  C   UNL     1      16.586   1.524   3.091  1.00  0.00    -0.000 C 
BRANCH  29  30
ATOM     30  C   UNL     1      16.050   2.352   1.909  1.00  0.00    -0.000 C 
BRANCH  30  31
ATOM     31  C   UNL     1      17.030   2.511   0.734  1.00  0.00    -0.003 C 
ATOM     32  C   UNL     1      18.399   1.890   1.010  1.00  0.00     0.004 C 
ENDBRANCH  30  31
ENDBRANCH  29  30
ENDBRANCH  28  29
ENDBRANCH  27  28
ENDBRANCH  26  27
ENDBRANCH  25  26
ENDBRANCH  24  25
ENDBRANCH  23  24
ENDBRANCH  22  23
ENDBRANCH  21  22
ENDBRANCH  20  21
ENDBRANCH  19  20
ENDBRANCH  18  19
ENDBRANCH   1  18
TORSDOF 28
ENDMDL
MODEL 9
REMARK VINA RESULT:    -3.468      4.279      9.770
REMARK INTER + INTRA:         -12.197
REMARK INTER:                 -10.122
REMARK INTRA:                  -2.076
REMARK UNBOUND:                -3.053
REMARK SMILES CCCCCCCCCCCCCCCCCCCCCCCCCCCCCC(=O)[O-]
REMARK SMILES IDX 16 1 17 2 18 3 19 4 20 5 21 6 22 7 23 8 24 9 25 10 26 11
REMARK SMILES IDX 27 12 28 13 29 14 30 15 31 16 32 17 15 18 14 19 13 20 12 21
REMARK SMILES IDX 11 22 10 23 9 24 8 25 7 26 6 27 5 28 4 29 3 30 2 31 1 32
REMARK H PARENT
REMARK Flexibility Score: inf
ROOT
ATOM      1  C   UNL     1      16.594   6.287  -7.287  1.00  0.00     0.000 C 
ENDROOT
BRANCH   1   2
ATOM      2  C   UNL     1      15.382   5.428  -6.883  1.00  0.00     0.000 C 
BRANCH   2   3
ATOM      3  C   UNL     1      15.742   4.331  -5.866  1.00  0.00     0.000 C 
BRANCH   3   4
ATOM      4  C   UNL     1      15.635   2.892  -6.405  1.00  0.00     0.000 C 
BRANCH   4   5
ATOM      5  C   UNL     1      16.947   2.103  -6.271  1.00  0.00     0.000 C 
BRANCH   5   6
ATOM      6  C   UNL     1      17.648   2.418  -4.941  1.00  0.00     0.000 C 
BRANCH   6   7
ATOM      7  C   UNL     1      19.101   2.894  -5.124  1.00  0.00     0.000 C 
BRANCH   7   8
ATOM      8  C   UNL     1      20.100   2.372  -4.073  1.00  0.00     0.000 C 
BRANCH   8   9
ATOM      9  C   UNL     1      19.565   2.472  -2.634  1.00  0.00     0.000 C 
BRANCH   9  10
ATOM     10  C   UNL     1      19.343   3.926  -2.186  1.00  0.00     0.000 C 
BRANCH  10  11
ATOM     11  C   UNL     1      18.748   4.033  -0.770  1.00  0.00     0.000 C 
BRANCH  11  12
ATOM     12  C   UNL     1      18.496   5.500  -0.361  1.00  0.00     0.000 C 
BRANCH  12  13
ATOM     13  C   UNL     1      18.233   5.684   1.143  1.00  0.00     0.006 C 
BRANCH  13  14
ATOM     14  C   UNL     1      17.850   4.375   1.846  1.00  0.00     0.053 C 
BRANCH  14  15
ATOM     15  C   UNL     1      17.985   4.516   3.330  1.00  0.00     0.041 C 
ATOM     16  O   UNL     1      19.046   4.976   3.830  1.00  0.00    -0.550 OA
ATOM     17  O   UNL     1      16.929   4.159   4.163  1.00  0.00    -0.550 OA
ENDBRANCH  14  15
ENDBRANCH  13  14
ENDBRANCH  12  13
ENDBRANCH  11  12
ENDBRANCH  10  11
ENDBRANCH   9  10
ENDBRANCH   8   9
ENDBRANCH   7   8
ENDBRANCH   6   7
ENDBRANCH   5   6
ENDBRANCH   4   5
ENDBRANCH   3   4
ENDBRANCH   2   3
ENDBRANCH   1   2
BRANCH   1  18
ATOM     18  C   UNL     1      17.876   5.451  -7.439  1.00  0.00     0.000 C 
BRANCH  18  19
ATOM     19  C   UNL     1      18.832   5.622  -6.246  1.00  0.00     0.000 C 
BRANCH  19  20
ATOM     20  C   UNL     1      19.978   6.603  -6.548  1.00  0.00     0.000 C 
BRANCH  20  21
ATOM     21  C   UNL     1      20.015   7.017  -8.031  1.00  0.00     0.000 C 
BRANCH  21  22
ATOM     22  C   UNL     1      20.125   8.539  -8.220  1.00  0.00     0.000 C 
BRANCH  22  23
ATOM     23  C   UNL     1      19.737   9.326  -6.955  1.00  0.00     0.000 C 
BRANCH  23  24
ATOM     24  C   UNL     1      19.058  10.674  -7.285  1.00  0.00    -0.000 C 
BRANCH  24  25
ATOM     25  C   UNL     1      18.444  11.379  -6.060  1.00  0.00    -0.000 C 
BRANCH  25  26
ATOM     26  C   UNL     1      19.331  12.459  -5.419  1.00  0.00    -0.000 C 
BRANCH  26  27
ATOM     27  C   UNL     1      18.521  13.583  -4.759  1.00  0.00    -0.000 C 
BRANCH  27  28
ATOM     28  C   UNL     1      18.608  14.878  -5.577  1.00  0.00    -0.000 C 
BRANCH  28  29
ATOM     29  C   UNL     1      17.464  14.961  -6.598  1.00  0.00    -0.000 C 
BRANCH  29  30
ATOM     30  C   UNL     1      16.169  14.289  -6.103  1.00  0.00    -0.000 C 
BRANCH  30  31
ATOM     31  C   UNL     1      15.619  13.188  -7.026  1.00  0.00    -0.003 C 
ATOM     32  C   UNL     1      16.068  13.346  -8.479  1.00  0.00     0.004 C 
ENDBRANCH  30  31
ENDBRANCH  29  30
ENDBRANCH  28  29
ENDBRANCH  27  28
ENDBRANCH  26  27
ENDBRANCH  25  26
ENDBRANCH  24  25
ENDBRANCH  23  24
ENDBRANCH  22  23
ENDBRANCH  21  22
ENDBRANCH  20  21
ENDBRANCH  19  20
ENDBRANCH  18  19
ENDBRANCH   1  18
TORSDOF 28
ENDMDL
