MODEL 1
REMARK VINA RESULT:    -6.279      0.000      0.000
REMARK INTER + INTRA:         -19.689
REMARK INTER:                 -15.823
REMARK INTRA:                  -3.865
REMARK UNBOUND:                -3.865
REMARK SMILES CCCCCCCCCCCCCCCCCCCCCCCCCCCC(=O)[O-]
REMARK SMILES IDX 15 1 16 2 17 3 18 4 19 5 20 6 21 7 22 8 23 9 24 10 25 11
REMARK SMILES IDX 26 12 27 13 28 14 29 15 30 16 14 17 13 18 12 19 11 20 10 21
REMARK SMILES IDX 9 22 8 23 7 24 6 25 5 26 4 27 3 28 2 29 1 30
REMARK H PARENT
REMARK Flexibility Score: inf
ROOT
ATOM      1  C   UNL     1     -20.349  -0.382 -15.507  1.00  0.00     0.000 C 
ENDROOT
BRANCH   1   2
ATOM      2  C   UNL     1     -19.337  -1.493 -15.190  1.00  0.00     0.000 C 
BRANCH   2   3
ATOM      3  C   UNL     1     -18.882  -1.479 -13.720  1.00  0.00     0.000 C 
BRANCH   3   4
ATOM      4  C   UNL     1     -17.819  -0.400 -13.431  1.00  0.00     0.000 C 
BRANCH   4   5
ATOM      5  C   UNL     1     -16.502  -0.553 -14.217  1.00  0.00     0.000 C 
BRANCH   5   6
ATOM      6  C   UNL     1     -15.748   0.758 -14.517  1.00  0.00     0.000 C 
BRANCH   6   7
ATOM      7  C   UNL     1     -14.831   1.235 -13.366  1.00  0.00     0.000 C 
BRANCH   7   8
ATOM      8  C   UNL     1     -15.460   2.317 -12.469  1.00  0.00     0.000 C 
BRANCH   8   9
ATOM      9  C   UNL     1     -15.790   1.802 -11.057  1.00  0.00     0.000 C 
BRANCH   9  10
ATOM     10  C   UNL     1     -17.303   1.724 -10.800  1.00  0.00     0.000 C 
BRANCH  10  11
ATOM     11  C   UNL     1     -17.684   0.579  -9.843  1.00  0.00     0.000 C 
BRANCH  11  12
ATOM     12  C   UNL     1     -18.081   1.078  -8.443  1.00  0.00     0.006 C 
BRANCH  12  13
ATOM     13  C   UNL     1     -18.869   0.055  -7.606  1.00  0.00     0.053 C 
BRANCH  13  14
ATOM     14  C   UNL     1     -19.998   0.689  -6.852  1.00  0.00     0.041 C 
ATOM     15  O   UNL     1     -20.982  -0.003  -6.475  1.00  0.00    -0.550 OA
ATOM     16  O   UNL     1     -19.970   2.053  -6.580  1.00  0.00    -0.550 OA
ENDBRANCH  13  14
ENDBRANCH  12  13
ENDBRANCH  11  12
ENDBRANCH  10  11
ENDBRANCH   9  10
ENDBRANCH   8   9
ENDBRANCH   7   8
ENDBRANCH   6   7
ENDBRANCH   5   6
ENDBRANCH   4   5
ENDBRANCH   3   4
ENDBRANCH   2   3
ENDBRANCH   1   2
BRANCH   1  17
ATOM     17  C   UNL     1     -19.827   0.626 -16.545  1.00  0.00     0.000 C 
BRANCH  17  18
ATOM     18  C   UNL     1     -18.369   0.348 -16.948  1.00  0.00     0.000 C 
BRANCH  18  19
ATOM     19  C   UNL     1     -18.165   0.387 -18.473  1.00  0.00     0.000 C 
BRANCH  19  20
ATOM     20  C   UNL     1     -17.327  -0.792 -18.995  1.00  0.00     0.000 C 
BRANCH  20  21
ATOM     21  C   UNL     1     -17.119  -1.885 -17.934  1.00  0.00     0.000 C 
BRANCH  21  22
ATOM     22  C   UNL     1     -15.649  -2.019 -17.494  1.00  0.00    -0.000 C 
BRANCH  22  23
ATOM     23  C   UNL     1     -14.738  -0.835 -17.884  1.00  0.00    -0.000 C 
BRANCH  23  24
ATOM     24  C   UNL     1     -13.842  -1.075 -19.115  1.00  0.00    -0.000 C 
BRANCH  24  25
ATOM     25  C   UNL     1     -13.469   0.196 -19.905  1.00  0.00    -0.000 C 
BRANCH  25  26
ATOM     26  C   UNL     1     -14.635   1.176 -20.158  1.00  0.00    -0.000 C 
BRANCH  26  27
ATOM     27  C   UNL     1     -14.463   2.573 -19.535  1.00  0.00    -0.000 C 
BRANCH  27  28
ATOM     28  C   UNL     1     -13.377   2.671 -18.446  1.00  0.00    -0.000 C 
BRANCH  28  29
ATOM     29  C   UNL     1     -13.936   2.685 -17.009  1.00  0.00    -0.003 C 
ATOM     30  C   UNL     1     -15.331   3.305 -16.921  1.00  0.00     0.004 C 
ENDBRANCH  28  29
ENDBRANCH  27  28
ENDBRANCH  26  27
ENDBRANCH  25  26
ENDBRANCH  24  25
ENDBRANCH  23  24
ENDBRANCH  22  23
ENDBRANCH  21  22
ENDBRANCH  20  21
ENDBRANCH  19  20
ENDBRANCH  18  19
ENDBRANCH  17  18
ENDBRANCH   1  17
TORSDOF 26
ENDMDL
MODEL 2
REMARK VINA RESULT:    -5.911      3.609      6.578
REMARK INTER + INTRA:         -18.760
REMARK INTER:                 -15.867
REMARK INTRA:                  -2.894
REMARK UNBOUND:                -3.865
REMARK SMILES CCCCCCCCCCCCCCCCCCCCCCCCCCCC(=O)[O-]
REMARK SMILES IDX 15 1 16 2 17 3 18 4 19 5 20 6 21 7 22 8 23 9 24 10 25 11
REMARK SMILES IDX 26 12 27 13 28 14 29 15 30 16 14 17 13 18 12 19 11 20 10 21
REMARK SMILES IDX 9 22 8 23 7 24 6 25 5 26 4 27 3 28 2 29 1 30
REMARK H PARENT
REMARK Flexibility Score: inf
ROOT
ATOM      1  C   UNL     1     -17.042  -2.325 -17.334  1.00  0.00     0.000 C 
ENDROOT
BRANCH   1   2
ATOM      2  C   UNL     1     -16.267  -1.426 -16.358  1.00  0.00     0.000 C 
BRANCH   2   3
ATOM      3  C   UNL     1     -17.145  -0.318 -15.750  1.00  0.00     0.000 C 
BRANCH   3   4
ATOM      4  C   UNL     1     -17.327  -0.465 -14.226  1.00  0.00     0.000 C 
BRANCH   4   5
ATOM      5  C   UNL     1     -18.777  -0.707 -13.761  1.00  0.00     0.000 C 
BRANCH   5   6
ATOM      6  C   UNL     1     -19.492  -1.910 -14.409  1.00  0.00     0.000 C 
BRANCH   6   7
ATOM      7  C   UNL     1     -20.257  -1.563 -15.709  1.00  0.00     0.000 C 
BRANCH   7   8
ATOM      8  C   UNL     1     -20.982  -0.205 -15.668  1.00  0.00     0.000 C 
BRANCH   8   9
ATOM      9  C   UNL     1     -22.491  -0.327 -15.943  1.00  0.00     0.000 C 
BRANCH   9  10
ATOM     10  C   UNL     1     -23.183   1.043 -16.028  1.00  0.00     0.000 C 
BRANCH  10  11
ATOM     11  C   UNL     1     -24.714   0.943 -15.887  1.00  0.00     0.000 C 
BRANCH  11  12
ATOM     12  C   UNL     1     -25.343   2.216 -15.293  1.00  0.00     0.006 C 
BRANCH  12  13
ATOM     13  C   UNL     1     -26.881   2.196 -15.241  1.00  0.00     0.053 C 
BRANCH  13  14
ATOM     14  C   UNL     1     -27.399   1.968 -13.854  1.00  0.00     0.041 C 
ATOM     15  O   UNL     1     -27.415   2.911 -13.017  1.00  0.00    -0.550 OA
ATOM     16  O   UNL     1     -27.847   0.706 -13.479  1.00  0.00    -0.550 OA
ENDBRANCH  13  14
ENDBRANCH  12  13
ENDBRANCH  11  12
ENDBRANCH  10  11
ENDBRANCH   9  10
ENDBRANCH   8   9
ENDBRANCH   7   8
ENDBRANCH   6   7
ENDBRANCH   5   6
ENDBRANCH   4   5
ENDBRANCH   3   4
ENDBRANCH   2   3
ENDBRANCH   1   2
BRANCH   1  17
ATOM     17  C   UNL     1     -17.373  -1.622 -18.662  1.00  0.00     0.000 C 
BRANCH  17  18
ATOM     18  C   UNL     1     -16.122  -1.042 -19.344  1.00  0.00     0.000 C 
BRANCH  18  19
ATOM     19  C   UNL     1     -16.191   0.488 -19.492  1.00  0.00     0.000 C 
BRANCH  19  20
ATOM     20  C   UNL     1     -14.834   1.116 -19.850  1.00  0.00     0.000 C 
BRANCH  20  21
ATOM     21  C   UNL     1     -13.988   1.445 -18.609  1.00  0.00     0.000 C 
BRANCH  21  22
ATOM     22  C   UNL     1     -13.599   2.933 -18.529  1.00  0.00    -0.000 C 
BRANCH  22  23
ATOM     23  C   UNL     1     -13.249   3.444 -17.115  1.00  0.00    -0.000 C 
BRANCH  23  24
ATOM     24  C   UNL     1     -13.793   2.586 -15.955  1.00  0.00    -0.000 C 
BRANCH  24  25
ATOM     25  C   UNL     1     -15.226   2.934 -15.506  1.00  0.00    -0.000 C 
BRANCH  25  26
ATOM     26  C   UNL     1     -15.496   2.773 -13.994  1.00  0.00    -0.000 C 
BRANCH  26  27
ATOM     27  C   UNL     1     -14.695   1.654 -13.303  1.00  0.00    -0.000 C 
BRANCH  27  28
ATOM     28  C   UNL     1     -15.181   1.286 -11.888  1.00  0.00    -0.000 C 
BRANCH  28  29
ATOM     29  C   UNL     1     -16.482   2.002 -11.470  1.00  0.00    -0.003 C 
ATOM     30  C   UNL     1     -17.437   1.094 -10.697  1.00  0.00     0.004 C 
ENDBRANCH  28  29
ENDBRANCH  27  28
ENDBRANCH  26  27
ENDBRANCH  25  26
ENDBRANCH  24  25
ENDBRANCH  23  24
ENDBRANCH  22  23
ENDBRANCH  21  22
ENDBRANCH  20  21
ENDBRANCH  19  20
ENDBRANCH  18  19
ENDBRANCH  17  18
ENDBRANCH   1  17
TORSDOF 26
ENDMDL
MODEL 3
REMARK VINA RESULT:    -5.827      3.584      6.877
REMARK INTER + INTRA:         -18.548
REMARK INTER:                 -15.052
REMARK INTRA:                  -3.496
REMARK UNBOUND:                -3.865
REMARK SMILES CCCCCCCCCCCCCCCCCCCCCCCCCCCC(=O)[O-]
REMARK SMILES IDX 15 1 16 2 17 3 18 4 19 5 20 6 21 7 22 8 23 9 24 10 25 11
REMARK SMILES IDX 26 12 27 13 28 14 29 15 30 16 14 17 13 18 12 19 11 20 10 21
REMARK SMILES IDX 9 22 8 23 7 24 6 25 5 26 4 27 3 28 2 29 1 30
REMARK H PARENT
REMARK Flexibility Score: inf
ROOT
ATOM      1  C   UNL     1     -16.912  -1.420 -18.856  1.00  0.00     0.000 C 
ENDROOT
BRANCH   1   2
ATOM      2  C   UNL     1     -17.554  -0.050 -19.121  1.00  0.00     0.000 C 
BRANCH   2   3
ATOM      3  C   UNL     1     -17.442   0.900 -17.916  1.00  0.00     0.000 C 
BRANCH   3   4
ATOM      4  C   UNL     1     -18.482   0.602 -16.817  1.00  0.00     0.000 C 
BRANCH   4   5
ATOM      5  C   UNL     1     -17.896   0.334 -15.417  1.00  0.00     0.000 C 
BRANCH   5   6
ATOM      6  C   UNL     1     -18.132  -1.082 -14.855  1.00  0.00     0.000 C 
BRANCH   6   7
ATOM      7  C   UNL     1     -18.957  -2.001 -15.787  1.00  0.00     0.000 C 
BRANCH   7   8
ATOM      8  C   UNL     1     -20.403  -2.238 -15.315  1.00  0.00     0.000 C 
BRANCH   8   9
ATOM      9  C   UNL     1     -21.388  -1.191 -15.865  1.00  0.00     0.000 C 
BRANCH   9  10
ATOM     10  C   UNL     1     -22.837  -1.703 -15.882  1.00  0.00     0.000 C 
BRANCH  10  11
ATOM     11  C   UNL     1     -23.852  -0.600 -16.238  1.00  0.00     0.000 C 
BRANCH  11  12
ATOM     12  C   UNL     1     -23.323   0.815 -15.944  1.00  0.00     0.006 C 
BRANCH  12  13
ATOM     13  C   UNL     1     -24.416   1.834 -15.572  1.00  0.00     0.053 C 
BRANCH  13  14
ATOM     14  C   UNL     1     -25.644   1.681 -16.418  1.00  0.00     0.041 C 
ATOM     15  O   UNL     1     -26.735   1.326 -15.897  1.00  0.00    -0.550 OA
ATOM     16  O   UNL     1     -25.576   1.915 -17.787  1.00  0.00    -0.550 OA
ENDBRANCH  13  14
ENDBRANCH  12  13
ENDBRANCH  11  12
ENDBRANCH  10  11
ENDBRANCH   9  10
ENDBRANCH   8   9
ENDBRANCH   7   8
ENDBRANCH   6   7
ENDBRANCH   5   6
ENDBRANCH   4   5
ENDBRANCH   3   4
ENDBRANCH   2   3
ENDBRANCH   1   2
BRANCH   1  17
ATOM     17  C   UNL     1     -15.777  -1.360 -17.818  1.00  0.00     0.000 C 
BRANCH  17  18
ATOM     18  C   UNL     1     -14.386  -1.415 -18.470  1.00  0.00     0.000 C 
BRANCH  18  19
ATOM     19  C   UNL     1     -13.702  -0.037 -18.511  1.00  0.00     0.000 C 
BRANCH  19  20
ATOM     20  C   UNL     1     -14.025   0.754 -19.789  1.00  0.00     0.000 C 
BRANCH  20  21
ATOM     21  C   UNL     1     -14.437   2.207 -19.498  1.00  0.00     0.000 C 
BRANCH  21  22
ATOM     22  C   UNL     1     -13.525   2.889 -18.461  1.00  0.00    -0.000 C 
BRANCH  22  23
ATOM     23  C   UNL     1     -14.259   3.532 -17.265  1.00  0.00    -0.000 C 
BRANCH  23  24
ATOM     24  C   UNL     1     -13.890   2.958 -15.883  1.00  0.00    -0.000 C 
BRANCH  24  25
ATOM     25  C   UNL     1     -14.903   1.949 -15.307  1.00  0.00    -0.000 C 
BRANCH  25  26
ATOM     26  C   UNL     1     -14.744   1.648 -13.801  1.00  0.00    -0.000 C 
BRANCH  26  27
ATOM     27  C   UNL     1     -15.835   2.249 -12.895  1.00  0.00    -0.000 C 
BRANCH  27  28
ATOM     28  C   UNL     1     -15.695   1.915 -11.398  1.00  0.00    -0.000 C 
BRANCH  28  29
ATOM     29  C   UNL     1     -16.984   1.354 -10.763  1.00  0.00    -0.003 C 
ATOM     30  C   UNL     1     -17.993   0.864 -11.801  1.00  0.00     0.004 C 
ENDBRANCH  28  29
ENDBRANCH  27  28
ENDBRANCH  26  27
ENDBRANCH  25  26
ENDBRANCH  24  25
ENDBRANCH  23  24
ENDBRANCH  22  23
ENDBRANCH  21  22
ENDBRANCH  20  21
ENDBRANCH  19  20
ENDBRANCH  18  19
ENDBRANCH  17  18
ENDBRANCH   1  17
TORSDOF 26
ENDMDL
MODEL 4
REMARK VINA RESULT:    -5.804      3.840      6.673
REMARK INTER + INTRA:         -18.491
REMARK INTER:                 -15.583
REMARK INTRA:                  -2.908
REMARK UNBOUND:                -3.865
REMARK SMILES CCCCCCCCCCCCCCCCCCCCCCCCCCCC(=O)[O-]
REMARK SMILES IDX 15 1 16 2 17 3 18 4 19 5 20 6 21 7 22 8 23 9 24 10 25 11
REMARK SMILES IDX 26 12 27 13 28 14 29 15 30 16 14 17 13 18 12 19 11 20 10 21
REMARK SMILES IDX 9 22 8 23 7 24 6 25 5 26 4 27 3 28 2 29 1 30
REMARK H PARENT
REMARK Flexibility Score: inf
ROOT
ATOM      1  C   UNL     1     -16.995   1.328 -10.851  1.00  0.00     0.000 C 
ENDROOT
BRANCH   1   2
ATOM      2  C   UNL     1     -18.078   0.694 -11.736  1.00  0.00     0.000 C 
BRANCH   2   3
ATOM      3  C   UNL     1     -17.520  -0.400 -12.663  1.00  0.00     0.000 C 
BRANCH   3   4
ATOM      4  C   UNL     1     -18.566  -0.929 -13.665  1.00  0.00     0.000 C 
BRANCH   4   5
ATOM      5  C   UNL     1     -18.373  -0.460 -15.121  1.00  0.00     0.000 C 
BRANCH   5   6
ATOM      6  C   UNL     1     -19.637   0.078 -15.821  1.00  0.00     0.000 C 
BRANCH   6   7
ATOM      7  C   UNL     1     -20.843  -0.891 -15.776  1.00  0.00     0.000 C 
BRANCH   7   8
ATOM      8  C   UNL     1     -22.212  -0.195 -15.883  1.00  0.00     0.000 C 
BRANCH   8   9
ATOM      9  C   UNL     1     -22.094   1.335 -16.012  1.00  0.00     0.000 C 
BRANCH   9  10
ATOM     10  C   UNL     1     -23.355   1.971 -16.616  1.00  0.00     0.000 C 
BRANCH  10  11
ATOM     11  C   UNL     1     -24.513   0.965 -16.767  1.00  0.00     0.000 C 
BRANCH  11  12
ATOM     12  C   UNL     1     -25.875   1.557 -16.366  1.00  0.00     0.006 C 
BRANCH  12  13
ATOM     13  C   UNL     1     -25.871   2.293 -15.014  1.00  0.00     0.053 C 
BRANCH  13  14
ATOM     14  C   UNL     1     -27.238   2.766 -14.623  1.00  0.00     0.041 C 
ATOM     15  O   UNL     1     -27.938   2.097 -13.816  1.00  0.00    -0.550 OA
ATOM     16  O   UNL     1     -27.746   3.942 -15.165  1.00  0.00    -0.550 OA
ENDBRANCH  13  14
ENDBRANCH  12  13
ENDBRANCH  11  12
ENDBRANCH  10  11
ENDBRANCH   9  10
ENDBRANCH   8   9
ENDBRANCH   7   8
ENDBRANCH   6   7
ENDBRANCH   5   6
ENDBRANCH   4   5
ENDBRANCH   3   4
ENDBRANCH   2   3
ENDBRANCH   1   2
BRANCH   1  17
ATOM     17  C   UNL     1     -15.641   1.467 -11.569  1.00  0.00     0.000 C 
BRANCH  17  18
ATOM     18  C   UNL     1     -15.470   2.844 -12.232  1.00  0.00     0.000 C 
BRANCH  18  19
ATOM     19  C   UNL     1     -14.881   2.744 -13.650  1.00  0.00     0.000 C 
BRANCH  19  20
ATOM     20  C   UNL     1     -15.896   2.227 -14.684  1.00  0.00     0.000 C 
BRANCH  20  21
ATOM     21  C   UNL     1     -15.229   1.442 -15.825  1.00  0.00     0.000 C 
BRANCH  21  22
ATOM     22  C   UNL     1     -13.850   2.008 -16.214  1.00  0.00    -0.000 C 
BRANCH  22  23
ATOM     23  C   UNL     1     -13.887   3.290 -17.071  1.00  0.00    -0.000 C 
BRANCH  23  24
ATOM     24  C   UNL     1     -13.698   3.072 -18.586  1.00  0.00    -0.000 C 
BRANCH  24  25
ATOM     25  C   UNL     1     -13.826   1.608 -19.052  1.00  0.00    -0.000 C 
BRANCH  25  26
ATOM     26  C   UNL     1     -14.832   1.371 -20.199  1.00  0.00    -0.000 C 
BRANCH  26  27
ATOM     27  C   UNL     1     -15.780   0.174 -20.001  1.00  0.00    -0.000 C 
BRANCH  27  28
ATOM     28  C   UNL     1     -17.031   0.469 -19.151  1.00  0.00    -0.000 C 
BRANCH  28  29
ATOM     29  C   UNL     1     -17.857  -0.787 -18.804  1.00  0.00    -0.003 C 
ATOM     30  C   UNL     1     -17.039  -2.077 -18.885  1.00  0.00     0.004 C 
ENDBRANCH  28  29
ENDBRANCH  27  28
ENDBRANCH  26  27
ENDBRANCH  25  26
ENDBRANCH  24  25
ENDBRANCH  23  24
ENDBRANCH  22  23
ENDBRANCH  21  22
ENDBRANCH  20  21
ENDBRANCH  19  20
ENDBRANCH  18  19
ENDBRANCH  17  18
ENDBRANCH   1  17
TORSDOF 26
ENDMDL
MODEL 5
REMARK VINA RESULT:    -5.792      3.651      7.602
REMARK INTER + INTRA:         -18.462
REMARK INTER:                 -14.946
REMARK INTRA:                  -3.516
REMARK UNBOUND:                -3.865
REMARK SMILES CCCCCCCCCCCCCCCCCCCCCCCCCCCC(=O)[O-]
REMARK SMILES IDX 15 1 16 2 17 3 18 4 19 5 20 6 21 7 22 8 23 9 24 10 25 11
REMARK SMILES IDX 26 12 27 13 28 14 29 15 30 16 14 17 13 18 12 19 11 20 10 21
REMARK SMILES IDX 9 22 8 23 7 24 6 25 5 26 4 27 3 28 2 29 1 30
REMARK H PARENT
REMARK Flexibility Score: inf
ROOT
ATOM      1  C   UNL     1     -17.278   0.967 -16.569  1.00  0.00     0.000 C 
ENDROOT
BRANCH   1   2
ATOM      2  C   UNL     1     -17.818   0.542 -17.943  1.00  0.00     0.000 C 
BRANCH   2   3
ATOM      3  C   UNL     1     -17.551  -0.941 -18.251  1.00  0.00     0.000 C 
BRANCH   3   4
ATOM      4  C   UNL     1     -16.490  -1.146 -19.351  1.00  0.00     0.000 C 
BRANCH   4   5
ATOM      5  C   UNL     1     -15.826   0.146 -19.867  1.00  0.00     0.000 C 
BRANCH   5   6
ATOM      6  C   UNL     1     -14.291   0.207 -19.730  1.00  0.00     0.000 C 
BRANCH   6   7
ATOM      7  C   UNL     1     -13.798   1.072 -18.545  1.00  0.00     0.000 C 
BRANCH   7   8
ATOM      8  C   UNL     1     -14.256   2.540 -18.605  1.00  0.00     0.000 C 
BRANCH   8   9
ATOM      9  C   UNL     1     -13.692   3.388 -17.451  1.00  0.00     0.000 C 
BRANCH   9  10
ATOM     10  C   UNL     1     -13.614   2.602 -16.132  1.00  0.00     0.000 C 
BRANCH  10  11
ATOM     11  C   UNL     1     -14.811   2.881 -15.203  1.00  0.00     0.000 C 
BRANCH  11  12
ATOM     12  C   UNL     1     -14.581   2.381 -13.767  1.00  0.00     0.006 C 
BRANCH  12  13
ATOM     13  C   UNL     1     -15.461   3.071 -12.709  1.00  0.00     0.053 C 
BRANCH  13  14
ATOM     14  C   UNL     1     -16.072   2.091 -11.753  1.00  0.00     0.041 C 
ATOM     15  O   UNL     1     -15.395   1.123 -11.314  1.00  0.00    -0.550 OA
ATOM     16  O   UNL     1     -17.398   2.239 -11.362  1.00  0.00    -0.550 OA
ENDBRANCH  13  14
ENDBRANCH  12  13
ENDBRANCH  11  12
ENDBRANCH  10  11
ENDBRANCH   9  10
ENDBRANCH   8   9
ENDBRANCH   7   8
ENDBRANCH   6   7
ENDBRANCH   5   6
ENDBRANCH   4   5
ENDBRANCH   3   4
ENDBRANCH   2   3
ENDBRANCH   1   2
BRANCH   1  17
ATOM     17  C   UNL     1     -16.427  -0.124 -15.896  1.00  0.00     0.000 C 
BRANCH  17  18
ATOM     18  C   UNL     1     -16.925  -0.464 -14.482  1.00  0.00     0.000 C 
BRANCH  18  19
ATOM     19  C   UNL     1     -18.461  -0.453 -14.382  1.00  0.00     0.000 C 
BRANCH  19  20
ATOM     20  C   UNL     1     -19.104  -1.753 -14.892  1.00  0.00     0.000 C 
BRANCH  20  21
ATOM     21  C   UNL     1     -20.538  -1.543 -15.405  1.00  0.00     0.000 C 
BRANCH  21  22
ATOM     22  C   UNL     1     -20.795  -0.102 -15.884  1.00  0.00    -0.000 C 
BRANCH  22  23
ATOM     23  C   UNL     1     -22.282   0.308 -15.957  1.00  0.00    -0.000 C 
BRANCH  23  24
ATOM     24  C   UNL     1     -22.539   1.826 -16.050  1.00  0.00    -0.000 C 
BRANCH  24  25
ATOM     25  C   UNL     1     -24.018   2.243 -15.924  1.00  0.00    -0.000 C 
BRANCH  25  26
ATOM     26  C   UNL     1     -24.913   1.849 -17.119  1.00  0.00    -0.000 C 
BRANCH  26  27
ATOM     27  C   UNL     1     -26.412   1.710 -16.796  1.00  0.00    -0.000 C 
BRANCH  27  28
ATOM     28  C   UNL     1     -27.280   2.916 -17.202  1.00  0.00    -0.000 C 
BRANCH  28  29
ATOM     29  C   UNL     1     -27.186   4.107 -16.226  1.00  0.00    -0.003 C 
ATOM     30  C   UNL     1     -26.645   5.375 -16.887  1.00  0.00     0.004 C 
ENDBRANCH  28  29
ENDBRANCH  27  28
ENDBRANCH  26  27
ENDBRANCH  25  26
ENDBRANCH  24  25
ENDBRANCH  23  24
ENDBRANCH  22  23
ENDBRANCH  21  22
ENDBRANCH  20  21
ENDBRANCH  19  20
ENDBRANCH  18  19
ENDBRANCH  17  18
ENDBRANCH   1  17
TORSDOF 26
ENDMDL
MODEL 6
REMARK VINA RESULT:    -5.770      3.012      7.366
REMARK INTER + INTRA:         -18.407
REMARK INTER:                 -15.447
REMARK INTRA:                  -2.959
REMARK UNBOUND:                -3.865
REMARK SMILES CCCCCCCCCCCCCCCCCCCCCCCCCCCC(=O)[O-]
REMARK SMILES IDX 15 1 16 2 17 3 18 4 19 5 20 6 21 7 22 8 23 9 24 10 25 11
REMARK SMILES IDX 26 12 27 13 28 14 29 15 30 16 14 17 13 18 12 19 11 20 10 21
REMARK SMILES IDX 9 22 8 23 7 24 6 25 5 26 4 27 3 28 2 29 1 30
REMARK H PARENT
REMARK Flexibility Score: inf
ROOT
ATOM      1  C   UNL     1     -16.474  -1.843 -17.723  1.00  0.00     0.000 C 
ENDROOT
BRANCH   1   2
ATOM      2  C   UNL     1     -17.003  -1.323 -19.069  1.00  0.00     0.000 C 
BRANCH   2   3
ATOM      3  C   UNL     1     -16.730   0.178 -19.272  1.00  0.00     0.000 C 
BRANCH   3   4
ATOM      4  C   UNL     1     -15.510   0.450 -20.174  1.00  0.00     0.000 C 
BRANCH   4   5
ATOM      5  C   UNL     1     -14.765   1.768 -19.887  1.00  0.00     0.000 C 
BRANCH   5   6
ATOM      6  C   UNL     1     -13.961   1.807 -18.572  1.00  0.00     0.000 C 
BRANCH   6   7
ATOM      7  C   UNL     1     -13.368   3.196 -18.236  1.00  0.00     0.000 C 
BRANCH   7   8
ATOM      8  C   UNL     1     -13.344   3.521 -16.731  1.00  0.00     0.000 C 
BRANCH   8   9
ATOM      9  C   UNL     1     -13.697   2.307 -15.854  1.00  0.00     0.000 C 
BRANCH   9  10
ATOM     10  C   UNL     1     -14.865   2.596 -14.897  1.00  0.00     0.000 C 
BRANCH  10  11
ATOM     11  C   UNL     1     -14.801   1.749 -13.612  1.00  0.00     0.000 C 
BRANCH  11  12
ATOM     12  C   UNL     1     -15.688   2.308 -12.485  1.00  0.00     0.006 C 
BRANCH  12  13
ATOM     13  C   UNL     1     -15.846   1.365 -11.278  1.00  0.00     0.053 C 
BRANCH  13  14
ATOM     14  C   UNL     1     -17.281   1.172 -10.894  1.00  0.00     0.041 C 
ATOM     15  O   UNL     1     -18.191   1.260 -11.762  1.00  0.00    -0.550 OA
ATOM     16  O   UNL     1     -17.615   0.912  -9.569  1.00  0.00    -0.550 OA
ENDBRANCH  13  14
ENDBRANCH  12  13
ENDBRANCH  11  12
ENDBRANCH  10  11
ENDBRANCH   9  10
ENDBRANCH   8   9
ENDBRANCH   7   8
ENDBRANCH   6   7
ENDBRANCH   5   6
ENDBRANCH   4   5
ENDBRANCH   3   4
ENDBRANCH   2   3
ENDBRANCH   1   2
BRANCH   1  17
ATOM     17  C   UNL     1     -16.182  -0.715 -16.718  1.00  0.00     0.000 C 
BRANCH  17  18
ATOM     18  C   UNL     1     -16.800  -0.989 -15.337  1.00  0.00     0.000 C 
BRANCH  18  19
ATOM     19  C   UNL     1     -17.874   0.046 -14.959  1.00  0.00     0.000 C 
BRANCH  19  20
ATOM     20  C   UNL     1     -19.234  -0.595 -14.631  1.00  0.00     0.000 C 
BRANCH  20  21
ATOM     21  C   UNL     1     -20.172  -0.645 -15.848  1.00  0.00     0.000 C 
BRANCH  21  22
ATOM     22  C   UNL     1     -21.314   0.386 -15.764  1.00  0.00    -0.000 C 
BRANCH  22  23
ATOM     23  C   UNL     1     -22.733  -0.192 -15.947  1.00  0.00    -0.000 C 
BRANCH  23  24
ATOM     24  C   UNL     1     -22.794  -1.709 -16.214  1.00  0.00    -0.000 C 
BRANCH  24  25
ATOM     25  C   UNL     1     -24.077  -2.406 -15.718  1.00  0.00    -0.000 C 
BRANCH  25  26
ATOM     26  C   UNL     1     -24.886  -1.615 -14.667  1.00  0.00    -0.000 C 
BRANCH  26  27
ATOM     27  C   UNL     1     -26.341  -1.301 -15.063  1.00  0.00    -0.000 C 
BRANCH  27  28
ATOM     28  C   UNL     1     -26.633   0.185 -15.341  1.00  0.00    -0.000 C 
BRANCH  28  29
ATOM     29  C   UNL     1     -25.864   1.154 -14.418  1.00  0.00    -0.003 C 
ATOM     30  C   UNL     1     -25.686   2.542 -15.032  1.00  0.00     0.004 C 
ENDBRANCH  28  29
ENDBRANCH  27  28
ENDBRANCH  26  27
ENDBRANCH  25  26
ENDBRANCH  24  25
ENDBRANCH  23  24
ENDBRANCH  22  23
ENDBRANCH  21  22
ENDBRANCH  20  21
ENDBRANCH  19  20
ENDBRANCH  18  19
ENDBRANCH  17  18
ENDBRANCH   1  17
TORSDOF 26
ENDMDL
MODEL 7
REMARK VINA RESULT:    -5.722      4.513      8.922
REMARK INTER + INTRA:         -18.284
REMARK INTER:                 -15.231
REMARK INTRA:                  -3.054
REMARK UNBOUND:                -3.865
REMARK SMILES CCCCCCCCCCCCCCCCCCCCCCCCCCCC(=O)[O-]
REMARK SMILES IDX 15 1 16 2 17 3 18 4 19 5 20 6 21 7 22 8 23 9 24 10 25 11
REMARK SMILES IDX 26 12 27 13 28 14 29 15 30 16 14 17 13 18 12 19 11 20 10 21
REMARK SMILES IDX 9 22 8 23 7 24 6 25 5 26 4 27 3 28 2 29 1 30
REMARK H PARENT
REMARK Flexibility Score: inf
ROOT
ATOM      1  C   UNL     1     -18.081   0.754 -12.195  1.00  0.00     0.000 C 
ENDROOT
BRANCH   1   2
ATOM      2  C   UNL     1     -17.043   0.860 -11.069  1.00  0.00     0.000 C 
BRANCH   2   3
ATOM      3  C   UNL     1     -15.920   1.861 -11.391  1.00  0.00     0.000 C 
BRANCH   3   4
ATOM      4  C   UNL     1     -15.105   1.469 -12.640  1.00  0.00     0.000 C 
BRANCH   4   5
ATOM      5  C   UNL     1     -14.952   2.582 -13.696  1.00  0.00     0.000 C 
BRANCH   5   6
ATOM      6  C   UNL     1     -15.269   2.171 -15.148  1.00  0.00     0.000 C 
BRANCH   6   7
ATOM      7  C   UNL     1     -14.110   2.422 -16.141  1.00  0.00     0.000 C 
BRANCH   7   8
ATOM      8  C   UNL     1     -14.356   3.592 -17.111  1.00  0.00     0.000 C 
BRANCH   8   9
ATOM      9  C   UNL     1     -13.865   3.295 -18.539  1.00  0.00     0.000 C 
BRANCH   9  10
ATOM     10  C   UNL     1     -13.848   1.790 -18.851  1.00  0.00     0.000 C 
BRANCH  10  11
ATOM     11  C   UNL     1     -14.722   1.426 -20.067  1.00  0.00     0.000 C 
BRANCH  11  12
ATOM     12  C   UNL     1     -15.526   0.131 -19.858  1.00  0.00     0.006 C 
BRANCH  12  13
ATOM     13  C   UNL     1     -15.989  -0.099 -18.408  1.00  0.00     0.053 C 
BRANCH  13  14
ATOM     14  C   UNL     1     -16.468  -1.501 -18.182  1.00  0.00     0.041 C 
ATOM     15  O   UNL     1     -15.984  -2.197 -17.249  1.00  0.00    -0.550 OA
ATOM     16  O   UNL     1     -17.439  -2.045 -19.015  1.00  0.00    -0.550 OA
ENDBRANCH  13  14
ENDBRANCH  12  13
ENDBRANCH  11  12
ENDBRANCH  10  11
ENDBRANCH   9  10
ENDBRANCH   8   9
ENDBRANCH   7   8
ENDBRANCH   6   7
ENDBRANCH   5   6
ENDBRANCH   4   5
ENDBRANCH   3   4
ENDBRANCH   2   3
ENDBRANCH   1   2
BRANCH   1  17
ATOM     17  C   UNL     1     -18.101  -0.631 -12.865  1.00  0.00     0.000 C 
BRANCH  17  18
ATOM     18  C   UNL     1     -17.683  -0.572 -14.343  1.00  0.00     0.000 C 
BRANCH  18  19
ATOM     19  C   UNL     1     -18.765  -1.135 -15.282  1.00  0.00     0.000 C 
BRANCH  19  20
ATOM     20  C   UNL     1     -19.359  -0.070 -16.218  1.00  0.00     0.000 C 
BRANCH  20  21
ATOM     21  C   UNL     1     -20.768   0.374 -15.790  1.00  0.00     0.000 C 
BRANCH  21  22
ATOM     22  C   UNL     1     -21.802  -0.765 -15.866  1.00  0.00    -0.000 C 
BRANCH  22  23
ATOM     23  C   UNL     1     -23.277  -0.313 -15.844  1.00  0.00    -0.000 C 
BRANCH  23  24
ATOM     24  C   UNL     1     -23.497   1.211 -15.917  1.00  0.00    -0.000 C 
BRANCH  24  25
ATOM     25  C   UNL     1     -24.497   1.672 -16.997  1.00  0.00    -0.000 C 
BRANCH  25  26
ATOM     26  C   UNL     1     -25.466   0.581 -17.501  1.00  0.00    -0.000 C 
BRANCH  26  27
ATOM     27  C   UNL     1     -26.872   0.615 -16.876  1.00  0.00    -0.000 C 
BRANCH  27  28
ATOM     28  C   UNL     1     -27.149  -0.490 -15.838  1.00  0.00    -0.000 C 
BRANCH  28  29
ATOM     29  C   UNL     1     -27.077  -0.002 -14.376  1.00  0.00    -0.003 C 
ATOM     30  C   UNL     1     -27.319   1.501 -14.239  1.00  0.00     0.004 C 
ENDBRANCH  28  29
ENDBRANCH  27  28
ENDBRANCH  26  27
ENDBRANCH  25  26
ENDBRANCH  24  25
ENDBRANCH  23  24
ENDBRANCH  22  23
ENDBRANCH  21  22
ENDBRANCH  20  21
ENDBRANCH  19  20
ENDBRANCH  18  19
ENDBRANCH  17  18
ENDBRANCH   1  17
TORSDOF 26
ENDMDL
MODEL 8
REMARK VINA RESULT:    -5.681      4.352      6.840
REMARK INTER + INTRA:         -18.181
REMARK INTER:                 -14.964
REMARK INTRA:                  -3.217
REMARK UNBOUND:                -3.865
REMARK SMILES CCCCCCCCCCCCCCCCCCCCCCCCCCCC(=O)[O-]
REMARK SMILES IDX 15 1 16 2 17 3 18 4 19 5 20 6 21 7 22 8 23 9 24 10 25 11
REMARK SMILES IDX 26 12 27 13 28 14 29 15 30 16 14 17 13 18 12 19 11 20 10 21
REMARK SMILES IDX 9 22 8 23 7 24 6 25 5 26 4 27 3 28 2 29 1 30
REMARK H PARENT
REMARK Flexibility Score: inf
ROOT
ATOM      1  C   UNL     1     -17.330  -0.556 -13.350  1.00  0.00     0.000 C 
ENDROOT
BRANCH   1   2
ATOM      2  C   UNL     1     -18.473  -0.147 -14.292  1.00  0.00     0.000 C 
BRANCH   2   3
ATOM      3  C   UNL     1     -19.271  -1.355 -14.812  1.00  0.00     0.000 C 
BRANCH   3   4
ATOM      4  C   UNL     1     -20.518  -0.947 -15.622  1.00  0.00     0.000 C 
BRANCH   4   5
ATOM      5  C   UNL     1     -20.630   0.557 -15.937  1.00  0.00     0.000 C 
BRANCH   5   6
ATOM      6  C   UNL     1     -22.065   1.106 -16.071  1.00  0.00     0.000 C 
BRANCH   6   7
ATOM      7  C   UNL     1     -23.165   0.021 -15.989  1.00  0.00     0.000 C 
BRANCH   7   8
ATOM      8  C   UNL     1     -24.450   0.483 -15.279  1.00  0.00     0.000 C 
BRANCH   8   9
ATOM      9  C   UNL     1     -24.469   1.998 -15.007  1.00  0.00     0.000 C 
BRANCH   9  10
ATOM     10  C   UNL     1     -25.813   2.473 -14.434  1.00  0.00     0.000 C 
BRANCH  10  11
ATOM     11  C   UNL     1     -26.899   1.382 -14.485  1.00  0.00     0.000 C 
BRANCH  11  12
ATOM     12  C   UNL     1     -27.861   1.440 -13.285  1.00  0.00     0.006 C 
BRANCH  12  13
ATOM     13  C   UNL     1     -28.291   0.062 -12.752  1.00  0.00     0.053 C 
BRANCH  13  14
ATOM     14  C   UNL     1     -29.010   0.161 -11.440  1.00  0.00     0.041 C 
ATOM     15  O   UNL     1     -29.960  -0.623 -11.174  1.00  0.00    -0.550 OA
ATOM     16  O   UNL     1     -28.638   1.133 -10.518  1.00  0.00    -0.550 OA
ENDBRANCH  13  14
ENDBRANCH  12  13
ENDBRANCH  11  12
ENDBRANCH  10  11
ENDBRANCH   9  10
ENDBRANCH   8   9
ENDBRANCH   7   8
ENDBRANCH   6   7
ENDBRANCH   5   6
ENDBRANCH   4   5
ENDBRANCH   3   4
ENDBRANCH   2   3
ENDBRANCH   1   2
BRANCH   1  17
ATOM     17  C   UNL     1     -17.460   0.061 -11.947  1.00  0.00     0.000 C 
BRANCH  17  18
ATOM     18  C   UNL     1     -17.164   1.570 -11.941  1.00  0.00     0.000 C 
BRANCH  18  19
ATOM     19  C   UNL     1     -15.665   1.874 -12.110  1.00  0.00     0.000 C 
BRANCH  19  20
ATOM     20  C   UNL     1     -15.364   2.728 -13.354  1.00  0.00     0.000 C 
BRANCH  20  21
ATOM     21  C   UNL     1     -14.752   1.907 -14.500  1.00  0.00     0.000 C 
BRANCH  21  22
ATOM     22  C   UNL     1     -15.661   1.844 -15.742  1.00  0.00    -0.000 C 
BRANCH  22  23
ATOM     23  C   UNL     1     -15.483   3.003 -16.744  1.00  0.00    -0.000 C 
BRANCH  23  24
ATOM     24  C   UNL     1     -14.233   2.908 -17.642  1.00  0.00    -0.000 C 
BRANCH  24  25
ATOM     25  C   UNL     1     -14.092   1.584 -18.420  1.00  0.00    -0.000 C 
BRANCH  25  26
ATOM     26  C   UNL     1     -14.986   1.463 -19.673  1.00  0.00    -0.000 C 
BRANCH  26  27
ATOM     27  C   UNL     1     -15.885   0.213 -19.716  1.00  0.00    -0.000 C 
BRANCH  27  28
ATOM     28  C   UNL     1     -17.146   0.288 -18.835  1.00  0.00    -0.000 C 
BRANCH  28  29
ATOM     29  C   UNL     1     -17.547  -1.062 -18.206  1.00  0.00    -0.003 C 
ATOM     30  C   UNL     1     -16.507  -1.587 -17.216  1.00  0.00     0.004 C 
ENDBRANCH  28  29
ENDBRANCH  27  28
ENDBRANCH  26  27
ENDBRANCH  25  26
ENDBRANCH  24  25
ENDBRANCH  23  24
ENDBRANCH  22  23
ENDBRANCH  21  22
ENDBRANCH  20  21
ENDBRANCH  19  20
ENDBRANCH  18  19
ENDBRANCH  17  18
ENDBRANCH   1  17
TORSDOF 26
ENDMDL
MODEL 9
REMARK VINA RESULT:    -5.663      4.342      7.119
REMARK INTER + INTRA:         -18.137
REMARK INTER:                 -14.878
REMARK INTRA:                  -3.259
REMARK UNBOUND:                -3.865
REMARK SMILES CCCCCCCCCCCCCCCCCCCCCCCCCCCC(=O)[O-]
REMARK SMILES IDX 15 1 16 2 17 3 18 4 19 5 20 6 21 7 22 8 23 9 24 10 25 11
REMARK SMILES IDX 26 12 27 13 28 14 29 15 30 16 14 17 13 18 12 19 11 20 10 21
REMARK SMILES IDX 9 22 8 23 7 24 6 25 5 26 4 27 3 28 2 29 1 30
REMARK H PARENT
REMARK Flexibility Score: inf
ROOT
ATOM      1  C   UNL     1     -17.670   1.065 -17.315  1.00  0.00     0.000 C 
ENDROOT
BRANCH   1   2
ATOM      2  C   UNL     1     -17.043   0.164 -16.241  1.00  0.00     0.000 C 
BRANCH   2   3
ATOM      3  C   UNL     1     -17.754   0.280 -14.882  1.00  0.00     0.000 C 
BRANCH   3   4
ATOM      4  C   UNL     1     -18.421  -1.038 -14.438  1.00  0.00     0.000 C 
BRANCH   4   5
ATOM      5  C   UNL     1     -19.126  -1.824 -15.561  1.00  0.00     0.000 C 
BRANCH   5   6
ATOM      6  C   UNL     1     -20.367  -2.632 -15.132  1.00  0.00     0.000 C 
BRANCH   6   7
ATOM      7  C   UNL     1     -21.713  -1.968 -15.510  1.00  0.00     0.000 C 
BRANCH   7   8
ATOM      8  C   UNL     1     -21.593  -0.484 -15.903  1.00  0.00     0.000 C 
BRANCH   8   9
ATOM      9  C   UNL     1     -22.949   0.243 -15.903  1.00  0.00     0.000 C 
BRANCH   9  10
ATOM     10  C   UNL     1     -24.114  -0.692 -16.264  1.00  0.00     0.000 C 
BRANCH  10  11
ATOM     11  C   UNL     1     -25.249  -0.654 -15.222  1.00  0.00     0.000 C 
BRANCH  11  12
ATOM     12  C   UNL     1     -26.648  -0.682 -15.862  1.00  0.00     0.006 C 
BRANCH  12  13
ATOM     13  C   UNL     1     -27.488  -1.918 -15.493  1.00  0.00     0.053 C 
BRANCH  13  14
ATOM     14  C   UNL     1     -27.494  -2.945 -16.584  1.00  0.00     0.041 C 
ATOM     15  O   UNL     1     -26.481  -3.102 -17.317  1.00  0.00    -0.550 OA
ATOM     16  O   UNL     1     -28.630  -3.717 -16.802  1.00  0.00    -0.550 OA
ENDBRANCH  13  14
ENDBRANCH  12  13
ENDBRANCH  11  12
ENDBRANCH  10  11
ENDBRANCH   9  10
ENDBRANCH   8   9
ENDBRANCH   7   8
ENDBRANCH   6   7
ENDBRANCH   5   6
ENDBRANCH   4   5
ENDBRANCH   3   4
ENDBRANCH   2   3
ENDBRANCH   1   2
BRANCH   1  17
ATOM     17  C   UNL     1     -17.783   0.376 -18.686  1.00  0.00     0.000 C 
BRANCH  17  18
ATOM     18  C   UNL     1     -16.924  -0.897 -18.772  1.00  0.00     0.000 C 
BRANCH  18  19
ATOM     19  C   UNL     1     -15.651  -0.690 -19.611  1.00  0.00     0.000 C 
BRANCH  19  20
ATOM     20  C   UNL     1     -14.376  -0.617 -18.754  1.00  0.00     0.000 C 
BRANCH  20  21
ATOM     21  C   UNL     1     -13.632   0.719 -18.914  1.00  0.00     0.000 C 
BRANCH  21  22
ATOM     22  C   UNL     1     -14.555   1.867 -19.364  1.00  0.00    -0.000 C 
BRANCH  22  23
ATOM     23  C   UNL     1     -14.326   3.213 -18.644  1.00  0.00    -0.000 C 
BRANCH  23  24
ATOM     24  C   UNL     1     -13.017   3.308 -17.834  1.00  0.00    -0.000 C 
BRANCH  24  25
ATOM     25  C   UNL     1     -13.202   3.341 -16.303  1.00  0.00    -0.000 C 
BRANCH  25  26
ATOM     26  C   UNL     1     -14.479   2.647 -15.783  1.00  0.00    -0.000 C 
BRANCH  26  27
ATOM     27  C   UNL     1     -14.410   2.157 -14.325  1.00  0.00    -0.000 C 
BRANCH  27  28
ATOM     28  C   UNL     1     -15.435   2.802 -13.372  1.00  0.00    -0.000 C 
BRANCH  28  29
ATOM     29  C   UNL     1     -15.526   2.111 -11.996  1.00  0.00    -0.003 C 
ATOM     30  C   UNL     1     -16.967   1.910 -11.527  1.00  0.00     0.004 C 
ENDBRANCH  28  29
ENDBRANCH  27  28
ENDBRANCH  26  27
ENDBRANCH  25  26
ENDBRANCH  24  25
ENDBRANCH  23  24
ENDBRANCH  22  23
ENDBRANCH  21  22
ENDBRANCH  20  21
ENDBRANCH  19  20
ENDBRANCH  18  19
ENDBRANCH  17  18
ENDBRANCH   1  17
TORSDOF 26
ENDMDL
