MODEL 1
REMARK VINA RESULT:    -4.793      0.000      0.000
REMARK INTER + INTRA:          -7.052
REMARK INTER:                  -7.315
REMARK INTRA:                   0.263
REMARK UNBOUND:                 0.263
REMARK SMILES CC1=CCC[C@@H](C)C(=O)C[C@@H](C(C)C)C(=O)C1
REMARK SMILES IDX 8 1 9 2 6 3 7 4 5 5 4 6 3 7 2 8 1 9 10 11 11 12 15 13 16 14
REMARK SMILES IDX 17 15 12 17 13 18 14 19
REMARK H PARENT
REMARK Flexibility Score: 70.00
ROOT
ATOM      1  C   UNL     1     134.876 134.674 112.507  1.00  0.00     0.136 C 
ATOM      2  O   UNL     1     135.532 134.054 111.682  1.00  0.00    -0.299 OA
ENDROOT
BRANCH   1   3
ATOM      3  C   UNL     1     133.836 133.928 113.322  1.00  0.00     0.053 C 
ATOM      4  C   UNL     1     133.016 134.901 114.177  1.00  0.00     0.016 C 
BRANCH   3   5
ATOM      5  C   UNL     1     134.476 132.831 114.194  1.00  0.00     0.015 C 
BRANCH   5   6
ATOM      6  C   UNL     1     135.891 133.218 114.662  1.00  0.00     0.028 C 
BRANCH   6   7
ATOM      7  C   UNL     1     135.887 133.582 116.124  1.00  0.00    -0.028 C 
ATOM      8  C   UNL     1     136.420 134.717 116.633  1.00  0.00    -0.070 CG0
ATOM      9  C   UNL     1     136.274 134.966 118.113  1.00  0.00     0.039 C 
ATOM     10  G   UNL     1     137.171 135.732 115.783  1.00  0.00     0.000 G0
ENDBRANCH   6   7
ENDBRANCH   5   6
ENDBRANCH   3   5
ENDBRANCH   1   3
BRANCH   1  11
ATOM     11  C   UNL     1     135.113 136.161 112.653  1.00  0.00     0.087 C 
BRANCH  11  12
ATOM     12  C   UNL     1     136.451 136.476 113.376  1.00  0.00     0.066 C 
BRANCH  12  13
ATOM     13  C   UNL     1     136.269 136.525 114.888  1.00  0.00     0.140 C 
ATOM     14  O   UNL     1     135.408 137.245 115.373  1.00  0.00    -0.299 OA
BRANCH  13  15
ATOM     15  C   UNL     1     137.179 135.747 115.807  1.00  0.00     0.106 CG0
ATOM     16  G   UNL     1     136.421 134.719 116.633  1.00  0.00     0.000 G0
ENDBRANCH  13  15
ENDBRANCH  12  13
BRANCH  12  17
ATOM     17  C   UNL     1     137.123 137.768 112.818  1.00  0.00    -0.006 C 
ATOM     18  C   UNL     1     137.563 137.589 111.357  1.00  0.00     0.008 C 
ATOM     19  C   UNL     1     138.301 138.280 113.666  1.00  0.00     0.008 C 
ENDBRANCH  12  17
ENDBRANCH  11  12
ENDBRANCH   1  11
TORSDOF 1
ENDMDL
MODEL 2
REMARK VINA RESULT:    -4.658      5.596      8.454
REMARK INTER + INTRA:          -6.846
REMARK INTER:                  -6.447
REMARK INTRA:                  -0.399
REMARK UNBOUND:                 0.263
REMARK SMILES CC1=CCC[C@@H](C)C(=O)C[C@@H](C(C)C)C(=O)C1
REMARK SMILES IDX 8 1 9 2 6 3 7 4 5 5 4 6 3 7 2 8 1 9 10 11 11 12 15 13 16 14
REMARK SMILES IDX 17 15 12 17 13 18 14 19
REMARK H PARENT
REMARK Flexibility Score: 70.00
ROOT
ATOM      1  C   UNL     1     140.489 142.988 114.779  1.00  0.00     0.136 C 
ATOM      2  O   UNL     1     140.129 144.152 114.671  1.00  0.00    -0.299 OA
ENDROOT
BRANCH   1   3
ATOM      3  C   UNL     1     141.869 142.602 114.279  1.00  0.00     0.053 C 
ATOM      4  C   UNL     1     142.893 143.692 114.613  1.00  0.00     0.016 C 
BRANCH   3   5
ATOM      5  C   UNL     1     141.862 142.292 112.770  1.00  0.00     0.015 C 
BRANCH   5   6
ATOM      6  C   UNL     1     142.077 140.795 112.487  1.00  0.00     0.028 C 
BRANCH   6   7
ATOM      7  C   UNL     1     140.886 140.212 111.773  1.00  0.00    -0.028 C 
ATOM      8  C   UNL     1     140.019 139.328 112.322  1.00  0.00    -0.070 CG0
ATOM      9  C   UNL     1     138.836 138.891 111.495  1.00  0.00     0.039 C 
ATOM     10  G   UNL     1     140.200 138.750 113.717  1.00  0.00     0.000 G0
ENDBRANCH   6   7
ENDBRANCH   5   6
ENDBRANCH   3   5
ENDBRANCH   1   3
BRANCH   1  11
ATOM     11  C   UNL     1     139.529 141.985 115.379  1.00  0.00     0.087 C 
BRANCH  11  12
ATOM     12  C   UNL     1     140.187 140.593 115.589  1.00  0.00     0.066 C 
BRANCH  12  13
ATOM     13  C   UNL     1     139.470 139.512 114.790  1.00  0.00     0.140 C 
ATOM     14  O   UNL     1     138.306 139.239 115.045  1.00  0.00    -0.299 OA
BRANCH  13  15
ATOM     15  C   UNL     1     140.194 138.721 113.727  1.00  0.00     0.106 CG0
ATOM     16  G   UNL     1     140.031 139.333 112.344  1.00  0.00     0.000 G0
ENDBRANCH  13  15
ENDBRANCH  12  13
BRANCH  12  17
ATOM     17  C   UNL     1     140.309 140.231 117.100  1.00  0.00    -0.006 C 
ATOM     18  C   UNL     1     139.403 141.118 117.968  1.00  0.00     0.008 C 
ATOM     19  C   UNL     1     141.750 140.259 117.639  1.00  0.00     0.008 C 
ENDBRANCH  12  17
ENDBRANCH  11  12
ENDBRANCH   1  11
TORSDOF 1
ENDMDL
MODEL 3
REMARK VINA RESULT:    -4.577      1.496      2.096
REMARK INTER + INTRA:          -6.722
REMARK INTER:                  -6.995
REMARK INTRA:                   0.272
REMARK UNBOUND:                 0.263
REMARK SMILES CC1=CCC[C@@H](C)C(=O)C[C@@H](C(C)C)C(=O)C1
REMARK SMILES IDX 8 1 9 2 6 3 7 4 5 5 4 6 3 7 2 8 1 9 10 11 11 12 15 13 16 14
REMARK SMILES IDX 17 15 12 17 13 18 14 19
REMARK H PARENT
REMARK Flexibility Score: 70.00
ROOT
ATOM      1  C   UNL     1     134.470 136.606 112.716  1.00  0.00     0.136 C 
ATOM      2  O   UNL     1     133.539 137.217 112.212  1.00  0.00    -0.299 OA
ENDROOT
BRANCH   1   3
ATOM      3  C   UNL     1     134.627 135.129 112.404  1.00  0.00     0.053 C 
ATOM      4  C   UNL     1     134.715 134.899 110.891  1.00  0.00     0.016 C 
BRANCH   3   5
ATOM      5  C   UNL     1     133.493 134.292 113.026  1.00  0.00     0.015 C 
BRANCH   5   6
ATOM      6  C   UNL     1     133.984 133.450 114.217  1.00  0.00     0.028 C 
BRANCH   6   7
ATOM      7  C   UNL     1     133.937 134.253 115.491  1.00  0.00    -0.028 C 
ATOM      8  C   UNL     1     135.007 134.859 116.056  1.00  0.00    -0.070 CG0
ATOM      9  C   UNL     1     134.780 135.685 117.298  1.00  0.00     0.039 C 
ATOM     10  G   UNL     1     136.419 134.726 115.505  1.00  0.00     0.000 G0
ENDBRANCH   6   7
ENDBRANCH   5   6
ENDBRANCH   3   5
ENDBRANCH   1   3
BRANCH   1  11
ATOM     11  C   UNL     1     135.403 137.345 113.648  1.00  0.00     0.087 C 
BRANCH  11  12
ATOM     12  C   UNL     1     136.795 136.663 113.751  1.00  0.00     0.066 C 
BRANCH  12  13
ATOM     13  C   UNL     1     137.024 136.071 115.136  1.00  0.00     0.140 C 
ATOM     14  O   UNL     1     137.743 136.654 115.935  1.00  0.00    -0.299 OA
BRANCH  13  15
ATOM     15  C   UNL     1     136.432 134.736 115.519  1.00  0.00     0.106 CG0
ATOM     16  G   UNL     1     135.009 134.868 116.041  1.00  0.00     0.000 G0
ENDBRANCH  13  15
ENDBRANCH  12  13
BRANCH  12  17
ATOM     17  C   UNL     1     137.946 137.623 113.320  1.00  0.00    -0.006 C 
ATOM     18  C   UNL     1     137.993 138.880 114.203  1.00  0.00     0.008 C 
ATOM     19  C   UNL     1     137.907 138.023 111.834  1.00  0.00     0.008 C 
ENDBRANCH  12  17
ENDBRANCH  11  12
ENDBRANCH   1  11
TORSDOF 1
ENDMDL
MODEL 4
REMARK VINA RESULT:    -4.554      1.878      4.363
REMARK INTER + INTRA:          -6.687
REMARK INTER:                  -7.403
REMARK INTRA:                   0.716
REMARK UNBOUND:                 0.263
REMARK SMILES CC1=CCC[C@@H](C)C(=O)C[C@@H](C(C)C)C(=O)C1
REMARK SMILES IDX 8 1 9 2 6 3 7 4 5 5 4 6 3 7 2 8 1 9 10 11 11 12 15 13 16 14
REMARK SMILES IDX 17 15 12 17 13 18 14 19
REMARK H PARENT
REMARK Flexibility Score: 70.00
ROOT
ATOM      1  C   UNL     1     137.124 137.004 114.099  1.00  0.00     0.136 C 
ATOM      2  O   UNL     1     138.109 137.544 114.582  1.00  0.00    -0.299 OA
ENDROOT
BRANCH   1   3
ATOM      3  C   UNL     1     137.039 136.855 112.591  1.00  0.00     0.053 C 
ATOM      4  C   UNL     1     137.895 137.917 111.891  1.00  0.00     0.016 C 
BRANCH   3   5
ATOM      5  C   UNL     1     135.581 136.906 112.096  1.00  0.00     0.015 C 
BRANCH   5   6
ATOM      6  C   UNL     1     135.105 135.543 111.563  1.00  0.00     0.028 C 
BRANCH   6   7
ATOM      7  C   UNL     1     134.212 134.862 112.567  1.00  0.00    -0.028 C 
ATOM      8  C   UNL     1     134.655 134.163 113.638  1.00  0.00    -0.070 CG0
ATOM      9  C   UNL     1     133.629 133.598 114.589  1.00  0.00     0.039 C 
ATOM     10  G   UNL     1     136.130 133.910 113.908  1.00  0.00     0.000 G0
ENDBRANCH   6   7
ENDBRANCH   5   6
ENDBRANCH   3   5
ENDBRANCH   1   3
BRANCH   1  11
ATOM     11  C   UNL     1     136.025 136.536 115.026  1.00  0.00     0.087 C 
BRANCH  11  12
ATOM     12  C   UNL     1     136.515 135.447 116.020  1.00  0.00     0.066 C 
BRANCH  12  13
ATOM     13  C   UNL     1     136.497 134.063 115.382  1.00  0.00     0.140 C 
ATOM     14  O   UNL     1     136.833 133.088 116.038  1.00  0.00    -0.299 OA
BRANCH  13  15
ATOM     15  C   UNL     1     136.135 133.882 113.928  1.00  0.00     0.106 CG0
ATOM     16  G   UNL     1     134.664 134.162 113.663  1.00  0.00     0.000 G0
ENDBRANCH  13  15
ENDBRANCH  12  13
BRANCH  12  17
ATOM     17  C   UNL     1     135.727 135.490 117.364  1.00  0.00    -0.006 C 
ATOM     18  C   UNL     1     134.497 136.407 117.269  1.00  0.00     0.008 C 
ATOM     19  C   UNL     1     136.583 135.880 118.582  1.00  0.00     0.008 C 
ENDBRANCH  12  17
ENDBRANCH  11  12
ENDBRANCH   1  11
TORSDOF 1
ENDMDL
MODEL 5
REMARK VINA RESULT:    -4.485      5.772      8.233
REMARK INTER + INTRA:          -6.583
REMARK INTER:                  -7.160
REMARK INTRA:                   0.577
REMARK UNBOUND:                 0.263
REMARK SMILES CC1=CCC[C@@H](C)C(=O)C[C@@H](C(C)C)C(=O)C1
REMARK SMILES IDX 8 1 9 2 6 3 7 4 5 5 4 6 3 7 2 8 1 9 10 11 11 12 15 13 16 14
REMARK SMILES IDX 17 15 12 17 13 18 14 19
REMARK H PARENT
REMARK Flexibility Score: 70.00
ROOT
ATOM      1  C   UNL     1     139.146 139.709 114.048  1.00  0.00     0.136 C 
ATOM      2  O   UNL     1     138.110 139.304 114.554  1.00  0.00    -0.299 OA
ENDROOT
BRANCH   1   3
ATOM      3  C   UNL     1     139.278 139.689 112.537  1.00  0.00     0.053 C 
ATOM      4  C   UNL     1     138.506 138.507 111.939  1.00  0.00     0.016 C 
BRANCH   3   5
ATOM      5  C   UNL     1     140.753 139.666 112.094  1.00  0.00     0.015 C 
BRANCH   5   6
ATOM      6  C   UNL     1     141.216 141.032 111.558  1.00  0.00     0.028 C 
BRANCH   6   7
ATOM      7  C   UNL     1     142.171 141.687 112.522  1.00  0.00    -0.028 C 
ATOM      8  C   UNL     1     141.795 142.459 113.568  1.00  0.00    -0.070 CG0
ATOM      9  C   UNL     1     142.873 142.986 114.482  1.00  0.00     0.039 C 
ATOM     10  G   UNL     1     140.346 142.830 113.845  1.00  0.00     0.000 G0
ENDBRANCH   6   7
ENDBRANCH   5   6
ENDBRANCH   3   5
ENDBRANCH   1   3
BRANCH   1  11
ATOM     11  C   UNL     1     140.260 140.184 114.956  1.00  0.00     0.087 C 
BRANCH  11  12
ATOM     12  C   UNL     1     139.793 141.305 115.924  1.00  0.00     0.066 C 
BRANCH  12  13
ATOM     13  C   UNL     1     139.976 142.686 115.306  1.00  0.00     0.140 C 
ATOM     14  O   UNL     1     139.760 143.685 115.977  1.00  0.00    -0.299 OA
BRANCH  13  15
ATOM     15  C   UNL     1     140.357 142.844 113.854  1.00  0.00     0.106 CG0
ATOM     16  G   UNL     1     141.800 142.440 113.592  1.00  0.00     0.000 G0
ENDBRANCH  13  15
ENDBRANCH  12  13
BRANCH  12  17
ATOM     17  C   UNL     1     140.473 141.187 117.322  1.00  0.00    -0.006 C 
ATOM     18  C   UNL     1     141.689 140.248 117.280  1.00  0.00     0.008 C 
ATOM     19  C   UNL     1     139.518 140.763 118.452  1.00  0.00     0.008 C 
ENDBRANCH  12  17
ENDBRANCH  11  12
ENDBRANCH   1  11
TORSDOF 1
ENDMDL
MODEL 6
REMARK VINA RESULT:    -4.405      5.907      8.563
REMARK INTER + INTRA:          -6.460
REMARK INTER:                  -6.299
REMARK INTRA:                  -0.161
REMARK UNBOUND:                 0.263
REMARK SMILES CC1=CCC[C@@H](C)C(=O)C[C@@H](C(C)C)C(=O)C1
REMARK SMILES IDX 8 1 9 2 6 3 7 4 5 5 4 6 3 7 2 8 1 9 10 11 11 12 15 13 16 14
REMARK SMILES IDX 17 15 12 17 13 18 14 19
REMARK H PARENT
REMARK Flexibility Score: 70.00
ROOT
ATOM      1  C   UNL     1     142.932 141.703 113.849  1.00  0.00     0.136 C 
ATOM      2  O   UNL     1     143.161 142.673 113.141  1.00  0.00    -0.299 OA
ENDROOT
BRANCH   1   3
ATOM      3  C   UNL     1     143.698 140.418 113.596  1.00  0.00     0.053 C 
ATOM      4  C   UNL     1     145.195 140.617 113.858  1.00  0.00     0.016 C 
BRANCH   3   5
ATOM      5  C   UNL     1     143.452 139.879 112.174  1.00  0.00     0.015 C 
BRANCH   5   6
ATOM      6  C   UNL     1     142.602 138.596 112.183  1.00  0.00     0.028 C 
BRANCH   6   7
ATOM      7  C   UNL     1     141.273 138.834 111.515  1.00  0.00    -0.028 C 
ATOM      8  C   UNL     1     140.097 138.967 112.172  1.00  0.00    -0.070 CG0
ATOM      9  C   UNL     1     138.863 139.271 111.360  1.00  0.00     0.039 C 
ATOM     10  G   UNL     1     139.969 138.805 113.679  1.00  0.00     0.000 G0
ENDBRANCH   6   7
ENDBRANCH   5   6
ENDBRANCH   3   5
ENDBRANCH   1   3
BRANCH   1  11
ATOM     11  C   UNL     1     141.876 141.824 114.925  1.00  0.00     0.087 C 
BRANCH  11  12
ATOM     12  C   UNL     1     141.259 140.448 115.302  1.00  0.00     0.066 C 
BRANCH  12  13
ATOM     13  C   UNL     1     140.052 140.122 114.432  1.00  0.00     0.140 C 
ATOM     14  O   UNL     1     139.114 140.904 114.376  1.00  0.00    -0.299 OA
BRANCH  13  15
ATOM     15  C   UNL     1     139.962 138.814 113.685  1.00  0.00     0.106 CG0
ATOM     16  G   UNL     1     140.102 138.999 112.182  1.00  0.00     0.000 G0
ENDBRANCH  13  15
ENDBRANCH  12  13
BRANCH  12  17
ATOM     17  C   UNL     1     140.935 140.355 116.824  1.00  0.00    -0.006 C 
ATOM     18  C   UNL     1     140.301 141.653 117.347  1.00  0.00     0.008 C 
ATOM     19  C   UNL     1     142.140 139.965 117.700  1.00  0.00     0.008 C 
ENDBRANCH  12  17
ENDBRANCH  11  12
ENDBRANCH   1  11
TORSDOF 1
ENDMDL
MODEL 7
REMARK VINA RESULT:    -4.379      5.890      8.388
REMARK INTER + INTRA:          -6.421
REMARK INTER:                  -6.274
REMARK INTRA:                  -0.147
REMARK UNBOUND:                 0.263
REMARK SMILES CC1=CCC[C@@H](C)C(=O)C[C@@H](C(C)C)C(=O)C1
REMARK SMILES IDX 8 1 9 2 6 3 7 4 5 5 4 6 3 7 2 8 1 9 10 11 11 12 15 13 16 14
REMARK SMILES IDX 17 15 12 17 13 18 14 19
REMARK H PARENT
REMARK Flexibility Score: 70.00
ROOT
ATOM      1  C   UNL     1     139.430 139.577 114.245  1.00  0.00     0.136 C 
ATOM      2  O   UNL     1     138.381 139.218 114.759  1.00  0.00    -0.299 OA
ENDROOT
BRANCH   1   3
ATOM      3  C   UNL     1     139.588 139.452 112.742  1.00  0.00     0.053 C 
ATOM      4  C   UNL     1     138.404 138.691 112.132  1.00  0.00     0.016 C 
BRANCH   3   5
ATOM      5  C   UNL     1     140.925 138.788 112.363  1.00  0.00     0.015 C 
BRANCH   5   6
ATOM      6  C   UNL     1     141.849 139.749 111.594  1.00  0.00     0.028 C 
BRANCH   6   7
ATOM      7  C   UNL     1     143.214 139.800 112.230  1.00  0.00    -0.028 C 
ATOM      8  C   UNL     1     143.638 140.783 113.058  1.00  0.00    -0.070 CG0
ATOM      9  C   UNL     1     145.011 140.651 113.669  1.00  0.00     0.039 C 
ATOM     10  G   UNL     1     142.802 142.013 113.379  1.00  0.00     0.000 G0
ENDBRANCH   6   7
ENDBRANCH   5   6
ENDBRANCH   3   5
ENDBRANCH   1   3
BRANCH   1  11
ATOM     11  C   UNL     1     140.532 140.103 115.138  1.00  0.00     0.087 C 
BRANCH  11  12
ATOM     12  C   UNL     1     140.743 141.634 114.976  1.00  0.00     0.066 C 
BRANCH  12  13
ATOM     13  C   UNL     1     142.213 141.975 114.769  1.00  0.00     0.140 C 
ATOM     14  O   UNL     1     142.910 142.267 115.729  1.00  0.00    -0.299 OA
BRANCH  13  15
ATOM     15  C   UNL     1     142.812 142.025 113.384  1.00  0.00     0.106 CG0
ATOM     16  G   UNL     1     143.632 140.783 113.068  1.00  0.00     0.000 G0
ENDBRANCH  13  15
ENDBRANCH  12  13
BRANCH  12  17
ATOM     17  C   UNL     1     140.109 142.435 116.154  1.00  0.00    -0.006 C 
ATOM     18  C   UNL     1     139.448 141.502 117.180  1.00  0.00     0.008 C 
ATOM     19  C   UNL     1     139.113 143.522 115.710  1.00  0.00     0.008 C 
ENDBRANCH  12  17
ENDBRANCH  11  12
ENDBRANCH   1  11
TORSDOF 1
ENDMDL
MODEL 8
REMARK VINA RESULT:    -4.288      1.638      3.167
REMARK INTER + INTRA:          -6.282
REMARK INTER:                  -6.891
REMARK INTRA:                   0.609
REMARK UNBOUND:                 0.263
REMARK SMILES CC1=CCC[C@@H](C)C(=O)C[C@@H](C(C)C)C(=O)C1
REMARK SMILES IDX 8 1 9 2 6 3 7 4 5 5 4 6 3 7 2 8 1 9 10 11 11 12 15 13 16 14
REMARK SMILES IDX 17 15 12 17 13 18 14 19
REMARK H PARENT
REMARK Flexibility Score: 70.00
ROOT
ATOM      1  C   UNL     1     134.906 133.322 114.369  1.00  0.00     0.136 C 
ATOM      2  O   UNL     1     133.908 132.971 114.981  1.00  0.00    -0.299 OA
ENDROOT
BRANCH   1   3
ATOM      3  C   UNL     1     136.256 133.222 115.054  1.00  0.00     0.053 C 
ATOM      4  C   UNL     1     136.818 131.799 114.943  1.00  0.00     0.016 C 
BRANCH   3   5
ATOM      5  C   UNL     1     136.183 133.673 116.525  1.00  0.00     0.015 C 
BRANCH   5   6
ATOM      6  C   UNL     1     136.093 135.204 116.655  1.00  0.00     0.028 C 
BRANCH   6   7
ATOM      7  C   UNL     1     137.104 135.874 115.762  1.00  0.00    -0.028 C 
ATOM      8  C   UNL     1     136.809 136.836 114.856  1.00  0.00    -0.070 CG0
ATOM      9  C   UNL     1     137.948 137.457 114.086  1.00  0.00     0.039 C 
ATOM     10  G   UNL     1     135.387 137.298 114.573  1.00  0.00     0.000 G0
ENDBRANCH   6   7
ENDBRANCH   5   6
ENDBRANCH   3   5
ENDBRANCH   1   3
BRANCH   1  11
ATOM     11  C   UNL     1     134.743 133.866 112.967  1.00  0.00     0.087 C 
BRANCH  11  12
ATOM     12  C   UNL     1     135.309 135.306 112.824  1.00  0.00     0.066 C 
BRANCH  12  13
ATOM     13  C   UNL     1     134.606 136.277 113.765  1.00  0.00     0.140 C 
ATOM     14  O   UNL     1     133.386 136.275 113.838  1.00  0.00    -0.299 OA
BRANCH  13  15
ATOM     15  C   UNL     1     135.388 137.292 114.562  1.00  0.00     0.106 CG0
ATOM     16  G   UNL     1     136.805 136.823 114.856  1.00  0.00     0.000 G0
ENDBRANCH  13  15
ENDBRANCH  12  13
BRANCH  12  17
ATOM     17  C   UNL     1     135.288 135.794 111.343  1.00  0.00    -0.006 C 
ATOM     18  C   UNL     1     136.666 136.306 110.898  1.00  0.00     0.008 C 
ATOM     19  C   UNL     1     134.210 136.852 111.046  1.00  0.00     0.008 C 
ENDBRANCH  12  17
ENDBRANCH  11  12
ENDBRANCH   1  11
TORSDOF 1
ENDMDL
MODEL 9
REMARK VINA RESULT:    -4.162      1.968      4.508
REMARK INTER + INTRA:          -6.089
REMARK INTER:                  -6.148
REMARK INTRA:                   0.059
REMARK UNBOUND:                 0.263
REMARK SMILES CC1=CCC[C@@H](C)C(=O)C[C@@H](C(C)C)C(=O)C1
REMARK SMILES IDX 8 1 9 2 6 3 7 4 5 5 4 6 3 7 2 8 1 9 10 11 11 12 15 13 16 14
REMARK SMILES IDX 17 15 12 17 13 18 14 19
REMARK H PARENT
REMARK Flexibility Score: 70.00
ROOT
ATOM      1  C   UNL     1     136.346 137.241 113.488  1.00  0.00     0.136 C 
ATOM      2  O   UNL     1     135.434 138.055 113.463  1.00  0.00    -0.299 OA
ENDROOT
BRANCH   1   3
ATOM      3  C   UNL     1     137.001 136.837 112.181  1.00  0.00     0.053 C 
ATOM      4  C   UNL     1     137.969 137.925 111.699  1.00  0.00     0.016 C 
BRANCH   3   5
ATOM      5  C   UNL     1     135.957 136.508 111.098  1.00  0.00     0.015 C 
BRANCH   5   6
ATOM      6  C   UNL     1     135.257 135.163 111.361  1.00  0.00     0.028 C 
BRANCH   6   7
ATOM      7  C   UNL     1     133.843 135.382 111.834  1.00  0.00    -0.028 C 
ATOM      8  C   UNL     1     133.357 134.954 113.023  1.00  0.00    -0.070 CG0
ATOM      9  C   UNL     1     131.936 135.315 113.378  1.00  0.00     0.039 C 
ATOM     10  G   UNL     1     134.172 134.116 113.996  1.00  0.00     0.000 G0
ENDBRANCH   6   7
ENDBRANCH   5   6
ENDBRANCH   3   5
ENDBRANCH   1   3
BRANCH   1  11
ATOM     11  C   UNL     1     136.757 136.653 114.820  1.00  0.00     0.087 C 
BRANCH  11  12
ATOM     12  C   UNL     1     136.394 135.148 114.938  1.00  0.00     0.066 C 
BRANCH  12  13
ATOM     13  C   UNL     1     134.886 134.943 115.021  1.00  0.00     0.140 C 
ATOM     14  O   UNL     1     134.261 135.411 115.961  1.00  0.00    -0.299 OA
BRANCH  13  15
ATOM     15  C   UNL     1     134.157 134.111 113.995  1.00  0.00     0.106 CG0
ATOM     16  G   UNL     1     133.356 134.967 113.026  1.00  0.00     0.000 G0
ENDBRANCH  13  15
ENDBRANCH  12  13
BRANCH  12  17
ATOM     17  C   UNL     1     137.152 134.458 116.113  1.00  0.00    -0.006 C 
ATOM     18  C   UNL     1     136.960 132.934 116.091  1.00  0.00     0.008 C 
ATOM     19  C   UNL     1     136.797 135.016 117.503  1.00  0.00     0.008 C 
ENDBRANCH  12  17
ENDBRANCH  11  12
ENDBRANCH   1  11
TORSDOF 1
ENDMDL
