MODEL 1
REMARK VINA RESULT:    -0.245      0.000      0.000
REMARK INTER + INTRA:          -0.955
REMARK INTER:                  -0.331
REMARK INTRA:                  -0.623
REMARK UNBOUND:                -0.623
REMARK SMILES COc1ccc(-c2cc(=O)c3c(OC)c(OC)c(OC)c(OC)c3o2)cc1
REMARK SMILES IDX 7 1 8 2 9 3 10 4 11 5 24 6 25 7 21 8 18 9 15 10 12 11 6 12
REMARK SMILES IDX 3 13 4 14 27 15 5 16 26 17 2 18 1 19 22 20 23 21 13 22 14 23
REMARK SMILES IDX 19 24 20 25 16 26 17 27
REMARK H PARENT
REMARK Flexibility Score: inf
ROOT
ATOM      1  C   UNL     1      26.596  25.727  47.612  1.00  0.00     0.138 A 
ATOM      2  C   UNL     1      25.863  24.565  47.361  1.00  0.00     0.100 A 
ATOM      3  C   UNL     1      24.487  24.654  47.174  1.00  0.00     0.197 A 
ATOM      4  O   UNL     1      23.845  23.593  46.949  1.00  0.00    -0.289 OA
ATOM      5  C   UNL     1      23.847  25.915  47.236  1.00  0.00     0.115 A 
ATOM      6  C   UNL     1      24.656  27.051  47.470  1.00  0.00     0.188 A 
ATOM      7  O   UNL     1      25.969  26.900  47.643  1.00  0.00    -0.452 OA
ATOM      8  C   UNL     1      24.079  28.341  47.538  1.00  0.00     0.209 A 
ATOM      9  C   UNL     1      22.682  28.494  47.349  1.00  0.00     0.211 A 
ATOM     10  C   UNL     1      21.868  27.355  47.111  1.00  0.00     0.208 A 
ATOM     11  C   UNL     1      22.447  26.061  47.086  1.00  0.00     0.179 A 
ENDROOT
BRANCH   1  12
ATOM     12  C   UNL     1      28.063  25.683  47.841  1.00  0.00     0.018 A 
ATOM     13  C   UNL     1      30.851  25.649  48.291  1.00  0.00     0.118 A 
ATOM     14  C   UNL     1      30.256  26.714  47.591  1.00  0.00     0.047 A 
ATOM     15  C   UNL     1      30.045  24.612  48.768  1.00  0.00     0.047 A 
ATOM     16  C   UNL     1      28.875  26.730  47.373  1.00  0.00     0.016 A 
ATOM     17  C   UNL     1      28.665  24.626  48.551  1.00  0.00     0.016 A 
BRANCH  13  18
ATOM     18  O   UNL     1      32.232  25.586  48.535  1.00  0.00    -0.497 OA
ATOM     19  C   UNL     1      32.900  26.310  49.563  1.00  0.00     0.278 C 
ENDBRANCH  13  18
ENDBRANCH   1  12
BRANCH   8  20
ATOM     20  O   UNL     1      24.843  29.493  47.813  1.00  0.00    -0.490 OA
ATOM     21  C   UNL     1      25.496  30.342  46.876  1.00  0.00     0.278 C 
ENDBRANCH   8  20
BRANCH  11  22
ATOM     22  O   UNL     1      21.679  24.891  46.906  1.00  0.00    -0.492 OA
ATOM     23  C   UNL     1      20.855  24.235  47.866  1.00  0.00     0.278 C 
ENDBRANCH  11  22
BRANCH   9  24
ATOM     24  O   UNL     1      22.054  29.755  47.403  1.00  0.00    -0.490 OA
ATOM     25  C   UNL     1      21.597  30.449  48.561  1.00  0.00     0.279 C 
ENDBRANCH   9  24
BRANCH  10  26
ATOM     26  O   UNL     1      20.482  27.458  46.875  1.00  0.00    -0.490 OA
ATOM     27  C   UNL     1      19.439  27.561  47.839  1.00  0.00     0.278 C 
ENDBRANCH  10  26
TORSDOF 6
ENDMDL
MODEL 2
REMARK VINA RESULT:    -0.235      2.911      7.742
REMARK INTER + INTRA:          -0.940
REMARK INTER:                  -0.206
REMARK INTRA:                  -0.734
REMARK UNBOUND:                -0.623
REMARK SMILES COc1ccc(-c2cc(=O)c3c(OC)c(OC)c(OC)c(OC)c3o2)cc1
REMARK SMILES IDX 7 1 8 2 9 3 10 4 11 5 24 6 25 7 21 8 18 9 15 10 12 11 6 12
REMARK SMILES IDX 3 13 4 14 27 15 5 16 26 17 2 18 1 19 22 20 23 21 13 22 14 23
REMARK SMILES IDX 19 24 20 25 16 26 17 27
REMARK H PARENT
REMARK Flexibility Score: inf
ROOT
ATOM      1  C   UNL     1      21.940  31.043  48.902  1.00  0.00     0.138 A 
ATOM      2  C   UNL     1      20.758  30.315  49.059  1.00  0.00     0.100 A 
ATOM      3  C   UNL     1      20.743  28.961  48.739  1.00  0.00     0.197 A 
ATOM      4  O   UNL     1      19.667  28.323  48.889  1.00  0.00    -0.289 OA
ATOM      5  C   UNL     1      21.921  28.335  48.262  1.00  0.00     0.115 A 
ATOM      6  C   UNL     1      23.086  29.130  48.151  1.00  0.00     0.188 A 
ATOM      7  O   UNL     1      23.036  30.422  48.472  1.00  0.00    -0.452 OA
ATOM      8  C   UNL     1      24.297  28.565  47.686  1.00  0.00     0.209 A 
ATOM      9  C   UNL     1      24.344  27.188  47.350  1.00  0.00     0.211 A 
ATOM     10  C   UNL     1      23.175  26.388  47.464  1.00  0.00     0.208 A 
ATOM     11  C   UNL     1      21.955  26.971  47.890  1.00  0.00     0.179 A 
ENDROOT
BRANCH   1  12
ATOM     12  C   UNL     1      22.002  32.494  49.208  1.00  0.00     0.018 A 
ATOM     13  C   UNL     1      22.135  35.265  49.741  1.00  0.00     0.118 A 
ATOM     14  C   UNL     1      23.180  34.621  49.057  1.00  0.00     0.047 A 
ATOM     15  C   UNL     1      21.025  34.519  50.147  1.00  0.00     0.047 A 
ATOM     16  C   UNL     1      23.111  33.250  48.790  1.00  0.00     0.016 A 
ATOM     17  C   UNL     1      20.953  33.148  49.883  1.00  0.00     0.016 A 
BRANCH  13  18
ATOM     18  O   UNL     1      22.157  36.637  50.034  1.00  0.00    -0.497 OA
ATOM     19  C   UNL     1      20.995  37.430  50.255  1.00  0.00     0.278 C 
ENDBRANCH  13  18
ENDBRANCH   1  12
BRANCH   8  20
ATOM     20  O   UNL     1      25.468  29.330  47.518  1.00  0.00    -0.490 OA
ATOM     21  C   UNL     1      26.435  29.661  48.509  1.00  0.00     0.278 C 
ENDBRANCH   8  20
BRANCH  11  22
ATOM     22  O   UNL     1      20.753  26.236  47.972  1.00  0.00    -0.492 OA
ATOM     23  C   UNL     1      19.989  25.698  46.896  1.00  0.00     0.278 C 
ENDBRANCH  11  22
BRANCH   9  24
ATOM     24  O   UNL     1      25.524  26.571  46.885  1.00  0.00    -0.490 OA
ATOM     25  C   UNL     1      26.580  26.019  47.668  1.00  0.00     0.279 C 
ENDBRANCH   9  24
BRANCH  10  26
ATOM     26  O   UNL     1      23.180  25.007  47.183  1.00  0.00    -0.490 OA
ATOM     27  C   UNL     1      23.464  23.937  48.078  1.00  0.00     0.278 C 
ENDBRANCH  10  26
TORSDOF 6
ENDMDL
MODEL 3
REMARK VINA RESULT:    -0.219      1.947      2.644
REMARK INTER + INTRA:          -0.919
REMARK INTER:                  -0.180
REMARK INTRA:                  -0.740
REMARK UNBOUND:                -0.623
REMARK SMILES COc1ccc(-c2cc(=O)c3c(OC)c(OC)c(OC)c(OC)c3o2)cc1
REMARK SMILES IDX 7 1 8 2 9 3 10 4 11 5 24 6 25 7 21 8 18 9 15 10 12 11 6 12
REMARK SMILES IDX 3 13 4 14 27 15 5 16 26 17 2 18 1 19 22 20 23 21 13 22 14 23
REMARK SMILES IDX 19 24 20 25 16 26 17 27
REMARK H PARENT
REMARK Flexibility Score: inf
ROOT
ATOM      1  C   UNL     1      25.854  26.425  48.321  1.00  0.00     0.138 A 
ATOM      2  C   UNL     1      25.843  25.030  48.385  1.00  0.00     0.100 A 
ATOM      3  C   UNL     1      24.626  24.356  48.383  1.00  0.00     0.197 A 
ATOM      4  O   UNL     1      24.638  23.097  48.441  1.00  0.00    -0.289 OA
ATOM      5  C   UNL     1      23.415  25.088  48.313  1.00  0.00     0.115 A 
ATOM      6  C   UNL     1      23.504  26.497  48.225  1.00  0.00     0.188 A 
ATOM      7  O   UNL     1      24.701  27.083  48.233  1.00  0.00    -0.452 OA
ATOM      8  C   UNL     1      22.332  27.285  48.147  1.00  0.00     0.209 A 
ATOM      9  C   UNL     1      21.063  26.654  48.135  1.00  0.00     0.211 A 
ATOM     10  C   UNL     1      20.971  25.239  48.219  1.00  0.00     0.208 A 
ATOM     11  C   UNL     1      22.148  24.458  48.340  1.00  0.00     0.179 A 
ENDROOT
BRANCH   1  12
ATOM     12  C   UNL     1      27.126  27.191  48.342  1.00  0.00     0.018 A 
ATOM     13  C   UNL     1      29.524  28.682  48.419  1.00  0.00     0.118 A 
ATOM     14  C   UNL     1      28.284  29.334  48.304  1.00  0.00     0.047 A 
ATOM     15  C   UNL     1      29.555  27.287  48.503  1.00  0.00     0.047 A 
ATOM     16  C   UNL     1      27.098  28.595  48.271  1.00  0.00     0.016 A 
ATOM     17  C   UNL     1      28.371  26.545  48.469  1.00  0.00     0.016 A 
BRANCH  13  18
ATOM     18  O   UNL     1      30.742  29.377  48.456  1.00  0.00    -0.497 OA
ATOM     19  C   UNL     1      31.578  29.472  49.605  1.00  0.00     0.278 C 
ENDBRANCH  13  18
ENDBRANCH   1  12
BRANCH   8  20
ATOM     20  O   UNL     1      22.375  28.693  48.103  1.00  0.00    -0.490 OA
ATOM     21  C   UNL     1      22.496  29.521  46.951  1.00  0.00     0.278 C 
ENDBRANCH   8  20
BRANCH  11  22
ATOM     22  O   UNL     1      22.113  23.054  48.479  1.00  0.00    -0.492 OA
ATOM     23  C   UNL     1      21.647  22.303  49.597  1.00  0.00     0.278 C 
ENDBRANCH  11  22
BRANCH   9  24
ATOM     24  O   UNL     1      19.862  27.390  48.054  1.00  0.00    -0.490 OA
ATOM     25  C   UNL     1      19.167  27.788  46.875  1.00  0.00     0.279 C 
ENDBRANCH   9  24
BRANCH  10  26
ATOM     26  O   UNL     1      19.736  24.562  48.168  1.00  0.00    -0.490 OA
ATOM     27  C   UNL     1      19.082  24.027  47.022  1.00  0.00     0.278 C 
ENDBRANCH  10  26
TORSDOF 6
ENDMDL
MODEL 4
REMARK VINA RESULT:    -0.215      3.280      5.879
REMARK INTER + INTRA:          -0.914
REMARK INTER:                  -0.189
REMARK INTRA:                  -0.726
REMARK UNBOUND:                -0.623
REMARK SMILES COc1ccc(-c2cc(=O)c3c(OC)c(OC)c(OC)c(OC)c3o2)cc1
REMARK SMILES IDX 7 1 8 2 9 3 10 4 11 5 24 6 25 7 21 8 18 9 15 10 12 11 6 12
REMARK SMILES IDX 3 13 4 14 27 15 5 16 26 17 2 18 1 19 22 20 23 21 13 22 14 23
REMARK SMILES IDX 19 24 20 25 16 26 17 27
REMARK H PARENT
REMARK Flexibility Score: inf
ROOT
ATOM      1  C   UNL     1      24.472  30.465  49.891  1.00  0.00     0.138 A 
ATOM      2  C   UNL     1      23.099  30.719  49.914  1.00  0.00     0.100 A 
ATOM      3  C   UNL     1      22.227  29.807  49.328  1.00  0.00     0.197 A 
ATOM      4  O   UNL     1      20.991  30.056  49.360  1.00  0.00    -0.289 OA
ATOM      5  C   UNL     1      22.736  28.634  48.721  1.00  0.00     0.115 A 
ATOM      6  C   UNL     1      24.135  28.430  48.757  1.00  0.00     0.188 A 
ATOM      7  O   UNL     1      24.918  29.342  49.332  1.00  0.00    -0.452 OA
ATOM      8  C   UNL     1      24.707  27.276  48.173  1.00  0.00     0.209 A 
ATOM      9  C   UNL     1      23.867  26.308  47.566  1.00  0.00     0.211 A 
ATOM     10  C   UNL     1      22.461  26.509  47.532  1.00  0.00     0.208 A 
ATOM     11  C   UNL     1      21.898  27.688  48.082  1.00  0.00     0.179 A 
ENDROOT
BRANCH   1  12
ATOM     12  C   UNL     1      25.446  31.417  50.483  1.00  0.00     0.018 A 
ATOM     13  C   UNL     1      27.286  33.211  51.656  1.00  0.00     0.118 A 
ATOM     14  C   UNL     1      25.981  33.095  52.165  1.00  0.00     0.047 A 
ATOM     15  C   UNL     1      27.664  32.420  50.567  1.00  0.00     0.047 A 
ATOM     16  C   UNL     1      25.073  32.204  51.586  1.00  0.00     0.016 A 
ATOM     17  C   UNL     1      26.758  31.529  49.985  1.00  0.00     0.016 A 
BRANCH  13  18
ATOM     18  O   UNL     1      28.233  34.090  52.200  1.00  0.00    -0.497 OA
ATOM     19  C   UNL     1      29.566  34.236  51.717  1.00  0.00     0.278 C 
ENDBRANCH  13  18
ENDBRANCH   1  12
BRANCH   8  20
ATOM     20  O   UNL     1      26.098  27.057  48.148  1.00  0.00    -0.490 OA
ATOM     21  C   UNL     1      27.024  27.481  47.153  1.00  0.00     0.278 C 
ENDBRANCH   8  20
BRANCH  11  22
ATOM     22  O   UNL     1      20.515  27.964  48.029  1.00  0.00    -0.492 OA
ATOM     23  C   UNL     1      19.730  28.252  46.875  1.00  0.00     0.278 C 
ENDBRANCH  11  22
BRANCH   9  24
ATOM     24  O   UNL     1      24.381  25.137  46.973  1.00  0.00    -0.490 OA
ATOM     25  C   UNL     1      24.665  23.894  47.610  1.00  0.00     0.279 C 
ENDBRANCH   9  24
BRANCH  10  26
ATOM     26  O   UNL     1      21.580  25.558  46.979  1.00  0.00    -0.490 OA
ATOM     27  C   UNL     1      20.926  24.484  47.647  1.00  0.00     0.278 C 
ENDBRANCH  10  26
TORSDOF 6
ENDMDL
MODEL 5
REMARK VINA RESULT:    -0.208      2.235      3.894
REMARK INTER + INTRA:          -0.904
REMARK INTER:                  -0.175
REMARK INTRA:                  -0.728
REMARK UNBOUND:                -0.623
REMARK SMILES COc1ccc(-c2cc(=O)c3c(OC)c(OC)c(OC)c(OC)c3o2)cc1
REMARK SMILES IDX 7 1 8 2 9 3 10 4 11 5 24 6 25 7 21 8 18 9 15 10 12 11 6 12
REMARK SMILES IDX 3 13 4 14 27 15 5 16 26 17 2 18 1 19 22 20 23 21 13 22 14 23
REMARK SMILES IDX 19 24 20 25 16 26 17 27
REMARK H PARENT
REMARK Flexibility Score: inf
ROOT
ATOM      1  C   UNL     1      30.122  26.020  47.820  1.00  0.00     0.138 A 
ATOM      2  C   UNL     1      29.972  24.631  47.808  1.00  0.00     0.100 A 
ATOM      3  C   UNL     1      28.694  24.083  47.860  1.00  0.00     0.197 A 
ATOM      4  O   UNL     1      28.582  22.828  47.848  1.00  0.00    -0.289 OA
ATOM      5  C   UNL     1      27.563  24.933  47.919  1.00  0.00     0.115 A 
ATOM      6  C   UNL     1      27.791  26.329  47.903  1.00  0.00     0.188 A 
ATOM      7  O   UNL     1      29.039  26.793  47.854  1.00  0.00    -0.452 OA
ATOM      8  C   UNL     1      26.704  27.233  47.955  1.00  0.00     0.209 A 
ATOM      9  C   UNL     1      25.378  26.733  48.003  1.00  0.00     0.211 A 
ATOM     10  C   UNL     1      25.148  25.331  48.016  1.00  0.00     0.208 A 
ATOM     11  C   UNL     1      26.243  24.431  48.006  1.00  0.00     0.179 A 
ENDROOT
BRANCH   1  12
ATOM     12  C   UNL     1      31.465  26.654  47.789  1.00  0.00     0.018 A 
ATOM     13  C   UNL     1      34.016  27.867  47.782  1.00  0.00     0.118 A 
ATOM     14  C   UNL     1      32.951  28.452  48.490  1.00  0.00     0.047 A 
ATOM     15  C   UNL     1      33.798  26.673  47.089  1.00  0.00     0.047 A 
ATOM     16  C   UNL     1      31.690  27.849  48.495  1.00  0.00     0.016 A 
ATOM     17  C   UNL     1      32.539  26.068  47.092  1.00  0.00     0.016 A 
BRANCH  13  18
ATOM     18  O   UNL     1      35.299  28.434  47.745  1.00  0.00    -0.497 OA
ATOM     19  C   UNL     1      36.350  28.102  48.647  1.00  0.00     0.278 C 
ENDBRANCH  13  18
ENDBRANCH   1  12
BRANCH   8  20
ATOM     20  O   UNL     1      26.888  28.630  47.986  1.00  0.00    -0.490 OA
ATOM     21  C   UNL     1      27.025  29.510  46.875  1.00  0.00     0.278 C 
ENDBRANCH   8  20
BRANCH  11  22
ATOM     22  O   UNL     1      26.074  23.032  48.071  1.00  0.00    -0.492 OA
ATOM     23  C   UNL     1      25.595  22.264  49.171  1.00  0.00     0.278 C 
ENDBRANCH  11  22
BRANCH   9  24
ATOM     24  O   UNL     1      24.257  27.587  48.052  1.00  0.00    -0.490 OA
ATOM     25  C   UNL     1      23.531  28.128  46.951  1.00  0.00     0.279 C 
ENDBRANCH   9  24
BRANCH  10  26
ATOM     26  O   UNL     1      23.849  24.783  48.020  1.00  0.00    -0.490 OA
ATOM     27  C   UNL     1      23.073  24.373  46.899  1.00  0.00     0.278 C 
ENDBRANCH  10  26
TORSDOF 6
ENDMDL
MODEL 6
REMARK VINA RESULT:    -0.206      2.477      4.437
REMARK INTER + INTRA:          -0.902
REMARK INTER:                  -0.157
REMARK INTRA:                  -0.745
REMARK UNBOUND:                -0.623
REMARK SMILES COc1ccc(-c2cc(=O)c3c(OC)c(OC)c(OC)c(OC)c3o2)cc1
REMARK SMILES IDX 7 1 8 2 9 3 10 4 11 5 24 6 25 7 21 8 18 9 15 10 12 11 6 12
REMARK SMILES IDX 3 13 4 14 27 15 5 16 26 17 2 18 1 19 22 20 23 21 13 22 14 23
REMARK SMILES IDX 19 24 20 25 16 26 17 27
REMARK H PARENT
REMARK Flexibility Score: inf
ROOT
ATOM      1  C   UNL     1      25.668  26.354  48.149  1.00  0.00     0.138 A 
ATOM      2  C   UNL     1      24.608  27.108  47.643  1.00  0.00     0.100 A 
ATOM      3  C   UNL     1      23.308  26.628  47.767  1.00  0.00     0.197 A 
ATOM      4  O   UNL     1      22.366  27.325  47.303  1.00  0.00    -0.289 OA
ATOM      5  C   UNL     1      23.073  25.387  48.407  1.00  0.00     0.115 A 
ATOM      6  C   UNL     1      24.192  24.689  48.917  1.00  0.00     0.188 A 
ATOM      7  O   UNL     1      25.413  25.202  48.765  1.00  0.00    -0.452 OA
ATOM      8  C   UNL     1      24.025  23.446  49.571  1.00  0.00     0.209 A 
ATOM      9  C   UNL     1      22.723  22.909  49.733  1.00  0.00     0.211 A 
ATOM     10  C   UNL     1      21.597  23.610  49.225  1.00  0.00     0.208 A 
ATOM     11  C   UNL     1      21.776  24.834  48.533  1.00  0.00     0.179 A 
ENDROOT
BRANCH   1  12
ATOM     12  C   UNL     1      27.075  26.812  48.022  1.00  0.00     0.018 A 
ATOM     13  C   UNL     1      29.737  27.730  47.796  1.00  0.00     0.118 A 
ATOM     14  C   UNL     1      28.674  28.493  47.280  1.00  0.00     0.047 A 
ATOM     15  C   UNL     1      29.458  26.516  48.429  1.00  0.00     0.047 A 
ATOM     16  C   UNL     1      27.357  28.039  47.396  1.00  0.00     0.016 A 
ATOM     17  C   UNL     1      28.143  26.059  48.546  1.00  0.00     0.016 A 
BRANCH  13  18
ATOM     18  O   UNL     1      31.075  28.141  47.704  1.00  0.00    -0.497 OA
ATOM     19  C   UNL     1      31.492  29.417  47.226  1.00  0.00     0.278 C 
ENDBRANCH  13  18
ENDBRANCH   1  12
BRANCH   8  20
ATOM     20  O   UNL     1      25.117  22.698  50.054  1.00  0.00    -0.490 OA
ATOM     21  C   UNL     1      25.754  22.815  51.322  1.00  0.00     0.278 C 
ENDBRANCH   8  20
BRANCH  11  22
ATOM     22  O   UNL     1      20.699  25.546  47.962  1.00  0.00    -0.492 OA
ATOM     23  C   UNL     1      19.870  25.143  46.875  1.00  0.00     0.278 C 
ENDBRANCH  11  22
BRANCH   9  24
ATOM     24  O   UNL     1      22.497  21.677  50.381  1.00  0.00    -0.490 OA
ATOM     25  C   UNL     1      22.284  21.455  51.772  1.00  0.00     0.279 C 
ENDBRANCH   9  24
BRANCH  10  26
ATOM     26  O   UNL     1      20.279  23.140  49.397  1.00  0.00    -0.490 OA
ATOM     27  C   UNL     1      19.376  23.447  50.454  1.00  0.00     0.278 C 
ENDBRANCH  10  26
TORSDOF 6
ENDMDL
MODEL 7
REMARK VINA RESULT:    -0.204      4.003      7.363
REMARK INTER + INTRA:          -0.899
REMARK INTER:                  -0.180
REMARK INTRA:                  -0.719
REMARK UNBOUND:                -0.623
REMARK SMILES COc1ccc(-c2cc(=O)c3c(OC)c(OC)c(OC)c(OC)c3o2)cc1
REMARK SMILES IDX 7 1 8 2 9 3 10 4 11 5 24 6 25 7 21 8 18 9 15 10 12 11 6 12
REMARK SMILES IDX 3 13 4 14 27 15 5 16 26 17 2 18 1 19 22 20 23 21 13 22 14 23
REMARK SMILES IDX 19 24 20 25 16 26 17 27
REMARK H PARENT
REMARK Flexibility Score: inf
ROOT
ATOM      1  C   UNL     1      23.496  30.351  47.956  1.00  0.00     0.138 A 
ATOM      2  C   UNL     1      22.452  30.937  47.237  1.00  0.00     0.100 A 
ATOM      3  C   UNL     1      22.062  32.238  47.537  1.00  0.00     0.197 A 
ATOM      4  O   UNL     1      21.118  32.748  46.876  1.00  0.00    -0.289 OA
ATOM      5  C   UNL     1      22.727  32.955  48.562  1.00  0.00     0.115 A 
ATOM      6  C   UNL     1      23.792  32.307  49.231  1.00  0.00     0.188 A 
ATOM      7  O   UNL     1      24.116  31.058  48.898  1.00  0.00    -0.452 OA
ATOM      8  C   UNL     1      24.500  32.970  50.261  1.00  0.00     0.209 A 
ATOM      9  C   UNL     1      24.152  34.300  50.607  1.00  0.00     0.211 A 
ATOM     10  C   UNL     1      23.085  34.954  49.934  1.00  0.00     0.208 A 
ATOM     11  C   UNL     1      22.352  34.269  48.932  1.00  0.00     0.179 A 
ENDROOT
BRANCH   1  12
ATOM     12  C   UNL     1      23.934  28.958  47.689  1.00  0.00     0.018 A 
ATOM     13  C   UNL     1      24.745  26.310  47.134  1.00  0.00     0.118 A 
ATOM     14  C   UNL     1      23.423  26.717  46.884  1.00  0.00     0.047 A 
ATOM     15  C   UNL     1      25.656  27.235  47.653  1.00  0.00     0.047 A 
ATOM     16  C   UNL     1      23.025  28.029  47.155  1.00  0.00     0.016 A 
ATOM     17  C   UNL     1      25.260  28.547  47.926  1.00  0.00     0.016 A 
BRANCH  13  18
ATOM     18  O   UNL     1      25.194  25.005  46.880  1.00  0.00    -0.497 OA
ATOM     19  C   UNL     1      25.346  23.999  47.877  1.00  0.00     0.278 C 
ENDBRANCH  13  18
ENDBRANCH   1  12
BRANCH   8  20
ATOM     20  O   UNL     1      25.536  32.345  50.983  1.00  0.00    -0.490 OA
ATOM     21  C   UNL     1      25.414  31.533  52.146  1.00  0.00     0.278 C 
ENDBRANCH   8  20
BRANCH  11  22
ATOM     22  O   UNL     1      21.251  34.851  48.268  1.00  0.00    -0.492 OA
ATOM     23  C   UNL     1      19.978  35.177  48.818  1.00  0.00     0.278 C 
ENDBRANCH  11  22
BRANCH   9  24
ATOM     24  O   UNL     1      24.826  35.010  51.622  1.00  0.00    -0.490 OA
ATOM     25  C   UNL     1      24.480  35.087  53.002  1.00  0.00     0.279 C 
ENDBRANCH   9  24
BRANCH  10  26
ATOM     26  O   UNL     1      22.728  36.289  50.211  1.00  0.00    -0.490 OA
ATOM     27  C   UNL     1      23.240  37.471  49.606  1.00  0.00     0.278 C 
ENDBRANCH  10  26
TORSDOF 6
ENDMDL
MODEL 8
REMARK VINA RESULT:    -0.202      3.994      5.857
REMARK INTER + INTRA:          -0.896
REMARK INTER:                  -0.148
REMARK INTRA:                  -0.748
REMARK UNBOUND:                -0.623
REMARK SMILES COc1ccc(-c2cc(=O)c3c(OC)c(OC)c(OC)c(OC)c3o2)cc1
REMARK SMILES IDX 7 1 8 2 9 3 10 4 11 5 24 6 25 7 21 8 18 9 15 10 12 11 6 12
REMARK SMILES IDX 3 13 4 14 27 15 5 16 26 17 2 18 1 19 22 20 23 21 13 22 14 23
REMARK SMILES IDX 19 24 20 25 16 26 17 27
REMARK H PARENT
REMARK Flexibility Score: inf
ROOT
ATOM      1  C   UNL     1      27.537  24.887  51.789  1.00  0.00     0.138 A 
ATOM      2  C   UNL     1      27.430  26.280  51.792  1.00  0.00     0.100 A 
ATOM      3  C   UNL     1      26.672  26.908  50.809  1.00  0.00     0.197 A 
ATOM      4  O   UNL     1      26.588  28.165  50.831  1.00  0.00    -0.289 OA
ATOM      5  C   UNL     1      26.017  26.133  49.821  1.00  0.00     0.115 A 
ATOM      6  C   UNL     1      26.150  24.727  49.895  1.00  0.00     0.188 A 
ATOM      7  O   UNL     1      26.892  24.185  50.861  1.00  0.00    -0.452 OA
ATOM      8  C   UNL     1      25.517  23.896  48.941  1.00  0.00     0.209 A 
ATOM      9  C   UNL     1      24.726  24.479  47.919  1.00  0.00     0.211 A 
ATOM     10  C   UNL     1      24.588  25.891  47.845  1.00  0.00     0.208 A 
ATOM     11  C   UNL     1      25.260  26.720  48.779  1.00  0.00     0.179 A 
ENDROOT
BRANCH   1  12
ATOM     12  C   UNL     1      28.352  24.171  52.803  1.00  0.00     0.018 A 
ATOM     13  C   UNL     1      29.915  22.772  54.696  1.00  0.00     0.118 A 
ATOM     14  C   UNL     1      29.029  22.079  53.852  1.00  0.00     0.047 A 
ATOM     15  C   UNL     1      30.018  24.161  54.580  1.00  0.00     0.047 A 
ATOM     16  C   UNL     1      28.259  22.772  52.913  1.00  0.00     0.016 A 
ATOM     17  C   UNL     1      29.249  24.857  53.643  1.00  0.00     0.016 A 
BRANCH  13  18
ATOM     18  O   UNL     1      30.708  22.123  55.654  1.00  0.00    -0.497 OA
ATOM     19  C   UNL     1      31.380  22.785  56.722  1.00  0.00     0.278 C 
ENDBRANCH  13  18
ENDBRANCH   1  12
BRANCH   8  20
ATOM     20  O   UNL     1      25.660  22.494  48.952  1.00  0.00    -0.490 OA
ATOM     21  C   UNL     1      24.886  21.550  49.684  1.00  0.00     0.278 C 
ENDBRANCH   8  20
BRANCH  11  22
ATOM     22  O   UNL     1      25.201  28.128  48.721  1.00  0.00    -0.492 OA
ATOM     23  C   UNL     1      25.755  28.982  47.723  1.00  0.00     0.278 C 
ENDBRANCH  11  22
BRANCH   9  24
ATOM     24  O   UNL     1      24.069  23.700  46.945  1.00  0.00    -0.490 OA
ATOM     25  C   UNL     1      22.762  23.136  47.023  1.00  0.00     0.279 C 
ENDBRANCH   9  24
BRANCH  10  26
ATOM     26  O   UNL     1      23.780  26.517  46.875  1.00  0.00    -0.490 OA
ATOM     27  C   UNL     1      22.408  26.881  46.986  1.00  0.00     0.278 C 
ENDBRANCH  10  26
TORSDOF 6
ENDMDL
MODEL 9
REMARK VINA RESULT:    -0.135      4.497      7.495
REMARK INTER + INTRA:          -0.806
REMARK INTER:                  -0.057
REMARK INTRA:                  -0.749
REMARK UNBOUND:                -0.623
REMARK SMILES COc1ccc(-c2cc(=O)c3c(OC)c(OC)c(OC)c(OC)c3o2)cc1
REMARK SMILES IDX 7 1 8 2 9 3 10 4 11 5 24 6 25 7 21 8 18 9 15 10 12 11 6 12
REMARK SMILES IDX 3 13 4 14 27 15 5 16 26 17 2 18 1 19 22 20 23 21 13 22 14 23
REMARK SMILES IDX 19 24 20 25 16 26 17 27
REMARK H PARENT
REMARK Flexibility Score: inf
ROOT
ATOM      1  C   UNL     1      22.793  30.029  52.142  1.00  0.00     0.138 A 
ATOM      2  C   UNL     1      21.659  29.214  52.159  1.00  0.00     0.100 A 
ATOM      3  C   UNL     1      21.446  28.321  51.114  1.00  0.00     0.197 A 
ATOM      4  O   UNL     1      20.416  27.594  51.150  1.00  0.00    -0.289 OA
ATOM      5  C   UNL     1      22.377  28.244  50.050  1.00  0.00     0.115 A 
ATOM      6  C   UNL     1      23.515  29.082  50.112  1.00  0.00     0.188 A 
ATOM      7  O   UNL     1      23.661  29.918  51.140  1.00  0.00    -0.452 OA
ATOM      8  C   UNL     1      24.485  29.050  49.084  1.00  0.00     0.209 A 
ATOM      9  C   UNL     1      24.324  28.155  47.996  1.00  0.00     0.211 A 
ATOM     10  C   UNL     1      23.184  27.310  47.933  1.00  0.00     0.208 A 
ATOM     11  C   UNL     1      22.194  27.378  48.946  1.00  0.00     0.179 A 
ENDROOT
BRANCH   1  12
ATOM     12  C   UNL     1      23.055  31.014  53.222  1.00  0.00     0.018 A 
ATOM     13  C   UNL     1      23.541  32.852  55.312  1.00  0.00     0.118 A 
ATOM     14  C   UNL     1      22.382  32.056  55.318  1.00  0.00     0.047 A 
ATOM     15  C   UNL     1      24.454  32.716  54.262  1.00  0.00     0.047 A 
ATOM     16  C   UNL     1      22.145  31.144  54.286  1.00  0.00     0.016 A 
ATOM     17  C   UNL     1      24.219  31.806  53.227  1.00  0.00     0.016 A 
BRANCH  13  18
ATOM     18  O   UNL     1      23.824  33.781  56.323  1.00  0.00    -0.497 OA
ATOM     19  C   UNL     1      22.888  34.204  57.311  1.00  0.00     0.278 C 
ENDBRANCH  13  18
ENDBRANCH   1  12
BRANCH   8  20
ATOM     20  O   UNL     1      25.609  29.900  49.084  1.00  0.00    -0.490 OA
ATOM     21  C   UNL     1      26.872  29.665  49.699  1.00  0.00     0.278 C 
ENDBRANCH   8  20
BRANCH  11  22
ATOM     22  O   UNL     1      21.018  26.599  48.907  1.00  0.00    -0.492 OA
ATOM     23  C   UNL     1      19.922  26.724  48.005  1.00  0.00     0.278 C 
ENDBRANCH  11  22
BRANCH   9  24
ATOM     24  O   UNL     1      25.262  28.078  46.946  1.00  0.00    -0.490 OA
ATOM     25  C   UNL     1      26.419  27.248  46.875  1.00  0.00     0.279 C 
ENDBRANCH   9  24
BRANCH  10  26
ATOM     26  O   UNL     1      22.999  26.374  46.896  1.00  0.00    -0.490 OA
ATOM     27  C   UNL     1      23.384  25.003  46.880  1.00  0.00     0.278 C 
ENDBRANCH  10  26
TORSDOF 6
ENDMDL
