MODEL 1
REMARK VINA RESULT:    -4.921      0.000      0.000
REMARK INTER + INTRA:          -7.267
REMARK INTER:                  -6.647
REMARK INTRA:                  -0.620
REMARK UNBOUND:                -0.620
REMARK SMILES CCCCCCC=CC(=O)[O-]
REMARK SMILES IDX 5 1 6 2 7 3 8 4 9 5 10 6 11 7 4 8 3 9 2 10 1 11
REMARK H PARENT
REMARK Flexibility Score: inf
ROOT
ATOM      1  C   UNL     1      43.187  38.941  15.019  1.00  0.00     0.004 C 
ENDROOT
BRANCH   1   2
ATOM      2  C   UNL     1      42.745  40.344  15.457  1.00  0.00     0.027 C 
BRANCH   2   3
ATOM      3  C   UNL     1      41.248  40.429  15.582  1.00  0.00    -0.025 C 
ATOM      4  C   UNL     1      40.566  40.755  16.693  1.00  0.00     0.020 C 
BRANCH   4   5
ATOM      5  C   UNL     1      41.140  41.129  18.003  1.00  0.00     0.064 C 
ATOM      6  O   UNL     1      41.357  42.327  18.322  1.00  0.00    -0.545 OA
ATOM      7  O   UNL     1      41.427  40.126  18.920  1.00  0.00    -0.545 OA
ENDBRANCH   4   5
ENDBRANCH   2   3
ENDBRANCH   1   2
BRANCH   1   8
ATOM      8  C   UNL     1      42.656  38.609  13.619  1.00  0.00     0.000 C 
BRANCH   8   9
ATOM      9  C   UNL     1      42.080  37.186  13.571  1.00  0.00    -0.000 C 
BRANCH   9  10
ATOM     10  C   UNL     1      40.545  37.172  13.539  1.00  0.00    -0.003 C 
ATOM     11  C   UNL     1      39.956  38.389  12.829  1.00  0.00     0.004 C 
ENDBRANCH   9  10
ENDBRANCH   8   9
ENDBRANCH   1   8
TORSDOF 6
ENDMDL
MODEL 2
REMARK VINA RESULT:    -4.680      1.655      2.693
REMARK INTER + INTRA:          -6.942
REMARK INTER:                  -6.522
REMARK INTRA:                  -0.420
REMARK UNBOUND:                -0.620
REMARK SMILES CCCCCCC=CC(=O)[O-]
REMARK SMILES IDX 5 1 6 2 7 3 8 4 9 5 10 6 11 7 4 8 3 9 2 10 1 11
REMARK H PARENT
REMARK Flexibility Score: inf
ROOT
ATOM      1  C   UNL     1      40.957  41.001  15.960  1.00  0.00     0.004 C 
ENDROOT
BRANCH   1   2
ATOM      2  C   UNL     1      40.890  41.506  17.407  1.00  0.00     0.027 C 
BRANCH   2   3
ATOM      3  C   UNL     1      41.375  40.458  18.373  1.00  0.00    -0.025 C 
ATOM      4  C   UNL     1      41.906  40.688  19.585  1.00  0.00     0.020 C 
BRANCH   4   5
ATOM      5  C   UNL     1      42.092  42.004  20.233  1.00  0.00     0.064 C 
ATOM      6  O   UNL     1      41.239  42.489  21.020  1.00  0.00    -0.545 OA
ATOM      7  O   UNL     1      43.256  42.717  19.981  1.00  0.00    -0.545 OA
ENDBRANCH   4   5
ENDBRANCH   2   3
ENDBRANCH   1   2
BRANCH   1   8
ATOM      8  C   UNL     1      42.331  40.394  15.652  1.00  0.00     0.000 C 
BRANCH   8   9
ATOM      9  C   UNL     1      42.216  39.264  14.618  1.00  0.00    -0.000 C 
BRANCH   9  10
ATOM     10  C   UNL     1      40.793  39.123  14.055  1.00  0.00    -0.003 C 
ATOM     11  C   UNL     1      40.582  37.808  13.305  1.00  0.00     0.004 C 
ENDBRANCH   9  10
ENDBRANCH   8   9
ENDBRANCH   1   8
TORSDOF 6
ENDMDL
MODEL 3
REMARK VINA RESULT:    -4.656      3.032      5.505
REMARK INTER + INTRA:          -6.909
REMARK INTER:                  -6.708
REMARK INTRA:                  -0.201
REMARK UNBOUND:                -0.620
REMARK SMILES CCCCCCC=CC(=O)[O-]
REMARK SMILES IDX 5 1 6 2 7 3 8 4 9 5 10 6 11 7 4 8 3 9 2 10 1 11
REMARK H PARENT
REMARK Flexibility Score: inf
ROOT
ATOM      1  C   UNL     1      40.656  40.869  16.850  1.00  0.00     0.004 C 
ENDROOT
BRANCH   1   2
ATOM      2  C   UNL     1      40.688  40.679  15.328  1.00  0.00     0.027 C 
BRANCH   2   3
ATOM      3  C   UNL     1      41.895  39.886  14.903  1.00  0.00    -0.025 C 
ATOM      4  C   UNL     1      41.890  38.820  14.086  1.00  0.00     0.020 C 
BRANCH   4   5
ATOM      5  C   UNL     1      40.715  38.230  13.410  1.00  0.00     0.064 C 
ATOM      6  O   UNL     1      39.875  38.934  12.791  1.00  0.00    -0.545 OA
ATOM      7  O   UNL     1      40.545  36.853  13.441  1.00  0.00    -0.545 OA
ENDBRANCH   4   5
ENDBRANCH   2   3
ENDBRANCH   1   2
BRANCH   1   8
ATOM      8  C   UNL     1      42.037  40.608  17.466  1.00  0.00     0.000 C 
BRANCH   8   9
ATOM      9  C   UNL     1      42.460  41.767  18.381  1.00  0.00    -0.000 C 
BRANCH   9  10
ATOM     10  C   UNL     1      42.006  41.568  19.834  1.00  0.00    -0.003 C 
ATOM     11  C   UNL     1      41.976  40.097  20.249  1.00  0.00     0.004 C 
ENDBRANCH   9  10
ENDBRANCH   8   9
ENDBRANCH   1   8
TORSDOF 6
ENDMDL
MODEL 4
REMARK VINA RESULT:    -4.650      1.784      2.372
REMARK INTER + INTRA:          -6.902
REMARK INTER:                  -6.599
REMARK INTRA:                  -0.302
REMARK UNBOUND:                -0.620
REMARK SMILES CCCCCCC=CC(=O)[O-]
REMARK SMILES IDX 5 1 6 2 7 3 8 4 9 5 10 6 11 7 4 8 3 9 2 10 1 11
REMARK H PARENT
REMARK Flexibility Score: inf
ROOT
ATOM      1  C   UNL     1      40.956  40.128  14.814  1.00  0.00     0.004 C 
ENDROOT
BRANCH   1   2
ATOM      2  C   UNL     1      41.776  40.381  16.086  1.00  0.00     0.027 C 
BRANCH   2   3
ATOM      3  C   UNL     1      40.898  40.839  17.219  1.00  0.00    -0.025 C 
ATOM      4  C   UNL     1      40.667  42.115  17.572  1.00  0.00     0.020 C 
BRANCH   4   5
ATOM      5  C   UNL     1      41.195  43.325  16.905  1.00  0.00     0.064 C 
ATOM      6  O   UNL     1      42.336  43.788  17.164  1.00  0.00    -0.545 OA
ATOM      7  O   UNL     1      40.414  43.956  15.947  1.00  0.00    -0.545 OA
ENDBRANCH   4   5
ENDBRANCH   2   3
ENDBRANCH   1   2
BRANCH   1   8
ATOM      8  C   UNL     1      41.527  38.950  14.016  1.00  0.00     0.000 C 
BRANCH   8   9
ATOM      9  C   UNL     1      40.402  38.064  13.460  1.00  0.00    -0.000 C 
BRANCH   9  10
ATOM     10  C   UNL     1      39.526  38.799  12.433  1.00  0.00    -0.003 C 
ATOM     11  C   UNL     1      38.534  37.873  11.732  1.00  0.00     0.004 C 
ENDBRANCH   9  10
ENDBRANCH   8   9
ENDBRANCH   1   8
TORSDOF 6
ENDMDL
MODEL 5
REMARK VINA RESULT:    -4.626      1.288      2.126
REMARK INTER + INTRA:          -6.869
REMARK INTER:                  -6.473
REMARK INTRA:                  -0.396
REMARK UNBOUND:                -0.620
REMARK SMILES CCCCCCC=CC(=O)[O-]
REMARK SMILES IDX 5 1 6 2 7 3 8 4 9 5 10 6 11 7 4 8 3 9 2 10 1 11
REMARK H PARENT
REMARK Flexibility Score: inf
ROOT
ATOM      1  C   UNL     1      40.919  40.562  15.417  1.00  0.00     0.004 C 
ENDROOT
BRANCH   1   2
ATOM      2  C   UNL     1      40.900  40.969  16.896  1.00  0.00     0.027 C 
BRANCH   2   3
ATOM      3  C   UNL     1      42.217  41.566  17.314  1.00  0.00    -0.025 C 
ATOM      4  C   UNL     1      42.645  41.726  18.578  1.00  0.00     0.020 C 
BRANCH   4   5
ATOM      5  C   UNL     1      41.934  41.319  19.809  1.00  0.00     0.064 C 
ATOM      6  O   UNL     1      41.348  42.151  20.550  1.00  0.00    -0.545 OA
ATOM      7  O   UNL     1      41.893  39.973  20.146  1.00  0.00    -0.545 OA
ENDBRANCH   4   5
ENDBRANCH   2   3
ENDBRANCH   1   2
BRANCH   1   8
ATOM      8  C   UNL     1      42.307  40.054  15.005  1.00  0.00     0.000 C 
BRANCH   8   9
ATOM      9  C   UNL     1      42.198  38.764  14.178  1.00  0.00    -0.000 C 
BRANCH   9  10
ATOM     10  C   UNL     1      40.777  38.522  13.646  1.00  0.00    -0.003 C 
ATOM     11  C   UNL     1      40.511  37.054  13.317  1.00  0.00     0.004 C 
ENDBRANCH   9  10
ENDBRANCH   8   9
ENDBRANCH   1   8
TORSDOF 6
ENDMDL
MODEL 6
REMARK VINA RESULT:    -4.622      2.015      3.426
REMARK INTER + INTRA:          -6.863
REMARK INTER:                  -6.435
REMARK INTRA:                  -0.428
REMARK UNBOUND:                -0.620
REMARK SMILES CCCCCCC=CC(=O)[O-]
REMARK SMILES IDX 5 1 6 2 7 3 8 4 9 5 10 6 11 7 4 8 3 9 2 10 1 11
REMARK H PARENT
REMARK Flexibility Score: inf
ROOT
ATOM      1  C   UNL     1      40.501  40.780  16.855  1.00  0.00     0.004 C 
ENDROOT
BRANCH   1   2
ATOM      2  C   UNL     1      41.618  41.251  17.797  1.00  0.00     0.027 C 
BRANCH   2   3
ATOM      3  C   UNL     1      41.721  40.360  19.006  1.00  0.00    -0.025 C 
ATOM      4  C   UNL     1      41.934  40.765  20.269  1.00  0.00     0.020 C 
BRANCH   4   5
ATOM      5  C   UNL     1      42.072  42.161  20.736  1.00  0.00     0.064 C 
ATOM      6  O   UNL     1      43.127  42.825  20.561  1.00  0.00    -0.545 OA
ATOM      7  O   UNL     1      40.995  42.766  21.370  1.00  0.00    -0.545 OA
ENDBRANCH   4   5
ENDBRANCH   2   3
ENDBRANCH   1   2
BRANCH   1   8
ATOM      8  C   UNL     1      40.871  41.044  15.390  1.00  0.00     0.000 C 
BRANCH   8   9
ATOM      9  C   UNL     1      41.024  39.726  14.615  1.00  0.00    -0.000 C 
BRANCH   9  10
ATOM     10  C   UNL     1      42.472  39.216  14.598  1.00  0.00    -0.003 C 
ATOM     11  C   UNL     1      43.497  40.338  14.755  1.00  0.00     0.004 C 
ENDBRANCH   9  10
ENDBRANCH   8   9
ENDBRANCH   1   8
TORSDOF 6
ENDMDL
MODEL 7
REMARK VINA RESULT:    -4.384      9.401     10.497
REMARK INTER + INTRA:          -6.541
REMARK INTER:                  -6.134
REMARK INTRA:                  -0.408
REMARK UNBOUND:                -0.620
REMARK SMILES CCCCCCC=CC(=O)[O-]
REMARK SMILES IDX 5 1 6 2 7 3 8 4 9 5 10 6 11 7 4 8 3 9 2 10 1 11
REMARK H PARENT
REMARK Flexibility Score: inf
ROOT
ATOM      1  C   UNL     1      37.561  30.210  14.511  1.00  0.00     0.004 C 
ENDROOT
BRANCH   1   2
ATOM      2  C   UNL     1      38.752  30.094  13.549  1.00  0.00     0.027 C 
BRANCH   2   3
ATOM      3  C   UNL     1      39.595  28.889  13.869  1.00  0.00    -0.025 C 
ATOM      4  C   UNL     1      40.703  28.881  14.628  1.00  0.00     0.020 C 
BRANCH   4   5
ATOM      5  C   UNL     1      41.300  30.037  15.332  1.00  0.00     0.064 C 
ATOM      6  O   UNL     1      42.388  30.554  14.968  1.00  0.00    -0.545 OA
ATOM      7  O   UNL     1      40.625  30.584  16.415  1.00  0.00    -0.545 OA
ENDBRANCH   4   5
ENDBRANCH   2   3
ENDBRANCH   1   2
BRANCH   1   8
ATOM      8  C   UNL     1      37.136  31.673  14.685  1.00  0.00     0.000 C 
BRANCH   8   9
ATOM      9  C   UNL     1      35.735  31.912  14.102  1.00  0.00    -0.000 C 
BRANCH   9  10
ATOM     10  C   UNL     1      34.999  30.604  13.778  1.00  0.00    -0.003 C 
ATOM     11  C   UNL     1      33.953  30.771  12.677  1.00  0.00     0.004 C 
ENDBRANCH   9  10
ENDBRANCH   8   9
ENDBRANCH   1   8
TORSDOF 6
ENDMDL
MODEL 8
REMARK VINA RESULT:    -4.379      3.241      5.636
REMARK INTER + INTRA:          -6.535
REMARK INTER:                  -6.122
REMARK INTRA:                  -0.413
REMARK UNBOUND:                -0.620
REMARK SMILES CCCCCCC=CC(=O)[O-]
REMARK SMILES IDX 5 1 6 2 7 3 8 4 9 5 10 6 11 7 4 8 3 9 2 10 1 11
REMARK H PARENT
REMARK Flexibility Score: inf
ROOT
ATOM      1  C   UNL     1      41.947  40.539  18.057  1.00  0.00     0.004 C 
ENDROOT
BRANCH   1   2
ATOM      2  C   UNL     1      40.651  40.822  17.285  1.00  0.00     0.027 C 
BRANCH   2   3
ATOM      3  C   UNL     1      40.914  40.955  15.809  1.00  0.00    -0.025 C 
ATOM      4  C   UNL     1      41.275  42.081  15.171  1.00  0.00     0.020 C 
BRANCH   4   5
ATOM      5  C   UNL     1      41.522  43.403  15.785  1.00  0.00     0.064 C 
ATOM      6  O   UNL     1      42.660  43.748  16.196  1.00  0.00    -0.545 OA
ATOM      7  O   UNL     1      40.469  44.301  15.890  1.00  0.00    -0.545 OA
ENDBRANCH   4   5
ENDBRANCH   2   3
ENDBRANCH   1   2
BRANCH   1   8
ATOM      8  C   UNL     1      41.650  40.185  19.519  1.00  0.00     0.000 C 
BRANCH   8   9
ATOM      9  C   UNL     1      41.899  41.390  20.439  1.00  0.00    -0.000 C 
BRANCH   9  10
ATOM     10  C   UNL     1      42.876  42.407  19.829  1.00  0.00    -0.003 C 
ATOM     11  C   UNL     1      43.697  43.146  20.884  1.00  0.00     0.004 C 
ENDBRANCH   9  10
ENDBRANCH   8   9
ENDBRANCH   1   8
TORSDOF 6
ENDMDL
MODEL 9
REMARK VINA RESULT:    -4.375      9.701     10.634
REMARK INTER + INTRA:          -6.529
REMARK INTER:                  -6.206
REMARK INTRA:                  -0.324
REMARK UNBOUND:                -0.620
REMARK SMILES CCCCCCC=CC(=O)[O-]
REMARK SMILES IDX 5 1 6 2 7 3 8 4 9 5 10 6 11 7 4 8 3 9 2 10 1 11
REMARK H PARENT
REMARK Flexibility Score: inf
ROOT
ATOM      1  C   UNL     1      38.594  29.593  14.175  1.00  0.00     0.004 C 
ENDROOT
BRANCH   1   2
ATOM      2  C   UNL     1      37.961  30.789  13.453  1.00  0.00     0.027 C 
BRANCH   2   3
ATOM      3  C   UNL     1      37.197  31.662  14.412  1.00  0.00    -0.025 C 
ATOM      4  C   UNL     1      35.868  31.858  14.415  1.00  0.00     0.020 C 
BRANCH   4   5
ATOM      5  C   UNL     1      34.882  31.232  13.507  1.00  0.00     0.064 C 
ATOM      6  O   UNL     1      34.748  29.984  13.421  1.00  0.00    -0.545 OA
ATOM      7  O   UNL     1      34.063  32.051  12.741  1.00  0.00    -0.545 OA
ENDBRANCH   4   5
ENDBRANCH   2   3
ENDBRANCH   1   2
BRANCH   1   8
ATOM      8  C   UNL     1      39.971  29.261  13.587  1.00  0.00     0.000 C 
BRANCH   8   9
ATOM      9  C   UNL     1      41.097  29.786  14.490  1.00  0.00    -0.000 C 
BRANCH   9  10
ATOM     10  C   UNL     1      40.585  30.250  15.863  1.00  0.00    -0.003 C 
ATOM     11  C   UNL     1      41.696  30.803  16.753  1.00  0.00     0.004 C 
ENDBRANCH   9  10
ENDBRANCH   8   9
ENDBRANCH   1   8
TORSDOF 6
ENDMDL
