MODEL 1
REMARK VINA RESULT:    -5.200      0.000      0.000
REMARK INTER + INTRA:          -6.727
REMARK INTER:                  -6.416
REMARK INTRA:                  -0.311
REMARK UNBOUND:                -0.311
REMARK SMILES CCOC(=O)c1ccc(O)c(O)c1
REMARK SMILES IDX 4 1 5 2 3 3 2 4 1 5 6 6 13 7 7 8 11 9 8 10 9 11 12 12 10 14
REMARK H PARENT 12 13 10 15
REMARK Flexibility Score: inf
ROOT
ATOM      1  C   UNL     1      10.400 -16.488   8.631  1.00  0.00     0.338 C 
ATOM      2  O   UNL     1      10.486 -17.701   8.970  1.00  0.00    -0.246 OA
ENDROOT
BRANCH   1   3
ATOM      3  O   UNL     1       9.157 -15.841   8.644  1.00  0.00    -0.462 OA
BRANCH   3   4
ATOM      4  C   UNL     1       8.004 -16.339   7.969  1.00  0.00     0.230 C 
ATOM      5  C   UNL     1       8.211 -16.309   6.459  1.00  0.00     0.049 C 
ENDBRANCH   3   4
ENDBRANCH   1   3
BRANCH   1   6
ATOM      6  C   UNL     1      11.612 -15.744   8.226  1.00  0.00     0.064 A 
ATOM      7  C   UNL     1      12.895 -16.270   8.467  1.00  0.00     0.065 A 
ATOM      8  C   UNL     1      11.498 -14.495   7.591  1.00  0.00     0.020 A 
ATOM      9  C   UNL     1      14.041 -15.562   8.080  1.00  0.00     0.158 A 
ATOM     10  C   UNL     1      12.641 -13.789   7.205  1.00  0.00     0.051 A 
ATOM     11  C   UNL     1      13.914 -14.319   7.449  1.00  0.00     0.157 A 
BRANCH   9  12
ATOM     12  O   UNL     1      15.310 -16.087   8.321  1.00  0.00    -0.504 OA
ATOM     13  H   UNL     1      16.109 -15.820   7.759  1.00  0.00     0.293 HD
ENDBRANCH   9  12
BRANCH  11  14
ATOM     14  O   UNL     1      15.056 -13.617   7.066  1.00  0.00    -0.504 OA
ATOM     15  H   UNL     1      15.984 -13.991   7.221  1.00  0.00     0.293 HD
ENDBRANCH  11  14
ENDBRANCH   1   6
TORSDOF 5
ENDMDL
MODEL 2
REMARK VINA RESULT:    -4.535      1.292      2.412
REMARK INTER + INTRA:          -5.907
REMARK INTER:                  -5.712
REMARK INTRA:                  -0.195
REMARK UNBOUND:                -0.311
REMARK SMILES CCOC(=O)c1ccc(O)c(O)c1
REMARK SMILES IDX 4 1 5 2 3 3 2 4 1 5 6 6 13 7 7 8 11 9 8 10 9 11 12 12 10 14
REMARK H PARENT 12 13 10 15
REMARK Flexibility Score: inf
ROOT
ATOM      1  C   UNL     1       9.241 -15.884   7.649  1.00  0.00     0.338 C 
ATOM      2  O   UNL     1       8.739 -15.893   6.490  1.00  0.00    -0.246 OA
ENDROOT
BRANCH   1   3
ATOM      3  O   UNL     1       8.409 -15.804   8.773  1.00  0.00    -0.462 OA
BRANCH   3   4
ATOM      4  C   UNL     1       7.031 -16.172   8.761  1.00  0.00     0.230 C 
ATOM      5  C   UNL     1       6.879 -17.687   8.833  1.00  0.00     0.049 C 
ENDBRANCH   3   4
ENDBRANCH   1   3
BRANCH   1   6
ATOM      6  C   UNL     1      10.707 -15.964   7.823  1.00  0.00     0.064 A 
ATOM      7  C   UNL     1      11.514 -14.821   7.666  1.00  0.00     0.065 A 
ATOM      8  C   UNL     1      11.317 -17.188   8.148  1.00  0.00     0.020 A 
ATOM      9  C   UNL     1      12.904 -14.901   7.832  1.00  0.00     0.158 A 
ATOM     10  C   UNL     1      12.702 -17.267   8.314  1.00  0.00     0.051 A 
ATOM     11  C   UNL     1      13.499 -16.127   8.156  1.00  0.00     0.157 A 
BRANCH   9  12
ATOM     12  O   UNL     1      13.700 -13.768   7.677  1.00  0.00    -0.504 OA
ATOM     13  H   UNL     1      13.393 -12.856   7.996  1.00  0.00     0.293 HD
ENDBRANCH   9  12
BRANCH  11  14
ATOM     14  O   UNL     1      14.881 -16.203   8.321  1.00  0.00    -0.504 OA
ATOM     15  H   UNL     1      15.302 -16.853   8.973  1.00  0.00     0.293 HD
ENDBRANCH  11  14
ENDBRANCH   1   6
TORSDOF 5
ENDMDL
MODEL 3
REMARK VINA RESULT:    -4.428      1.683      2.454
REMARK INTER + INTRA:          -5.774
REMARK INTER:                  -5.594
REMARK INTRA:                  -0.180
REMARK UNBOUND:                -0.311
REMARK SMILES CCOC(=O)c1ccc(O)c(O)c1
REMARK SMILES IDX 4 1 5 2 3 3 2 4 1 5 6 6 13 7 7 8 11 9 8 10 9 11 12 12 10 14
REMARK H PARENT 12 13 10 15
REMARK Flexibility Score: inf
ROOT
ATOM      1  C   UNL     1       8.441 -16.317   7.272  1.00  0.00     0.338 C 
ATOM      2  O   UNL     1       8.086 -16.576   6.088  1.00  0.00    -0.246 OA
ENDROOT
BRANCH   1   3
ATOM      3  O   UNL     1       7.490 -16.288   8.299  1.00  0.00    -0.462 OA
BRANCH   3   4
ATOM      4  C   UNL     1       6.990 -17.458   8.943  1.00  0.00     0.230 C 
ATOM      5  C   UNL     1       5.524 -17.683   8.585  1.00  0.00     0.049 C 
ENDBRANCH   3   4
ENDBRANCH   1   3
BRANCH   1   6
ATOM      6  C   UNL     1       9.864 -16.051   7.578  1.00  0.00     0.064 A 
ATOM      7  C   UNL     1      10.653 -17.017   8.228  1.00  0.00     0.065 A 
ATOM      8  C   UNL     1      10.447 -14.823   7.220  1.00  0.00     0.020 A 
ATOM      9  C   UNL     1      12.001 -16.761   8.516  1.00  0.00     0.158 A 
ATOM     10  C   UNL     1      11.792 -14.568   7.507  1.00  0.00     0.051 A 
ATOM     11  C   UNL     1      12.571 -15.534   8.155  1.00  0.00     0.157 A 
BRANCH   9  12
ATOM     12  O   UNL     1      12.780 -17.721   9.161  1.00  0.00    -0.504 OA
ATOM     13  H   UNL     1      13.592 -17.463   9.709  1.00  0.00     0.293 HD
ENDBRANCH   9  12
BRANCH  11  14
ATOM     14  O   UNL     1      13.912 -15.282   8.443  1.00  0.00    -0.504 OA
ATOM     15  H   UNL     1      14.273 -15.350   9.386  1.00  0.00     0.293 HD
ENDBRANCH  11  14
ENDBRANCH   1   6
TORSDOF 5
ENDMDL
MODEL 4
REMARK VINA RESULT:    -4.354      1.725      5.294
REMARK INTER + INTRA:          -5.682
REMARK INTER:                  -5.416
REMARK INTRA:                  -0.267
REMARK UNBOUND:                -0.311
REMARK SMILES CCOC(=O)c1ccc(O)c(O)c1
REMARK SMILES IDX 4 1 5 2 3 3 2 4 1 5 6 6 13 7 7 8 11 9 8 10 9 11 12 12 10 14
REMARK H PARENT 12 13 10 15
REMARK Flexibility Score: inf
ROOT
ATOM      1  C   UNL     1      12.505 -14.849   8.080  1.00  0.00     0.338 C 
ATOM      2  O   UNL     1      12.620 -13.716   7.535  1.00  0.00    -0.246 OA
ENDROOT
BRANCH   1   3
ATOM      3  O   UNL     1      13.575 -15.391   8.805  1.00  0.00    -0.462 OA
BRANCH   3   4
ATOM      4  C   UNL     1      14.726 -15.971   8.194  1.00  0.00     0.230 C 
ATOM      5  C   UNL     1      14.344 -17.216   7.401  1.00  0.00     0.049 C 
ENDBRANCH   3   4
ENDBRANCH   1   3
BRANCH   1   6
ATOM      6  C   UNL     1      11.239 -15.605   7.961  1.00  0.00     0.064 A 
ATOM      7  C   UNL     1      10.279 -15.252   6.995  1.00  0.00     0.065 A 
ATOM      8  C   UNL     1      10.979 -16.690   8.816  1.00  0.00     0.020 A 
ATOM      9  C   UNL     1       9.080 -15.971   6.885  1.00  0.00     0.158 A 
ATOM     10  C   UNL     1       9.784 -17.407   8.706  1.00  0.00     0.051 A 
ATOM     11  C   UNL     1       8.832 -17.050   7.743  1.00  0.00     0.157 A 
BRANCH   9  12
ATOM     12  O   UNL     1       8.131 -15.619   5.927  1.00  0.00    -0.504 OA
ATOM     13  H   UNL     1       7.362 -14.997   6.147  1.00  0.00     0.293 HD
ENDBRANCH   9  12
BRANCH  11  14
ATOM     14  O   UNL     1       7.640 -17.763   7.631  1.00  0.00    -0.504 OA
ATOM     15  H   UNL     1       7.241 -17.990   6.728  1.00  0.00     0.293 HD
ENDBRANCH  11  14
ENDBRANCH   1   6
TORSDOF 5
ENDMDL
MODEL 5
REMARK VINA RESULT:    -4.328      1.819      5.131
REMARK INTER + INTRA:          -5.651
REMARK INTER:                  -5.401
REMARK INTRA:                  -0.250
REMARK UNBOUND:                -0.311
REMARK SMILES CCOC(=O)c1ccc(O)c(O)c1
REMARK SMILES IDX 4 1 5 2 3 3 2 4 1 5 6 6 13 7 7 8 11 9 8 10 9 11 12 12 10 14
REMARK H PARENT 12 13 10 15
REMARK Flexibility Score: inf
ROOT
ATOM      1  C   UNL     1      12.621 -15.343   8.744  1.00  0.00     0.338 C 
ATOM      2  O   UNL     1      13.304 -15.847   9.678  1.00  0.00    -0.246 OA
ENDROOT
BRANCH   1   3
ATOM      3  O   UNL     1      13.033 -14.148   8.138  1.00  0.00    -0.462 OA
BRANCH   3   4
ATOM      4  C   UNL     1      14.222 -14.030   7.360  1.00  0.00     0.230 C 
ATOM      5  C   UNL     1      14.444 -15.284   6.522  1.00  0.00     0.049 C 
ENDBRANCH   3   4
ENDBRANCH   1   3
BRANCH   1   6
ATOM      6  C   UNL     1      11.388 -16.015   8.280  1.00  0.00     0.064 A 
ATOM      7  C   UNL     1      10.519 -15.380   7.374  1.00  0.00     0.065 A 
ATOM      8  C   UNL     1      11.067 -17.304   8.742  1.00  0.00     0.020 A 
ATOM      9  C   UNL     1       9.351 -16.021   6.937  1.00  0.00     0.158 A 
ATOM     10  C   UNL     1       9.903 -17.943   8.306  1.00  0.00     0.051 A 
ATOM     11  C   UNL     1       9.042 -17.305   7.405  1.00  0.00     0.157 A 
BRANCH   9  12
ATOM     12  O   UNL     1       8.492 -15.389   6.039  1.00  0.00    -0.504 OA
ATOM     13  H   UNL     1       8.599 -15.497   5.038  1.00  0.00     0.293 HD
ENDBRANCH   9  12
BRANCH  11  14
ATOM     14  O   UNL     1       7.880 -17.939   6.968  1.00  0.00    -0.504 OA
ATOM     15  H   UNL     1       7.219 -18.342   7.621  1.00  0.00     0.293 HD
ENDBRANCH  11  14
ENDBRANCH   1   6
TORSDOF 5
ENDMDL
MODEL 6
REMARK VINA RESULT:    -4.277      1.865      2.471
REMARK INTER + INTRA:          -5.587
REMARK INTER:                  -5.337
REMARK INTRA:                  -0.250
REMARK UNBOUND:                -0.311
REMARK SMILES CCOC(=O)c1ccc(O)c(O)c1
REMARK SMILES IDX 4 1 5 2 3 3 2 4 1 5 6 6 13 7 7 8 11 9 8 10 9 11 12 12 10 14
REMARK H PARENT 12 13 10 15
REMARK Flexibility Score: inf
ROOT
ATOM      1  C   UNL     1       9.787 -17.842   7.314  1.00  0.00     0.338 C 
ATOM      2  O   UNL     1       9.353 -18.087   6.154  1.00  0.00    -0.246 OA
ENDROOT
BRANCH   1   3
ATOM      3  O   UNL     1       8.944 -17.981   8.424  1.00  0.00    -0.462 OA
BRANCH   3   4
ATOM      4  C   UNL     1       7.544 -17.714   8.387  1.00  0.00     0.230 C 
ATOM      5  C   UNL     1       7.273 -16.229   8.602  1.00  0.00     0.049 C 
ENDBRANCH   3   4
ENDBRANCH   1   3
BRANCH   1   6
ATOM      6  C   UNL     1      11.190 -17.413   7.504  1.00  0.00     0.064 A 
ATOM      7  C   UNL     1      11.566 -16.664   8.634  1.00  0.00     0.065 A 
ATOM      8  C   UNL     1      12.169 -17.751   6.554  1.00  0.00     0.020 A 
ATOM      9  C   UNL     1      12.897 -16.260   8.812  1.00  0.00     0.158 A 
ATOM     10  C   UNL     1      13.497 -17.348   6.731  1.00  0.00     0.051 A 
ATOM     11  C   UNL     1      13.864 -16.602   7.858  1.00  0.00     0.157 A 
BRANCH   9  12
ATOM     12  O   UNL     1      13.266 -15.518   9.933  1.00  0.00    -0.504 OA
ATOM     13  H   UNL     1      12.869 -14.605  10.118  1.00  0.00     0.293 HD
ENDBRANCH   9  12
BRANCH  11  14
ATOM     14  O   UNL     1      15.186 -16.199   8.037  1.00  0.00    -0.504 OA
ATOM     15  H   UNL     1      15.917 -16.864   8.257  1.00  0.00     0.293 HD
ENDBRANCH  11  14
ENDBRANCH   1   6
TORSDOF 5
ENDMDL
MODEL 7
REMARK VINA RESULT:    -4.193      1.907      5.486
REMARK INTER + INTRA:          -5.484
REMARK INTER:                  -5.207
REMARK INTRA:                  -0.277
REMARK UNBOUND:                -0.311
REMARK SMILES CCOC(=O)c1ccc(O)c(O)c1
REMARK SMILES IDX 4 1 5 2 3 3 2 4 1 5 6 6 13 7 7 8 11 9 8 10 9 11 12 12 10 14
REMARK H PARENT 12 13 10 15
REMARK Flexibility Score: inf
ROOT
ATOM      1  C   UNL     1      11.793 -15.148   8.069  1.00  0.00     0.338 C 
ATOM      2  O   UNL     1      11.974 -14.074   7.431  1.00  0.00    -0.246 OA
ENDROOT
BRANCH   1   3
ATOM      3  O   UNL     1      12.769 -15.608   8.962  1.00  0.00    -0.462 OA
BRANCH   3   4
ATOM      4  C   UNL     1      14.115 -15.884   8.582  1.00  0.00     0.230 C 
ATOM      5  C   UNL     1      14.154 -16.861   7.412  1.00  0.00     0.049 C 
ENDBRANCH   3   4
ENDBRANCH   1   3
BRANCH   1   6
ATOM      6  C   UNL     1      10.545 -15.920   7.881  1.00  0.00     0.064 A 
ATOM      7  C   UNL     1       9.348 -15.514   8.498  1.00  0.00     0.065 A 
ATOM      8  C   UNL     1      10.541 -17.074   7.078  1.00  0.00     0.020 A 
ATOM      9  C   UNL     1       8.167 -16.249   8.317  1.00  0.00     0.158 A 
ATOM     10  C   UNL     1       9.363 -17.806   6.897  1.00  0.00     0.051 A 
ATOM     11  C   UNL     1       8.175 -17.397   7.515  1.00  0.00     0.157 A 
BRANCH   9  12
ATOM     12  O   UNL     1       6.983 -15.844   8.930  1.00  0.00    -0.504 OA
ATOM     13  H   UNL     1       6.614 -14.909   8.806  1.00  0.00     0.293 HD
ENDBRANCH   9  12
BRANCH  11  14
ATOM     14  O   UNL     1       7.000 -18.125   7.337  1.00  0.00    -0.504 OA
ATOM     15  H   UNL     1       6.992 -19.137   7.381  1.00  0.00     0.293 HD
ENDBRANCH  11  14
ENDBRANCH   1   6
TORSDOF 5
ENDMDL
MODEL 8
REMARK VINA RESULT:    -3.319      1.466      4.906
REMARK INTER + INTRA:          -4.406
REMARK INTER:                  -4.346
REMARK INTRA:                  -0.060
REMARK UNBOUND:                -0.311
REMARK SMILES CCOC(=O)c1ccc(O)c(O)c1
REMARK SMILES IDX 4 1 5 2 3 3 2 4 1 5 6 6 13 7 7 8 11 9 8 10 9 11 12 12 10 14
REMARK H PARENT 12 13 10 15
REMARK Flexibility Score: inf
ROOT
ATOM      1  C   UNL     1      12.741 -14.863   8.149  1.00  0.00     0.338 C 
ATOM      2  O   UNL     1      12.973 -13.666   7.821  1.00  0.00    -0.246 OA
ENDROOT
BRANCH   1   3
ATOM      3  O   UNL     1      13.756 -15.646   8.713  1.00  0.00    -0.462 OA
BRANCH   3   4
ATOM      4  C   UNL     1      14.488 -16.629   7.984  1.00  0.00     0.230 C 
ATOM      5  C   UNL     1      14.090 -16.615   6.512  1.00  0.00     0.049 C 
ENDBRANCH   3   4
ENDBRANCH   1   3
BRANCH   1   6
ATOM      6  C   UNL     1      11.394 -15.439   7.945  1.00  0.00     0.064 A 
ATOM      7  C   UNL     1      10.945 -16.515   8.732  1.00  0.00     0.065 A 
ATOM      8  C   UNL     1      10.542 -14.917   6.957  1.00  0.00     0.020 A 
ATOM      9  C   UNL     1       9.667 -17.059   8.536  1.00  0.00     0.158 A 
ATOM     10  C   UNL     1       9.268 -15.458   6.761  1.00  0.00     0.051 A 
ATOM     11  C   UNL     1       8.828 -16.529   7.548  1.00  0.00     0.157 A 
BRANCH   9  12
ATOM     12  O   UNL     1       9.226 -18.125   9.318  1.00  0.00    -0.504 OA
ATOM     13  H   UNL     1       8.253 -18.408   9.328  1.00  0.00     0.293 HD
ENDBRANCH   9  12
BRANCH  11  14
ATOM     14  O   UNL     1       7.558 -17.072   7.356  1.00  0.00    -0.504 OA
ATOM     15  H   UNL     1       7.137 -17.691   8.038  1.00  0.00     0.293 HD
ENDBRANCH  11  14
ENDBRANCH   1   6
TORSDOF 5
ENDMDL
