MODEL 1
REMARK VINA RESULT:    -3.819      0.000      0.000
REMARK INTER + INTRA:          -4.275
REMARK INTER:                  -4.265
REMARK INTRA:                  -0.010
REMARK UNBOUND:                -0.010
REMARK SMILES CCCC(=O)[O-]
REMARK SMILES IDX 3 1 4 2 5 3 6 4 2 5 1 6
REMARK H PARENT
REMARK Flexibility Score: inf
ROOT
ATOM      1  C   UNL     1      94.022 120.884 118.373  1.00  0.00     0.052 C 
ENDROOT
BRANCH   1   2
ATOM      2  C   UNL     1      94.006 121.293 119.813  1.00  0.00     0.041 C 
ATOM      3  O   UNL     1      95.050 121.196 120.511  1.00  0.00    -0.550 OA
ATOM      4  O   UNL     1      92.826 121.737 120.395  1.00  0.00    -0.550 OA
ENDBRANCH   1   2
BRANCH   1   5
ATOM      5  C   UNL     1      92.787 121.425 117.648  1.00  0.00     0.003 C 
ATOM      6  C   UNL     1      92.713 120.900 116.219  1.00  0.00     0.004 C 
ENDBRANCH   1   5
TORSDOF 2
ENDMDL
MODEL 2
REMARK VINA RESULT:    -3.728      1.321      2.055
REMARK INTER + INTRA:          -4.174
REMARK INTER:                  -4.150
REMARK INTRA:                  -0.024
REMARK UNBOUND:                -0.010
REMARK SMILES CCCC(=O)[O-]
REMARK SMILES IDX 3 1 4 2 5 3 6 4 2 5 1 6
REMARK H PARENT
REMARK Flexibility Score: inf
ROOT
ATOM      1  C   UNL     1      93.018 121.136 117.395  1.00  0.00     0.052 C 
ENDROOT
BRANCH   1   2
ATOM      2  C   UNL     1      93.663 121.212 118.742  1.00  0.00     0.041 C 
ATOM      3  O   UNL     1      93.002 121.603 119.741  1.00  0.00    -0.550 OA
ATOM      4  O   UNL     1      95.009 120.900 118.886  1.00  0.00    -0.550 OA
ENDBRANCH   1   2
BRANCH   1   5
ATOM      5  C   UNL     1      91.984 122.254 117.231  1.00  0.00     0.003 C 
ATOM      6  C   UNL     1      92.660 123.595 116.968  1.00  0.00     0.004 C 
ENDBRANCH   1   5
TORSDOF 2
ENDMDL
MODEL 3
REMARK VINA RESULT:    -3.634      2.841      4.721
REMARK INTER + INTRA:          -4.069
REMARK INTER:                  -4.062
REMARK INTRA:                  -0.007
REMARK UNBOUND:                -0.010
REMARK SMILES CCCC(=O)[O-]
REMARK SMILES IDX 3 1 4 2 5 3 6 4 2 5 1 6
REMARK H PARENT
REMARK Flexibility Score: inf
ROOT
ATOM      1  C   UNL     1      94.442 121.636 122.486  1.00  0.00     0.052 C 
ENDROOT
BRANCH   1   2
ATOM      2  C   UNL     1      93.956 121.445 121.083  1.00  0.00     0.041 C 
ATOM      3  O   UNL     1      92.752 121.671 120.794  1.00  0.00    -0.550 OA
ATOM      4  O   UNL     1      94.823 120.970 120.107  1.00  0.00    -0.550 OA
ENDBRANCH   1   2
BRANCH   1   5
ATOM      5  C   UNL     1      95.799 122.346 122.492  1.00  0.00     0.003 C 
ATOM      6  C   UNL     1      95.876 123.378 123.612  1.00  0.00     0.004 C 
ENDBRANCH   1   5
TORSDOF 2
ENDMDL
MODEL 4
REMARK VINA RESULT:    -3.634      2.855      4.562
REMARK INTER + INTRA:          -4.069
REMARK INTER:                  -4.058
REMARK INTRA:                  -0.011
REMARK UNBOUND:                -0.010
REMARK SMILES CCCC(=O)[O-]
REMARK SMILES IDX 3 1 4 2 5 3 6 4 2 5 1 6
REMARK H PARENT
REMARK Flexibility Score: inf
ROOT
ATOM      1  C   UNL     1      94.574 121.581 122.494  1.00  0.00     0.052 C 
ENDROOT
BRANCH   1   2
ATOM      2  C   UNL     1      94.126 121.392 121.079  1.00  0.00     0.041 C 
ATOM      3  O   UNL     1      94.943 121.008 120.201  1.00  0.00    -0.550 OA
ATOM      4  O   UNL     1      92.817 121.687 120.720  1.00  0.00    -0.550 OA
ENDBRANCH   1   2
BRANCH   1   5
ATOM      5  C   UNL     1      95.934 122.284 122.537  1.00  0.00     0.003 C 
ATOM      6  C   UNL     1      95.939 123.411 123.565  1.00  0.00     0.004 C 
ENDBRANCH   1   5
TORSDOF 2
ENDMDL
MODEL 5
REMARK VINA RESULT:    -3.625      2.614      3.532
REMARK INTER + INTRA:          -4.059
REMARK INTER:                  -4.051
REMARK INTRA:                  -0.008
REMARK UNBOUND:                -0.010
REMARK SMILES CCCC(=O)[O-]
REMARK SMILES IDX 3 1 4 2 5 3 6 4 2 5 1 6
REMARK H PARENT
REMARK Flexibility Score: inf
ROOT
ATOM      1  C   UNL     1      92.879 121.574 118.530  1.00  0.00     0.052 C 
ENDROOT
BRANCH   1   2
ATOM      2  C   UNL     1      92.673 122.231 117.201  1.00  0.00     0.041 C 
ATOM      3  O   UNL     1      92.633 123.486 117.114  1.00  0.00    -0.550 OA
ATOM      4  O   UNL     1      92.476 121.454 116.066  1.00  0.00    -0.550 OA
ENDBRANCH   1   2
BRANCH   1   5
ATOM      5  C   UNL     1      94.246 120.886 118.582  1.00  0.00     0.003 C 
ATOM      6  C   UNL     1      94.912 121.086 119.939  1.00  0.00     0.004 C 
ENDBRANCH   1   5
TORSDOF 2
ENDMDL
MODEL 6
REMARK VINA RESULT:    -3.574      1.937      3.486
REMARK INTER + INTRA:          -4.001
REMARK INTER:                  -3.990
REMARK INTRA:                  -0.011
REMARK UNBOUND:                -0.010
REMARK SMILES CCCC(=O)[O-]
REMARK SMILES IDX 3 1 4 2 5 3 6 4 2 5 1 6
REMARK H PARENT
REMARK Flexibility Score: inf
ROOT
ATOM      1  C   UNL     1      94.376 121.021 120.025  1.00  0.00     0.052 C 
ENDROOT
BRANCH   1   2
ATOM      2  C   UNL     1      93.569 121.286 118.794  1.00  0.00     0.041 C 
ATOM      3  O   UNL     1      93.972 120.878 117.672  1.00  0.00    -0.550 OA
ATOM      4  O   UNL     1      92.396 122.025 118.878  1.00  0.00    -0.550 OA
ENDBRANCH   1   2
BRANCH   1   5
ATOM      5  C   UNL     1      93.630 121.507 121.271  1.00  0.00     0.003 C 
ATOM      6  C   UNL     1      94.543 121.517 122.492  1.00  0.00     0.004 C 
ENDBRANCH   1   5
TORSDOF 2
ENDMDL
MODEL 7
REMARK VINA RESULT:    -3.551      3.926      4.869
REMARK INTER + INTRA:          -3.976
REMARK INTER:                  -3.942
REMARK INTRA:                  -0.035
REMARK UNBOUND:                -0.010
REMARK SMILES CCCC(=O)[O-]
REMARK SMILES IDX 3 1 4 2 5 3 6 4 2 5 1 6
REMARK H PARENT
REMARK Flexibility Score: inf
ROOT
ATOM      1  C   UNL     1      95.062 122.675 122.787  1.00  0.00     0.052 C 
ENDROOT
BRANCH   1   2
ATOM      2  C   UNL     1      94.575 123.272 124.069  1.00  0.00     0.041 C 
ATOM      3  O   UNL     1      95.363 123.926 124.803  1.00  0.00    -0.550 OA
ATOM      4  O   UNL     1      93.264 123.066 124.477  1.00  0.00    -0.550 OA
ENDBRANCH   1   2
BRANCH   1   5
ATOM      5  C   UNL     1      94.272 121.407 122.452  1.00  0.00     0.003 C 
ATOM      6  C   UNL     1      93.360 121.628 121.249  1.00  0.00     0.004 C 
ENDBRANCH   1   5
TORSDOF 2
ENDMDL
MODEL 8
REMARK VINA RESULT:    -3.507      2.144      3.091
REMARK INTER + INTRA:          -3.927
REMARK INTER:                  -3.918
REMARK INTRA:                  -0.010
REMARK UNBOUND:                -0.010
REMARK SMILES CCCC(=O)[O-]
REMARK SMILES IDX 3 1 4 2 5 3 6 4 2 5 1 6
REMARK H PARENT
REMARK Flexibility Score: inf
ROOT
ATOM      1  C   UNL     1      93.878 121.236 121.114  1.00  0.00     0.052 C 
ENDROOT
BRANCH   1   2
ATOM      2  C   UNL     1      94.389 121.952 122.324  1.00  0.00     0.041 C 
ATOM      3  O   UNL     1      93.584 122.390 123.188  1.00  0.00    -0.550 OA
ATOM      4  O   UNL     1      95.751 122.177 122.474  1.00  0.00    -0.550 OA
ENDBRANCH   1   2
BRANCH   1   5
ATOM      5  C   UNL     1      94.950 121.197 120.021  1.00  0.00     0.003 C 
ATOM      6  C   UNL     1      94.340 120.875 118.661  1.00  0.00     0.004 C 
ENDBRANCH   1   5
TORSDOF 2
ENDMDL
MODEL 9
REMARK VINA RESULT:    -3.442      4.319      5.968
REMARK INTER + INTRA:          -3.854
REMARK INTER:                  -3.837
REMARK INTRA:                  -0.018
REMARK UNBOUND:                -0.010
REMARK SMILES CCCC(=O)[O-]
REMARK SMILES IDX 3 1 4 2 5 3 6 4 2 5 1 6
REMARK H PARENT
REMARK Flexibility Score: inf
ROOT
ATOM      1  C   UNL     1      95.572 122.710 123.170  1.00  0.00     0.052 C 
ENDROOT
BRANCH   1   2
ATOM      2  C   UNL     1      94.275 122.088 122.759  1.00  0.00     0.041 C 
ATOM      3  O   UNL     1      93.210 122.389 123.359  1.00  0.00    -0.550 OA
ATOM      4  O   UNL     1      94.251 121.138 121.746  1.00  0.00    -0.550 OA
ENDBRANCH   1   2
BRANCH   1   5
ATOM      5  C   UNL     1      95.332 123.824 124.193  1.00  0.00     0.003 C 
ATOM      6  C   UNL     1      96.528 123.982 125.126  1.00  0.00     0.004 C 
ENDBRANCH   1   5
TORSDOF 2
ENDMDL
