MODEL 1
REMARK VINA RESULT:    -5.922      0.000      0.000
REMARK INTER + INTRA:         -13.423
REMARK INTER:                 -11.115
REMARK INTRA:                  -2.309
REMARK UNBOUND:                -2.309
REMARK SMILES CCCCCCCCC=CCCCCCCCC(=O)[O-]
REMARK SMILES IDX 10 1 9 2 11 3 12 4 13 5 14 6 15 7 16 8 17 9 18 10 19 11
REMARK SMILES IDX 20 12 8 13 7 14 6 15 5 16 4 17 3 18 2 19 1 20
REMARK H PARENT
REMARK Flexibility Score: inf
ROOT
ATOM      1  C   UNL     1       8.345 -46.357  35.992  1.00  0.00    -0.031 C 
ATOM      2  C   UNL     1       8.996 -45.401  35.308  1.00  0.00    -0.031 C 
ENDROOT
BRANCH   1   3
ATOM      3  C   UNL     1       8.679 -47.825  35.903  1.00  0.00     0.027 C 
BRANCH   3   4
ATOM      4  C   UNL     1       8.453 -48.527  37.251  1.00  0.00     0.004 C 
BRANCH   4   5
ATOM      5  C   UNL     1       8.532 -47.562  38.447  1.00  0.00     0.000 C 
BRANCH   5   6
ATOM      6  C   UNL     1       9.941 -47.376  39.047  1.00  0.00     0.000 C 
BRANCH   6   7
ATOM      7  C   UNL     1      10.625 -46.041  38.709  1.00  0.00     0.000 C 
BRANCH   7   8
ATOM      8  C   UNL     1      11.941 -46.223  37.932  1.00  0.00     0.006 C 
BRANCH   8   9
ATOM      9  C   UNL     1      12.958 -47.072  38.707  1.00  0.00     0.053 C 
BRANCH   9  10
ATOM     10  C   UNL     1      14.331 -46.978  38.114  1.00  0.00     0.041 C 
ATOM     11  O   UNL     1      15.340 -46.909  38.864  1.00  0.00    -0.550 OA
ATOM     12  O   UNL     1      14.493 -46.935  36.735  1.00  0.00    -0.550 OA
ENDBRANCH   9  10
ENDBRANCH   8   9
ENDBRANCH   7   8
ENDBRANCH   6   7
ENDBRANCH   5   6
ENDBRANCH   4   5
ENDBRANCH   3   4
ENDBRANCH   1   3
BRANCH   2  13
ATOM     13  C   UNL     1      10.146 -45.647  34.357  1.00  0.00     0.027 C 
BRANCH  13  14
ATOM     14  C   UNL     1      10.206 -44.567  33.266  1.00  0.00     0.004 C 
BRANCH  14  15
ATOM     15  C   UNL     1       8.915 -43.735  33.146  1.00  0.00     0.000 C 
BRANCH  15  16
ATOM     16  C   UNL     1       8.083 -44.008  31.875  1.00  0.00     0.000 C 
BRANCH  16  17
ATOM     17  C   UNL     1       6.970 -45.065  32.026  1.00  0.00    -0.000 C 
BRANCH  17  18
ATOM     18  C   UNL     1       7.370 -46.497  31.629  1.00  0.00    -0.000 C 
BRANCH  18  19
ATOM     19  C   UNL     1       7.081 -47.524  32.734  1.00  0.00    -0.003 C 
ATOM     20  C   UNL     1       5.637 -47.418  33.218  1.00  0.00     0.004 C 
ENDBRANCH  18  19
ENDBRANCH  17  18
ENDBRANCH  16  17
ENDBRANCH  15  16
ENDBRANCH  14  15
ENDBRANCH  13  14
ENDBRANCH   2  13
TORSDOF 15
ENDMDL
MODEL 2
REMARK VINA RESULT:    -5.779      1.438      3.190
REMARK INTER + INTRA:         -13.156
REMARK INTER:                 -11.350
REMARK INTRA:                  -1.806
REMARK UNBOUND:                -2.309
REMARK SMILES CCCCCCCCC=CCCCCCCCC(=O)[O-]
REMARK SMILES IDX 10 1 9 2 11 3 12 4 13 5 14 6 15 7 16 8 17 9 18 10 19 11
REMARK SMILES IDX 20 12 8 13 7 14 6 15 5 16 4 17 3 18 2 19 1 20
REMARK H PARENT
REMARK Flexibility Score: inf
ROOT
ATOM      1  C   UNL     1       6.639 -47.795  34.066  1.00  0.00    -0.031 C 
ATOM      2  C   UNL     1       5.766 -47.478  33.095  1.00  0.00    -0.031 C 
ENDROOT
BRANCH   1   3
ATOM      3  C   UNL     1       8.100 -48.077  33.820  1.00  0.00     0.027 C 
BRANCH   3   4
ATOM      4  C   UNL     1       8.911 -47.975  35.120  1.00  0.00     0.004 C 
BRANCH   4   5
ATOM      5  C   UNL     1       8.335 -46.940  36.103  1.00  0.00     0.000 C 
BRANCH   5   6
ATOM      6  C   UNL     1       9.347 -45.898  36.625  1.00  0.00     0.000 C 
BRANCH   6   7
ATOM      7  C   UNL     1      10.822 -46.213  36.325  1.00  0.00     0.000 C 
BRANCH   7   8
ATOM      8  C   UNL     1      11.757 -45.864  37.497  1.00  0.00     0.006 C 
BRANCH   8   9
ATOM      9  C   UNL     1      13.216 -46.241  37.206  1.00  0.00     0.053 C 
BRANCH   9  10
ATOM     10  C   UNL     1      13.891 -46.830  38.407  1.00  0.00     0.041 C 
ATOM     11  O   UNL     1      13.208 -47.386  39.307  1.00  0.00    -0.550 OA
ATOM     12  O   UNL     1      15.270 -46.736  38.547  1.00  0.00    -0.550 OA
ENDBRANCH   9  10
ENDBRANCH   8   9
ENDBRANCH   7   8
ENDBRANCH   6   7
ENDBRANCH   5   6
ENDBRANCH   4   5
ENDBRANCH   3   4
ENDBRANCH   1   3
BRANCH   2  13
ATOM     13  C   UNL     1       6.108 -47.360  31.626  1.00  0.00     0.027 C 
BRANCH  13  14
ATOM     14  C   UNL     1       5.123 -46.434  30.898  1.00  0.00     0.004 C 
BRANCH  14  15
ATOM     15  C   UNL     1       5.718 -45.059  30.536  1.00  0.00     0.000 C 
BRANCH  15  16
ATOM     16  C   UNL     1       6.057 -44.162  31.745  1.00  0.00     0.000 C 
BRANCH  16  17
ATOM     17  C   UNL     1       7.540 -43.760  31.878  1.00  0.00    -0.000 C 
BRANCH  17  18
ATOM     18  C   UNL     1       8.549 -44.812  31.384  1.00  0.00    -0.000 C 
BRANCH  18  19
ATOM     19  C   UNL     1       9.449 -45.347  32.507  1.00  0.00    -0.003 C 
ATOM     20  C   UNL     1      10.243 -44.220  33.159  1.00  0.00     0.004 C 
ENDBRANCH  18  19
ENDBRANCH  17  18
ENDBRANCH  16  17
ENDBRANCH  15  16
ENDBRANCH  14  15
ENDBRANCH  13  14
ENDBRANCH   2  13
TORSDOF 15
ENDMDL
MODEL 3
REMARK VINA RESULT:    -5.591      3.299      7.135
REMARK INTER + INTRA:         -12.802
REMARK INTER:                 -10.524
REMARK INTRA:                  -2.278
REMARK UNBOUND:                -2.309
REMARK SMILES CCCCCCCCC=CCCCCCCCC(=O)[O-]
REMARK SMILES IDX 10 1 9 2 11 3 12 4 13 5 14 6 15 7 16 8 17 9 18 10 19 11
REMARK SMILES IDX 20 12 8 13 7 14 6 15 5 16 4 17 3 18 2 19 1 20
REMARK H PARENT
REMARK Flexibility Score: inf
ROOT
ATOM      1  C   UNL     1       8.092 -48.973  35.765  1.00  0.00    -0.031 C 
ATOM      2  C   UNL     1       7.745 -49.227  37.039  1.00  0.00    -0.031 C 
ENDROOT
BRANCH   1   3
ATOM      3  C   UNL     1       7.852 -47.651  35.081  1.00  0.00     0.027 C 
BRANCH   3   4
ATOM      4  C   UNL     1       9.178 -46.980  34.692  1.00  0.00     0.004 C 
BRANCH   4   5
ATOM      5  C   UNL     1       9.129 -45.447  34.818  1.00  0.00     0.000 C 
BRANCH   5   6
ATOM      6  C   UNL     1       9.779 -44.672  33.652  1.00  0.00     0.000 C 
BRANCH   6   7
ATOM      7  C   UNL     1       8.841 -43.709  32.904  1.00  0.00     0.000 C 
BRANCH   7   8
ATOM      8  C   UNL     1       8.195 -44.347  31.662  1.00  0.00     0.006 C 
BRANCH   8   9
ATOM      9  C   UNL     1       6.710 -44.665  31.880  1.00  0.00     0.053 C 
BRANCH   9  10
ATOM     10  C   UNL     1       6.471 -46.135  32.044  1.00  0.00     0.041 C 
ATOM     11  O   UNL     1       7.296 -46.965  31.578  1.00  0.00    -0.550 OA
ATOM     12  O   UNL     1       5.324 -46.588  32.682  1.00  0.00    -0.550 OA
ENDBRANCH   9  10
ENDBRANCH   8   9
ENDBRANCH   7   8
ENDBRANCH   6   7
ENDBRANCH   5   6
ENDBRANCH   4   5
ENDBRANCH   3   4
ENDBRANCH   1   3
BRANCH   2  13
ATOM     13  C   UNL     1       7.070 -48.243  37.967  1.00  0.00     0.027 C 
BRANCH  13  14
ATOM     14  C   UNL     1       8.098 -47.501  38.835  1.00  0.00     0.004 C 
BRANCH  14  15
ATOM     15  C   UNL     1       8.136 -45.981  38.586  1.00  0.00     0.000 C 
BRANCH  15  16
ATOM     16  C   UNL     1       9.548 -45.397  38.364  1.00  0.00     0.000 C 
BRANCH  16  17
ATOM     17  C   UNL     1      10.672 -46.435  38.172  1.00  0.00    -0.000 C 
BRANCH  17  18
ATOM     18  C   UNL     1      11.849 -45.969  37.298  1.00  0.00    -0.000 C 
BRANCH  18  19
ATOM     19  C   UNL     1      13.212 -46.416  37.847  1.00  0.00    -0.003 C 
ATOM     20  C   UNL     1      14.354 -45.848  37.010  1.00  0.00     0.004 C 
ENDBRANCH  18  19
ENDBRANCH  17  18
ENDBRANCH  16  17
ENDBRANCH  15  16
ENDBRANCH  14  15
ENDBRANCH  13  14
ENDBRANCH   2  13
TORSDOF 15
ENDMDL
MODEL 4
REMARK VINA RESULT:    -5.590      1.321      2.815
REMARK INTER + INTRA:         -12.801
REMARK INTER:                 -10.563
REMARK INTRA:                  -2.238
REMARK UNBOUND:                -2.309
REMARK SMILES CCCCCCCCC=CCCCCCCCC(=O)[O-]
REMARK SMILES IDX 10 1 9 2 11 3 12 4 13 5 14 6 15 7 16 8 17 9 18 10 19 11
REMARK SMILES IDX 20 12 8 13 7 14 6 15 5 16 4 17 3 18 2 19 1 20
REMARK H PARENT
REMARK Flexibility Score: inf
ROOT
ATOM      1  C   UNL     1       7.622 -48.895  37.834  1.00  0.00    -0.031 C 
ATOM      2  C   UNL     1       7.596 -49.260  36.541  1.00  0.00    -0.031 C 
ENDROOT
BRANCH   1   3
ATOM      3  C   UNL     1       7.285 -47.507  38.318  1.00  0.00     0.027 C 
BRANCH   3   4
ATOM      4  C   UNL     1       8.544 -46.765  38.794  1.00  0.00     0.004 C 
BRANCH   4   5
ATOM      5  C   UNL     1       9.819 -47.621  38.680  1.00  0.00     0.000 C 
BRANCH   5   6
ATOM      6  C   UNL     1      11.140 -46.862  38.919  1.00  0.00     0.000 C 
BRANCH   6   7
ATOM      7  C   UNL     1      11.444 -45.743  37.907  1.00  0.00     0.000 C 
BRANCH   7   8
ATOM      8  C   UNL     1      12.493 -46.155  36.859  1.00  0.00     0.006 C 
BRANCH   8   9
ATOM      9  C   UNL     1      13.913 -45.738  37.265  1.00  0.00     0.053 C 
BRANCH   9  10
ATOM     10  C   UNL     1      14.726 -46.908  37.729  1.00  0.00     0.041 C 
ATOM     11  O   UNL     1      15.152 -46.951  38.914  1.00  0.00    -0.550 OA
ATOM     12  O   UNL     1      15.040 -47.933  36.846  1.00  0.00    -0.550 OA
ENDBRANCH   9  10
ENDBRANCH   8   9
ENDBRANCH   7   8
ENDBRANCH   6   7
ENDBRANCH   5   6
ENDBRANCH   4   5
ENDBRANCH   3   4
ENDBRANCH   1   3
BRANCH   2  13
ATOM     13  C   UNL     1       7.234 -48.350  35.389  1.00  0.00     0.027 C 
BRANCH  13  14
ATOM     14  C   UNL     1       8.429 -48.143  34.446  1.00  0.00     0.004 C 
BRANCH  14  15
ATOM     15  C   UNL     1       9.444 -47.100  34.952  1.00  0.00     0.000 C 
BRANCH  15  16
ATOM     16  C   UNL     1       8.859 -45.694  35.200  1.00  0.00     0.000 C 
BRANCH  16  17
ATOM     17  C   UNL     1       9.071 -44.677  34.059  1.00  0.00    -0.000 C 
BRANCH  17  18
ATOM     18  C   UNL     1       9.786 -45.230  32.815  1.00  0.00    -0.000 C 
BRANCH  18  19
ATOM     19  C   UNL     1       8.863 -45.328  31.591  1.00  0.00    -0.003 C 
ATOM     20  C   UNL     1       7.532 -44.629  31.850  1.00  0.00     0.004 C 
ENDBRANCH  18  19
ENDBRANCH  17  18
ENDBRANCH  16  17
ENDBRANCH  15  16
ENDBRANCH  14  15
ENDBRANCH  13  14
ENDBRANCH   2  13
TORSDOF 15
ENDMDL
MODEL 5
REMARK VINA RESULT:    -5.584      2.429      6.838
REMARK INTER + INTRA:         -12.790
REMARK INTER:                 -11.213
REMARK INTRA:                  -1.578
REMARK UNBOUND:                -2.309
REMARK SMILES CCCCCCCCC=CCCCCCCCC(=O)[O-]
REMARK SMILES IDX 10 1 9 2 11 3 12 4 13 5 14 6 15 7 16 8 17 9 18 10 19 11
REMARK SMILES IDX 20 12 8 13 7 14 6 15 5 16 4 17 3 18 2 19 1 20
REMARK H PARENT
REMARK Flexibility Score: inf
ROOT
ATOM      1  C   UNL     1       7.528 -47.977  37.407  1.00  0.00    -0.031 C 
ATOM      2  C   UNL     1       8.138 -47.285  38.385  1.00  0.00    -0.031 C 
ENDROOT
BRANCH   1   3
ATOM      3  C   UNL     1       8.252 -48.886  36.447  1.00  0.00     0.027 C 
BRANCH   3   4
ATOM      4  C   UNL     1       8.637 -48.140  35.160  1.00  0.00     0.004 C 
BRANCH   4   5
ATOM      5  C   UNL     1       7.759 -48.533  33.958  1.00  0.00     0.000 C 
BRANCH   5   6
ATOM      6  C   UNL     1       6.486 -47.683  33.771  1.00  0.00     0.000 C 
BRANCH   6   7
ATOM      7  C   UNL     1       6.471 -46.795  32.515  1.00  0.00     0.000 C 
BRANCH   7   8
ATOM      8  C   UNL     1       7.853 -46.679  31.849  1.00  0.00     0.006 C 
BRANCH   8   9
ATOM      9  C   UNL     1       8.408 -45.250  31.908  1.00  0.00     0.053 C 
BRANCH   9  10
ATOM     10  C   UNL     1       9.283 -45.040  33.106  1.00  0.00     0.041 C 
ATOM     11  O   UNL     1      10.532 -45.172  33.007  1.00  0.00    -0.550 OA
ATOM     12  O   UNL     1       8.718 -44.728  34.336  1.00  0.00    -0.550 OA
ENDBRANCH   9  10
ENDBRANCH   8   9
ENDBRANCH   7   8
ENDBRANCH   6   7
ENDBRANCH   5   6
ENDBRANCH   4   5
ENDBRANCH   3   4
ENDBRANCH   1   3
BRANCH   2  13
ATOM     13  C   UNL     1       9.623 -47.309  38.667  1.00  0.00     0.027 C 
BRANCH  13  14
ATOM     14  C   UNL     1      10.291 -45.990  38.249  1.00  0.00     0.004 C 
BRANCH  14  15
ATOM     15  C   UNL     1      11.171 -46.113  36.991  1.00  0.00     0.000 C 
BRANCH  15  16
ATOM     16  C   UNL     1      12.681 -45.902  37.233  1.00  0.00     0.000 C 
BRANCH  16  17
ATOM     17  C   UNL     1      13.329 -46.860  38.254  1.00  0.00    -0.000 C 
BRANCH  17  18
ATOM     18  C   UNL     1      14.863 -46.948  38.184  1.00  0.00    -0.000 C 
BRANCH  18  19
ATOM     19  C   UNL     1      15.354 -47.981  37.159  1.00  0.00    -0.003 C 
ATOM     20  C   UNL     1      15.870 -47.297  35.896  1.00  0.00     0.004 C 
ENDBRANCH  18  19
ENDBRANCH  17  18
ENDBRANCH  16  17
ENDBRANCH  15  16
ENDBRANCH  14  15
ENDBRANCH  13  14
ENDBRANCH   2  13
TORSDOF 15
ENDMDL
MODEL 6
REMARK VINA RESULT:    -5.565      1.206      2.939
REMARK INTER + INTRA:         -12.753
REMARK INTER:                 -10.895
REMARK INTRA:                  -1.857
REMARK UNBOUND:                -2.309
REMARK SMILES CCCCCCCCC=CCCCCCCCC(=O)[O-]
REMARK SMILES IDX 10 1 9 2 11 3 12 4 13 5 14 6 15 7 16 8 17 9 18 10 19 11
REMARK SMILES IDX 20 12 8 13 7 14 6 15 5 16 4 17 3 18 2 19 1 20
REMARK H PARENT
REMARK Flexibility Score: inf
ROOT
ATOM      1  C   UNL     1       8.058 -49.559  36.462  1.00  0.00    -0.031 C 
ATOM      2  C   UNL     1       8.156 -49.253  35.157  1.00  0.00    -0.031 C 
ENDROOT
BRANCH   1   3
ATOM      3  C   UNL     1       7.365 -48.687  37.477  1.00  0.00     0.027 C 
BRANCH   3   4
ATOM      4  C   UNL     1       8.382 -47.955  38.366  1.00  0.00     0.004 C 
BRANCH   4   5
ATOM      5  C   UNL     1       8.268 -46.423  38.267  1.00  0.00     0.000 C 
BRANCH   5   6
ATOM      6  C   UNL     1       9.551 -45.699  37.811  1.00  0.00     0.000 C 
BRANCH   6   7
ATOM      7  C   UNL     1      10.369 -46.432  36.734  1.00  0.00     0.000 C 
BRANCH   7   8
ATOM      8  C   UNL     1      11.809 -45.903  36.612  1.00  0.00     0.006 C 
BRANCH   8   9
ATOM      9  C   UNL     1      12.643 -46.200  37.865  1.00  0.00     0.053 C 
BRANCH   9  10
ATOM     10  C   UNL     1      14.073 -46.494  37.527  1.00  0.00     0.041 C 
ATOM     11  O   UNL     1      14.400 -46.761  36.341  1.00  0.00    -0.550 OA
ATOM     12  O   UNL     1      15.038 -46.505  38.527  1.00  0.00    -0.550 OA
ENDBRANCH   9  10
ENDBRANCH   8   9
ENDBRANCH   7   8
ENDBRANCH   6   7
ENDBRANCH   5   6
ENDBRANCH   4   5
ENDBRANCH   3   4
ENDBRANCH   1   3
BRANCH   2  13
ATOM     13  C   UNL     1       7.596 -48.003  34.516  1.00  0.00     0.027 C 
BRANCH  13  14
ATOM     14  C   UNL     1       6.343 -48.317  33.685  1.00  0.00     0.004 C 
BRANCH  14  15
ATOM     15  C   UNL     1       5.823 -47.117  32.870  1.00  0.00     0.000 C 
BRANCH  15  16
ATOM     16  C   UNL     1       6.660 -46.773  31.619  1.00  0.00     0.000 C 
BRANCH  16  17
ATOM     17  C   UNL     1       6.886 -45.268  31.366  1.00  0.00    -0.000 C 
BRANCH  17  18
ATOM     18  C   UNL     1       8.326 -44.777  31.590  1.00  0.00    -0.000 C 
BRANCH  18  19
ATOM     19  C   UNL     1       8.679 -44.627  33.078  1.00  0.00    -0.003 C 
ATOM     20  C   UNL     1      10.180 -44.777  33.303  1.00  0.00     0.004 C 
ENDBRANCH  18  19
ENDBRANCH  17  18
ENDBRANCH  16  17
ENDBRANCH  15  16
ENDBRANCH  14  15
ENDBRANCH  13  14
ENDBRANCH   2  13
TORSDOF 15
ENDMDL
MODEL 7
REMARK VINA RESULT:    -5.526      3.031      7.436
REMARK INTER + INTRA:         -12.681
REMARK INTER:                 -11.185
REMARK INTRA:                  -1.496
REMARK UNBOUND:                -2.309
REMARK SMILES CCCCCCCCC=CCCCCCCCC(=O)[O-]
REMARK SMILES IDX 10 1 9 2 11 3 12 4 13 5 14 6 15 7 16 8 17 9 18 10 19 11
REMARK SMILES IDX 20 12 8 13 7 14 6 15 5 16 4 17 3 18 2 19 1 20
REMARK H PARENT
REMARK Flexibility Score: inf
ROOT
ATOM      1  C   UNL     1       8.620 -46.682  35.304  1.00  0.00    -0.031 C 
ATOM      2  C   UNL     1       8.405 -46.358  36.591  1.00  0.00    -0.031 C 
ENDROOT
BRANCH   1   3
ATOM      3  C   UNL     1       8.656 -48.100  34.793  1.00  0.00     0.027 C 
BRANCH   3   4
ATOM      4  C   UNL     1       8.034 -48.200  33.391  1.00  0.00     0.004 C 
BRANCH   4   5
ATOM      5  C   UNL     1       6.591 -47.667  33.339  1.00  0.00     0.000 C 
BRANCH   5   6
ATOM      6  C   UNL     1       6.023 -47.453  31.921  1.00  0.00     0.000 C 
BRANCH   6   7
ATOM      7  C   UNL     1       5.117 -46.220  31.758  1.00  0.00     0.000 C 
BRANCH   7   8
ATOM      8  C   UNL     1       5.757 -45.118  30.896  1.00  0.00     0.006 C 
BRANCH   8   9
ATOM      9  C   UNL     1       6.328 -43.975  31.746  1.00  0.00     0.053 C 
BRANCH   9  10
ATOM     10  C   UNL     1       7.732 -44.255  32.188  1.00  0.00     0.041 C 
ATOM     11  O   UNL     1       8.164 -43.770  33.267  1.00  0.00    -0.550 OA
ATOM     12  O   UNL     1       8.572 -45.025  31.393  1.00  0.00    -0.550 OA
ENDBRANCH   9  10
ENDBRANCH   8   9
ENDBRANCH   7   8
ENDBRANCH   6   7
ENDBRANCH   5   6
ENDBRANCH   4   5
ENDBRANCH   3   4
ENDBRANCH   1   3
BRANCH   2  13
ATOM     13  C   UNL     1       8.172 -47.350  37.707  1.00  0.00     0.027 C 
BRANCH  13  14
ATOM     14  C   UNL     1       9.440 -47.545  38.552  1.00  0.00     0.004 C 
BRANCH  14  15
ATOM     15  C   UNL     1      10.295 -46.271  38.690  1.00  0.00     0.000 C 
BRANCH  15  16
ATOM     16  C   UNL     1      11.802 -46.470  38.422  1.00  0.00     0.000 C 
BRANCH  16  17
ATOM     17  C   UNL     1      12.314 -45.923  37.074  1.00  0.00    -0.000 C 
BRANCH  17  18
ATOM     18  C   UNL     1      13.839 -45.978  36.884  1.00  0.00    -0.000 C 
BRANCH  18  19
ATOM     19  C   UNL     1      14.536 -46.879  37.914  1.00  0.00    -0.003 C 
ATOM     20  C   UNL     1      15.285 -48.018  37.230  1.00  0.00     0.004 C 
ENDBRANCH  18  19
ENDBRANCH  17  18
ENDBRANCH  16  17
ENDBRANCH  15  16
ENDBRANCH  14  15
ENDBRANCH  13  14
ENDBRANCH   2  13
TORSDOF 15
ENDMDL
MODEL 8
REMARK VINA RESULT:    -5.456      1.738      3.680
REMARK INTER + INTRA:         -12.548
REMARK INTER:                 -10.191
REMARK INTRA:                  -2.357
REMARK UNBOUND:                -2.309
REMARK SMILES CCCCCCCCC=CCCCCCCCC(=O)[O-]
REMARK SMILES IDX 10 1 9 2 11 3 12 4 13 5 14 6 15 7 16 8 17 9 18 10 19 11
REMARK SMILES IDX 20 12 8 13 7 14 6 15 5 16 4 17 3 18 2 19 1 20
REMARK H PARENT
REMARK Flexibility Score: inf
ROOT
ATOM      1  C   UNL     1       6.325 -47.764  33.700  1.00  0.00    -0.031 C 
ATOM      2  C   UNL     1       5.552 -47.225  32.741  1.00  0.00    -0.031 C 
ENDROOT
BRANCH   1   3
ATOM      3  C   UNL     1       7.751 -48.200  33.478  1.00  0.00     0.027 C 
BRANCH   3   4
ATOM      4  C   UNL     1       8.244 -49.091  34.628  1.00  0.00     0.004 C 
BRANCH   4   5
ATOM      5  C   UNL     1       7.267 -49.124  35.818  1.00  0.00     0.000 C 
BRANCH   5   6
ATOM      6  C   UNL     1       7.929 -49.071  37.210  1.00  0.00     0.000 C 
BRANCH   6   7
ATOM      7  C   UNL     1       7.344 -48.022  38.172  1.00  0.00     0.000 C 
BRANCH   7   8
ATOM      8  C   UNL     1       8.366 -46.943  38.572  1.00  0.00     0.006 C 
BRANCH   8   9
ATOM      9  C   UNL     1       9.813 -47.413  38.375  1.00  0.00     0.053 C 
BRANCH   9  10
ATOM     10  C   UNL     1      10.797 -46.311  38.625  1.00  0.00     0.041 C 
ATOM     11  O   UNL     1      10.818 -45.722  39.737  1.00  0.00    -0.550 OA
ATOM     12  O   UNL     1      11.669 -45.915  37.619  1.00  0.00    -0.550 OA
ENDBRANCH   9  10
ENDBRANCH   8   9
ENDBRANCH   7   8
ENDBRANCH   6   7
ENDBRANCH   5   6
ENDBRANCH   4   5
ENDBRANCH   3   4
ENDBRANCH   1   3
BRANCH   2  13
ATOM     13  C   UNL     1       5.986 -46.978  31.314  1.00  0.00     0.027 C 
BRANCH  13  14
ATOM     14  C   UNL     1       5.478 -45.621  30.804  1.00  0.00     0.004 C 
BRANCH  14  15
ATOM     15  C   UNL     1       6.210 -44.414  31.423  1.00  0.00     0.000 C 
BRANCH  15  16
ATOM     16  C   UNL     1       7.750 -44.514  31.410  1.00  0.00     0.000 C 
BRANCH  16  17
ATOM     17  C   UNL     1       8.429 -44.468  32.794  1.00  0.00    -0.000 C 
BRANCH  17  18
ATOM     18  C   UNL     1       9.782 -45.195  32.883  1.00  0.00    -0.000 C 
BRANCH  18  19
ATOM     19  C   UNL     1      10.239 -45.427  34.331  1.00  0.00    -0.003 C 
ATOM     20  C   UNL     1       9.048 -45.460  35.284  1.00  0.00     0.004 C 
ENDBRANCH  18  19
ENDBRANCH  17  18
ENDBRANCH  16  17
ENDBRANCH  15  16
ENDBRANCH  14  15
ENDBRANCH  13  14
ENDBRANCH   2  13
TORSDOF 15
ENDMDL
MODEL 9
REMARK VINA RESULT:    -5.361      2.502      6.773
REMARK INTER + INTRA:         -12.370
REMARK INTER:                 -10.325
REMARK INTRA:                  -2.045
REMARK UNBOUND:                -2.309
REMARK SMILES CCCCCCCCC=CCCCCCCCC(=O)[O-]
REMARK SMILES IDX 10 1 9 2 11 3 12 4 13 5 14 6 15 7 16 8 17 9 18 10 19 11
REMARK SMILES IDX 20 12 8 13 7 14 6 15 5 16 4 17 3 18 2 19 1 20
REMARK H PARENT
REMARK Flexibility Score: inf
ROOT
ATOM      1  C   UNL     1       7.391 -47.714  33.563  1.00  0.00    -0.031 C 
ATOM      2  C   UNL     1       8.214 -48.531  34.243  1.00  0.00    -0.031 C 
ENDROOT
BRANCH   1   3
ATOM      3  C   UNL     1       5.888 -47.839  33.578  1.00  0.00     0.027 C 
BRANCH   3   4
ATOM      4  C   UNL     1       5.243 -46.893  32.553  1.00  0.00     0.004 C 
BRANCH   4   5
ATOM      5  C   UNL     1       6.024 -46.827  31.229  1.00  0.00     0.000 C 
BRANCH   5   6
ATOM      6  C   UNL     1       6.368 -45.404  30.742  1.00  0.00     0.000 C 
BRANCH   6   7
ATOM      7  C   UNL     1       6.070 -44.278  31.747  1.00  0.00     0.000 C 
BRANCH   7   8
ATOM      8  C   UNL     1       7.319 -43.459  32.115  1.00  0.00     0.006 C 
BRANCH   8   9
ATOM      9  C   UNL     1       8.612 -44.269  31.950  1.00  0.00     0.053 C 
BRANCH   9  10
ATOM     10  C   UNL     1       9.235 -44.602  33.272  1.00  0.00     0.041 C 
ATOM     11  O   UNL     1       8.629 -44.332  34.342  1.00  0.00    -0.550 OA
ATOM     12  O   UNL     1      10.496 -45.181  33.322  1.00  0.00    -0.550 OA
ENDBRANCH   9  10
ENDBRANCH   8   9
ENDBRANCH   7   8
ENDBRANCH   6   7
ENDBRANCH   5   6
ENDBRANCH   4   5
ENDBRANCH   3   4
ENDBRANCH   1   3
BRANCH   2  13
ATOM     13  C   UNL     1       7.767 -49.685  35.112  1.00  0.00     0.027 C 
BRANCH  13  14
ATOM     14  C   UNL     1       8.197 -49.481  36.573  1.00  0.00     0.004 C 
BRANCH  14  15
ATOM     15  C   UNL     1       7.163 -48.715  37.421  1.00  0.00     0.000 C 
BRANCH  15  16
ATOM     16  C   UNL     1       7.761 -47.648  38.363  1.00  0.00     0.000 C 
BRANCH  16  17
ATOM     17  C   UNL     1       9.244 -47.304  38.118  1.00  0.00    -0.000 C 
BRANCH  17  18
ATOM     18  C   UNL     1       9.491 -46.069  37.235  1.00  0.00    -0.000 C 
BRANCH  18  19
ATOM     19  C   UNL     1      10.869 -46.088  36.556  1.00  0.00    -0.003 C 
ATOM     20  C   UNL     1      11.990 -46.045  37.589  1.00  0.00     0.004 C 
ENDBRANCH  18  19
ENDBRANCH  17  18
ENDBRANCH  16  17
ENDBRANCH  15  16
ENDBRANCH  14  15
ENDBRANCH  13  14
ENDBRANCH   2  13
TORSDOF 15
ENDMDL
