MODEL 1
REMARK VINA RESULT:     1.349      0.000      0.000
REMARK INTER + INTRA:           1.107
REMARK INTER:                   1.822
REMARK INTRA:                  -0.715
REMARK UNBOUND:                -0.715
REMARK SMILES CC[C@@H](CC[C@@H](C)[C@H]1CC[C@H]2[C@H]3CC(=O)C4=CC(=O)CC[C@]4(C)[C@H]3CC[C@@]12C)C(C)C
REMARK SMILES IDX 4 1 3 2 2 3 1 4 29 5 30 6 31 7 5 8 6 9 7 10 8 11 9 12 27 13
REMARK SMILES IDX 10 14 11 15 26 16 28 17 12 18 25 19 24 20 13 21 22 22 14 23
REMARK SMILES IDX 16 24 21 25 23 26 15 27 17 28 20 29 18 30 19 31
REMARK H PARENT
REMARK Flexibility Score: inf
ROOT
ATOM      1  C   UNL     1      50.584  -0.610  22.136  1.00  0.00     0.004 C 
ENDROOT
BRANCH   1   2
ATOM      2  C   UNL     1      49.900  -1.691  21.251  1.00  0.00    -0.009 C 
BRANCH   2   3
ATOM      3  C   UNL     1      49.925  -3.071  21.967  1.00  0.00     0.000 C 
ATOM      4  C   UNL     1      50.017  -2.960  23.490  1.00  0.00     0.004 C 
ENDBRANCH   2   3
BRANCH   2   5
ATOM      5  C   UNL     1      50.522  -1.765  19.812  1.00  0.00    -0.014 C 
ATOM      6  C   UNL     1      50.458  -0.436  19.037  1.00  0.00     0.007 C 
ATOM      7  C   UNL     1      49.897  -2.894  18.978  1.00  0.00     0.007 C 
ENDBRANCH   2   5
ENDBRANCH   1   2
BRANCH   1   8
ATOM      8  C   UNL     1      50.017   0.818  21.933  1.00  0.00     0.004 C 
BRANCH   8   9
ATOM      9  C   UNL     1      51.012   1.804  21.258  1.00  0.00    -0.011 C 
ATOM     10  C   UNL     1      50.258   2.959  20.571  1.00  0.00     0.008 C 
BRANCH   9  11
ATOM     11  C   UNL     1      52.118   2.386  22.227  1.00  0.00    -0.002 C 
ATOM     12  C   UNL     1      52.014   2.085  23.729  1.00  0.00     0.005 C 
ATOM     13  C   UNL     1      53.586   2.022  21.876  1.00  0.00    -0.026 C 
ATOM     14  C   UNL     1      53.397   2.408  24.305  1.00  0.00     0.005 C 
ATOM     15  C   UNL     1      54.340   2.607  23.098  1.00  0.00    -0.001 C 
ATOM     16  C   UNL     1      53.790   0.466  21.727  1.00  0.00     0.007 C 
ATOM     17  C   UNL     1      54.029   2.740  20.578  1.00  0.00     0.012 C 
ATOM     18  C   UNL     1      55.806   2.100  23.264  1.00  0.00     0.004 C 
ATOM     19  C   UNL     1      54.696  -0.176  22.783  1.00  0.00     0.005 C 
ATOM     20  C   UNL     1      56.031   0.584  22.916  1.00  0.00     0.003 C 
ATOM     21  C   UNL     1      56.424   2.560  24.597  1.00  0.00     0.085 C 
ATOM     22  C   UNL     1      57.112  -0.186  23.791  1.00  0.00    -0.000 C 
ATOM     23  C   UNL     1      57.854   2.137  24.665  1.00  0.00     0.159 C 
ATOM     24  C   UNL     1      58.228   0.775  24.226  1.00  0.00     0.005 C 
ATOM     25  C   UNL     1      57.715  -1.345  22.925  1.00  0.00     0.020 C 
ATOM     26  C   UNL     1      56.481  -0.796  25.071  1.00  0.00     0.017 C 
ATOM     27  O   UNL     1      58.715   2.937  25.125  1.00  0.00    -0.295 OA
ATOM     28  C   UNL     1      59.512   0.372  24.327  1.00  0.00     0.055 C 
ATOM     29  C   UNL     1      58.922  -2.020  23.583  1.00  0.00     0.081 C 
ATOM     30  C   UNL     1      59.932  -0.994  23.980  1.00  0.00     0.156 C 
ATOM     31  O   UNL     1      61.148  -1.312  24.061  1.00  0.00    -0.295 OA
ENDBRANCH   9  11
ENDBRANCH   8   9
ENDBRANCH   1   8
TORSDOF 6
ENDMDL
MODEL 2
REMARK VINA RESULT:     3.760      0.894      2.011
REMARK INTER + INTRA:           4.363
REMARK INTER:                   3.212
REMARK INTRA:                   1.152
REMARK UNBOUND:                -0.715
REMARK SMILES CC[C@@H](CC[C@@H](C)[C@H]1CC[C@H]2[C@H]3CC(=O)C4=CC(=O)CC[C@]4(C)[C@H]3CC[C@@]12C)C(C)C
REMARK SMILES IDX 4 1 3 2 2 3 1 4 29 5 30 6 31 7 5 8 6 9 7 10 8 11 9 12 27 13
REMARK SMILES IDX 10 14 11 15 26 16 28 17 12 18 25 19 24 20 13 21 22 22 14 23
REMARK SMILES IDX 16 24 21 25 23 26 15 27 17 28 20 29 18 30 19 31
REMARK H PARENT
REMARK Flexibility Score: inf
ROOT
ATOM      1  C   UNL     1      51.380   0.406  20.278  1.00  0.00     0.004 C 
ENDROOT
BRANCH   1   2
ATOM      2  C   UNL     1      50.723  -0.183  18.998  1.00  0.00    -0.009 C 
BRANCH   2   3
ATOM      3  C   UNL     1      49.877   0.903  18.275  1.00  0.00     0.000 C 
ATOM      4  C   UNL     1      50.728   1.973  17.587  1.00  0.00     0.004 C 
ENDBRANCH   2   3
BRANCH   2   5
ATOM      5  C   UNL     1      49.885  -1.475  19.298  1.00  0.00    -0.014 C 
ATOM      6  C   UNL     1      50.093  -2.036  20.716  1.00  0.00     0.007 C 
ATOM      7  C   UNL     1      50.137  -2.575  18.253  1.00  0.00     0.007 C 
ENDBRANCH   2   5
ENDBRANCH   1   2
BRANCH   1   8
ATOM      8  C   UNL     1      51.258   1.947  20.394  1.00  0.00     0.004 C 
BRANCH   8   9
ATOM      9  C   UNL     1      50.870   2.446  21.813  1.00  0.00    -0.011 C 
ATOM     10  C   UNL     1      50.028   1.389  22.555  1.00  0.00     0.008 C 
BRANCH   9  11
ATOM     11  C   UNL     1      52.095   2.885  22.713  1.00  0.00    -0.002 C 
ATOM     12  C   UNL     1      52.070   2.541  24.209  1.00  0.00     0.005 C 
ATOM     13  C   UNL     1      53.491   2.399  22.242  1.00  0.00    -0.026 C 
ATOM     14  C   UNL     1      53.516   2.712  24.689  1.00  0.00     0.005 C 
ATOM     15  C   UNL     1      54.384   2.865  23.421  1.00  0.00    -0.001 C 
ATOM     16  C   UNL     1      53.533   0.837  22.032  1.00  0.00     0.007 C 
ATOM     17  C   UNL     1      53.907   3.119  20.936  1.00  0.00     0.012 C 
ATOM     18  C   UNL     1      55.802   2.217  23.461  1.00  0.00     0.004 C 
ATOM     19  C   UNL     1      54.446   0.075  22.997  1.00  0.00     0.005 C 
ATOM     20  C   UNL     1      55.854   0.701  23.052  1.00  0.00     0.003 C 
ATOM     21  C   UNL     1      56.557   2.567  24.756  1.00  0.00     0.085 C 
ATOM     22  C   UNL     1      56.917  -0.199  23.819  1.00  0.00    -0.000 C 
ATOM     23  C   UNL     1      57.940   2.010  24.704  1.00  0.00     0.159 C 
ATOM     24  C   UNL     1      58.148   0.635  24.197  1.00  0.00     0.005 C 
ATOM     25  C   UNL     1      57.341  -1.378  22.877  1.00  0.00     0.020 C 
ATOM     26  C   UNL     1      56.324  -0.794  25.124  1.00  0.00     0.017 C 
ATOM     27  O   UNL     1      58.905   2.708  25.121  1.00  0.00    -0.295 OA
ATOM     28  C   UNL     1      59.391   0.111  24.190  1.00  0.00     0.055 C 
ATOM     29  C   UNL     1      58.522  -2.186  23.422  1.00  0.00     0.081 C 
ATOM     30  C   UNL     1      59.652  -1.275  23.772  1.00  0.00     0.156 C 
ATOM     31  O   UNL     1      60.834  -1.709  23.751  1.00  0.00    -0.295 OA
ENDBRANCH   9  11
ENDBRANCH   8   9
ENDBRANCH   1   8
TORSDOF 6
ENDMDL
