MODEL 1
REMARK VINA RESULT:    -4.871      0.000      0.000
REMARK INTER + INTRA:         -10.353
REMARK INTER:                  -8.573
REMARK INTRA:                  -1.780
REMARK UNBOUND:                -1.780
REMARK SMILES CCCCCCCCCCCCCCC(=O)[O-]
REMARK SMILES IDX 9 1 10 2 11 3 12 4 13 5 14 6 15 7 16 8 17 9 8 10 7 11 6 12
REMARK SMILES IDX 5 13 4 14 3 15 2 16 1 17
REMARK H PARENT
REMARK Flexibility Score: inf
ROOT
ATOM      1  C   UNL     1      10.131  18.984  31.913  1.00  0.00     0.000 C 
ENDROOT
BRANCH   1   2
ATOM      2  C   UNL     1      10.051  18.883  33.448  1.00  0.00     0.000 C 
BRANCH   2   3
ATOM      3  C   UNL     1       8.796  18.137  33.935  1.00  0.00     0.000 C 
BRANCH   3   4
ATOM      4  C   UNL     1       7.887  19.019  34.806  1.00  0.00     0.000 C 
BRANCH   4   5
ATOM      5  C   UNL     1       8.582  19.502  36.088  1.00  0.00     0.006 C 
BRANCH   5   6
ATOM      6  C   UNL     1       8.386  18.497  37.228  1.00  0.00     0.053 C 
BRANCH   6   7
ATOM      7  C   UNL     1       9.674  17.802  37.542  1.00  0.00     0.041 C 
ATOM      8  O   UNL     1      10.500  18.326  38.335  1.00  0.00    -0.550 OA
ATOM      9  O   UNL     1       9.984  16.598  36.921  1.00  0.00    -0.550 OA
ENDBRANCH   6   7
ENDBRANCH   5   6
ENDBRANCH   4   5
ENDBRANCH   3   4
ENDBRANCH   2   3
ENDBRANCH   1   2
BRANCH   1  10
ATOM     10  C   UNL     1       8.794  18.793  31.175  1.00  0.00     0.000 C 
BRANCH  10  11
ATOM     11  C   UNL     1       8.322  20.062  30.448  1.00  0.00    -0.000 C 
BRANCH  11  12
ATOM     12  C   UNL     1       7.964  21.168  31.451  1.00  0.00    -0.000 C 
BRANCH  12  13
ATOM     13  C   UNL     1       8.782  22.456  31.243  1.00  0.00    -0.000 C 
BRANCH  13  14
ATOM     14  C   UNL     1       9.735  22.811  32.398  1.00  0.00    -0.000 C 
BRANCH  14  15
ATOM     15  C   UNL     1       9.149  22.479  33.780  1.00  0.00    -0.000 C 
BRANCH  15  16
ATOM     16  C   UNL     1       8.672  23.730  34.534  1.00  0.00    -0.003 C 
ATOM     17  C   UNL     1       9.438  24.989  34.130  1.00  0.00     0.004 C 
ENDBRANCH  15  16
ENDBRANCH  14  15
ENDBRANCH  13  14
ENDBRANCH  12  13
ENDBRANCH  11  12
ENDBRANCH  10  11
ENDBRANCH   1  10
TORSDOF 13
ENDMDL
MODEL 2
REMARK VINA RESULT:    -4.856      1.184      1.907
REMARK INTER + INTRA:         -10.327
REMARK INTER:                  -8.380
REMARK INTRA:                  -1.947
REMARK UNBOUND:                -1.780
REMARK SMILES CCCCCCCCCCCCCCC(=O)[O-]
REMARK SMILES IDX 9 1 10 2 11 3 12 4 13 5 14 6 15 7 16 8 17 9 8 10 7 11 6 12
REMARK SMILES IDX 5 13 4 14 3 15 2 16 1 17
REMARK H PARENT
REMARK Flexibility Score: inf
ROOT
ATOM      1  C   UNL     1      10.102  18.646  33.573  1.00  0.00     0.000 C 
ENDROOT
BRANCH   1   2
ATOM      2  C   UNL     1       8.653  18.260  33.925  1.00  0.00     0.000 C 
BRANCH   2   3
ATOM      3  C   UNL     1       8.017  19.201  34.963  1.00  0.00     0.000 C 
BRANCH   3   4
ATOM      4  C   UNL     1       8.947  20.360  35.356  1.00  0.00     0.000 C 
BRANCH   4   5
ATOM      5  C   UNL     1       9.020  20.573  36.875  1.00  0.00     0.006 C 
BRANCH   5   6
ATOM      6  C   UNL     1       8.272  19.462  37.619  1.00  0.00     0.053 C 
BRANCH   6   7
ATOM      7  C   UNL     1       9.235  18.577  38.346  1.00  0.00     0.041 C 
ATOM      8  O   UNL     1       9.353  18.662  39.597  1.00  0.00    -0.550 OA
ATOM      9  O   UNL     1      10.037  17.692  37.636  1.00  0.00    -0.550 OA
ENDBRANCH   6   7
ENDBRANCH   5   6
ENDBRANCH   4   5
ENDBRANCH   3   4
ENDBRANCH   2   3
ENDBRANCH   1   2
BRANCH   1  10
ATOM     10  C   UNL     1      10.350  18.968  32.089  1.00  0.00     0.000 C 
BRANCH  10  11
ATOM     11  C   UNL     1       9.210  18.499  31.173  1.00  0.00    -0.000 C 
BRANCH  11  12
ATOM     12  C   UNL     1       8.627  19.674  30.376  1.00  0.00    -0.000 C 
BRANCH  12  13
ATOM     13  C   UNL     1       7.993  20.754  31.272  1.00  0.00    -0.000 C 
BRANCH  13  14
ATOM     14  C   UNL     1       8.594  22.162  31.111  1.00  0.00    -0.000 C 
BRANCH  14  15
ATOM     15  C   UNL     1       9.136  22.735  32.431  1.00  0.00    -0.000 C 
BRANCH  15  16
ATOM     16  C   UNL     1      10.621  23.119  32.341  1.00  0.00    -0.003 C 
ATOM     17  C   UNL     1      11.507  22.261  33.243  1.00  0.00     0.004 C 
ENDBRANCH  15  16
ENDBRANCH  14  15
ENDBRANCH  13  14
ENDBRANCH  12  13
ENDBRANCH  11  12
ENDBRANCH  10  11
ENDBRANCH   1  10
TORSDOF 13
ENDMDL
MODEL 3
REMARK VINA RESULT:    -4.838      1.408      2.621
REMARK INTER + INTRA:         -10.294
REMARK INTER:                  -8.262
REMARK INTRA:                  -2.033
REMARK UNBOUND:                -1.780
REMARK SMILES CCCCCCCCCCCCCCC(=O)[O-]
REMARK SMILES IDX 9 1 10 2 11 3 12 4 13 5 14 6 15 7 16 8 17 9 8 10 7 11 6 12
REMARK SMILES IDX 5 13 4 14 3 15 2 16 1 17
REMARK H PARENT
REMARK Flexibility Score: inf
ROOT
ATOM      1  C   UNL     1       8.568  20.296  31.809  1.00  0.00     0.000 C 
ENDROOT
BRANCH   1   2
ATOM      2  C   UNL     1       9.496  19.126  31.432  1.00  0.00     0.000 C 
BRANCH   2   3
ATOM      3  C   UNL     1       9.377  17.932  32.396  1.00  0.00     0.000 C 
BRANCH   3   4
ATOM      4  C   UNL     1       8.276  18.133  33.450  1.00  0.00     0.000 C 
BRANCH   4   5
ATOM      5  C   UNL     1       8.820  18.105  34.886  1.00  0.00     0.006 C 
BRANCH   5   6
ATOM      6  C   UNL     1       7.875  18.841  35.843  1.00  0.00     0.053 C 
BRANCH   6   7
ATOM      7  C   UNL     1       8.486  18.947  37.205  1.00  0.00     0.041 C 
ATOM      8  O   UNL     1       9.282  18.060  37.613  1.00  0.00    -0.550 OA
ATOM      9  O   UNL     1       8.140  20.000  38.043  1.00  0.00    -0.550 OA
ENDBRANCH   6   7
ENDBRANCH   5   6
ENDBRANCH   4   5
ENDBRANCH   3   4
ENDBRANCH   2   3
ENDBRANCH   1   2
BRANCH   1  10
ATOM     10  C   UNL     1       9.286  21.596  32.212  1.00  0.00     0.000 C 
BRANCH  10  11
ATOM     11  C   UNL     1      10.636  21.348  32.901  1.00  0.00    -0.000 C 
BRANCH  11  12
ATOM     12  C   UNL     1      10.504  21.463  34.426  1.00  0.00    -0.000 C 
BRANCH  12  13
ATOM     13  C   UNL     1       9.169  22.089  34.869  1.00  0.00    -0.000 C 
BRANCH  13  14
ATOM     14  C   UNL     1       9.293  23.190  35.938  1.00  0.00    -0.000 C 
BRANCH  14  15
ATOM     15  C   UNL     1      10.042  24.433  35.431  1.00  0.00    -0.000 C 
BRANCH  15  16
ATOM     16  C   UNL     1       9.400  25.037  34.174  1.00  0.00    -0.003 C 
ATOM     17  C   UNL     1      10.409  25.269  33.050  1.00  0.00     0.004 C 
ENDBRANCH  15  16
ENDBRANCH  14  15
ENDBRANCH  13  14
ENDBRANCH  12  13
ENDBRANCH  11  12
ENDBRANCH  10  11
ENDBRANCH   1  10
TORSDOF 13
ENDMDL
MODEL 4
REMARK VINA RESULT:    -4.816      4.446      6.341
REMARK INTER + INTRA:         -10.257
REMARK INTER:                  -9.075
REMARK INTRA:                  -1.182
REMARK UNBOUND:                -1.780
REMARK SMILES CCCCCCCCCCCCCCC(=O)[O-]
REMARK SMILES IDX 9 1 10 2 11 3 12 4 13 5 14 6 15 7 16 8 17 9 8 10 7 11 6 12
REMARK SMILES IDX 5 13 4 14 3 15 2 16 1 17
REMARK H PARENT
REMARK Flexibility Score: inf
ROOT
ATOM      1  C   UNL     1      12.905  17.964  36.086  1.00  0.00     0.000 C 
ENDROOT
BRANCH   1   2
ATOM      2  C   UNL     1      13.321  16.617  35.466  1.00  0.00     0.000 C 
BRANCH   2   3
ATOM      3  C   UNL     1      13.881  15.628  36.502  1.00  0.00     0.000 C 
BRANCH   3   4
ATOM      4  C   UNL     1      13.955  16.231  37.914  1.00  0.00     0.000 C 
BRANCH   4   5
ATOM      5  C   UNL     1      15.397  16.506  38.367  1.00  0.00     0.006 C 
BRANCH   5   6
ATOM      6  C   UNL     1      16.394  16.153  37.259  1.00  0.00     0.053 C 
BRANCH   6   7
ATOM      7  C   UNL     1      17.033  17.392  36.714  1.00  0.00     0.041 C 
ATOM      8  O   UNL     1      16.576  18.526  37.017  1.00  0.00    -0.550 OA
ATOM      9  O   UNL     1      18.104  17.293  35.834  1.00  0.00    -0.550 OA
ENDBRANCH   6   7
ENDBRANCH   5   6
ENDBRANCH   4   5
ENDBRANCH   3   4
ENDBRANCH   2   3
ENDBRANCH   1   2
BRANCH   1  10
ATOM     10  C   UNL     1      11.452  18.390  35.811  1.00  0.00     0.000 C 
BRANCH  10  11
ATOM     11  C   UNL     1      10.478  17.204  35.756  1.00  0.00    -0.000 C 
BRANCH  11  12
ATOM     12  C   UNL     1       9.757  17.147  34.402  1.00  0.00    -0.000 C 
BRANCH  12  13
ATOM     13  C   UNL     1       8.491  18.023  34.357  1.00  0.00    -0.000 C 
BRANCH  13  14
ATOM     14  C   UNL     1       8.677  19.395  33.684  1.00  0.00    -0.000 C 
BRANCH  14  15
ATOM     15  C   UNL     1       9.676  19.357  32.516  1.00  0.00    -0.000 C 
BRANCH  15  16
ATOM     16  C   UNL     1       9.031  18.888  31.203  1.00  0.00    -0.003 C 
ATOM     17  C   UNL     1       9.848  17.803  30.502  1.00  0.00     0.004 C 
ENDBRANCH  15  16
ENDBRANCH  14  15
ENDBRANCH  13  14
ENDBRANCH  12  13
ENDBRANCH  11  12
ENDBRANCH  10  11
ENDBRANCH   1  10
TORSDOF 13
ENDMDL
MODEL 5
REMARK VINA RESULT:    -4.750      2.822      5.833
REMARK INTER + INTRA:         -10.140
REMARK INTER:                  -8.187
REMARK INTRA:                  -1.953
REMARK UNBOUND:                -1.780
REMARK SMILES CCCCCCCCCCCCCCC(=O)[O-]
REMARK SMILES IDX 9 1 10 2 11 3 12 4 13 5 14 6 15 7 16 8 17 9 8 10 7 11 6 12
REMARK SMILES IDX 5 13 4 14 3 15 2 16 1 17
REMARK H PARENT
REMARK Flexibility Score: inf
ROOT
ATOM      1  C   UNL     1       9.960  18.522  33.407  1.00  0.00     0.000 C 
ENDROOT
BRANCH   1   2
ATOM      2  C   UNL     1      10.077  18.931  31.927  1.00  0.00     0.000 C 
BRANCH   2   3
ATOM      3  C   UNL     1       8.726  18.906  31.190  1.00  0.00     0.000 C 
BRANCH   3   4
ATOM      4  C   UNL     1       8.307  20.294  30.679  1.00  0.00     0.000 C 
BRANCH   4   5
ATOM      5  C   UNL     1       8.250  21.345  31.797  1.00  0.00     0.006 C 
BRANCH   5   6
ATOM      6  C   UNL     1       8.768  22.699  31.301  1.00  0.00     0.053 C 
BRANCH   6   7
ATOM      7  C   UNL     1      10.077  23.028  31.948  1.00  0.00     0.041 C 
ATOM      8  O   UNL     1      10.534  22.293  32.862  1.00  0.00    -0.550 OA
ATOM      9  O   UNL     1      10.769  24.173  31.574  1.00  0.00    -0.550 OA
ENDBRANCH   6   7
ENDBRANCH   5   6
ENDBRANCH   4   5
ENDBRANCH   3   4
ENDBRANCH   2   3
ENDBRANCH   1   2
BRANCH   1  10
ATOM     10  C   UNL     1       8.547  18.119  33.865  1.00  0.00     0.000 C 
BRANCH  10  11
ATOM     11  C   UNL     1       7.917  19.133  34.832  1.00  0.00    -0.000 C 
BRANCH  11  12
ATOM     12  C   UNL     1       8.957  20.159  35.306  1.00  0.00    -0.000 C 
BRANCH  12  13
ATOM     13  C   UNL     1       9.049  20.256  36.840  1.00  0.00    -0.000 C 
BRANCH  13  14
ATOM     14  C   UNL     1       8.518  19.028  37.600  1.00  0.00    -0.000 C 
BRANCH  14  15
ATOM     15  C   UNL     1       9.639  18.185  38.231  1.00  0.00    -0.000 C 
BRANCH  15  16
ATOM     16  C   UNL     1      10.208  17.140  37.259  1.00  0.00    -0.003 C 
ATOM     17  C   UNL     1      11.513  17.594  36.605  1.00  0.00     0.004 C 
ENDBRANCH  15  16
ENDBRANCH  14  15
ENDBRANCH  13  14
ENDBRANCH  12  13
ENDBRANCH  11  12
ENDBRANCH  10  11
ENDBRANCH   1  10
TORSDOF 13
ENDMDL
MODEL 6
REMARK VINA RESULT:    -4.717      3.890      6.234
REMARK INTER + INTRA:         -10.082
REMARK INTER:                  -8.732
REMARK INTRA:                  -1.350
REMARK UNBOUND:                -1.780
REMARK SMILES CCCCCCCCCCCCCCC(=O)[O-]
REMARK SMILES IDX 9 1 10 2 11 3 12 4 13 5 14 6 15 7 16 8 17 9 8 10 7 11 6 12
REMARK SMILES IDX 5 13 4 14 3 15 2 16 1 17
REMARK H PARENT
REMARK Flexibility Score: inf
ROOT
ATOM      1  C   UNL     1      11.900  16.594  36.185  1.00  0.00     0.000 C 
ENDROOT
BRANCH   1   2
ATOM      2  C   UNL     1      13.169  16.993  35.409  1.00  0.00     0.000 C 
BRANCH   2   3
ATOM      3  C   UNL     1      13.927  18.163  36.060  1.00  0.00     0.000 C 
BRANCH   3   4
ATOM      4  C   UNL     1      15.435  17.894  36.183  1.00  0.00     0.000 C 
BRANCH   4   5
ATOM      5  C   UNL     1      15.850  17.477  37.602  1.00  0.00     0.006 C 
BRANCH   5   6
ATOM      6  C   UNL     1      16.069  15.963  37.685  1.00  0.00     0.053 C 
BRANCH   6   7
ATOM      7  C   UNL     1      14.842  15.284  38.207  1.00  0.00     0.041 C 
ATOM      8  O   UNL     1      14.008  15.925  38.899  1.00  0.00    -0.550 OA
ATOM      9  O   UNL     1      14.643  13.929  37.970  1.00  0.00    -0.550 OA
ENDBRANCH   6   7
ENDBRANCH   5   6
ENDBRANCH   4   5
ENDBRANCH   3   4
ENDBRANCH   2   3
ENDBRANCH   1   2
BRANCH   1  10
ATOM     10  C   UNL     1      11.400  17.637  37.201  1.00  0.00     0.000 C 
BRANCH  10  11
ATOM     11  C   UNL     1       9.913  17.981  37.026  1.00  0.00    -0.000 C 
BRANCH  11  12
ATOM     12  C   UNL     1       9.214  16.954  36.125  1.00  0.00    -0.000 C 
BRANCH  12  13
ATOM     13  C   UNL     1       7.989  17.532  35.392  1.00  0.00    -0.000 C 
BRANCH  13  14
ATOM     14  C   UNL     1       8.311  18.291  34.093  1.00  0.00    -0.000 C 
BRANCH  14  15
ATOM     15  C   UNL     1       9.607  17.807  33.422  1.00  0.00    -0.000 C 
BRANCH  15  16
ATOM     16  C   UNL     1       9.977  18.638  32.185  1.00  0.00    -0.003 C 
ATOM     17  C   UNL     1       9.601  17.944  30.876  1.00  0.00     0.004 C 
ENDBRANCH  15  16
ENDBRANCH  14  15
ENDBRANCH  13  14
ENDBRANCH  12  13
ENDBRANCH  11  12
ENDBRANCH  10  11
ENDBRANCH   1  10
TORSDOF 13
ENDMDL
MODEL 7
REMARK VINA RESULT:    -4.695      4.318      7.431
REMARK INTER + INTRA:         -10.044
REMARK INTER:                  -8.810
REMARK INTRA:                  -1.233
REMARK UNBOUND:                -1.780
REMARK SMILES CCCCCCCCCCCCCCC(=O)[O-]
REMARK SMILES IDX 9 1 10 2 11 3 12 4 13 5 14 6 15 7 16 8 17 9 8 10 7 11 6 12
REMARK SMILES IDX 5 13 4 14 3 15 2 16 1 17
REMARK H PARENT
REMARK Flexibility Score: inf
ROOT
ATOM      1  C   UNL     1      10.106  17.069  37.216  1.00  0.00     0.000 C 
ENDROOT
BRANCH   1   2
ATOM      2  C   UNL     1       9.094  16.779  36.092  1.00  0.00     0.000 C 
BRANCH   2   3
ATOM      3  C   UNL     1       8.256  18.011  35.708  1.00  0.00     0.000 C 
BRANCH   3   4
ATOM      4  C   UNL     1       8.217  18.247  34.189  1.00  0.00     0.000 C 
BRANCH   4   5
ATOM      5  C   UNL     1       9.513  17.812  33.488  1.00  0.00     0.006 C 
BRANCH   5   6
ATOM      6  C   UNL     1      10.026  18.914  32.555  1.00  0.00     0.053 C 
BRANCH   6   7
ATOM      7  C   UNL     1       9.464  18.740  31.179  1.00  0.00     0.041 C 
ATOM      8  O   UNL     1       8.558  19.510  30.763  1.00  0.00    -0.550 OA
ATOM      9  O   UNL     1       9.906  17.698  30.374  1.00  0.00    -0.550 OA
ENDBRANCH   6   7
ENDBRANCH   5   6
ENDBRANCH   4   5
ENDBRANCH   3   4
ENDBRANCH   2   3
ENDBRANCH   1   2
BRANCH   1  10
ATOM     10  C   UNL     1      11.065  18.241  36.946  1.00  0.00     0.000 C 
BRANCH  10  11
ATOM     11  C   UNL     1      12.355  17.810  36.232  1.00  0.00    -0.000 C 
BRANCH  11  12
ATOM     12  C   UNL     1      12.989  16.597  36.928  1.00  0.00    -0.000 C 
BRANCH  12  13
ATOM     13  C   UNL     1      13.521  16.921  38.336  1.00  0.00    -0.000 C 
BRANCH  13  14
ATOM     14  C   UNL     1      15.041  17.148  38.417  1.00  0.00    -0.000 C 
BRANCH  14  15
ATOM     15  C   UNL     1      15.853  15.967  37.860  1.00  0.00    -0.000 C 
BRANCH  15  16
ATOM     16  C   UNL     1      16.838  16.394  36.761  1.00  0.00    -0.003 C 
ATOM     17  C   UNL     1      16.653  17.852  36.340  1.00  0.00     0.004 C 
ENDBRANCH  15  16
ENDBRANCH  14  15
ENDBRANCH  13  14
ENDBRANCH  12  13
ENDBRANCH  11  12
ENDBRANCH  10  11
ENDBRANCH   1  10
TORSDOF 13
ENDMDL
MODEL 8
REMARK VINA RESULT:    -4.685      2.880      4.794
REMARK INTER + INTRA:         -10.026
REMARK INTER:                  -8.017
REMARK INTRA:                  -2.009
REMARK UNBOUND:                -1.780
REMARK SMILES CCCCCCCCCCCCCCC(=O)[O-]
REMARK SMILES IDX 9 1 10 2 11 3 12 4 13 5 14 6 15 7 16 8 17 9 8 10 7 11 6 12
REMARK SMILES IDX 5 13 4 14 3 15 2 16 1 17
REMARK H PARENT
REMARK Flexibility Score: inf
ROOT
ATOM      1  C   UNL     1       8.298  18.768  35.499  1.00  0.00     0.000 C 
ENDROOT
BRANCH   1   2
ATOM      2  C   UNL     1       8.746  17.345  35.882  1.00  0.00     0.000 C 
BRANCH   2   3
ATOM      3  C   UNL     1      10.215  17.063  35.522  1.00  0.00     0.000 C 
BRANCH   3   4
ATOM      4  C   UNL     1      11.104  16.888  36.765  1.00  0.00     0.000 C 
BRANCH   4   5
ATOM      5  C   UNL     1      12.397  17.713  36.688  1.00  0.00     0.006 C 
BRANCH   5   6
ATOM      6  C   UNL     1      13.149  17.431  35.384  1.00  0.00     0.053 C 
BRANCH   6   7
ATOM      7  C   UNL     1      14.517  16.897  35.672  1.00  0.00     0.041 C 
ATOM      8  O   UNL     1      15.532  17.453  35.176  1.00  0.00    -0.550 OA
ATOM      9  O   UNL     1      14.668  15.755  36.449  1.00  0.00    -0.550 OA
ENDBRANCH   6   7
ENDBRANCH   5   6
ENDBRANCH   4   5
ENDBRANCH   3   4
ENDBRANCH   2   3
ENDBRANCH   1   2
BRANCH   1  10
ATOM     10  C   UNL     1       9.004  19.903  36.262  1.00  0.00     0.000 C 
BRANCH  10  11
ATOM     11  C   UNL     1       9.503  21.026  35.341  1.00  0.00    -0.000 C 
BRANCH  11  12
ATOM     12  C   UNL     1      10.889  20.693  34.770  1.00  0.00    -0.000 C 
BRANCH  12  13
ATOM     13  C   UNL     1      10.825  20.033  33.381  1.00  0.00    -0.000 C 
BRANCH  13  14
ATOM     14  C   UNL     1       9.772  20.628  32.429  1.00  0.00    -0.000 C 
BRANCH  14  15
ATOM     15  C   UNL     1       8.740  19.591  31.956  1.00  0.00    -0.000 C 
BRANCH  15  16
ATOM     16  C   UNL     1       9.303  18.162  31.942  1.00  0.00    -0.003 C 
ATOM     17  C   UNL     1       9.811  17.743  30.563  1.00  0.00     0.004 C 
ENDBRANCH  15  16
ENDBRANCH  14  15
ENDBRANCH  13  14
ENDBRANCH  12  13
ENDBRANCH  11  12
ENDBRANCH  10  11
ENDBRANCH   1  10
TORSDOF 13
ENDMDL
MODEL 9
REMARK VINA RESULT:    -4.676      5.396      7.813
REMARK INTER + INTRA:         -10.010
REMARK INTER:                  -8.686
REMARK INTRA:                  -1.325
REMARK UNBOUND:                -1.780
REMARK SMILES CCCCCCCCCCCCCCC(=O)[O-]
REMARK SMILES IDX 9 1 10 2 11 3 12 4 13 5 14 6 15 7 16 8 17 9 8 10 7 11 6 12
REMARK SMILES IDX 5 13 4 14 3 15 2 16 1 17
REMARK H PARENT
REMARK Flexibility Score: inf
ROOT
ATOM      1  C   UNL     1      13.216  17.204  37.861  1.00  0.00     0.000 C 
ENDROOT
BRANCH   1   2
ATOM      2  C   UNL     1      12.613  16.812  36.499  1.00  0.00     0.000 C 
BRANCH   2   3
ATOM      3  C   UNL     1      12.194  18.030  35.657  1.00  0.00     0.000 C 
BRANCH   3   4
ATOM      4  C   UNL     1      10.842  17.824  34.955  1.00  0.00     0.000 C 
BRANCH   4   5
ATOM      5  C   UNL     1       9.827  17.075  35.831  1.00  0.00     0.006 C 
BRANCH   5   6
ATOM      6  C   UNL     1       8.622  17.964  36.154  1.00  0.00     0.053 C 
BRANCH   6   7
ATOM      7  C   UNL     1       8.725  18.503  37.546  1.00  0.00     0.041 C 
ATOM      8  O   UNL     1       7.879  19.335  37.967  1.00  0.00    -0.550 OA
ATOM      9  O   UNL     1       9.783  18.123  38.362  1.00  0.00    -0.550 OA
ENDBRANCH   6   7
ENDBRANCH   5   6
ENDBRANCH   4   5
ENDBRANCH   3   4
ENDBRANCH   2   3
ENDBRANCH   1   2
BRANCH   1  10
ATOM     10  C   UNL     1      14.285  16.239  38.404  1.00  0.00     0.000 C 
BRANCH  10  11
ATOM     11  C   UNL     1      15.702  16.578  37.919  1.00  0.00    -0.000 C 
BRANCH  11  12
ATOM     12  C   UNL     1      15.893  18.097  37.795  1.00  0.00    -0.000 C 
BRANCH  12  13
ATOM     13  C   UNL     1      16.549  18.514  36.466  1.00  0.00    -0.000 C 
BRANCH  13  14
ATOM     14  C   UNL     1      16.406  17.492  35.324  1.00  0.00    -0.000 C 
BRANCH  14  15
ATOM     15  C   UNL     1      17.605  17.498  34.362  1.00  0.00    -0.000 C 
BRANCH  15  16
ATOM     16  C   UNL     1      18.853  16.843  34.972  1.00  0.00    -0.003 C 
ATOM     17  C   UNL     1      20.061  17.780  34.990  1.00  0.00     0.004 C 
ENDBRANCH  15  16
ENDBRANCH  14  15
ENDBRANCH  13  14
ENDBRANCH  12  13
ENDBRANCH  11  12
ENDBRANCH  10  11
ENDBRANCH   1  10
TORSDOF 13
ENDMDL
