MODEL 1
REMARK VINA RESULT:     6.194      0.000      0.000
REMARK INTER + INTRA:           7.260
REMARK INTER:                   7.642
REMARK INTRA:                  -0.383
REMARK UNBOUND:                -0.383
REMARK SMILES Oc1cc(O)c2cc(O)c(-c3cc(O)c(O)c(O)c3)[o+]c2c1
REMARK SMILES IDX 10 1 20 2 21 3 22 4 2 5 3 6 4 7 6 8 7 9 8 10 11 11 12 12
REMARK SMILES IDX 13 13 19 14 15 15 17 16 14 17 16 19 18 21 9 23 1 25 5 27
REMARK H PARENT 14 18 16 20 18 22 9 24 1 26 5 28
REMARK Flexibility Score: inf
ROOT
ATOM      1  C   UNL     1     -21.728 -15.906 -14.410  1.00  0.00     0.402 A 
ATOM      2  O   UNL     1     -22.380 -16.884 -13.787  1.00  0.00    -0.202 OA
ATOM      3  C   UNL     1     -23.681 -17.107 -13.939  1.00  0.00     0.368 A 
ATOM      4  C   UNL     1     -24.278 -18.157 -13.239  1.00  0.00     0.162 A 
ATOM      5  C   UNL     1     -25.643 -18.413 -13.377  1.00  0.00     0.128 A 
ATOM      6  C   UNL     1     -26.420 -17.610 -14.222  1.00  0.00     0.093 A 
ATOM      7  C   UNL     1     -25.845 -16.550 -14.934  1.00  0.00     0.136 A 
ATOM      8  C   UNL     1     -24.456 -16.290 -14.798  1.00  0.00     0.125 A 
ATOM      9  C   UNL     1     -23.793 -15.259 -15.483  1.00  0.00     0.078 A 
ATOM     10  C   UNL     1     -22.421 -15.066 -15.302  1.00  0.00     0.223 A 
ENDROOT
BRANCH   1  11
ATOM     11  C   UNL     1     -20.278 -15.754 -14.150  1.00  0.00     0.091 A 
ATOM     12  C   UNL     1     -19.800 -14.875 -13.164  1.00  0.00     0.068 A 
ATOM     13  C   UNL     1     -18.425 -14.761 -12.916  1.00  0.00     0.162 A 
ATOM     14  C   UNL     1     -19.362 -16.543 -14.862  1.00  0.00     0.068 A 
ATOM     15  C   UNL     1     -17.513 -15.540 -13.650  1.00  0.00     0.200 A 
ATOM     16  C   UNL     1     -17.989 -16.435 -14.624  1.00  0.00     0.162 A 
BRANCH  13  17
ATOM     17  O   UNL     1     -17.961 -13.882 -11.939  1.00  0.00    -0.504 OA
ATOM     18  H   UNL     1     -16.975 -13.807 -11.717  1.00  0.00     0.293 HD
ENDBRANCH  13  17
BRANCH  15  19
ATOM     19  O   UNL     1     -16.141 -15.436 -13.420  1.00  0.00    -0.502 OA
ATOM     20  H   UNL     1     -15.730 -15.626 -12.514  1.00  0.00     0.293 HD
ENDBRANCH  15  19
BRANCH  16  21
ATOM     21  O   UNL     1     -17.110 -17.227 -15.363  1.00  0.00    -0.504 OA
ATOM     22  H   UNL     1     -16.199 -17.496 -15.011  1.00  0.00     0.293 HD
ENDBRANCH  16  21
ENDBRANCH   1  11
BRANCH  10  23
ATOM     23  O   UNL     1     -21.753 -14.074 -16.020  1.00  0.00    -0.500 OA
ATOM     24  H   UNL     1     -20.769 -14.153 -16.249  1.00  0.00     0.294 HD
ENDBRANCH  10  23
BRANCH   5  25
ATOM     25  O   UNL     1     -26.220 -19.465 -12.670  1.00  0.00    -0.507 OA
ATOM     26  H   UNL     1     -25.883 -19.735 -11.752  1.00  0.00     0.293 HD
ENDBRANCH   5  25
BRANCH   7  27
ATOM     27  O   UNL     1     -26.688 -15.795 -15.754  1.00  0.00    -0.507 OA
ATOM     28  H   UNL     1     -27.105 -14.916 -15.486  1.00  0.00     0.293 HD
ENDBRANCH   7  27
TORSDOF 7
ENDMDL
MODEL 2
REMARK VINA RESULT:     6.505      0.241      1.809
REMARK INTER + INTRA:           7.643
REMARK INTER:                   8.021
REMARK INTRA:                  -0.377
REMARK UNBOUND:                -0.383
REMARK SMILES Oc1cc(O)c2cc(O)c(-c3cc(O)c(O)c(O)c3)[o+]c2c1
REMARK SMILES IDX 10 1 20 2 21 3 22 4 2 5 3 6 4 7 6 8 7 9 8 10 11 11 12 12
REMARK SMILES IDX 13 13 19 14 15 15 17 16 14 17 16 19 18 21 9 23 1 25 5 27
REMARK H PARENT 14 18 16 20 18 22 9 24 1 26 5 28
REMARK Flexibility Score: inf
ROOT
ATOM      1  C   UNL     1     -21.715 -16.118 -14.397  1.00  0.00     0.402 A 
ATOM      2  O   UNL     1     -22.383 -17.005 -13.663  1.00  0.00    -0.202 OA
ATOM      3  C   UNL     1     -23.686 -17.231 -13.797  1.00  0.00     0.368 A 
ATOM      4  C   UNL     1     -24.299 -18.181 -12.977  1.00  0.00     0.162 A 
ATOM      5  C   UNL     1     -25.665 -18.437 -13.093  1.00  0.00     0.128 A 
ATOM      6  C   UNL     1     -26.428 -17.737 -14.037  1.00  0.00     0.093 A 
ATOM      7  C   UNL     1     -25.836 -16.779 -14.870  1.00  0.00     0.136 A 
ATOM      8  C   UNL     1     -24.446 -16.519 -14.756  1.00  0.00     0.125 A 
ATOM      9  C   UNL     1     -23.767 -15.587 -15.557  1.00  0.00     0.078 A 
ATOM     10  C   UNL     1     -22.393 -15.388 -15.391  1.00  0.00     0.223 A 
ENDROOT
BRANCH   1  11
ATOM     11  C   UNL     1     -20.266 -15.951 -14.146  1.00  0.00     0.091 A 
ATOM     12  C   UNL     1     -19.308 -16.677 -14.873  1.00  0.00     0.068 A 
ATOM     13  C   UNL     1     -17.940 -16.489 -14.637  1.00  0.00     0.162 A 
ATOM     14  C   UNL     1     -19.834 -15.007 -13.202  1.00  0.00     0.068 A 
ATOM     15  C   UNL     1     -17.516 -15.557 -13.674  1.00  0.00     0.200 A 
ATOM     16  C   UNL     1     -18.470 -14.813 -12.958  1.00  0.00     0.162 A 
BRANCH  13  17
ATOM     17  O   UNL     1     -16.999 -17.220 -15.360  1.00  0.00    -0.504 OA
ATOM     18  H   UNL     1     -16.533 -18.027 -14.961  1.00  0.00     0.293 HD
ENDBRANCH  13  17
BRANCH  15  19
ATOM     19  O   UNL     1     -16.158 -15.360 -13.422  1.00  0.00    -0.502 OA
ATOM     20  H   UNL     1     -15.807 -14.514 -12.990  1.00  0.00     0.293 HD
ENDBRANCH  15  19
BRANCH  16  21
ATOM     21  O   UNL     1     -18.082 -13.875 -12.002  1.00  0.00    -0.504 OA
ATOM     22  H   UNL     1     -18.541 -12.977 -11.908  1.00  0.00     0.293 HD
ENDBRANCH  16  21
ENDBRANCH   1  11
BRANCH  10  23
ATOM     23  O   UNL     1     -21.709 -14.499 -16.220  1.00  0.00    -0.500 OA
ATOM     24  H   UNL     1     -22.156 -13.672 -16.599  1.00  0.00     0.294 HD
ENDBRANCH  10  23
BRANCH   5  25
ATOM     25  O   UNL     1     -26.259 -19.388 -12.267  1.00  0.00    -0.507 OA
ATOM     26  H   UNL     1     -26.581 -20.279 -12.628  1.00  0.00     0.293 HD
ENDBRANCH   5  25
BRANCH   7  27
ATOM     27  O   UNL     1     -26.666 -16.122 -15.783  1.00  0.00    -0.507 OA
ATOM     28  H   UNL     1     -27.493 -15.602 -15.529  1.00  0.00     0.293 HD
ENDBRANCH   7  27
TORSDOF 7
ENDMDL
MODEL 3
REMARK VINA RESULT:     7.519      2.101      6.821
REMARK INTER + INTRA:           8.894
REMARK INTER:                   8.727
REMARK INTRA:                   0.167
REMARK UNBOUND:                -0.383
REMARK SMILES Oc1cc(O)c2cc(O)c(-c3cc(O)c(O)c(O)c3)[o+]c2c1
REMARK SMILES IDX 10 1 20 2 21 3 22 4 2 5 3 6 4 7 6 8 7 9 8 10 11 11 12 12
REMARK SMILES IDX 13 13 19 14 15 15 17 16 14 17 16 19 18 21 9 23 1 25 5 27
REMARK H PARENT 14 18 16 20 18 22 9 24 1 26 5 28
REMARK Flexibility Score: inf
ROOT
ATOM      1  C   UNL     1     -23.586 -16.870 -13.058  1.00  0.00     0.402 A 
ATOM      2  O   UNL     1     -22.371 -16.398 -12.792  1.00  0.00    -0.202 OA
ATOM      3  C   UNL     1     -21.705 -15.591 -13.611  1.00  0.00     0.368 A 
ATOM      4  C   UNL     1     -20.431 -15.150 -13.244  1.00  0.00     0.162 A 
ATOM      5  C   UNL     1     -19.708 -14.304 -14.086  1.00  0.00     0.128 A 
ATOM      6  C   UNL     1     -20.261 -13.896 -15.306  1.00  0.00     0.093 A 
ATOM      7  C   UNL     1     -21.536 -14.325 -15.696  1.00  0.00     0.136 A 
ATOM      8  C   UNL     1     -22.275 -15.182 -14.841  1.00  0.00     0.125 A 
ATOM      9  C   UNL     1     -23.564 -15.651 -15.144  1.00  0.00     0.078 A 
ATOM     10  C   UNL     1     -24.233 -16.490 -14.249  1.00  0.00     0.223 A 
ENDROOT
BRANCH   1  11
ATOM     11  C   UNL     1     -24.220 -17.770 -12.069  1.00  0.00     0.091 A 
ATOM     12  C   UNL     1     -25.138 -18.759 -12.462  1.00  0.00     0.068 A 
ATOM     13  C   UNL     1     -25.711 -19.617 -11.514  1.00  0.00     0.162 A 
ATOM     14  C   UNL     1     -23.858 -17.675 -10.717  1.00  0.00     0.068 A 
ATOM     15  C   UNL     1     -25.359 -19.500 -10.158  1.00  0.00     0.200 A 
ATOM     16  C   UNL     1     -24.426 -18.525  -9.763  1.00  0.00     0.162 A 
BRANCH  13  17
ATOM     17  O   UNL     1     -26.626 -20.590 -11.914  1.00  0.00    -0.504 OA
ATOM     18  H   UNL     1     -27.242 -21.045 -11.249  1.00  0.00     0.293 HD
ENDBRANCH  13  17
BRANCH  15  19
ATOM     19  O   UNL     1     -25.924 -20.342  -9.199  1.00  0.00    -0.502 OA
ATOM     20  H   UNL     1     -25.575 -20.389  -8.250  1.00  0.00     0.293 HD
ENDBRANCH  15  19
BRANCH  16  21
ATOM     21  O   UNL     1     -24.050 -18.389  -8.427  1.00  0.00    -0.504 OA
ATOM     22  H   UNL     1     -23.483 -19.082  -7.952  1.00  0.00     0.293 HD
ENDBRANCH  16  21
ENDBRANCH   1  11
BRANCH  10  23
ATOM     23  O   UNL     1     -25.532 -16.915 -14.526  1.00  0.00    -0.500 OA
ATOM     24  H   UNL     1     -25.965 -16.756 -15.429  1.00  0.00     0.294 HD
ENDBRANCH  10  23
BRANCH   5  25
ATOM     25  O   UNL     1     -18.439 -13.875 -13.703  1.00  0.00    -0.507 OA
ATOM     26  H   UNL     1     -18.010 -14.192 -12.841  1.00  0.00     0.293 HD
ENDBRANCH   5  25
BRANCH   7  27
ATOM     27  O   UNL     1     -22.015 -13.875 -16.929  1.00  0.00    -0.507 OA
ATOM     28  H   UNL     1     -22.873 -13.358 -17.053  1.00  0.00     0.293 HD
ENDBRANCH   7  27
TORSDOF 7
ENDMDL
MODEL 4
REMARK VINA RESULT:     7.800      3.365      5.635
REMARK INTER + INTRA:           9.241
REMARK INTER:                   8.836
REMARK INTRA:                   0.405
REMARK UNBOUND:                -0.383
REMARK SMILES Oc1cc(O)c2cc(O)c(-c3cc(O)c(O)c(O)c3)[o+]c2c1
REMARK SMILES IDX 10 1 20 2 21 3 22 4 2 5 3 6 4 7 6 8 7 9 8 10 11 11 12 12
REMARK SMILES IDX 13 13 19 14 15 15 17 16 14 17 16 19 18 21 9 23 1 25 5 27
REMARK H PARENT 14 18 16 20 18 22 9 24 1 26 5 28
REMARK Flexibility Score: inf
ROOT
ATOM      1  C   UNL     1     -24.382 -17.236 -13.636  1.00  0.00     0.402 A 
ATOM      2  O   UNL     1     -23.450 -17.291 -12.687  1.00  0.00    -0.202 OA
ATOM      3  C   UNL     1     -23.599 -17.973 -11.556  1.00  0.00     0.368 A 
ATOM      4  C   UNL     1     -22.564 -17.968 -10.617  1.00  0.00     0.162 A 
ATOM      5  C   UNL     1     -22.694 -18.672  -9.421  1.00  0.00     0.128 A 
ATOM      6  C   UNL     1     -23.869 -19.388  -9.157  1.00  0.00     0.093 A 
ATOM      7  C   UNL     1     -24.921 -19.407 -10.081  1.00  0.00     0.136 A 
ATOM      8  C   UNL     1     -24.790 -18.694 -11.301  1.00  0.00     0.125 A 
ATOM      9  C   UNL     1     -25.786 -18.668 -12.291  1.00  0.00     0.078 A 
ATOM     10  C   UNL     1     -25.585 -17.947 -13.471  1.00  0.00     0.223 A 
ENDROOT
BRANCH   1  11
ATOM     11  C   UNL     1     -24.100 -16.433 -14.847  1.00  0.00     0.091 A 
ATOM     12  C   UNL     1     -23.033 -15.520 -14.889  1.00  0.00     0.068 A 
ATOM     13  C   UNL     1     -22.769 -14.785 -16.053  1.00  0.00     0.162 A 
ATOM     14  C   UNL     1     -24.878 -16.626 -15.999  1.00  0.00     0.068 A 
ATOM     15  C   UNL     1     -23.567 -14.969 -17.195  1.00  0.00     0.200 A 
ATOM     16  C   UNL     1     -24.623 -15.896 -17.165  1.00  0.00     0.162 A 
BRANCH  13  17
ATOM     17  O   UNL     1     -21.711 -13.877 -16.081  1.00  0.00    -0.504 OA
ATOM     18  H   UNL     1     -20.788 -14.148 -16.400  1.00  0.00     0.293 HD
ENDBRANCH  13  17
BRANCH  15  19
ATOM     19  O   UNL     1     -23.321 -14.243 -18.361  1.00  0.00    -0.502 OA
ATOM     20  H   UNL     1     -22.906 -13.319 -18.344  1.00  0.00     0.293 HD
ENDBRANCH  15  19
BRANCH  16  21
ATOM     21  O   UNL     1     -25.428 -16.107 -18.284  1.00  0.00    -0.504 OA
ATOM     22  H   UNL     1     -25.491 -17.009 -18.741  1.00  0.00     0.293 HD
ENDBRANCH  16  21
ENDBRANCH   1  11
BRANCH  10  23
ATOM     23  O   UNL     1     -26.553 -17.962 -14.475  1.00  0.00    -0.500 OA
ATOM     24  H   UNL     1     -27.501 -17.647 -14.306  1.00  0.00     0.294 HD
ENDBRANCH  10  23
BRANCH   5  25
ATOM     25  O   UNL     1     -21.652 -18.656  -8.497  1.00  0.00    -0.507 OA
ATOM     26  H   UNL     1     -20.856 -18.037  -8.607  1.00  0.00     0.293 HD
ENDBRANCH   5  25
BRANCH   7  27
ATOM     27  O   UNL     1     -26.061 -20.141  -9.742  1.00  0.00    -0.507 OA
ATOM     28  H   UNL     1     -26.980 -19.975 -10.123  1.00  0.00     0.293 HD
ENDBRANCH   7  27
TORSDOF 7
ENDMDL
MODEL 5
REMARK VINA RESULT:     7.839      1.231      7.117
REMARK INTER + INTRA:           9.290
REMARK INTER:                   9.674
REMARK INTRA:                  -0.384
REMARK UNBOUND:                -0.383
REMARK SMILES Oc1cc(O)c2cc(O)c(-c3cc(O)c(O)c(O)c3)[o+]c2c1
REMARK SMILES IDX 10 1 20 2 21 3 22 4 2 5 3 6 4 7 6 8 7 9 8 10 11 11 12 12
REMARK SMILES IDX 13 13 19 14 15 15 17 16 14 17 16 19 18 21 9 23 1 25 5 27
REMARK H PARENT 14 18 16 20 18 22 9 24 1 26 5 28
REMARK Flexibility Score: inf
ROOT
ATOM      1  C   UNL     1     -21.743 -15.941 -13.937  1.00  0.00     0.402 A 
ATOM      2  O   UNL     1     -20.765 -16.679 -14.456  1.00  0.00    -0.202 OA
ATOM      3  C   UNL     1     -19.476 -16.393 -14.306  1.00  0.00     0.368 A 
ATOM      4  C   UNL     1     -18.521 -17.226 -14.894  1.00  0.00     0.162 A 
ATOM      5  C   UNL     1     -17.161 -16.949 -14.756  1.00  0.00     0.128 A 
ATOM      6  C   UNL     1     -16.750 -15.827 -14.026  1.00  0.00     0.093 A 
ATOM      7  C   UNL     1     -17.688 -14.975 -13.429  1.00  0.00     0.136 A 
ATOM      8  C   UNL     1     -19.072 -15.257 -13.564  1.00  0.00     0.125 A 
ATOM      9  C   UNL     1     -20.080 -14.467 -12.990  1.00  0.00     0.078 A 
ATOM     10  C   UNL     1     -21.424 -14.810 -13.163  1.00  0.00     0.223 A 
ENDROOT
BRANCH   1  11
ATOM     11  C   UNL     1     -23.142 -16.359 -14.182  1.00  0.00     0.091 A 
ATOM     12  C   UNL     1     -23.875 -15.858 -15.271  1.00  0.00     0.068 A 
ATOM     13  C   UNL     1     -25.191 -16.283 -15.500  1.00  0.00     0.162 A 
ATOM     14  C   UNL     1     -23.733 -17.318 -13.345  1.00  0.00     0.068 A 
ATOM     15  C   UNL     1     -25.783 -17.227 -14.644  1.00  0.00     0.200 A 
ATOM     16  C   UNL     1     -25.046 -17.746 -13.565  1.00  0.00     0.162 A 
BRANCH  13  17
ATOM     17  O   UNL     1     -25.911 -15.775 -16.580  1.00  0.00    -0.504 OA
ATOM     18  H   UNL     1     -26.592 -15.033 -16.462  1.00  0.00     0.293 HD
ENDBRANCH  13  17
BRANCH  15  19
ATOM     19  O   UNL     1     -27.093 -17.658 -14.854  1.00  0.00    -0.502 OA
ATOM     20  H   UNL     1     -27.822 -17.032 -15.175  1.00  0.00     0.293 HD
ENDBRANCH  15  19
BRANCH  16  21
ATOM     21  O   UNL     1     -25.602 -18.690 -12.702  1.00  0.00    -0.504 OA
ATOM     22  H   UNL     1     -26.556 -18.621 -12.368  1.00  0.00     0.293 HD
ENDBRANCH  16  21
ENDBRANCH   1  11
BRANCH  10  23
ATOM     23  O   UNL     1     -22.424 -14.054 -12.551  1.00  0.00    -0.500 OA
ATOM     24  H   UNL     1     -22.805 -14.306 -11.646  1.00  0.00     0.294 HD
ENDBRANCH  10  23
BRANCH   5  25
ATOM     25  O   UNL     1     -16.225 -17.792 -15.348  1.00  0.00    -0.507 OA
ATOM     26  H   UNL     1     -16.476 -18.413 -16.110  1.00  0.00     0.293 HD
ENDBRANCH   5  25
BRANCH   7  27
ATOM     27  O   UNL     1     -17.196 -13.875 -12.720  1.00  0.00    -0.507 OA
ATOM     28  H   UNL     1     -17.473 -13.633 -11.780  1.00  0.00     0.293 HD
ENDBRANCH   7  27
TORSDOF 7
ENDMDL
