MODEL 1
REMARK VINA RESULT:    -4.585      0.000      0.000
REMARK INTER + INTRA:          -6.458
REMARK INTER:                  -5.926
REMARK INTRA:                  -0.533
REMARK UNBOUND:                -0.533
REMARK SMILES C=CC(=O)CCCCC
REMARK SMILES IDX 6 1 7 2 8 3 9 4 5 5 3 6 4 7 2 8 1 9
REMARK H PARENT
REMARK Flexibility Score: inf
ROOT
ATOM      1  C   UNL     1       8.020  33.242  27.812  1.00  0.00     0.008 C 
ENDROOT
BRANCH   1   2
ATOM      2  C   UNL     1       9.338  33.192  28.600  1.00  0.00     0.000 C 
BRANCH   2   3
ATOM      3  C   UNL     1      10.123  31.894  28.358  1.00  0.00    -0.003 C 
ATOM      4  C   UNL     1      10.122  31.519  26.879  1.00  0.00     0.004 C 
ENDBRANCH   2   3
ENDBRANCH   1   2
BRANCH   1   5
ATOM      5  C   UNL     1       6.863  32.558  28.553  1.00  0.00     0.080 C 
BRANCH   5   6
ATOM      6  C   UNL     1       6.315  31.423  27.739  1.00  0.00     0.155 C 
ATOM      7  O   UNL     1       5.825  31.659  26.601  1.00  0.00    -0.295 OA
BRANCH   6   8
ATOM      8  C   UNL     1       6.394  30.041  28.251  1.00  0.00     0.039 C 
ATOM      9  C   UNL     1       7.516  29.325  28.205  1.00  0.00     0.012 C 
ENDBRANCH   6   8
ENDBRANCH   5   6
ENDBRANCH   1   5
TORSDOF 5
ENDMDL
MODEL 2
REMARK VINA RESULT:    -4.396     16.065     17.175
REMARK INTER + INTRA:          -6.213
REMARK INTER:                  -5.888
REMARK INTRA:                  -0.325
REMARK UNBOUND:                -0.533
REMARK SMILES C=CC(=O)CCCCC
REMARK SMILES IDX 6 1 7 2 8 3 9 4 5 5 3 6 4 7 2 8 1 9
REMARK H PARENT
REMARK Flexibility Score: inf
ROOT
ATOM      1  C   UNL     1      -8.456  31.030  21.658  1.00  0.00     0.008 C 
ENDROOT
BRANCH   1   2
ATOM      2  C   UNL     1      -7.351  30.940  22.723  1.00  0.00     0.000 C 
BRANCH   2   3
ATOM      3  C   UNL     1      -7.074  29.496  23.168  1.00  0.00    -0.003 C 
ATOM      4  C   UNL     1      -8.220  28.570  22.770  1.00  0.00     0.004 C 
ENDBRANCH   2   3
ENDBRANCH   1   2
BRANCH   1   5
ATOM      5  C   UNL     1      -9.032  32.445  21.524  1.00  0.00     0.080 C 
BRANCH   5   6
ATOM      6  C   UNL     1      -8.005  33.379  20.954  1.00  0.00     0.155 C 
ATOM      7  O   UNL     1      -7.418  33.072  19.882  1.00  0.00    -0.295 OA
BRANCH   6   8
ATOM      8  C   UNL     1      -7.723  34.664  21.623  1.00  0.00     0.039 C 
ATOM      9  C   UNL     1      -7.670  34.784  22.948  1.00  0.00     0.012 C 
ENDBRANCH   6   8
ENDBRANCH   5   6
ENDBRANCH   1   5
TORSDOF 5
ENDMDL
MODEL 3
REMARK VINA RESULT:    -4.367     15.788     17.167
REMARK INTER + INTRA:          -6.176
REMARK INTER:                  -5.848
REMARK INTRA:                  -0.329
REMARK UNBOUND:                -0.533
REMARK SMILES C=CC(=O)CCCCC
REMARK SMILES IDX 6 1 7 2 8 3 9 4 5 5 3 6 4 7 2 8 1 9
REMARK H PARENT
REMARK Flexibility Score: inf
ROOT
ATOM      1  C   UNL     1      -8.925  32.857  21.714  1.00  0.00     0.008 C 
ENDROOT
BRANCH   1   2
ATOM      2  C   UNL     1      -7.942  33.791  20.990  1.00  0.00     0.000 C 
BRANCH   2   3
ATOM      3  C   UNL     1      -7.534  34.998  21.847  1.00  0.00    -0.003 C 
ATOM      4  C   UNL     1      -7.530  34.643  23.331  1.00  0.00     0.004 C 
ENDBRANCH   2   3
ENDBRANCH   1   2
BRANCH   1   5
ATOM      5  C   UNL     1      -9.115  31.520  20.985  1.00  0.00     0.080 C 
BRANCH   5   6
ATOM      6  C   UNL     1      -8.584  30.389  21.815  1.00  0.00     0.155 C 
ATOM      7  O   UNL     1      -8.958  29.211  21.565  1.00  0.00    -0.295 OA
BRANCH   6   8
ATOM      8  C   UNL     1      -7.599  30.654  22.882  1.00  0.00     0.039 C 
ATOM      9  C   UNL     1      -6.691  29.755  23.256  1.00  0.00     0.012 C 
ENDBRANCH   6   8
ENDBRANCH   5   6
ENDBRANCH   1   5
TORSDOF 5
ENDMDL
MODEL 4
REMARK VINA RESULT:    -4.336     16.375     17.249
REMARK INTER + INTRA:          -6.136
REMARK INTER:                  -5.777
REMARK INTRA:                  -0.359
REMARK UNBOUND:                -0.533
REMARK SMILES C=CC(=O)CCCCC
REMARK SMILES IDX 6 1 7 2 8 3 9 4 5 5 3 6 4 7 2 8 1 9
REMARK H PARENT
REMARK Flexibility Score: inf
ROOT
ATOM      1  C   UNL     1      -7.864  31.317  23.437  1.00  0.00     0.008 C 
ENDROOT
BRANCH   1   2
ATOM      2  C   UNL     1      -7.395  30.138  22.569  1.00  0.00     0.000 C 
BRANCH   2   3
ATOM      3  C   UNL     1      -8.564  29.312  22.012  1.00  0.00    -0.003 C 
ATOM      4  C   UNL     1      -8.523  27.879  22.536  1.00  0.00     0.004 C 
ENDBRANCH   2   3
ENDBRANCH   1   2
BRANCH   1   5
ATOM      5  C   UNL     1      -8.818  32.258  22.689  1.00  0.00     0.080 C 
BRANCH   5   6
ATOM      6  C   UNL     1      -8.134  33.556  22.373  1.00  0.00     0.155 C 
ATOM      7  O   UNL     1      -7.814  34.331  23.315  1.00  0.00    -0.295 OA
BRANCH   6   8
ATOM      8  C   UNL     1      -7.800  33.895  20.976  1.00  0.00     0.039 C 
ATOM      9  C   UNL     1      -7.512  32.967  20.065  1.00  0.00     0.012 C 
ENDBRANCH   6   8
ENDBRANCH   5   6
ENDBRANCH   1   5
TORSDOF 5
ENDMDL
MODEL 5
REMARK VINA RESULT:    -4.281     16.400     17.136
REMARK INTER + INTRA:          -6.065
REMARK INTER:                  -5.456
REMARK INTRA:                  -0.609
REMARK UNBOUND:                -0.533
REMARK SMILES C=CC(=O)CCCCC
REMARK SMILES IDX 6 1 7 2 8 3 9 4 5 5 3 6 4 7 2 8 1 9
REMARK H PARENT
REMARK Flexibility Score: inf
ROOT
ATOM      1  C   UNL     1      -7.871  34.819  21.699  1.00  0.00     0.008 C 
ENDROOT
BRANCH   1   2
ATOM      2  C   UNL     1      -7.305  34.629  23.115  1.00  0.00     0.000 C 
BRANCH   2   3
ATOM      3  C   UNL     1      -8.327  34.964  24.211  1.00  0.00    -0.003 C 
ATOM      4  C   UNL     1      -8.638  33.739  25.065  1.00  0.00     0.004 C 
ENDBRANCH   2   3
ENDBRANCH   1   2
BRANCH   1   5
ATOM      5  C   UNL     1      -7.779  33.544  20.850  1.00  0.00     0.080 C 
BRANCH   5   6
ATOM      6  C   UNL     1      -8.620  32.454  21.447  1.00  0.00     0.155 C 
ATOM      7  O   UNL     1      -9.850  32.656  21.637  1.00  0.00    -0.295 OA
BRANCH   6   8
ATOM      8  C   UNL     1      -8.017  31.145  21.763  1.00  0.00     0.039 C 
ATOM      9  C   UNL     1      -7.416  30.897  22.925  1.00  0.00     0.012 C 
ENDBRANCH   6   8
ENDBRANCH   5   6
ENDBRANCH   1   5
TORSDOF 5
ENDMDL
MODEL 6
REMARK VINA RESULT:    -4.189     16.354     16.928
REMARK INTER + INTRA:          -5.946
REMARK INTER:                  -5.663
REMARK INTRA:                  -0.282
REMARK UNBOUND:                -0.533
REMARK SMILES C=CC(=O)CCCCC
REMARK SMILES IDX 6 1 7 2 8 3 9 4 5 5 3 6 4 7 2 8 1 9
REMARK H PARENT
REMARK Flexibility Score: inf
ROOT
ATOM      1  C   UNL     1      -8.827  32.191  22.786  1.00  0.00     0.008 C 
ENDROOT
BRANCH   1   2
ATOM      2  C   UNL     1      -7.858  33.370  22.602  1.00  0.00     0.000 C 
BRANCH   2   3
ATOM      3  C   UNL     1      -7.913  33.965  21.187  1.00  0.00    -0.003 C 
ATOM      4  C   UNL     1      -7.457  32.948  20.145  1.00  0.00     0.004 C 
ENDBRANCH   2   3
ENDBRANCH   1   2
BRANCH   1   5
ATOM      5  C   UNL     1      -8.295  31.138  23.767  1.00  0.00     0.080 C 
BRANCH   5   6
ATOM      6  C   UNL     1      -7.661  30.000  23.023  1.00  0.00     0.155 C 
ATOM      7  O   UNL     1      -6.427  29.783  23.160  1.00  0.00    -0.295 OA
BRANCH   6   8
ATOM      8  C   UNL     1      -8.489  29.118  22.178  1.00  0.00     0.039 C 
ATOM      9  C   UNL     1      -8.807  27.876  22.537  1.00  0.00     0.012 C 
ENDBRANCH   6   8
ENDBRANCH   5   6
ENDBRANCH   1   5
TORSDOF 5
ENDMDL
MODEL 7
REMARK VINA RESULT:    -4.153      1.404      2.527
REMARK INTER + INTRA:          -5.900
REMARK INTER:                  -5.462
REMARK INTRA:                  -0.438
REMARK UNBOUND:                -0.533
REMARK SMILES C=CC(=O)CCCCC
REMARK SMILES IDX 6 1 7 2 8 3 9 4 5 5 3 6 4 7 2 8 1 9
REMARK H PARENT
REMARK Flexibility Score: inf
ROOT
ATOM      1  C   UNL     1       9.200  30.647  27.622  1.00  0.00     0.008 C 
ENDROOT
BRANCH   1   2
ATOM      2  C   UNL     1      10.032  31.797  28.209  1.00  0.00     0.000 C 
BRANCH   2   3
ATOM      3  C   UNL     1       9.386  33.172  27.980  1.00  0.00    -0.003 C 
ATOM      4  C   UNL     1       8.445  33.535  29.125  1.00  0.00     0.004 C 
ENDBRANCH   2   3
ENDBRANCH   1   2
BRANCH   1   5
ATOM      5  C   UNL     1       8.201  30.066  28.632  1.00  0.00     0.080 C 
BRANCH   5   6
ATOM      6  C   UNL     1       6.829  29.988  28.028  1.00  0.00     0.155 C 
ATOM      7  O   UNL     1       6.378  28.869  27.661  1.00  0.00    -0.295 OA
BRANCH   6   8
ATOM      8  C   UNL     1       6.003  31.206  27.910  1.00  0.00     0.039 C 
ATOM      9  C   UNL     1       5.910  31.899  26.777  1.00  0.00     0.012 C 
ENDBRANCH   6   8
ENDBRANCH   5   6
ENDBRANCH   1   5
TORSDOF 5
ENDMDL
MODEL 8
REMARK VINA RESULT:    -4.129     15.969     16.826
REMARK INTER + INTRA:          -5.869
REMARK INTER:                  -5.353
REMARK INTRA:                  -0.515
REMARK UNBOUND:                -0.533
REMARK SMILES C=CC(=O)CCCCC
REMARK SMILES IDX 6 1 7 2 8 3 9 4 5 5 3 6 4 7 2 8 1 9
REMARK H PARENT
REMARK Flexibility Score: inf
ROOT
ATOM      1  C   UNL     1      -7.829  34.012  23.568  1.00  0.00     0.008 C 
ENDROOT
BRANCH   1   2
ATOM      2  C   UNL     1      -7.804  34.566  22.135  1.00  0.00     0.000 C 
BRANCH   2   3
ATOM      3  C   UNL     1      -8.424  33.599  21.116  1.00  0.00    -0.003 C 
ATOM      4  C   UNL     1      -7.401  33.179  20.064  1.00  0.00     0.004 C 
ENDBRANCH   2   3
ENDBRANCH   1   2
BRANCH   1   5
ATOM      5  C   UNL     1      -8.989  33.036  23.803  1.00  0.00     0.080 C 
BRANCH   5   6
ATOM      6  C   UNL     1      -8.472  31.713  24.286  1.00  0.00     0.155 C 
ATOM      7  O   UNL     1      -8.262  31.544  25.518  1.00  0.00    -0.295 OA
BRANCH   6   8
ATOM      8  C   UNL     1      -8.258  30.610  23.330  1.00  0.00     0.039 C 
ATOM      9  C   UNL     1      -7.050  30.280  22.878  1.00  0.00     0.012 C 
ENDBRANCH   6   8
ENDBRANCH   5   6
ENDBRANCH   1   5
TORSDOF 5
ENDMDL
MODEL 9
REMARK VINA RESULT:    -4.043     15.713     17.141
REMARK INTER + INTRA:          -5.758
REMARK INTER:                  -5.425
REMARK INTRA:                  -0.332
REMARK UNBOUND:                -0.533
REMARK SMILES C=CC(=O)CCCCC
REMARK SMILES IDX 6 1 7 2 8 3 9 4 5 5 3 6 4 7 2 8 1 9
REMARK H PARENT
REMARK Flexibility Score: inf
ROOT
ATOM      1  C   UNL     1      -8.196  31.447  21.599  1.00  0.00     0.008 C 
ENDROOT
BRANCH   1   2
ATOM      2  C   UNL     1      -8.770  30.026  21.702  1.00  0.00     0.000 C 
BRANCH   2   3
ATOM      3  C   UNL     1      -8.221  29.252  22.911  1.00  0.00    -0.003 C 
ATOM      4  C   UNL     1      -6.763  29.612  23.177  1.00  0.00     0.004 C 
ENDBRANCH   2   3
ENDBRANCH   1   2
BRANCH   1   5
ATOM      5  C   UNL     1      -9.089  32.495  22.277  1.00  0.00     0.080 C 
BRANCH   5   6
ATOM      6  C   UNL     1      -8.339  33.197  23.371  1.00  0.00     0.155 C 
ATOM      7  O   UNL     1      -8.168  32.613  24.475  1.00  0.00    -0.295 OA
BRANCH   6   8
ATOM      8  C   UNL     1      -7.769  34.537  23.134  1.00  0.00     0.039 C 
ATOM      9  C   UNL     1      -7.567  35.022  21.911  1.00  0.00     0.012 C 
ENDBRANCH   6   8
ENDBRANCH   5   6
ENDBRANCH   1   5
TORSDOF 5
ENDMDL
