MODEL 1
REMARK VINA RESULT:    -4.165      0.000      0.000
REMARK INTER + INTRA:          -5.834
REMARK INTER:                  -6.356
REMARK INTRA:                   0.522
REMARK UNBOUND:                 0.522
REMARK SMILES CC1=CCC[C@@H](C)C(=O)C[C@@H](C(C)C)C(=O)C1
REMARK SMILES IDX 8 1 9 2 6 3 7 4 5 5 4 6 3 7 2 8 1 9 10 11 11 12 15 13 16 14
REMARK SMILES IDX 17 15 12 17 13 18 14 19
REMARK H PARENT
REMARK Flexibility Score: 70.00
ROOT
ATOM      1  C   UNL     1      19.482 204.109  14.200  1.00  0.00     0.136 C 
ATOM      2  O   UNL     1      19.371 203.073  13.560  1.00  0.00    -0.299 OA
ENDROOT
BRANCH   1   3
ATOM      3  C   UNL     1      20.209 204.061  15.532  1.00  0.00     0.053 C 
ATOM      4  C   UNL     1      20.850 202.685  15.759  1.00  0.00     0.016 C 
BRANCH   3   5
ATOM      5  C   UNL     1      19.236 204.423  16.680  1.00  0.00     0.015 C 
BRANCH   5   6
ATOM      6  C   UNL     1      18.860 205.922  16.697  1.00  0.00     0.028 C 
BRANCH   6   7
ATOM      7  C   UNL     1      20.016 206.790  17.138  1.00  0.00    -0.028 C 
ATOM      8  C   UNL     1      20.623 207.729  16.375  1.00  0.00    -0.070 CG0
ATOM      9  C   UNL     1      21.746 208.525  16.987  1.00  0.00     0.039 C 
ATOM     10  G   UNL     1      20.220 208.025  14.940  1.00  0.00     0.000 G0
ENDBRANCH   6   7
ENDBRANCH   5   6
ENDBRANCH   3   5
ENDBRANCH   1   3
BRANCH   1  11
ATOM     11  C   UNL     1      18.849 205.363  13.618  1.00  0.00     0.087 C 
BRANCH  11  12
ATOM     12  C   UNL     1      19.803 206.385  12.935  1.00  0.00     0.066 C 
BRANCH  12  13
ATOM     13  C   UNL     1      20.750 207.028  13.937  1.00  0.00     0.140 C 
ATOM     14  O   UNL     1      21.919 206.670  13.985  1.00  0.00    -0.299 OA
BRANCH  13  15
ATOM     15  C   UNL     1      20.237 208.043  14.933  1.00  0.00     0.106 CG0
ATOM     16  G   UNL     1      20.620 207.706  16.365  1.00  0.00     0.000 G0
ENDBRANCH  13  15
ENDBRANCH  12  13
BRANCH  12  17
ATOM     17  C   UNL     1      19.054 207.481  12.112  1.00  0.00    -0.006 C 
ATOM     18  C   UNL     1      18.116 206.927  11.024  1.00  0.00     0.008 C 
ATOM     19  C   UNL     1      20.029 208.495  11.491  1.00  0.00     0.008 C 
ENDBRANCH  12  17
ENDBRANCH  11  12
ENDBRANCH   1  11
TORSDOF 1
ENDMDL
MODEL 2
REMARK VINA RESULT:    -4.059      1.677      1.955
REMARK INTER + INTRA:          -5.672
REMARK INTER:                  -5.645
REMARK INTRA:                  -0.028
REMARK UNBOUND:                 0.522
REMARK SMILES CC1=CCC[C@@H](C)C(=O)C[C@@H](C(C)C)C(=O)C1
REMARK SMILES IDX 8 1 9 2 6 3 7 4 5 5 4 6 3 7 2 8 1 9 10 11 11 12 15 13 16 14
REMARK SMILES IDX 17 15 12 17 13 18 14 19
REMARK H PARENT
REMARK Flexibility Score: 70.00
ROOT
ATOM      1  C   UNL     1      19.149 205.267  13.698  1.00  0.00     0.136 C 
ATOM      2  O   UNL     1      18.307 204.880  12.900  1.00  0.00    -0.299 OA
ENDROOT
BRANCH   1   3
ATOM      3  C   UNL     1      19.836 204.238  14.580  1.00  0.00     0.053 C 
ATOM      4  C   UNL     1      18.982 202.969  14.710  1.00  0.00     0.016 C 
BRANCH   3   5
ATOM      5  C   UNL     1      20.144 204.852  15.967  1.00  0.00     0.015 C 
BRANCH   5   6
ATOM      6  C   UNL     1      21.657 205.058  16.208  1.00  0.00     0.028 C 
BRANCH   6   7
ATOM      7  C   UNL     1      22.002 206.512  16.431  1.00  0.00    -0.028 C 
ATOM      8  C   UNL     1      22.349 207.391  15.461  1.00  0.00    -0.070 CG0
ATOM      9  C   UNL     1      22.634 208.815  15.861  1.00  0.00     0.039 C 
ATOM     10  G   UNL     1      22.454 207.012  13.993  1.00  0.00     0.000 G0
ENDBRANCH   6   7
ENDBRANCH   5   6
ENDBRANCH   3   5
ENDBRANCH   1   3
BRANCH   1  11
ATOM     11  C   UNL     1      19.418 206.762  13.764  1.00  0.00     0.087 C 
BRANCH  11  12
ATOM     12  C   UNL     1      20.248 207.382  12.604  1.00  0.00     0.066 C 
BRANCH  12  13
ATOM     13  C   UNL     1      21.599 207.891  13.086  1.00  0.00     0.140 C 
ATOM     14  O   UNL     1      22.017 208.971  12.693  1.00  0.00    -0.299 OA
BRANCH  13  15
ATOM     15  C   UNL     1      22.466 207.032  13.978  1.00  0.00     0.106 CG0
ATOM     16  G   UNL     1      22.338 207.395  15.448  1.00  0.00     0.000 G0
ENDBRANCH  13  15
ENDBRANCH  12  13
BRANCH  12  17
ATOM     17  C   UNL     1      19.490 208.506  11.827  1.00  0.00    -0.006 C 
ATOM     18  C   UNL     1      18.112 208.864  12.415  1.00  0.00     0.008 C 
ATOM     19  C   UNL     1      19.347 208.172  10.333  1.00  0.00     0.008 C 
ENDBRANCH  12  17
ENDBRANCH  11  12
ENDBRANCH   1  11
TORSDOF 1
ENDMDL
MODEL 3
REMARK VINA RESULT:    -4.011      1.711      4.688
REMARK INTER + INTRA:          -5.598
REMARK INTER:                  -5.366
REMARK INTRA:                  -0.233
REMARK UNBOUND:                 0.522
REMARK SMILES CC1=CCC[C@@H](C)C(=O)C[C@@H](C(C)C)C(=O)C1
REMARK SMILES IDX 8 1 9 2 6 3 7 4 5 5 4 6 3 7 2 8 1 9 10 11 11 12 15 13 16 14
REMARK SMILES IDX 17 15 12 17 13 18 14 19
REMARK H PARENT
REMARK Flexibility Score: 70.00
ROOT
ATOM      1  C   UNL     1      20.166 207.814  16.701  1.00  0.00     0.136 C 
ATOM      2  O   UNL     1      19.485 208.759  16.328  1.00  0.00    -0.299 OA
ENDROOT
BRANCH   1   3
ATOM      3  C   UNL     1      21.575 208.089  17.196  1.00  0.00     0.053 C 
ATOM      4  C   UNL     1      21.561 208.563  18.656  1.00  0.00     0.016 C 
BRANCH   3   5
ATOM      5  C   UNL     1      22.267 209.125  16.276  1.00  0.00     0.015 C 
BRANCH   5   6
ATOM      6  C   UNL     1      22.788 208.504  14.961  1.00  0.00     0.028 C 
BRANCH   6   7
ATOM      7  C   UNL     1      21.865 208.786  13.798  1.00  0.00    -0.028 C 
ATOM      8  C   UNL     1      21.169 207.851  13.109  1.00  0.00    -0.070 CG0
ATOM      9  C   UNL     1      20.272 208.314  11.991  1.00  0.00     0.039 C 
ATOM     10  G   UNL     1      21.242 206.364  13.415  1.00  0.00     0.000 G0
ENDBRANCH   6   7
ENDBRANCH   5   6
ENDBRANCH   3   5
ENDBRANCH   1   3
BRANCH   1  11
ATOM     11  C   UNL     1      19.551 206.426  16.607  1.00  0.00     0.087 C 
BRANCH  11  12
ATOM     12  C   UNL     1      20.237 205.412  15.648  1.00  0.00     0.066 C 
BRANCH  12  13
ATOM     13  C   UNL     1      20.073 205.816  14.190  1.00  0.00     0.140 C 
ATOM     14  O   UNL     1      19.001 205.641  13.628  1.00  0.00    -0.299 OA
BRANCH  13  15
ATOM     15  C   UNL     1      21.250 206.351  13.406  1.00  0.00     0.106 CG0
ATOM     16  G   UNL     1      21.141 207.841  13.128  1.00  0.00     0.000 G0
ENDBRANCH  13  15
ENDBRANCH  12  13
BRANCH  12  17
ATOM     17  C   UNL     1      19.766 203.938  15.860  1.00  0.00    -0.006 C 
ATOM     18  C   UNL     1      18.817 203.741  17.057  1.00  0.00     0.008 C 
ATOM     19  C   UNL     1      20.954 202.968  15.973  1.00  0.00     0.008 C 
ENDBRANCH  12  17
ENDBRANCH  11  12
ENDBRANCH   1  11
TORSDOF 1
ENDMDL
MODEL 4
REMARK VINA RESULT:    -3.915      1.587      4.070
REMARK INTER + INTRA:          -5.453
REMARK INTER:                  -5.975
REMARK INTRA:                   0.523
REMARK UNBOUND:                 0.522
REMARK SMILES CC1=CCC[C@@H](C)C(=O)C[C@@H](C(C)C)C(=O)C1
REMARK SMILES IDX 8 1 9 2 6 3 7 4 5 5 4 6 3 7 2 8 1 9 10 11 11 12 15 13 16 14
REMARK SMILES IDX 17 15 12 17 13 18 14 19
REMARK H PARENT
REMARK Flexibility Score: 70.00
ROOT
ATOM      1  C   UNL     1      19.011 206.186  12.715  1.00  0.00     0.136 C 
ATOM      2  O   UNL     1      18.162 205.447  12.236  1.00  0.00    -0.299 OA
ENDROOT
BRANCH   1   3
ATOM      3  C   UNL     1      19.069 207.627  12.239  1.00  0.00     0.053 C 
ATOM      4  C   UNL     1      18.828 207.714  10.725  1.00  0.00     0.016 C 
BRANCH   3   5
ATOM      5  C   UNL     1      20.427 208.259  12.629  1.00  0.00     0.015 C 
BRANCH   5   6
ATOM      6  C   UNL     1      20.387 208.962  14.005  1.00  0.00     0.028 C 
BRANCH   6   7
ATOM      7  C   UNL     1      21.352 208.340  14.986  1.00  0.00    -0.028 C 
ATOM      8  C   UNL     1      21.013 207.483  15.979  1.00  0.00    -0.070 CG0
ATOM      9  C   UNL     1      22.113 206.936  16.851  1.00  0.00     0.039 C 
ATOM     10  G   UNL     1      19.584 207.042  16.247  1.00  0.00     0.000 G0
ENDBRANCH   6   7
ENDBRANCH   5   6
ENDBRANCH   3   5
ENDBRANCH   1   3
BRANCH   1  11
ATOM     11  C   UNL     1      19.967 205.586  13.735  1.00  0.00     0.087 C 
BRANCH  11  12
ATOM     12  C   UNL     1      19.336 204.777  14.905  1.00  0.00     0.066 C 
BRANCH  12  13
ATOM     13  C   UNL     1      19.418 205.535  16.222  1.00  0.00     0.140 C 
ATOM     14  O   UNL     1      19.280 204.933  17.278  1.00  0.00    -0.299 OA
BRANCH  13  15
ATOM     15  C   UNL     1      19.580 207.038  16.232  1.00  0.00     0.106 CG0
ATOM     16  G   UNL     1      21.013 207.475  15.981  1.00  0.00     0.000 G0
ENDBRANCH  13  15
ENDBRANCH  12  13
BRANCH  12  17
ATOM     17  C   UNL     1      19.934 203.343  15.064  1.00  0.00    -0.006 C 
ATOM     18  C   UNL     1      21.465 203.309  15.228  1.00  0.00     0.008 C 
ATOM     19  C   UNL     1      19.515 202.417  13.910  1.00  0.00     0.008 C 
ENDBRANCH  12  17
ENDBRANCH  11  12
ENDBRANCH   1  11
TORSDOF 1
ENDMDL
MODEL 5
REMARK VINA RESULT:    -3.683      1.816      4.545
REMARK INTER + INTRA:          -5.098
REMARK INTER:                  -5.333
REMARK INTRA:                   0.234
REMARK UNBOUND:                 0.522
REMARK SMILES CC1=CCC[C@@H](C)C(=O)C[C@@H](C(C)C)C(=O)C1
REMARK SMILES IDX 8 1 9 2 6 3 7 4 5 5 4 6 3 7 2 8 1 9 10 11 11 12 15 13 16 14
REMARK SMILES IDX 17 15 12 17 13 18 14 19
REMARK H PARENT
REMARK Flexibility Score: 70.00
ROOT
ATOM      1  C   UNL     1      21.810 206.529  16.194  1.00  0.00     0.136 C 
ATOM      2  O   UNL     1      22.285 205.622  16.862  1.00  0.00    -0.299 OA
ENDROOT
BRANCH   1   3
ATOM      3  C   UNL     1      22.712 207.686  15.799  1.00  0.00     0.053 C 
ATOM      4  C   UNL     1      22.171 209.015  16.343  1.00  0.00     0.016 C 
BRANCH   3   5
ATOM      5  C   UNL     1      22.871 207.731  14.260  1.00  0.00     0.015 C 
BRANCH   5   6
ATOM      6  C   UNL     1      22.480 209.100  13.658  1.00  0.00     0.028 C 
BRANCH   6   7
ATOM      7  C   UNL     1      21.696 208.951  12.375  1.00  0.00    -0.028 C 
ATOM      8  C   UNL     1      20.431 208.474  12.284  1.00  0.00    -0.070 CG0
ATOM      9  C   UNL     1      19.790 208.419  10.922  1.00  0.00     0.039 C 
ATOM     10  G   UNL     1      19.629 208.003  13.486  1.00  0.00     0.000 G0
ENDBRANCH   6   7
ENDBRANCH   5   6
ENDBRANCH   3   5
ENDBRANCH   1   3
BRANCH   1  11
ATOM     11  C   UNL     1      20.334 206.439  15.837  1.00  0.00     0.087 C 
BRANCH  11  12
ATOM     12  C   UNL     1      19.962 205.614  14.572  1.00  0.00     0.066 C 
BRANCH  12  13
ATOM     13  C   UNL     1      19.375 206.493  13.478  1.00  0.00     0.140 C 
ATOM     14  O   UNL     1      18.769 205.981  12.547  1.00  0.00    -0.299 OA
BRANCH  13  15
ATOM     15  C   UNL     1      19.610 207.986  13.487  1.00  0.00     0.106 CG0
ATOM     16  G   UNL     1      20.425 208.459  12.294  1.00  0.00     0.000 G0
ENDBRANCH  13  15
ENDBRANCH  12  13
BRANCH  12  17
ATOM     17  C   UNL     1      19.012 204.410  14.872  1.00  0.00    -0.006 C 
ATOM     18  C   UNL     1      18.608 204.274  16.352  1.00  0.00     0.008 C 
ATOM     19  C   UNL     1      19.597 203.080  14.369  1.00  0.00     0.008 C 
ENDBRANCH  12  17
ENDBRANCH  11  12
ENDBRANCH   1  11
TORSDOF 1
ENDMDL
MODEL 6
REMARK VINA RESULT:    -3.675      1.778      2.450
REMARK INTER + INTRA:          -5.086
REMARK INTER:                  -5.559
REMARK INTRA:                   0.474
REMARK UNBOUND:                 0.522
REMARK SMILES CC1=CCC[C@@H](C)C(=O)C[C@@H](C(C)C)C(=O)C1
REMARK SMILES IDX 8 1 9 2 6 3 7 4 5 5 4 6 3 7 2 8 1 9 10 11 11 12 15 13 16 14
REMARK SMILES IDX 17 15 12 17 13 18 14 19
REMARK H PARENT
REMARK Flexibility Score: 70.00
ROOT
ATOM      1  C   UNL     1      19.090 204.145  14.374  1.00  0.00     0.136 C 
ATOM      2  O   UNL     1      18.567 204.121  15.479  1.00  0.00    -0.299 OA
ENDROOT
BRANCH   1   3
ATOM      3  C   UNL     1      20.067 203.040  14.011  1.00  0.00     0.053 C 
ATOM      4  C   UNL     1      19.324 201.798  13.499  1.00  0.00     0.016 C 
BRANCH   3   5
ATOM      5  C   UNL     1      20.956 202.699  15.231  1.00  0.00     0.015 C 
BRANCH   5   6
ATOM      6  C   UNL     1      21.732 203.923  15.768  1.00  0.00     0.028 C 
BRANCH   6   7
ATOM      7  C   UNL     1      22.494 204.634  14.674  1.00  0.00    -0.028 C 
ATOM      8  C   UNL     1      22.446 205.965  14.427  1.00  0.00    -0.070 CG0
ATOM      9  C   UNL     1      23.295 206.511  13.309  1.00  0.00     0.039 C 
ATOM     10  G   UNL     1      21.589 206.931  15.228  1.00  0.00     0.000 G0
ENDBRANCH   6   7
ENDBRANCH   5   6
ENDBRANCH   3   5
ENDBRANCH   1   3
BRANCH   1  11
ATOM     11  C   UNL     1      18.739 205.308  13.458  1.00  0.00     0.087 C 
BRANCH  11  12
ATOM     12  C   UNL     1      19.757 206.482  13.386  1.00  0.00     0.066 C 
BRANCH  12  13
ATOM     13  C   UNL     1      20.151 206.972  14.771  1.00  0.00     0.140 C 
ATOM     14  O   UNL     1      19.304 207.459  15.507  1.00  0.00    -0.299 OA
BRANCH  13  15
ATOM     15  C   UNL     1      21.597 206.944  15.211  1.00  0.00     0.106 CG0
ATOM     16  G   UNL     1      22.432 205.951  14.419  1.00  0.00     0.000 G0
ENDBRANCH  13  15
ENDBRANCH  12  13
BRANCH  12  17
ATOM     17  C   UNL     1      19.268 207.676  12.504  1.00  0.00    -0.006 C 
ATOM     18  C   UNL     1      18.472 207.258  11.255  1.00  0.00     0.008 C 
ATOM     19  C   UNL     1      20.429 208.599  12.096  1.00  0.00     0.008 C 
ENDBRANCH  12  17
ENDBRANCH  11  12
ENDBRANCH   1  11
TORSDOF 1
ENDMDL
MODEL 7
REMARK VINA RESULT:    -3.541      1.850      4.984
REMARK INTER + INTRA:          -4.882
REMARK INTER:                  -4.773
REMARK INTRA:                  -0.109
REMARK UNBOUND:                 0.522
REMARK SMILES CC1=CCC[C@@H](C)C(=O)C[C@@H](C(C)C)C(=O)C1
REMARK SMILES IDX 8 1 9 2 6 3 7 4 5 5 4 6 3 7 2 8 1 9 10 11 11 12 15 13 16 14
REMARK SMILES IDX 17 15 12 17 13 18 14 19
REMARK H PARENT
REMARK Flexibility Score: 70.00
ROOT
ATOM      1  C   UNL     1      22.881 206.827  13.985  1.00  0.00     0.136 C 
ATOM      2  O   UNL     1      23.661 206.202  13.281  1.00  0.00    -0.299 OA
ENDROOT
BRANCH   1   3
ATOM      3  C   UNL     1      22.920 208.345  13.936  1.00  0.00     0.053 C 
ATOM      4  C   UNL     1      22.333 208.951  15.219  1.00  0.00     0.016 C 
BRANCH   3   5
ATOM      5  C   UNL     1      22.168 208.853  12.681  1.00  0.00     0.015 C 
BRANCH   5   6
ATOM      6  C   UNL     1      20.671 209.125  12.949  1.00  0.00     0.028 C 
BRANCH   6   7
ATOM      7  C   UNL     1      19.776 208.251  12.100  1.00  0.00    -0.028 C 
ATOM      8  C   UNL     1      19.125 207.146  12.534  1.00  0.00    -0.070 CG0
ATOM      9  C   UNL     1      18.250 206.407  11.556  1.00  0.00     0.039 C 
ATOM     10  G   UNL     1      19.227 206.624  13.958  1.00  0.00     0.000 G0
ENDBRANCH   6   7
ENDBRANCH   5   6
ENDBRANCH   3   5
ENDBRANCH   1   3
BRANCH   1  11
ATOM     11  C   UNL     1      21.950 206.027  14.883  1.00  0.00     0.087 C 
BRANCH  11  12
ATOM     12  C   UNL     1      21.169 204.854  14.224  1.00  0.00     0.066 C 
BRANCH  12  13
ATOM     13  C   UNL     1      19.695 205.188  14.049  1.00  0.00     0.140 C 
ATOM     14  O   UNL     1      18.881 204.286  13.901  1.00  0.00    -0.299 OA
BRANCH  13  15
ATOM     15  C   UNL     1      19.239 206.627  13.968  1.00  0.00     0.106 CG0
ATOM     16  G   UNL     1      19.116 207.124  12.537  1.00  0.00     0.000 G0
ENDBRANCH  13  15
ENDBRANCH  12  13
BRANCH  12  17
ATOM     17  C   UNL     1      21.333 203.495  14.977  1.00  0.00    -0.006 C 
ATOM     18  C   UNL     1      21.372 203.622  16.511  1.00  0.00     0.008 C 
ATOM     19  C   UNL     1      22.565 202.715  14.488  1.00  0.00     0.008 C 
ENDBRANCH  12  17
ENDBRANCH  11  12
ENDBRANCH   1  11
TORSDOF 1
ENDMDL
MODEL 8
REMARK VINA RESULT:    -3.449      2.189      4.340
REMARK INTER + INTRA:          -4.741
REMARK INTER:                  -5.141
REMARK INTRA:                   0.400
REMARK UNBOUND:                 0.522
REMARK SMILES CC1=CCC[C@@H](C)C(=O)C[C@@H](C(C)C)C(=O)C1
REMARK SMILES IDX 8 1 9 2 6 3 7 4 5 5 4 6 3 7 2 8 1 9 10 11 11 12 15 13 16 14
REMARK SMILES IDX 17 15 12 17 13 18 14 19
REMARK H PARENT
REMARK Flexibility Score: 70.00
ROOT
ATOM      1  C   UNL     1      22.487 206.668  13.996  1.00  0.00     0.136 C 
ATOM      2  O   UNL     1      23.106 206.175  13.064  1.00  0.00    -0.299 OA
ENDROOT
BRANCH   1   3
ATOM      3  C   UNL     1      22.214 208.161  13.974  1.00  0.00     0.053 C 
ATOM      4  C   UNL     1      22.515 208.754  12.590  1.00  0.00     0.016 C 
BRANCH   3   5
ATOM      5  C   UNL     1      23.038 208.867  15.078  1.00  0.00     0.015 C 
BRANCH   5   6
ATOM      6  C   UNL     1      22.317 208.883  16.446  1.00  0.00     0.028 C 
BRANCH   6   7
ATOM      7  C   UNL     1      20.832 209.121  16.299  1.00  0.00    -0.028 C 
ATOM      8  C   UNL     1      19.866 208.206  16.555  1.00  0.00    -0.070 CG0
ATOM      9  C   UNL     1      18.429 208.623  16.381  1.00  0.00     0.039 C 
ATOM     10  G   UNL     1      20.162 206.789  17.016  1.00  0.00     0.000 G0
ENDBRANCH   6   7
ENDBRANCH   5   6
ENDBRANCH   3   5
ENDBRANCH   1   3
BRANCH   1  11
ATOM     11  C   UNL     1      22.066 205.740  15.126  1.00  0.00     0.087 C 
BRANCH  11  12
ATOM     12  C   UNL     1      20.649 205.106  15.029  1.00  0.00     0.066 C 
BRANCH  12  13
ATOM     13  C   UNL     1      19.684 205.727  16.028  1.00  0.00     0.140 C 
ATOM     14  O   UNL     1      18.498 205.432  15.990  1.00  0.00    -0.299 OA
BRANCH  13  15
ATOM     15  C   UNL     1      20.165 206.772  17.009  1.00  0.00     0.106 CG0
ATOM     16  G   UNL     1      19.872 208.190  16.548  1.00  0.00     0.000 G0
ENDBRANCH  13  15
ENDBRANCH  12  13
BRANCH  12  17
ATOM     17  C   UNL     1      20.653 203.550  15.171  1.00  0.00    -0.006 C 
ATOM     18  C   UNL     1      21.944 202.871  14.679  1.00  0.00     0.008 C 
ATOM     19  C   UNL     1      19.435 202.910  14.484  1.00  0.00     0.008 C 
ENDBRANCH  12  17
ENDBRANCH  11  12
ENDBRANCH   1  11
TORSDOF 1
ENDMDL
MODEL 9
REMARK VINA RESULT:    -3.414      1.711      3.994
REMARK INTER + INTRA:          -4.689
REMARK INTER:                  -5.041
REMARK INTRA:                   0.352
REMARK UNBOUND:                 0.522
REMARK SMILES CC1=CCC[C@@H](C)C(=O)C[C@@H](C(C)C)C(=O)C1
REMARK SMILES IDX 8 1 9 2 6 3 7 4 5 5 4 6 3 7 2 8 1 9 10 11 11 12 15 13 16 14
REMARK SMILES IDX 17 15 12 17 13 18 14 19
REMARK H PARENT
REMARK Flexibility Score: 70.00
ROOT
ATOM      1  C   UNL     1      21.025 204.931  15.625  1.00  0.00     0.136 C 
ATOM      2  O   UNL     1      21.728 203.973  15.338  1.00  0.00    -0.299 OA
ENDROOT
BRANCH   1   3
ATOM      3  C   UNL     1      19.631 204.668  16.167  1.00  0.00     0.053 C 
ATOM      4  C   UNL     1      19.486 203.211  16.628  1.00  0.00     0.016 C 
BRANCH   3   5
ATOM      5  C   UNL     1      18.571 205.026  15.096  1.00  0.00     0.015 C 
BRANCH   5   6
ATOM      6  C   UNL     1      18.998 204.610  13.669  1.00  0.00     0.028 C 
BRANCH   6   7
ATOM      7  C   UNL     1      18.503 205.584  12.625  1.00  0.00    -0.028 C 
ATOM      8  C   UNL     1      19.115 206.743  12.286  1.00  0.00    -0.070 CG0
ATOM      9  C   UNL     1      18.495 207.582  11.199  1.00  0.00     0.039 C 
ATOM     10  G   UNL     1      20.398 207.230  12.940  1.00  0.00     0.000 G0
ENDBRANCH   6   7
ENDBRANCH   5   6
ENDBRANCH   3   5
ENDBRANCH   1   3
BRANCH   1  11
ATOM     11  C   UNL     1      21.599 206.319  15.384  1.00  0.00     0.087 C 
BRANCH  11  12
ATOM     12  C   UNL     1      20.630 207.523  15.553  1.00  0.00     0.066 C 
BRANCH  12  13
ATOM     13  C   UNL     1      20.121 208.029  14.212  1.00  0.00     0.140 C 
ATOM     14  O   UNL     1      19.428 209.037  14.165  1.00  0.00    -0.299 OA
BRANCH  13  15
ATOM     15  C   UNL     1      20.390 207.248  12.946  1.00  0.00     0.106 CG0
ATOM     16  G   UNL     1      19.117 206.755  12.278  1.00  0.00     0.000 G0
ENDBRANCH  13  15
ENDBRANCH  12  13
BRANCH  12  17
ATOM     17  C   UNL     1      21.237 208.699  16.383  1.00  0.00    -0.006 C 
ATOM     18  C   UNL     1      22.757 208.877  16.213  1.00  0.00     0.008 C 
ATOM     19  C   UNL     1      20.892 208.583  17.877  1.00  0.00     0.008 C 
ENDBRANCH  12  17
ENDBRANCH  11  12
ENDBRANCH   1  11
TORSDOF 1
ENDMDL
