MODEL 1
REMARK VINA RESULT:    -6.168      0.000      0.000
REMARK INTER + INTRA:         -18.761
REMARK INTER:                 -15.544
REMARK INTRA:                  -3.218
REMARK UNBOUND:                -3.218
REMARK SMILES CCCCCCCCCCCCCCCCCCCCCCCCCCCC(=O)[O-]
REMARK SMILES IDX 15 1 16 2 17 3 18 4 19 5 20 6 21 7 22 8 23 9 24 10 25 11
REMARK SMILES IDX 26 12 27 13 28 14 29 15 30 16 14 17 13 18 12 19 11 20 10 21
REMARK SMILES IDX 9 22 8 23 7 24 6 25 5 26 4 27 3 28 2 29 1 30
REMARK H PARENT
REMARK Flexibility Score: inf
ROOT
ATOM      1  C   UNL     1      13.604   2.620  15.318  1.00  0.00     0.000 C 
ENDROOT
BRANCH   1   2
ATOM      2  C   UNL     1      15.042   3.076  15.020  1.00  0.00     0.000 C 
BRANCH   2   3
ATOM      3  C   UNL     1      15.374   3.054  13.518  1.00  0.00     0.000 C 
BRANCH   3   4
ATOM      4  C   UNL     1      15.022   1.713  12.855  1.00  0.00     0.000 C 
BRANCH   4   5
ATOM      5  C   UNL     1      15.617   1.578  11.445  1.00  0.00     0.000 C 
BRANCH   5   6
ATOM      6  C   UNL     1      17.004   2.227  11.366  1.00  0.00     0.000 C 
BRANCH   6   7
ATOM      7  C   UNL     1      18.034   1.253  10.778  1.00  0.00     0.000 C 
BRANCH   7   8
ATOM      8  C   UNL     1      17.399   0.181   9.873  1.00  0.00     0.000 C 
BRANCH   8   9
ATOM      9  C   UNL     1      18.064   0.017   8.494  1.00  0.00     0.000 C 
BRANCH   9  10
ATOM     10  C   UNL     1      18.412   1.359   7.832  1.00  0.00     0.000 C 
BRANCH  10  11
ATOM     11  C   UNL     1      19.435   1.169   6.704  1.00  0.00     0.000 C 
BRANCH  11  12
ATOM     12  C   UNL     1      20.370  -0.032   6.933  1.00  0.00     0.006 C 
BRANCH  12  13
ATOM     13  C   UNL     1      21.647  -0.006   6.073  1.00  0.00     0.053 C 
BRANCH  13  14
ATOM     14  C   UNL     1      22.286  -1.356   5.948  1.00  0.00     0.041 C 
ATOM     15  O   UNL     1      23.413  -1.478   5.400  1.00  0.00    -0.550 OA
ATOM     16  O   UNL     1      21.624  -2.486   6.412  1.00  0.00    -0.550 OA
ENDBRANCH  13  14
ENDBRANCH  12  13
ENDBRANCH  11  12
ENDBRANCH  10  11
ENDBRANCH   9  10
ENDBRANCH   8   9
ENDBRANCH   7   8
ENDBRANCH   6   7
ENDBRANCH   5   6
ENDBRANCH   4   5
ENDBRANCH   3   4
ENDBRANCH   2   3
ENDBRANCH   1   2
BRANCH   1  17
ATOM     17  C   UNL     1      13.063   3.199  16.636  1.00  0.00     0.000 C 
BRANCH  17  18
ATOM     18  C   UNL     1      13.245   2.237  17.821  1.00  0.00     0.000 C 
BRANCH  18  19
ATOM     19  C   UNL     1      13.974   2.889  19.006  1.00  0.00     0.000 C 
BRANCH  19  20
ATOM     20  C   UNL     1      14.772   1.846  19.801  1.00  0.00     0.000 C 
BRANCH  20  21
ATOM     21  C   UNL     1      14.647   0.424  19.223  1.00  0.00     0.000 C 
BRANCH  21  22
ATOM     22  C   UNL     1      15.938  -0.414  19.265  1.00  0.00    -0.000 C 
BRANCH  22  23
ATOM     23  C   UNL     1      17.017   0.101  18.296  1.00  0.00    -0.000 C 
BRANCH  23  24
ATOM     24  C   UNL     1      16.460   0.382  16.890  1.00  0.00    -0.000 C 
BRANCH  24  25
ATOM     25  C   UNL     1      16.700  -0.785  15.915  1.00  0.00    -0.000 C 
BRANCH  25  26
ATOM     26  C   UNL     1      17.114  -0.312  14.509  1.00  0.00    -0.000 C 
BRANCH  26  27
ATOM     27  C   UNL     1      18.523  -0.749  14.063  1.00  0.00    -0.000 C 
BRANCH  27  28
ATOM     28  C   UNL     1      19.286  -1.627  15.073  1.00  0.00    -0.000 C 
BRANCH  28  29
ATOM     29  C   UNL     1      20.493  -0.920  15.723  1.00  0.00    -0.003 C 
ATOM     30  C   UNL     1      20.191   0.527  16.111  1.00  0.00     0.004 C 
ENDBRANCH  28  29
ENDBRANCH  27  28
ENDBRANCH  26  27
ENDBRANCH  25  26
ENDBRANCH  24  25
ENDBRANCH  23  24
ENDBRANCH  22  23
ENDBRANCH  21  22
ENDBRANCH  20  21
ENDBRANCH  19  20
ENDBRANCH  18  19
ENDBRANCH  17  18
ENDBRANCH   1  17
TORSDOF 26
ENDMDL
MODEL 2
REMARK VINA RESULT:    -5.992      3.905      9.494
REMARK INTER + INTRA:         -18.317
REMARK INTER:                 -15.105
REMARK INTRA:                  -3.211
REMARK UNBOUND:                -3.218
REMARK SMILES CCCCCCCCCCCCCCCCCCCCCCCCCCCC(=O)[O-]
REMARK SMILES IDX 15 1 16 2 17 3 18 4 19 5 20 6 21 7 22 8 23 9 24 10 25 11
REMARK SMILES IDX 26 12 27 13 28 14 29 15 30 16 14 17 13 18 12 19 11 20 10 21
REMARK SMILES IDX 9 22 8 23 7 24 6 25 5 26 4 27 3 28 2 29 1 30
REMARK H PARENT
REMARK Flexibility Score: inf
ROOT
ATOM      1  C   UNL     1      19.220   0.111  16.573  1.00  0.00     0.000 C 
ENDROOT
BRANCH   1   2
ATOM      2  C   UNL     1      18.157   1.138  16.994  1.00  0.00     0.000 C 
BRANCH   2   3
ATOM      3  C   UNL     1      17.077   0.536  17.910  1.00  0.00     0.000 C 
BRANCH   3   4
ATOM      4  C   UNL     1      17.640  -0.527  18.867  1.00  0.00     0.000 C 
BRANCH   4   5
ATOM      5  C   UNL     1      16.852  -1.844  18.817  1.00  0.00     0.000 C 
BRANCH   5   6
ATOM      6  C   UNL     1      15.842  -1.839  17.663  1.00  0.00     0.000 C 
BRANCH   6   7
ATOM      7  C   UNL     1      14.423  -2.128  18.174  1.00  0.00     0.000 C 
BRANCH   7   8
ATOM      8  C   UNL     1      13.639  -0.850  18.527  1.00  0.00     0.000 C 
BRANCH   8   9
ATOM      9  C   UNL     1      13.274  -0.701  20.015  1.00  0.00     0.000 C 
BRANCH   9  10
ATOM     10  C   UNL     1      14.406  -0.085  20.852  1.00  0.00     0.000 C 
BRANCH  10  11
ATOM     11  C   UNL     1      14.579   1.406  20.532  1.00  0.00     0.000 C 
BRANCH  11  12
ATOM     12  C   UNL     1      13.826   1.843  19.263  1.00  0.00     0.006 C 
BRANCH  12  13
ATOM     13  C   UNL     1      14.080   3.306  18.855  1.00  0.00     0.053 C 
BRANCH  13  14
ATOM     14  C   UNL     1      14.299   3.464  17.381  1.00  0.00     0.041 C 
ATOM     15  O   UNL     1      15.449   3.710  16.931  1.00  0.00    -0.550 OA
ATOM     16  O   UNL     1      13.227   3.368  16.503  1.00  0.00    -0.550 OA
ENDBRANCH  13  14
ENDBRANCH  12  13
ENDBRANCH  11  12
ENDBRANCH  10  11
ENDBRANCH   9  10
ENDBRANCH   8   9
ENDBRANCH   7   8
ENDBRANCH   6   7
ENDBRANCH   5   6
ENDBRANCH   4   5
ENDBRANCH   3   4
ENDBRANCH   2   3
ENDBRANCH   1   2
BRANCH   1  17
ATOM     17  C   UNL     1      18.688  -0.903  15.547  1.00  0.00     0.000 C 
BRANCH  17  18
ATOM     18  C   UNL     1      18.751  -0.372  14.106  1.00  0.00     0.000 C 
BRANCH  18  19
ATOM     19  C   UNL     1      17.392  -0.439  13.391  1.00  0.00     0.000 C 
BRANCH  19  20
ATOM     20  C   UNL     1      16.237  -0.328  14.396  1.00  0.00     0.000 C 
BRANCH  20  21
ATOM     21  C   UNL     1      15.235   0.787  14.040  1.00  0.00     0.000 C 
BRANCH  21  22
ATOM     22  C   UNL     1      15.821   2.211  14.024  1.00  0.00    -0.000 C 
BRANCH  22  23
ATOM     23  C   UNL     1      15.485   2.982  12.736  1.00  0.00    -0.000 C 
BRANCH  23  24
ATOM     24  C   UNL     1      15.542   2.091  11.483  1.00  0.00    -0.000 C 
BRANCH  24  25
ATOM     25  C   UNL     1      16.967   1.954  10.919  1.00  0.00    -0.000 C 
BRANCH  25  26
ATOM     26  C   UNL     1      17.161   0.670  10.092  1.00  0.00    -0.000 C 
BRANCH  26  27
ATOM     27  C   UNL     1      18.409   0.659   9.188  1.00  0.00    -0.000 C 
BRANCH  27  28
ATOM     28  C   UNL     1      18.130   0.854   7.686  1.00  0.00    -0.000 C 
BRANCH  28  29
ATOM     29  C   UNL     1      19.302   1.495   6.914  1.00  0.00    -0.003 C 
ATOM     30  C   UNL     1      20.499   0.554   6.774  1.00  0.00     0.004 C 
ENDBRANCH  28  29
ENDBRANCH  27  28
ENDBRANCH  26  27
ENDBRANCH  25  26
ENDBRANCH  24  25
ENDBRANCH  23  24
ENDBRANCH  22  23
ENDBRANCH  21  22
ENDBRANCH  20  21
ENDBRANCH  19  20
ENDBRANCH  18  19
ENDBRANCH  17  18
ENDBRANCH   1  17
TORSDOF 26
ENDMDL
MODEL 3
REMARK VINA RESULT:    -5.872      4.656      7.911
REMARK INTER + INTRA:         -18.016
REMARK INTER:                 -15.039
REMARK INTRA:                  -2.977
REMARK UNBOUND:                -3.218
REMARK SMILES CCCCCCCCCCCCCCCCCCCCCCCCCCCC(=O)[O-]
REMARK SMILES IDX 15 1 16 2 17 3 18 4 19 5 20 6 21 7 22 8 23 9 24 10 25 11
REMARK SMILES IDX 26 12 27 13 28 14 29 15 30 16 14 17 13 18 12 19 11 20 10 21
REMARK SMILES IDX 9 22 8 23 7 24 6 25 5 26 4 27 3 28 2 29 1 30
REMARK H PARENT
REMARK Flexibility Score: inf
ROOT
ATOM      1  C   UNL     1      16.458  -0.565  15.459  1.00  0.00     0.000 C 
ENDROOT
BRANCH   1   2
ATOM      2  C   UNL     1      17.559   0.505  15.533  1.00  0.00     0.000 C 
BRANCH   2   3
ATOM      3  C   UNL     1      18.958  -0.096  15.761  1.00  0.00     0.000 C 
BRANCH   3   4
ATOM      4  C   UNL     1      19.249  -1.283  14.830  1.00  0.00     0.000 C 
BRANCH   4   5
ATOM      5  C   UNL     1      20.156  -2.337  15.484  1.00  0.00     0.000 C 
BRANCH   5   6
ATOM      6  C   UNL     1      21.503  -1.729  15.892  1.00  0.00     0.000 C 
BRANCH   6   7
ATOM      7  C   UNL     1      22.594  -2.807  15.959  1.00  0.00     0.000 C 
BRANCH   7   8
ATOM      8  C   UNL     1      23.684  -2.496  17.001  1.00  0.00     0.000 C 
BRANCH   8   9
ATOM      9  C   UNL     1      24.469  -1.195  16.753  1.00  0.00     0.000 C 
BRANCH   9  10
ATOM     10  C   UNL     1      25.033  -1.098  15.327  1.00  0.00     0.000 C 
BRANCH  10  11
ATOM     11  C   UNL     1      26.542  -1.381  15.310  1.00  0.00     0.000 C 
BRANCH  11  12
ATOM     12  C   UNL     1      27.098  -1.771  16.691  1.00  0.00     0.006 C 
BRANCH  12  13
ATOM     13  C   UNL     1      28.015  -3.008  16.671  1.00  0.00     0.053 C 
BRANCH  13  14
ATOM     14  C   UNL     1      27.595  -4.053  17.660  1.00  0.00     0.041 C 
ATOM     15  O   UNL     1      26.654  -3.827  18.465  1.00  0.00    -0.550 OA
ATOM     16  O   UNL     1      28.264  -5.270  17.713  1.00  0.00    -0.550 OA
ENDBRANCH  13  14
ENDBRANCH  12  13
ENDBRANCH  11  12
ENDBRANCH  10  11
ENDBRANCH   9  10
ENDBRANCH   8   9
ENDBRANCH   7   8
ENDBRANCH   6   7
ENDBRANCH   5   6
ENDBRANCH   4   5
ENDBRANCH   3   4
ENDBRANCH   2   3
ENDBRANCH   1   2
BRANCH   1  17
ATOM     17  C   UNL     1      15.638  -0.660  16.758  1.00  0.00     0.000 C 
BRANCH  17  18
ATOM     18  C   UNL     1      16.075  -1.836  17.646  1.00  0.00     0.000 C 
BRANCH  18  19
ATOM     19  C   UNL     1      16.740  -1.376  18.952  1.00  0.00     0.000 C 
BRANCH  19  20
ATOM     20  C   UNL     1      16.558   0.135  19.158  1.00  0.00     0.000 C 
BRANCH  20  21
ATOM     21  C   UNL     1      15.542   0.474  20.265  1.00  0.00     0.000 C 
BRANCH  21  22
ATOM     22  C   UNL     1      14.774   1.793  20.065  1.00  0.00    -0.000 C 
BRANCH  22  23
ATOM     23  C   UNL     1      13.802   1.744  18.874  1.00  0.00    -0.000 C 
BRANCH  23  24
ATOM     24  C   UNL     1      13.259   3.134  18.499  1.00  0.00    -0.000 C 
BRANCH  24  25
ATOM     25  C   UNL     1      13.133   3.329  16.977  1.00  0.00    -0.000 C 
BRANCH  25  26
ATOM     26  C   UNL     1      14.305   2.707  16.197  1.00  0.00    -0.000 C 
BRANCH  26  27
ATOM     27  C   UNL     1      13.981   2.303  14.746  1.00  0.00    -0.000 C 
BRANCH  27  28
ATOM     28  C   UNL     1      15.040   2.706  13.703  1.00  0.00    -0.000 C 
BRANCH  28  29
ATOM     29  C   UNL     1      15.291   1.632  12.624  1.00  0.00    -0.003 C 
ATOM     30  C   UNL     1      16.094   2.165  11.437  1.00  0.00     0.004 C 
ENDBRANCH  28  29
ENDBRANCH  27  28
ENDBRANCH  26  27
ENDBRANCH  25  26
ENDBRANCH  24  25
ENDBRANCH  23  24
ENDBRANCH  22  23
ENDBRANCH  21  22
ENDBRANCH  20  21
ENDBRANCH  19  20
ENDBRANCH  18  19
ENDBRANCH  17  18
ENDBRANCH   1  17
TORSDOF 26
ENDMDL
MODEL 4
REMARK VINA RESULT:    -5.823      5.194      9.366
REMARK INTER + INTRA:         -17.891
REMARK INTER:                 -14.322
REMARK INTRA:                  -3.569
REMARK UNBOUND:                -3.218
REMARK SMILES CCCCCCCCCCCCCCCCCCCCCCCCCCCC(=O)[O-]
REMARK SMILES IDX 15 1 16 2 17 3 18 4 19 5 20 6 21 7 22 8 23 9 24 10 25 11
REMARK SMILES IDX 26 12 27 13 28 14 29 15 30 16 14 17 13 18 12 19 11 20 10 21
REMARK SMILES IDX 9 22 8 23 7 24 6 25 5 26 4 27 3 28 2 29 1 30
REMARK H PARENT
REMARK Flexibility Score: inf
ROOT
ATOM      1  C   UNL     1      18.121   0.392  16.178  1.00  0.00     0.000 C 
ENDROOT
BRANCH   1   2
ATOM      2  C   UNL     1      16.831  -0.282  15.684  1.00  0.00     0.000 C 
BRANCH   2   3
ATOM      3  C   UNL     1      16.034  -0.947  16.821  1.00  0.00     0.000 C 
BRANCH   3   4
ATOM      4  C   UNL     1      16.917  -1.816  17.730  1.00  0.00     0.000 C 
BRANCH   4   5
ATOM      5  C   UNL     1      16.682  -1.538  19.223  1.00  0.00     0.000 C 
BRANCH   5   6
ATOM      6  C   UNL     1      16.487  -0.039  19.481  1.00  0.00     0.000 C 
BRANCH   6   7
ATOM      7  C   UNL     1      15.328   0.204  20.456  1.00  0.00     0.000 C 
BRANCH   7   8
ATOM      8  C   UNL     1      14.631   1.560  20.236  1.00  0.00     0.000 C 
BRANCH   8   9
ATOM      9  C   UNL     1      13.991   1.744  18.848  1.00  0.00     0.000 C 
BRANCH   9  10
ATOM     10  C   UNL     1      13.603   3.201  18.555  1.00  0.00     0.000 C 
BRANCH  10  11
ATOM     11  C   UNL     1      14.606   3.857  17.595  1.00  0.00     0.000 C 
BRANCH  11  12
ATOM     12  C   UNL     1      15.384   2.836  16.745  1.00  0.00     0.006 C 
BRANCH  12  13
ATOM     13  C   UNL     1      15.206   3.020  15.227  1.00  0.00     0.053 C 
BRANCH  13  14
ATOM     14  C   UNL     1      14.079   2.201  14.674  1.00  0.00     0.041 C 
ATOM     15  O   UNL     1      12.913   2.330  15.133  1.00  0.00    -0.550 OA
ATOM     16  O   UNL     1      14.320   1.271  13.671  1.00  0.00    -0.550 OA
ENDBRANCH  13  14
ENDBRANCH  12  13
ENDBRANCH  11  12
ENDBRANCH  10  11
ENDBRANCH   9  10
ENDBRANCH   8   9
ENDBRANCH   7   8
ENDBRANCH   6   7
ENDBRANCH   5   6
ENDBRANCH   4   5
ENDBRANCH   3   4
ENDBRANCH   2   3
ENDBRANCH   1   2
BRANCH   1  17
ATOM     17  C   UNL     1      19.354  -0.018  15.354  1.00  0.00     0.000 C 
BRANCH  17  18
ATOM     18  C   UNL     1      19.278  -1.474  14.865  1.00  0.00     0.000 C 
BRANCH  18  19
ATOM     19  C   UNL     1      20.429  -2.339  15.401  1.00  0.00     0.000 C 
BRANCH  19  20
ATOM     20  C   UNL     1      21.541  -1.464  15.999  1.00  0.00     0.000 C 
BRANCH  20  21
ATOM     21  C   UNL     1      22.859  -2.230  16.216  1.00  0.00     0.000 C 
BRANCH  21  22
ATOM     22  C   UNL     1      24.106  -1.346  16.402  1.00  0.00    -0.000 C 
BRANCH  22  23
ATOM     23  C   UNL     1      24.944  -1.217  15.118  1.00  0.00    -0.000 C 
BRANCH  23  24
ATOM     24  C   UNL     1      26.453  -1.356  15.382  1.00  0.00    -0.000 C 
BRANCH  24  25
ATOM     25  C   UNL     1      26.922  -0.518  16.586  1.00  0.00    -0.000 C 
BRANCH  25  26
ATOM     26  C   UNL     1      27.169   0.958  16.225  1.00  0.00    -0.000 C 
BRANCH  26  27
ATOM     27  C   UNL     1      26.635   1.977  17.249  1.00  0.00    -0.000 C 
BRANCH  27  28
ATOM     28  C   UNL     1      25.111   1.946  17.470  1.00  0.00    -0.000 C 
BRANCH  28  29
ATOM     29  C   UNL     1      24.298   2.484  16.274  1.00  0.00    -0.003 C 
ATOM     30  C   UNL     1      22.822   2.089  16.340  1.00  0.00     0.004 C 
ENDBRANCH  28  29
ENDBRANCH  27  28
ENDBRANCH  26  27
ENDBRANCH  25  26
ENDBRANCH  24  25
ENDBRANCH  23  24
ENDBRANCH  22  23
ENDBRANCH  21  22
ENDBRANCH  20  21
ENDBRANCH  19  20
ENDBRANCH  18  19
ENDBRANCH  17  18
ENDBRANCH   1  17
TORSDOF 26
ENDMDL
MODEL 5
REMARK VINA RESULT:    -5.792      4.132      7.454
REMARK INTER + INTRA:         -17.814
REMARK INTER:                 -14.765
REMARK INTRA:                  -3.049
REMARK UNBOUND:                -3.218
REMARK SMILES CCCCCCCCCCCCCCCCCCCCCCCCCCCC(=O)[O-]
REMARK SMILES IDX 15 1 16 2 17 3 18 4 19 5 20 6 21 7 22 8 23 9 24 10 25 11
REMARK SMILES IDX 26 12 27 13 28 14 29 15 30 16 14 17 13 18 12 19 11 20 10 21
REMARK SMILES IDX 9 22 8 23 7 24 6 25 5 26 4 27 3 28 2 29 1 30
REMARK H PARENT
REMARK Flexibility Score: inf
ROOT
ATOM      1  C   UNL     1      16.829  -0.468  15.544  1.00  0.00     0.000 C 
ENDROOT
BRANCH   1   2
ATOM      2  C   UNL     1      17.931   0.545  15.893  1.00  0.00     0.000 C 
BRANCH   2   3
ATOM      3  C   UNL     1      19.343   0.021  15.578  1.00  0.00     0.000 C 
BRANCH   3   4
ATOM      4  C   UNL     1      19.320  -1.307  14.804  1.00  0.00     0.000 C 
BRANCH   4   5
ATOM      5  C   UNL     1      20.203  -2.384  15.454  1.00  0.00     0.000 C 
BRANCH   5   6
ATOM      6  C   UNL     1      21.551  -1.800  15.895  1.00  0.00     0.000 C 
BRANCH   6   7
ATOM      7  C   UNL     1      22.616  -2.901  16.003  1.00  0.00     0.000 C 
BRANCH   7   8
ATOM      8  C   UNL     1      23.802  -2.502  16.900  1.00  0.00     0.000 C 
BRANCH   8   9
ATOM      9  C   UNL     1      25.193  -2.762  16.293  1.00  0.00     0.000 C 
BRANCH   9  10
ATOM     10  C   UNL     1      26.340  -2.448  17.264  1.00  0.00     0.000 C 
BRANCH  10  11
ATOM     11  C   UNL     1      27.279  -1.381  16.683  1.00  0.00     0.000 C 
BRANCH  11  12
ATOM     12  C   UNL     1      26.961  -1.030  15.219  1.00  0.00     0.006 C 
BRANCH  12  13
ATOM     13  C   UNL     1      27.114   0.465  14.886  1.00  0.00     0.053 C 
BRANCH  13  14
ATOM     14  C   UNL     1      25.802   1.189  14.862  1.00  0.00     0.041 C 
ATOM     15  O   UNL     1      25.766   2.435  14.685  1.00  0.00    -0.550 OA
ATOM     16  O   UNL     1      24.618   0.492  15.064  1.00  0.00    -0.550 OA
ENDBRANCH  13  14
ENDBRANCH  12  13
ENDBRANCH  11  12
ENDBRANCH  10  11
ENDBRANCH   9  10
ENDBRANCH   8   9
ENDBRANCH   7   8
ENDBRANCH   6   7
ENDBRANCH   5   6
ENDBRANCH   4   5
ENDBRANCH   3   4
ENDBRANCH   2   3
ENDBRANCH   1   2
BRANCH   1  17
ATOM     17  C   UNL     1      15.871  -0.728  16.720  1.00  0.00     0.000 C 
BRANCH  17  18
ATOM     18  C   UNL     1      16.298  -1.934  17.571  1.00  0.00     0.000 C 
BRANCH  18  19
ATOM     19  C   UNL     1      17.041  -1.522  18.852  1.00  0.00     0.000 C 
BRANCH  19  20
ATOM     20  C   UNL     1      16.660  -0.095  19.271  1.00  0.00     0.000 C 
BRANCH  20  21
ATOM     21  C   UNL     1      15.549  -0.057  20.337  1.00  0.00     0.000 C 
BRANCH  21  22
ATOM     22  C   UNL     1      14.758   1.262  20.409  1.00  0.00    -0.000 C 
BRANCH  22  23
ATOM     23  C   UNL     1      14.152   1.671  19.056  1.00  0.00    -0.000 C 
BRANCH  23  24
ATOM     24  C   UNL     1      13.831   3.174  18.984  1.00  0.00    -0.000 C 
BRANCH  24  25
ATOM     25  C   UNL     1      13.788   3.701  17.538  1.00  0.00    -0.000 C 
BRANCH  25  26
ATOM     26  C   UNL     1      14.951   3.175  16.677  1.00  0.00    -0.000 C 
BRANCH  26  27
ATOM     27  C   UNL     1      14.529   2.451  15.384  1.00  0.00    -0.000 C 
BRANCH  27  28
ATOM     28  C   UNL     1      15.445   2.693  14.170  1.00  0.00    -0.000 C 
BRANCH  28  29
ATOM     29  C   UNL     1      15.064   1.861  12.927  1.00  0.00    -0.003 C 
ATOM     30  C   UNL     1      15.904   2.216  11.701  1.00  0.00     0.004 C 
ENDBRANCH  28  29
ENDBRANCH  27  28
ENDBRANCH  26  27
ENDBRANCH  25  26
ENDBRANCH  24  25
ENDBRANCH  23  24
ENDBRANCH  22  23
ENDBRANCH  21  22
ENDBRANCH  20  21
ENDBRANCH  19  20
ENDBRANCH  18  19
ENDBRANCH  17  18
ENDBRANCH   1  17
TORSDOF 26
ENDMDL
MODEL 6
REMARK VINA RESULT:    -5.718      4.706      9.097
REMARK INTER + INTRA:         -17.626
REMARK INTER:                 -14.706
REMARK INTRA:                  -2.920
REMARK UNBOUND:                -3.218
REMARK SMILES CCCCCCCCCCCCCCCCCCCCCCCCCCCC(=O)[O-]
REMARK SMILES IDX 15 1 16 2 17 3 18 4 19 5 20 6 21 7 22 8 23 9 24 10 25 11
REMARK SMILES IDX 26 12 27 13 28 14 29 15 30 16 14 17 13 18 12 19 11 20 10 21
REMARK SMILES IDX 9 22 8 23 7 24 6 25 5 26 4 27 3 28 2 29 1 30
REMARK H PARENT
REMARK Flexibility Score: inf
ROOT
ATOM      1  C   UNL     1      18.404  -0.272  13.629  1.00  0.00     0.000 C 
ENDROOT
BRANCH   1   2
ATOM      2  C   UNL     1      17.360  -0.170  12.505  1.00  0.00     0.000 C 
BRANCH   2   3
ATOM      3  C   UNL     1      17.741   0.865  11.431  1.00  0.00     0.000 C 
BRANCH   3   4
ATOM      4  C   UNL     1      16.735   2.023  11.344  1.00  0.00     0.000 C 
BRANCH   4   5
ATOM      5  C   UNL     1      15.556   1.855  12.315  1.00  0.00     0.000 C 
BRANCH   5   6
ATOM      6  C   UNL     1      15.467   3.040  13.284  1.00  0.00     0.000 C 
BRANCH   6   7
ATOM      7  C   UNL     1      15.119   2.565  14.701  1.00  0.00     0.000 C 
BRANCH   7   8
ATOM      8  C   UNL     1      13.607   2.592  14.990  1.00  0.00     0.000 C 
BRANCH   8   9
ATOM      9  C   UNL     1      13.224   2.415  16.471  1.00  0.00     0.000 C 
BRANCH   9  10
ATOM     10  C   UNL     1      13.288   3.726  17.268  1.00  0.00     0.000 C 
BRANCH  10  11
ATOM     11  C   UNL     1      13.666   3.464  18.733  1.00  0.00     0.000 C 
BRANCH  11  12
ATOM     12  C   UNL     1      13.740   1.966  19.078  1.00  0.00     0.006 C 
BRANCH  12  13
ATOM     13  C   UNL     1      15.123   1.503  19.570  1.00  0.00     0.053 C 
BRANCH  13  14
ATOM     14  C   UNL     1      15.975   0.956  18.465  1.00  0.00     0.041 C 
ATOM     15  O   UNL     1      16.724   1.720  17.800  1.00  0.00    -0.550 OA
ATOM     16  O   UNL     1      15.922  -0.396  18.147  1.00  0.00    -0.550 OA
ENDBRANCH  13  14
ENDBRANCH  12  13
ENDBRANCH  11  12
ENDBRANCH  10  11
ENDBRANCH   9  10
ENDBRANCH   8   9
ENDBRANCH   7   8
ENDBRANCH   6   7
ENDBRANCH   5   6
ENDBRANCH   4   5
ENDBRANCH   3   4
ENDBRANCH   2   3
ENDBRANCH   1   2
BRANCH   1  17
ATOM     17  C   UNL     1      17.772  -0.204  15.030  1.00  0.00     0.000 C 
BRANCH  17  18
ATOM     18  C   UNL     1      18.740  -0.656  16.135  1.00  0.00     0.000 C 
BRANCH  18  19
ATOM     19  C   UNL     1      20.213  -0.437  15.758  1.00  0.00     0.000 C 
BRANCH  19  20
ATOM     20  C   UNL     1      21.010  -1.744  15.876  1.00  0.00     0.000 C 
BRANCH  20  21
ATOM     21  C   UNL     1      22.522  -1.513  16.059  1.00  0.00     0.000 C 
BRANCH  21  22
ATOM     22  C   UNL     1      22.946  -0.038  16.192  1.00  0.00    -0.000 C 
BRANCH  22  23
ATOM     23  C   UNL     1      24.468   0.137  16.331  1.00  0.00    -0.000 C 
BRANCH  23  24
ATOM     24  C   UNL     1      25.229  -0.297  15.067  1.00  0.00    -0.000 C 
BRANCH  24  25
ATOM     25  C   UNL     1      26.755  -0.289  15.263  1.00  0.00    -0.000 C 
BRANCH  25  26
ATOM     26  C   UNL     1      27.177  -0.732  16.676  1.00  0.00    -0.000 C 
BRANCH  26  27
ATOM     27  C   UNL     1      27.391  -2.248  16.848  1.00  0.00    -0.000 C 
BRANCH  27  28
ATOM     28  C   UNL     1      26.855  -2.840  18.165  1.00  0.00    -0.000 C 
BRANCH  28  29
ATOM     29  C   UNL     1      25.316  -2.902  18.239  1.00  0.00    -0.003 C 
ATOM     30  C   UNL     1      24.735  -4.074  17.450  1.00  0.00     0.004 C 
ENDBRANCH  28  29
ENDBRANCH  27  28
ENDBRANCH  26  27
ENDBRANCH  25  26
ENDBRANCH  24  25
ENDBRANCH  23  24
ENDBRANCH  22  23
ENDBRANCH  21  22
ENDBRANCH  20  21
ENDBRANCH  19  20
ENDBRANCH  18  19
ENDBRANCH  17  18
ENDBRANCH   1  17
TORSDOF 26
ENDMDL
MODEL 7
REMARK VINA RESULT:    -5.708      3.790      7.380
REMARK INTER + INTRA:         -17.601
REMARK INTER:                 -14.789
REMARK INTRA:                  -2.812
REMARK UNBOUND:                -3.218
REMARK SMILES CCCCCCCCCCCCCCCCCCCCCCCCCCCC(=O)[O-]
REMARK SMILES IDX 15 1 16 2 17 3 18 4 19 5 20 6 21 7 22 8 23 9 24 10 25 11
REMARK SMILES IDX 26 12 27 13 28 14 29 15 30 16 14 17 13 18 12 19 11 20 10 21
REMARK SMILES IDX 9 22 8 23 7 24 6 25 5 26 4 27 3 28 2 29 1 30
REMARK H PARENT
REMARK Flexibility Score: inf
ROOT
ATOM      1  C   UNL     1      17.397  -0.019  12.310  1.00  0.00     0.000 C 
ENDROOT
BRANCH   1   2
ATOM      2  C   UNL     1      18.468   0.020  13.412  1.00  0.00     0.000 C 
BRANCH   2   3
ATOM      3  C   UNL     1      17.868  -0.053  14.827  1.00  0.00     0.000 C 
BRANCH   3   4
ATOM      4  C   UNL     1      18.887  -0.523  15.877  1.00  0.00     0.000 C 
BRANCH   4   5
ATOM      5  C   UNL     1      19.008  -2.053  15.938  1.00  0.00     0.000 C 
BRANCH   5   6
ATOM      6  C   UNL     1      20.401  -2.514  15.490  1.00  0.00     0.000 C 
BRANCH   6   7
ATOM      7  C   UNL     1      21.472  -1.487  15.882  1.00  0.00     0.000 C 
BRANCH   7   8
ATOM      8  C   UNL     1      22.857  -2.120  16.107  1.00  0.00     0.000 C 
BRANCH   8   9
ATOM      9  C   UNL     1      23.860  -1.235  16.870  1.00  0.00     0.000 C 
BRANCH   9  10
ATOM     10  C   UNL     1      24.462  -0.122  15.999  1.00  0.00     0.000 C 
BRANCH  10  11
ATOM     11  C   UNL     1      24.164   1.263  16.590  1.00  0.00     0.000 C 
BRANCH  11  12
ATOM     12  C   UNL     1      25.290   2.282  16.339  1.00  0.00     0.006 C 
BRANCH  12  13
ATOM     13  C   UNL     1      25.568   2.554  14.850  1.00  0.00     0.053 C 
BRANCH  13  14
ATOM     14  C   UNL     1      27.016   2.393  14.494  1.00  0.00     0.041 C 
ATOM     15  O   UNL     1      27.850   3.287  14.798  1.00  0.00    -0.550 OA
ATOM     16  O   UNL     1      27.441   1.268  13.800  1.00  0.00    -0.550 OA
ENDBRANCH  13  14
ENDBRANCH  12  13
ENDBRANCH  11  12
ENDBRANCH  10  11
ENDBRANCH   9  10
ENDBRANCH   8   9
ENDBRANCH   7   8
ENDBRANCH   6   7
ENDBRANCH   5   6
ENDBRANCH   4   5
ENDBRANCH   3   4
ENDBRANCH   2   3
ENDBRANCH   1   2
BRANCH   1  17
ATOM     17  C   UNL     1      17.292   1.310  11.542  1.00  0.00     0.000 C 
BRANCH  17  18
ATOM     18  C   UNL     1      15.856   1.859  11.509  1.00  0.00     0.000 C 
BRANCH  18  19
ATOM     19  C   UNL     1      15.483   2.617  12.792  1.00  0.00     0.000 C 
BRANCH  19  20
ATOM     20  C   UNL     1      14.683   1.719  13.747  1.00  0.00     0.000 C 
BRANCH  20  21
ATOM     21  C   UNL     1      14.120   2.481  14.961  1.00  0.00     0.000 C 
BRANCH  21  22
ATOM     22  C   UNL     1      14.971   2.388  16.241  1.00  0.00    -0.000 C 
BRANCH  22  23
ATOM     23  C   UNL     1      14.625   3.479  17.270  1.00  0.00    -0.000 C 
BRANCH  23  24
ATOM     24  C   UNL     1      14.112   2.895  18.598  1.00  0.00    -0.000 C 
BRANCH  24  25
ATOM     25  C   UNL     1      13.932   1.367  18.542  1.00  0.00    -0.000 C 
BRANCH  25  26
ATOM     26  C   UNL     1      14.190   0.686  19.898  1.00  0.00    -0.000 C 
BRANCH  26  27
ATOM     27  C   UNL     1      15.674   0.443  20.233  1.00  0.00    -0.000 C 
BRANCH  27  28
ATOM     28  C   UNL     1      16.576   0.133  19.023  1.00  0.00    -0.000 C 
BRANCH  28  29
ATOM     29  C   UNL     1      16.738  -1.374  18.738  1.00  0.00    -0.003 C 
ATOM     30  C   UNL     1      15.825  -1.862  17.613  1.00  0.00     0.004 C 
ENDBRANCH  28  29
ENDBRANCH  27  28
ENDBRANCH  26  27
ENDBRANCH  25  26
ENDBRANCH  24  25
ENDBRANCH  23  24
ENDBRANCH  22  23
ENDBRANCH  21  22
ENDBRANCH  20  21
ENDBRANCH  19  20
ENDBRANCH  18  19
ENDBRANCH  17  18
ENDBRANCH   1  17
TORSDOF 26
ENDMDL
MODEL 8
REMARK VINA RESULT:    -5.625      5.057      8.417
REMARK INTER + INTRA:         -17.392
REMARK INTER:                 -14.165
REMARK INTRA:                  -3.228
REMARK UNBOUND:                -3.218
REMARK SMILES CCCCCCCCCCCCCCCCCCCCCCCCCCCC(=O)[O-]
REMARK SMILES IDX 15 1 16 2 17 3 18 4 19 5 20 6 21 7 22 8 23 9 24 10 25 11
REMARK SMILES IDX 26 12 27 13 28 14 29 15 30 16 14 17 13 18 12 19 11 20 10 21
REMARK SMILES IDX 9 22 8 23 7 24 6 25 5 26 4 27 3 28 2 29 1 30
REMARK H PARENT
REMARK Flexibility Score: inf
ROOT
ATOM      1  C   UNL     1      17.841   0.162  15.873  1.00  0.00     0.000 C 
ENDROOT
BRANCH   1   2
ATOM      2  C   UNL     1      19.019   0.010  14.897  1.00  0.00     0.000 C 
BRANCH   2   3
ATOM      3  C   UNL     1      19.163  -1.424  14.357  1.00  0.00     0.000 C 
BRANCH   3   4
ATOM      4  C   UNL     1      20.000  -2.321  15.281  1.00  0.00     0.000 C 
BRANCH   4   5
ATOM      5  C   UNL     1      21.113  -1.548  16.006  1.00  0.00     0.000 C 
BRANCH   5   6
ATOM      6  C   UNL     1      22.444  -2.306  15.942  1.00  0.00     0.000 C 
BRANCH   6   7
ATOM      7  C   UNL     1      23.585  -1.462  16.526  1.00  0.00     0.000 C 
BRANCH   7   8
ATOM      8  C   UNL     1      23.415   0.045  16.261  1.00  0.00     0.000 C 
BRANCH   8   9
ATOM      9  C   UNL     1      24.703   0.784  15.855  1.00  0.00     0.000 C 
BRANCH   9  10
ATOM     10  C   UNL     1      25.396   1.477  17.038  1.00  0.00     0.000 C 
BRANCH  10  11
ATOM     11  C   UNL     1      25.209   2.999  16.973  1.00  0.00     0.000 C 
BRANCH  11  12
ATOM     12  C   UNL     1      25.163   3.661  18.361  1.00  0.00     0.006 C 
BRANCH  12  13
ATOM     13  C   UNL     1      24.735   5.140  18.337  1.00  0.00     0.053 C 
BRANCH  13  14
ATOM     14  C   UNL     1      25.901   6.078  18.266  1.00  0.00     0.041 C 
ATOM     15  O   UNL     1      26.096   6.775  17.235  1.00  0.00    -0.550 OA
ATOM     16  O   UNL     1      26.794   6.162  19.327  1.00  0.00    -0.550 OA
ENDBRANCH  13  14
ENDBRANCH  12  13
ENDBRANCH  11  12
ENDBRANCH  10  11
ENDBRANCH   9  10
ENDBRANCH   8   9
ENDBRANCH   7   8
ENDBRANCH   6   7
ENDBRANCH   5   6
ENDBRANCH   4   5
ENDBRANCH   3   4
ENDBRANCH   2   3
ENDBRANCH   1   2
BRANCH   1  17
ATOM     17  C   UNL     1      16.648  -0.737  15.504  1.00  0.00     0.000 C 
BRANCH  17  18
ATOM     18  C   UNL     1      16.206  -1.636  16.669  1.00  0.00     0.000 C 
BRANCH  18  19
ATOM     19  C   UNL     1      17.259  -1.720  17.785  1.00  0.00     0.000 C 
BRANCH  19  20
ATOM     20  C   UNL     1      16.631  -1.431  19.156  1.00  0.00     0.000 C 
BRANCH  20  21
ATOM     21  C   UNL     1      16.547   0.073  19.474  1.00  0.00     0.000 C 
BRANCH  21  22
ATOM     22  C   UNL     1      15.144   0.584  19.852  1.00  0.00    -0.000 C 
BRANCH  22  23
ATOM     23  C   UNL     1      14.556   1.546  18.805  1.00  0.00    -0.000 C 
BRANCH  23  24
ATOM     24  C   UNL     1      15.607   2.028  17.791  1.00  0.00    -0.000 C 
BRANCH  24  25
ATOM     25  C   UNL     1      15.030   3.022  16.768  1.00  0.00    -0.000 C 
BRANCH  25  26
ATOM     26  C   UNL     1      14.542   2.336  15.478  1.00  0.00    -0.000 C 
BRANCH  26  27
ATOM     27  C   UNL     1      15.418   2.586  14.236  1.00  0.00    -0.000 C 
BRANCH  27  28
ATOM     28  C   UNL     1      15.064   1.731  13.004  1.00  0.00    -0.000 C 
BRANCH  28  29
ATOM     29  C   UNL     1      15.920   2.048  11.760  1.00  0.00    -0.003 C 
ATOM     30  C   UNL     1      17.231   1.263  11.732  1.00  0.00     0.004 C 
ENDBRANCH  28  29
ENDBRANCH  27  28
ENDBRANCH  26  27
ENDBRANCH  25  26
ENDBRANCH  24  25
ENDBRANCH  23  24
ENDBRANCH  22  23
ENDBRANCH  21  22
ENDBRANCH  20  21
ENDBRANCH  19  20
ENDBRANCH  18  19
ENDBRANCH  17  18
ENDBRANCH   1  17
TORSDOF 26
ENDMDL
MODEL 9
REMARK VINA RESULT:    -5.592      3.919      7.316
REMARK INTER + INTRA:         -17.309
REMARK INTER:                 -14.532
REMARK INTRA:                  -2.777
REMARK UNBOUND:                -3.218
REMARK SMILES CCCCCCCCCCCCCCCCCCCCCCCCCCCC(=O)[O-]
REMARK SMILES IDX 15 1 16 2 17 3 18 4 19 5 20 6 21 7 22 8 23 9 24 10 25 11
REMARK SMILES IDX 26 12 27 13 28 14 29 15 30 16 14 17 13 18 12 19 11 20 10 21
REMARK SMILES IDX 9 22 8 23 7 24 6 25 5 26 4 27 3 28 2 29 1 30
REMARK H PARENT
REMARK Flexibility Score: inf
ROOT
ATOM      1  C   UNL     1      17.525   0.550  12.197  1.00  0.00     0.000 C 
ENDROOT
BRANCH   1   2
ATOM      2  C   UNL     1      17.436   0.013  13.635  1.00  0.00     0.000 C 
BRANCH   2   3
ATOM      3  C   UNL     1      18.802  -0.424  14.193  1.00  0.00     0.000 C 
BRANCH   3   4
ATOM      4  C   UNL     1      18.680  -1.538  15.245  1.00  0.00     0.000 C 
BRANCH   4   5
ATOM      5  C   UNL     1      19.998  -2.301  15.452  1.00  0.00     0.000 C 
BRANCH   5   6
ATOM      6  C   UNL     1      21.132  -1.346  15.844  1.00  0.00     0.000 C 
BRANCH   6   7
ATOM      7  C   UNL     1      22.409  -2.125  16.190  1.00  0.00     0.000 C 
BRANCH   7   8
ATOM      8  C   UNL     1      23.606  -1.208  16.502  1.00  0.00     0.000 C 
BRANCH   8   9
ATOM      9  C   UNL     1      23.375   0.286  16.207  1.00  0.00     0.000 C 
BRANCH   9  10
ATOM     10  C   UNL     1      24.481   1.187  16.777  1.00  0.00     0.000 C 
BRANCH  10  11
ATOM     11  C   UNL     1      25.191   1.963  15.659  1.00  0.00     0.000 C 
BRANCH  11  12
ATOM     12  C   UNL     1      26.400   1.210  15.075  1.00  0.00     0.006 C 
BRANCH  12  13
ATOM     13  C   UNL     1      27.214   0.425  16.119  1.00  0.00     0.053 C 
BRANCH  13  14
ATOM     14  C   UNL     1      27.183  -1.054  15.881  1.00  0.00     0.041 C 
ATOM     15  O   UNL     1      27.585  -1.851  16.770  1.00  0.00    -0.550 OA
ATOM     16  O   UNL     1      26.738  -1.555  14.664  1.00  0.00    -0.550 OA
ENDBRANCH  13  14
ENDBRANCH  12  13
ENDBRANCH  11  12
ENDBRANCH  10  11
ENDBRANCH   9  10
ENDBRANCH   8   9
ENDBRANCH   7   8
ENDBRANCH   6   7
ENDBRANCH   5   6
ENDBRANCH   4   5
ENDBRANCH   3   4
ENDBRANCH   2   3
ENDBRANCH   1   2
BRANCH   1  17
ATOM     17  C   UNL     1      16.254   1.303  11.768  1.00  0.00     0.000 C 
BRANCH  17  18
ATOM     18  C   UNL     1      15.890   2.442  12.735  1.00  0.00     0.000 C 
BRANCH  18  19
ATOM     19  C   UNL     1      14.764   2.056  13.706  1.00  0.00     0.000 C 
BRANCH  19  20
ATOM     20  C   UNL     1      14.978   2.707  15.081  1.00  0.00     0.000 C 
BRANCH  20  21
ATOM     21  C   UNL     1      13.919   2.287  16.117  1.00  0.00     0.000 C 
BRANCH  21  22
ATOM     22  C   UNL     1      13.430   3.415  17.044  1.00  0.00    -0.000 C 
BRANCH  22  23
ATOM     23  C   UNL     1      13.911   3.248  18.496  1.00  0.00    -0.000 C 
BRANCH  23  24
ATOM     24  C   UNL     1      14.112   1.773  18.884  1.00  0.00    -0.000 C 
BRANCH  24  25
ATOM     25  C   UNL     1      14.691   1.607  20.300  1.00  0.00    -0.000 C 
BRANCH  25  26
ATOM     26  C   UNL     1      15.564   0.347  20.444  1.00  0.00    -0.000 C 
BRANCH  26  27
ATOM     27  C   UNL     1      15.494  -0.633  19.257  1.00  0.00    -0.000 C 
BRANCH  27  28
ATOM     28  C   UNL     1      16.796  -0.770  18.445  1.00  0.00    -0.000 C 
BRANCH  28  29
ATOM     29  C   UNL     1      17.709   0.471  18.519  1.00  0.00    -0.003 C 
ATOM     30  C   UNL     1      17.574   1.375  17.294  1.00  0.00     0.004 C 
ENDBRANCH  28  29
ENDBRANCH  27  28
ENDBRANCH  26  27
ENDBRANCH  25  26
ENDBRANCH  24  25
ENDBRANCH  23  24
ENDBRANCH  22  23
ENDBRANCH  21  22
ENDBRANCH  20  21
ENDBRANCH  19  20
ENDBRANCH  18  19
ENDBRANCH  17  18
ENDBRANCH   1  17
TORSDOF 26
ENDMDL
