MODEL 1
REMARK VINA RESULT:    -4.716      0.000      0.000
REMARK INTER + INTRA:         -11.307
REMARK INTER:                  -8.852
REMARK INTRA:                  -2.455
REMARK UNBOUND:                -2.455
REMARK SMILES O=C([O-])CCCCCCCCCCCCCCC(=O)[O-]
REMARK SMILES IDX 10 1 9 2 8 3 7 4 6 5 5 6 4 7 2 8 1 9 3 10 11 11 12 12 13 13
REMARK SMILES IDX 14 14 15 15 16 16 17 17 18 18 19 19 20 20
REMARK H PARENT
REMARK Flexibility Score: inf
ROOT
ATOM      1  C   UNL     1     181.856 182.777 179.049  1.00  0.00     0.000 C 
ENDROOT
BRANCH   1   2
ATOM      2  C   UNL     1     181.849 181.273 178.725  1.00  0.00     0.000 C 
BRANCH   2   3
ATOM      3  C   UNL     1     181.314 180.412 179.891  1.00  0.00     0.000 C 
BRANCH   3   4
ATOM      4  C   UNL     1     182.438 179.808 180.750  1.00  0.00     0.000 C 
BRANCH   4   5
ATOM      5  C   UNL     1     182.364 180.208 182.237  1.00  0.00     0.000 C 
BRANCH   5   6
ATOM      6  C   UNL     1     183.713 180.688 182.791  1.00  0.00     0.006 C 
BRANCH   6   7
ATOM      7  C   UNL     1     184.775 180.724 181.688  1.00  0.00     0.053 C 
BRANCH   7   8
ATOM      8  C   UNL     1     186.034 181.355 182.191  1.00  0.00     0.041 C 
ATOM      9  O   UNL     1     186.418 182.461 181.727  1.00  0.00    -0.550 OA
ATOM     10  O   UNL     1     186.808 180.701 183.141  1.00  0.00    -0.550 OA
ENDBRANCH   7   8
ENDBRANCH   6   7
ENDBRANCH   5   6
ENDBRANCH   4   5
ENDBRANCH   3   4
ENDBRANCH   2   3
ENDBRANCH   1   2
BRANCH   1  11
ATOM     11  C   UNL     1     183.173 183.268 179.688  1.00  0.00     0.000 C 
BRANCH  11  12
ATOM     12  C   UNL     1     183.014 183.856 181.103  1.00  0.00     0.000 C 
BRANCH  12  13
ATOM     13  C   UNL     1     181.575 184.320 181.389  1.00  0.00     0.000 C 
BRANCH  13  14
ATOM     14  C   UNL     1     180.991 183.693 182.666  1.00  0.00     0.000 C 
BRANCH  14  15
ATOM     15  C   UNL     1     179.469 183.451 182.637  1.00  0.00     0.000 C 
BRANCH  15  16
ATOM     16  C   UNL     1     179.011 182.491 181.516  1.00  0.00     0.006 C 
BRANCH  16  17
ATOM     17  C   UNL     1     177.631 181.883 181.797  1.00  0.00     0.053 C 
BRANCH  17  18
ATOM     18  C   UNL     1     177.758 180.433 182.143  1.00  0.00     0.041 C 
ATOM     19  O   UNL     1     178.892 179.929 182.354  1.00  0.00    -0.550 OA
ATOM     20  O   UNL     1     176.628 179.626 182.183  1.00  0.00    -0.550 OA
ENDBRANCH  17  18
ENDBRANCH  16  17
ENDBRANCH  15  16
ENDBRANCH  14  15
ENDBRANCH  13  14
ENDBRANCH  12  13
ENDBRANCH  11  12
ENDBRANCH   1  11
TORSDOF 15
ENDMDL
MODEL 2
REMARK VINA RESULT:    -4.674      2.092      5.941
REMARK INTER + INTRA:         -11.229
REMARK INTER:                  -9.234
REMARK INTRA:                  -1.994
REMARK UNBOUND:                -2.455
REMARK SMILES O=C([O-])CCCCCCCCCCCCCCC(=O)[O-]
REMARK SMILES IDX 10 1 9 2 8 3 7 4 6 5 5 6 4 7 2 8 1 9 3 10 11 11 12 12 13 13
REMARK SMILES IDX 14 14 15 15 16 16 17 17 18 18 19 19 20 20
REMARK H PARENT
REMARK Flexibility Score: inf
ROOT
ATOM      1  C   UNL     1     182.373 181.429 184.512  1.00  0.00     0.000 C 
ENDROOT
BRANCH   1   2
ATOM      2  C   UNL     1     181.485 181.943 183.365  1.00  0.00     0.000 C 
BRANCH   2   3
ATOM      3  C   UNL     1     180.870 183.329 183.659  1.00  0.00     0.000 C 
BRANCH   3   4
ATOM      4  C   UNL     1     179.603 183.606 182.830  1.00  0.00     0.000 C 
BRANCH   4   5
ATOM      5  C   UNL     1     179.744 183.230 181.342  1.00  0.00     0.000 C 
BRANCH   5   6
ATOM      6  C   UNL     1     178.515 182.485 180.799  1.00  0.00     0.006 C 
BRANCH   6   7
ATOM      7  C   UNL     1     177.633 181.981 181.945  1.00  0.00     0.053 C 
BRANCH   7   8
ATOM      8  C   UNL     1     177.809 180.507 182.134  1.00  0.00     0.041 C 
ATOM      9  O   UNL     1     176.846 179.800 182.533  1.00  0.00    -0.550 OA
ATOM     10  O   UNL     1     179.049 179.922 181.914  1.00  0.00    -0.550 OA
ENDBRANCH   7   8
ENDBRANCH   6   7
ENDBRANCH   5   6
ENDBRANCH   4   5
ENDBRANCH   3   4
ENDBRANCH   2   3
ENDBRANCH   1   2
BRANCH   1  11
ATOM     11  C   UNL     1     183.514 180.500 184.044  1.00  0.00     0.000 C 
BRANCH  11  12
ATOM     12  C   UNL     1     183.733 180.479 182.520  1.00  0.00     0.000 C 
BRANCH  12  13
ATOM     13  C   UNL     1     185.158 180.902 182.123  1.00  0.00     0.000 C 
BRANCH  13  14
ATOM     14  C   UNL     1     185.174 182.046 181.094  1.00  0.00     0.000 C 
BRANCH  14  15
ATOM     15  C   UNL     1     184.211 183.210 181.399  1.00  0.00     0.000 C 
BRANCH  15  16
ATOM     16  C   UNL     1     183.094 183.387 180.347  1.00  0.00     0.006 C 
BRANCH  16  17
ATOM     17  C   UNL     1     183.341 182.547 179.087  1.00  0.00     0.053 C 
BRANCH  17  18
ATOM     18  C   UNL     1     182.178 181.644 178.823  1.00  0.00     0.041 C 
ATOM     19  O   UNL     1     181.609 181.655 177.699  1.00  0.00    -0.550 OA
ATOM     20  O   UNL     1     181.690 180.825 179.833  1.00  0.00    -0.550 OA
ENDBRANCH  17  18
ENDBRANCH  16  17
ENDBRANCH  15  16
ENDBRANCH  14  15
ENDBRANCH  13  14
ENDBRANCH  12  13
ENDBRANCH  11  12
ENDBRANCH   1  11
TORSDOF 15
ENDMDL
MODEL 3
REMARK VINA RESULT:    -4.667      1.401      2.813
REMARK INTER + INTRA:         -11.214
REMARK INTER:                  -8.744
REMARK INTRA:                  -2.470
REMARK UNBOUND:                -2.455
REMARK SMILES O=C([O-])CCCCCCCCCCCCCCC(=O)[O-]
REMARK SMILES IDX 10 1 9 2 8 3 7 4 6 5 5 6 4 7 2 8 1 9 3 10 11 11 12 12 13 13
REMARK SMILES IDX 14 14 15 15 16 16 17 17 18 18 19 19 20 20
REMARK H PARENT
REMARK Flexibility Score: inf
ROOT
ATOM      1  C   UNL     1     182.211 179.855 180.218  1.00  0.00     0.000 C 
ENDROOT
BRANCH   1   2
ATOM      2  C   UNL     1     181.017 180.630 179.635  1.00  0.00     0.000 C 
BRANCH   2   3
ATOM      3  C   UNL     1     181.447 181.742 178.653  1.00  0.00     0.000 C 
BRANCH   3   4
ATOM      4  C   UNL     1     182.823 182.340 178.996  1.00  0.00     0.000 C 
BRANCH   4   5
ATOM      5  C   UNL     1     182.761 183.483 180.029  1.00  0.00     0.000 C 
BRANCH   5   6
ATOM      6  C   UNL     1     183.863 183.381 181.094  1.00  0.00     0.006 C 
BRANCH   6   7
ATOM      7  C   UNL     1     184.867 182.281 180.737  1.00  0.00     0.053 C 
BRANCH   7   8
ATOM      8  C   UNL     1     185.999 182.265 181.715  1.00  0.00     0.041 C 
ATOM      9  O   UNL     1     186.514 181.172 182.071  1.00  0.00    -0.550 OA
ATOM     10  O   UNL     1     186.455 183.454 182.270  1.00  0.00    -0.550 OA
ENDBRANCH   7   8
ENDBRANCH   6   7
ENDBRANCH   5   6
ENDBRANCH   4   5
ENDBRANCH   3   4
ENDBRANCH   2   3
ENDBRANCH   1   2
BRANCH   1  11
ATOM     11  C   UNL     1     182.043 179.485 181.708  1.00  0.00     0.000 C 
BRANCH  11  12
ATOM     12  C   UNL     1     183.172 179.998 182.622  1.00  0.00     0.000 C 
BRANCH  12  13
ATOM     13  C   UNL     1     182.705 181.127 183.557  1.00  0.00     0.000 C 
BRANCH  13  14
ATOM     14  C   UNL     1     181.309 181.661 183.194  1.00  0.00     0.000 C 
BRANCH  14  15
ATOM     15  C   UNL     1     181.045 183.124 183.600  1.00  0.00     0.000 C 
BRANCH  15  16
ATOM     16  C   UNL     1     180.151 183.896 182.604  1.00  0.00     0.006 C 
BRANCH  16  17
ATOM     17  C   UNL     1     179.443 182.963 181.612  1.00  0.00     0.053 C 
BRANCH  17  18
ATOM     18  C   UNL     1     178.092 182.580 182.127  1.00  0.00     0.041 C 
ATOM     19  O   UNL     1     177.459 183.359 182.887  1.00  0.00    -0.550 OA
ATOM     20  O   UNL     1     177.551 181.341 181.806  1.00  0.00    -0.550 OA
ENDBRANCH  17  18
ENDBRANCH  16  17
ENDBRANCH  15  16
ENDBRANCH  14  15
ENDBRANCH  13  14
ENDBRANCH  12  13
ENDBRANCH  11  12
ENDBRANCH   1  11
TORSDOF 15
ENDMDL
MODEL 4
REMARK VINA RESULT:    -4.652      1.235      5.808
REMARK INTER + INTRA:         -11.187
REMARK INTER:                  -8.863
REMARK INTRA:                  -2.323
REMARK UNBOUND:                -2.455
REMARK SMILES O=C([O-])CCCCCCCCCCCCCCC(=O)[O-]
REMARK SMILES IDX 10 1 9 2 8 3 7 4 6 5 5 6 4 7 2 8 1 9 3 10 11 11 12 12 13 13
REMARK SMILES IDX 14 14 15 15 16 16 17 17 18 18 19 19 20 20
REMARK H PARENT
REMARK Flexibility Score: inf
ROOT
ATOM      1  C   UNL     1     181.625 184.135 180.248  1.00  0.00     0.000 C 
ENDROOT
BRANCH   1   2
ATOM      2  C   UNL     1     182.728 183.180 179.758  1.00  0.00     0.000 C 
BRANCH   2   3
ATOM      3  C   UNL     1     182.256 182.259 178.611  1.00  0.00     0.000 C 
BRANCH   3   4
ATOM      4  C   UNL     1     180.984 181.471 178.966  1.00  0.00     0.000 C 
BRANCH   4   5
ATOM      5  C   UNL     1     181.164 180.509 180.158  1.00  0.00     0.000 C 
BRANCH   5   6
ATOM      6  C   UNL     1     179.975 180.538 181.129  1.00  0.00     0.006 C 
BRANCH   6   7
ATOM      7  C   UNL     1     178.981 181.638 180.743  1.00  0.00     0.053 C 
BRANCH   7   8
ATOM      8  C   UNL     1     177.845 181.685 181.716  1.00  0.00     0.041 C 
ATOM      9  O   UNL     1     177.267 182.775 181.963  1.00  0.00    -0.550 OA
ATOM     10  O   UNL     1     177.455 180.531 182.383  1.00  0.00    -0.550 OA
ENDBRANCH   7   8
ENDBRANCH   6   7
ENDBRANCH   5   6
ENDBRANCH   4   5
ENDBRANCH   3   4
ENDBRANCH   2   3
ENDBRANCH   1   2
BRANCH   1  11
ATOM     11  C   UNL     1     181.758 184.525 181.736  1.00  0.00     0.000 C 
BRANCH  11  12
ATOM     12  C   UNL     1     180.673 183.926 182.650  1.00  0.00     0.000 C 
BRANCH  12  13
ATOM     13  C   UNL     1     181.235 182.869 183.617  1.00  0.00     0.000 C 
BRANCH  13  14
ATOM     14  C   UNL     1     182.588 182.301 183.155  1.00  0.00     0.000 C 
BRANCH  14  15
ATOM     15  C   UNL     1     182.899 180.874 183.650  1.00  0.00     0.000 C 
BRANCH  15  16
ATOM     16  C   UNL     1     184.070 180.197 182.905  1.00  0.00     0.006 C 
BRANCH  16  17
ATOM     17  C   UNL     1     184.437 180.930 181.607  1.00  0.00     0.053 C 
BRANCH  17  18
ATOM     18  C   UNL     1     185.797 181.541 181.718  1.00  0.00     0.041 C 
ATOM     19  O   UNL     1     186.822 180.809 181.742  1.00  0.00    -0.550 OA
ATOM     20  O   UNL     1     185.933 182.918 181.845  1.00  0.00    -0.550 OA
ENDBRANCH  17  18
ENDBRANCH  16  17
ENDBRANCH  15  16
ENDBRANCH  14  15
ENDBRANCH  13  14
ENDBRANCH  12  13
ENDBRANCH  11  12
ENDBRANCH   1  11
TORSDOF 15
ENDMDL
MODEL 5
REMARK VINA RESULT:    -4.650      0.565      6.328
REMARK INTER + INTRA:         -11.183
REMARK INTER:                  -8.751
REMARK INTRA:                  -2.432
REMARK UNBOUND:                -2.455
REMARK SMILES O=C([O-])CCCCCCCCCCCCCCC(=O)[O-]
REMARK SMILES IDX 10 1 9 2 8 3 7 4 6 5 5 6 4 7 2 8 1 9 3 10 11 11 12 12 13 13
REMARK SMILES IDX 14 14 15 15 16 16 17 17 18 18 19 19 20 20
REMARK H PARENT
REMARK Flexibility Score: inf
ROOT
ATOM      1  C   UNL     1     183.035 183.475 179.966  1.00  0.00     0.000 C 
ENDROOT
BRANCH   1   2
ATOM      2  C   UNL     1     181.779 184.024 180.665  1.00  0.00     0.000 C 
BRANCH   2   3
ATOM      3  C   UNL     1     181.765 183.736 182.182  1.00  0.00     0.000 C 
BRANCH   3   4
ATOM      4  C   UNL     1     180.562 182.877 182.613  1.00  0.00     0.000 C 
BRANCH   4   5
ATOM      5  C   UNL     1     179.203 183.442 182.153  1.00  0.00     0.000 C 
BRANCH   5   6
ATOM      6  C   UNL     1     178.396 182.440 181.315  1.00  0.00     0.006 C 
BRANCH   6   7
ATOM      7  C   UNL     1     177.323 181.755 182.167  1.00  0.00     0.053 C 
BRANCH   7   8
ATOM      8  C   UNL     1     177.536 180.274 182.190  1.00  0.00     0.041 C 
ATOM      9  O   UNL     1     178.704 179.803 182.195  1.00  0.00    -0.550 OA
ATOM     10  O   UNL     1     176.446 179.414 182.160  1.00  0.00    -0.550 OA
ENDBRANCH   7   8
ENDBRANCH   6   7
ENDBRANCH   5   6
ENDBRANCH   4   5
ENDBRANCH   3   4
ENDBRANCH   2   3
ENDBRANCH   1   2
BRANCH   1  11
ATOM     11  C   UNL     1     182.755 182.268 179.045  1.00  0.00     0.000 C 
BRANCH  11  12
ATOM     12  C   UNL     1     181.300 181.764 179.081  1.00  0.00     0.000 C 
BRANCH  12  13
ATOM     13  C   UNL     1     181.152 180.443 179.855  1.00  0.00     0.000 C 
BRANCH  13  14
ATOM     14  C   UNL     1     182.468 179.987 180.508  1.00  0.00     0.000 C 
BRANCH  14  15
ATOM     15  C   UNL     1     182.464 179.980 182.049  1.00  0.00     0.000 C 
BRANCH  15  16
ATOM     16  C   UNL     1     183.756 180.544 182.680  1.00  0.00     0.006 C 
BRANCH  16  17
ATOM     17  C   UNL     1     184.842 180.823 181.632  1.00  0.00     0.053 C 
BRANCH  17  18
ATOM     18  C   UNL     1     186.074 181.365 182.286  1.00  0.00     0.041 C 
ATOM     19  O   UNL     1     186.513 182.501 181.967  1.00  0.00    -0.550 OA
ATOM     20  O   UNL     1     186.765 180.594 183.211  1.00  0.00    -0.550 OA
ENDBRANCH  17  18
ENDBRANCH  16  17
ENDBRANCH  15  16
ENDBRANCH  14  15
ENDBRANCH  13  14
ENDBRANCH  12  13
ENDBRANCH  11  12
ENDBRANCH   1  11
TORSDOF 15
ENDMDL
MODEL 6
REMARK VINA RESULT:    -4.639      1.411      6.466
REMARK INTER + INTRA:         -11.162
REMARK INTER:                  -8.852
REMARK INTRA:                  -2.310
REMARK UNBOUND:                -2.455
REMARK SMILES O=C([O-])CCCCCCCCCCCCCCC(=O)[O-]
REMARK SMILES IDX 10 1 9 2 8 3 7 4 6 5 5 6 4 7 2 8 1 9 3 10 11 11 12 12 13 13
REMARK SMILES IDX 14 14 15 15 16 16 17 17 18 18 19 19 20 20
REMARK H PARENT
REMARK Flexibility Score: inf
ROOT
ATOM      1  C   UNL     1     182.058 181.209 179.367  1.00  0.00     0.000 C 
ENDROOT
BRANCH   1   2
ATOM      2  C   UNL     1     181.803 182.690 179.038  1.00  0.00     0.000 C 
BRANCH   2   3
ATOM      3  C   UNL     1     182.641 183.651 179.910  1.00  0.00     0.000 C 
BRANCH   3   4
ATOM      4  C   UNL     1     181.801 184.366 180.983  1.00  0.00     0.000 C 
BRANCH   4   5
ATOM      5  C   UNL     1     181.569 183.522 182.252  1.00  0.00     0.000 C 
BRANCH   5   6
ATOM      6  C   UNL     1     180.111 183.562 182.734  1.00  0.00     0.006 C 
BRANCH   6   7
ATOM      7  C   UNL     1     179.150 183.211 181.594  1.00  0.00     0.053 C 
BRANCH   7   8
ATOM      8  C   UNL     1     177.912 182.566 182.131  1.00  0.00     0.041 C 
ATOM      9  O   UNL     1     177.562 181.428 181.722  1.00  0.00    -0.550 OA
ATOM     10  O   UNL     1     177.119 183.242 183.050  1.00  0.00    -0.550 OA
ENDBRANCH   7   8
ENDBRANCH   6   7
ENDBRANCH   5   6
ENDBRANCH   4   5
ENDBRANCH   3   4
ENDBRANCH   2   3
ENDBRANCH   1   2
BRANCH   1  11
ATOM     11  C   UNL     1     180.820 180.475 179.925  1.00  0.00     0.000 C 
BRANCH  11  12
ATOM     12  C   UNL     1     180.980 179.963 181.369  1.00  0.00     0.000 C 
BRANCH  12  13
ATOM     13  C   UNL     1     182.422 179.526 181.682  1.00  0.00     0.000 C 
BRANCH  13  14
ATOM     14  C   UNL     1     183.044 180.318 182.844  1.00  0.00     0.000 C 
BRANCH  14  15
ATOM     15  C   UNL     1     184.565 180.547 182.737  1.00  0.00     0.000 C 
BRANCH  15  16
ATOM     16  C   UNL     1     184.995 181.286 181.451  1.00  0.00     0.006 C 
BRANCH  16  17
ATOM     17  C   UNL     1     186.390 181.912 181.577  1.00  0.00     0.053 C 
BRANCH  17  18
ATOM     18  C   UNL     1     186.283 183.372 181.886  1.00  0.00     0.041 C 
ATOM     19  O   UNL     1     187.317 184.089 181.927  1.00  0.00    -0.550 OA
ATOM     20  O   UNL     1     185.046 183.931 182.178  1.00  0.00    -0.550 OA
ENDBRANCH  17  18
ENDBRANCH  16  17
ENDBRANCH  15  16
ENDBRANCH  14  15
ENDBRANCH  13  14
ENDBRANCH  12  13
ENDBRANCH  11  12
ENDBRANCH   1  11
TORSDOF 15
ENDMDL
MODEL 7
REMARK VINA RESULT:    -4.637      1.190      1.800
REMARK INTER + INTRA:         -11.158
REMARK INTER:                  -8.563
REMARK INTRA:                  -2.596
REMARK UNBOUND:                -2.455
REMARK SMILES O=C([O-])CCCCCCCCCCCCCCC(=O)[O-]
REMARK SMILES IDX 10 1 9 2 8 3 7 4 6 5 5 6 4 7 2 8 1 9 3 10 11 11 12 12 13 13
REMARK SMILES IDX 14 14 15 15 16 16 17 17 18 18 19 19 20 20
REMARK H PARENT
REMARK Flexibility Score: inf
ROOT
ATOM      1  C   UNL     1     181.686 180.825 179.187  1.00  0.00     0.000 C 
ENDROOT
BRANCH   1   2
ATOM      2  C   UNL     1     180.520 180.401 180.096  1.00  0.00     0.000 C 
BRANCH   2   3
ATOM      3  C   UNL     1     180.870 179.195 180.997  1.00  0.00     0.000 C 
BRANCH   3   4
ATOM      4  C   UNL     1     182.223 179.361 181.711  1.00  0.00     0.000 C 
BRANCH   4   5
ATOM      5  C   UNL     1     182.232 180.485 182.766  1.00  0.00     0.000 C 
BRANCH   5   6
ATOM      6  C   UNL     1     183.619 181.118 182.947  1.00  0.00     0.006 C 
BRANCH   6   7
ATOM      7  C   UNL     1     184.550 180.734 181.792  1.00  0.00     0.053 C 
BRANCH   7   8
ATOM      8  C   UNL     1     185.948 181.185 182.072  1.00  0.00     0.041 C 
ATOM      9  O   UNL     1     186.462 182.114 181.395  1.00  0.00    -0.550 OA
ATOM     10  O   UNL     1     186.701 180.550 183.051  1.00  0.00    -0.550 OA
ENDBRANCH   7   8
ENDBRANCH   6   7
ENDBRANCH   5   6
ENDBRANCH   4   5
ENDBRANCH   3   4
ENDBRANCH   2   3
ENDBRANCH   1   2
BRANCH   1  11
ATOM     11  C   UNL     1     181.755 182.347 178.935  1.00  0.00     0.000 C 
BRANCH  11  12
ATOM     12  C   UNL     1     183.125 182.981 179.240  1.00  0.00     0.000 C 
BRANCH  12  13
ATOM     13  C   UNL     1     183.105 183.843 180.515  1.00  0.00     0.000 C 
BRANCH  13  14
ATOM     14  C   UNL     1     181.682 184.246 180.937  1.00  0.00     0.000 C 
BRANCH  14  15
ATOM     15  C   UNL     1     181.411 184.193 182.453  1.00  0.00     0.000 C 
BRANCH  15  16
ATOM     16  C   UNL     1     180.126 183.425 182.832  1.00  0.00     0.006 C 
BRANCH  16  17
ATOM     17  C   UNL     1     179.201 183.208 181.627  1.00  0.00     0.053 C 
BRANCH  17  18
ATOM     18  C   UNL     1     177.870 182.692 182.075  1.00  0.00     0.041 C 
ATOM     19  O   UNL     1     177.198 183.328 182.930  1.00  0.00    -0.550 OA
ATOM     20  O   UNL     1     177.393 181.483 181.585  1.00  0.00    -0.550 OA
ENDBRANCH  17  18
ENDBRANCH  16  17
ENDBRANCH  15  16
ENDBRANCH  14  15
ENDBRANCH  13  14
ENDBRANCH  12  13
ENDBRANCH  11  12
ENDBRANCH   1  11
TORSDOF 15
ENDMDL
MODEL 8
REMARK VINA RESULT:    -4.585      2.180      3.961
REMARK INTER + INTRA:         -11.062
REMARK INTER:                  -8.863
REMARK INTRA:                  -2.199
REMARK UNBOUND:                -2.455
REMARK SMILES O=C([O-])CCCCCCCCCCCCCCC(=O)[O-]
REMARK SMILES IDX 10 1 9 2 8 3 7 4 6 5 5 6 4 7 2 8 1 9 3 10 11 11 12 12 13 13
REMARK SMILES IDX 14 14 15 15 16 16 17 17 18 18 19 19 20 20
REMARK H PARENT
REMARK Flexibility Score: inf
ROOT
ATOM      1  C   UNL     1     177.656 180.693 182.080  1.00  0.00     0.000 C 
ENDROOT
BRANCH   1   2
ATOM      2  C   UNL     1     178.778 179.641 182.082  1.00  0.00     0.000 C 
BRANCH   2   3
ATOM      3  C   UNL     1     180.003 180.072 181.244  1.00  0.00     0.000 C 
BRANCH   3   4
ATOM      4  C   UNL     1     181.083 178.978 181.163  1.00  0.00     0.000 C 
BRANCH   4   5
ATOM      5  C   UNL     1     182.520 179.530 181.096  1.00  0.00     0.000 C 
BRANCH   5   6
ATOM      6  C   UNL     1     182.822 180.538 182.216  1.00  0.00     0.006 C 
BRANCH   6   7
ATOM      7  C   UNL     1     184.310 180.525 182.576  1.00  0.00     0.053 C 
BRANCH   7   8
ATOM      8  C   UNL     1     185.079 181.429 181.665  1.00  0.00     0.041 C 
ATOM      9  O   UNL     1     185.657 180.962 180.648  1.00  0.00    -0.550 OA
ATOM     10  O   UNL     1     185.194 182.781 181.963  1.00  0.00    -0.550 OA
ENDBRANCH   7   8
ENDBRANCH   6   7
ENDBRANCH   5   6
ENDBRANCH   4   5
ENDBRANCH   3   4
ENDBRANCH   2   3
ENDBRANCH   1   2
BRANCH   1  11
ATOM     11  C   UNL     1     178.125 182.100 181.651  1.00  0.00     0.000 C 
BRANCH  11  12
ATOM     12  C   UNL     1     177.826 183.211 182.676  1.00  0.00     0.000 C 
BRANCH  12  13
ATOM     13  C   UNL     1     179.106 183.874 183.215  1.00  0.00     0.000 C 
BRANCH  13  14
ATOM     14  C   UNL     1     180.385 183.301 182.582  1.00  0.00     0.000 C 
BRANCH  14  15
ATOM     15  C   UNL     1     181.348 184.350 181.993  1.00  0.00     0.000 C 
BRANCH  15  16
ATOM     16  C   UNL     1     182.145 183.848 180.769  1.00  0.00     0.006 C 
BRANCH  16  17
ATOM     17  C   UNL     1     181.271 183.052 179.791  1.00  0.00     0.053 C 
BRANCH  17  18
ATOM     18  C   UNL     1     182.124 182.307 178.814  1.00  0.00     0.041 C 
ATOM     19  O   UNL     1     181.643 181.347 178.155  1.00  0.00    -0.550 OA
ATOM     20  O   UNL     1     183.464 182.641 178.665  1.00  0.00    -0.550 OA
ENDBRANCH  17  18
ENDBRANCH  16  17
ENDBRANCH  15  16
ENDBRANCH  14  15
ENDBRANCH  13  14
ENDBRANCH  12  13
ENDBRANCH  11  12
ENDBRANCH   1  11
TORSDOF 15
ENDMDL
MODEL 9
REMARK VINA RESULT:    -4.549      2.159      5.748
REMARK INTER + INTRA:         -10.993
REMARK INTER:                  -8.926
REMARK INTRA:                  -2.067
REMARK UNBOUND:                -2.455
REMARK SMILES O=C([O-])CCCCCCCCCCCCCCC(=O)[O-]
REMARK SMILES IDX 10 1 9 2 8 3 7 4 6 5 5 6 4 7 2 8 1 9 3 10 11 11 12 12 13 13
REMARK SMILES IDX 14 14 15 15 16 16 17 17 18 18 19 19 20 20
REMARK H PARENT
REMARK Flexibility Score: inf
ROOT
ATOM      1  C   UNL     1     178.028 182.194 181.681  1.00  0.00     0.000 C 
ENDROOT
BRANCH   1   2
ATOM      2  C   UNL     1     177.877 183.275 182.765  1.00  0.00     0.000 C 
BRANCH   2   3
ATOM      3  C   UNL     1     179.233 183.866 183.212  1.00  0.00     0.000 C 
BRANCH   3   4
ATOM      4  C   UNL     1     180.425 183.268 182.445  1.00  0.00     0.000 C 
BRANCH   4   5
ATOM      5  C   UNL     1     181.501 184.306 182.066  1.00  0.00     0.000 C 
BRANCH   5   6
ATOM      6  C   UNL     1     182.098 184.061 180.672  1.00  0.00     0.006 C 
BRANCH   6   7
ATOM      7  C   UNL     1     181.258 183.047 179.889  1.00  0.00     0.053 C 
BRANCH   7   8
ATOM      8  C   UNL     1     182.110 182.303 178.911  1.00  0.00     0.041 C 
ATOM      9  O   UNL     1     181.641 181.318 178.283  1.00  0.00    -0.550 OA
ATOM     10  O   UNL     1     183.437 182.670 178.726  1.00  0.00    -0.550 OA
ENDBRANCH   7   8
ENDBRANCH   6   7
ENDBRANCH   5   6
ENDBRANCH   4   5
ENDBRANCH   3   4
ENDBRANCH   2   3
ENDBRANCH   1   2
BRANCH   1  11
ATOM     11  C   UNL     1     177.500 180.807 182.110  1.00  0.00     0.000 C 
BRANCH  11  12
ATOM     12  C   UNL     1     178.519 179.663 181.955  1.00  0.00     0.000 C 
BRANCH  12  13
ATOM     13  C   UNL     1     179.935 180.173 181.635  1.00  0.00     0.000 C 
BRANCH  13  14
ATOM     14  C   UNL     1     180.868 179.061 181.128  1.00  0.00     0.000 C 
BRANCH  14  15
ATOM     15  C   UNL     1     182.370 179.407 181.152  1.00  0.00     0.000 C 
BRANCH  15  16
ATOM     16  C   UNL     1     182.749 180.467 182.209  1.00  0.00     0.006 C 
BRANCH  16  17
ATOM     17  C   UNL     1     184.243 180.436 182.556  1.00  0.00     0.053 C 
BRANCH  17  18
ATOM     18  C   UNL     1     185.009 181.353 181.656  1.00  0.00     0.041 C 
ATOM     19  O   UNL     1     185.676 180.886 180.695  1.00  0.00    -0.550 OA
ATOM     20  O   UNL     1     185.026 182.719 181.906  1.00  0.00    -0.550 OA
ENDBRANCH  17  18
ENDBRANCH  16  17
ENDBRANCH  15  16
ENDBRANCH  14  15
ENDBRANCH  13  14
ENDBRANCH  12  13
ENDBRANCH  11  12
ENDBRANCH   1  11
TORSDOF 15
ENDMDL
