MODEL 1
REMARK VINA RESULT:    -3.368      0.000      0.000
REMARK INTER + INTRA:          -5.342
REMARK INTER:                  -5.140
REMARK INTRA:                  -0.202
REMARK UNBOUND:                -0.202
REMARK SMILES CC1=CCC[C@H](C)C(=O)C[C@H](C(C)C)C(=O)C1
REMARK SMILES IDX 8 1 9 2 6 3 7 4 5 5 4 6 3 7 2 8 1 9 10 11 11 12 15 13 16 14
REMARK SMILES IDX 17 15 12 17 13 18 14 19
REMARK H PARENT
REMARK Flexibility Score: 70.00
ROOT
ATOM      1  C   UNL     1      -2.248  24.389  61.601  1.00  0.00     0.136 C 
ATOM      2  O   UNL     1      -1.139  23.988  61.278  1.00  0.00    -0.299 OA
ENDROOT
BRANCH   1   3
ATOM      3  C   UNL     1      -2.324  25.444  62.693  1.00  0.00     0.053 C 
ATOM      4  C   UNL     1      -1.182  25.231  63.694  1.00  0.00     0.016 C 
BRANCH   3   5
ATOM      5  C   UNL     1      -2.247  26.864  62.087  1.00  0.00     0.015 C 
BRANCH   5   6
ATOM      6  C   UNL     1      -3.462  27.241  61.217  1.00  0.00     0.028 C 
BRANCH   6   7
ATOM      7  C   UNL     1      -4.745  27.296  62.010  1.00  0.00    -0.028 C 
ATOM      8  C   UNL     1      -5.854  26.552  61.789  1.00  0.00    -0.070 CG0
ATOM      9  C   UNL     1      -7.051  26.795  62.676  1.00  0.00     0.039 C 
ATOM     10  G   UNL     1      -5.934  25.438  60.760  1.00  0.00     0.000 G0
ENDBRANCH   6   7
ENDBRANCH   5   6
ENDBRANCH   3   5
ENDBRANCH   1   3
BRANCH   1  11
ATOM     11  C   UNL     1      -3.430  23.800  60.846  1.00  0.00     0.087 C 
BRANCH  11  12
ATOM     12  C   UNL     1      -4.652  23.257  61.644  1.00  0.00     0.066 C 
BRANCH  12  13
ATOM     13  C   UNL     1      -5.922  24.073  61.445  1.00  0.00     0.140 C 
ATOM     14  O   UNL     1      -6.986  23.566  61.776  1.00  0.00    -0.299 OA
BRANCH  13  15
ATOM     15  C   UNL     1      -5.946  25.414  60.754  1.00  0.00     0.106 CG0
ATOM     16  G   UNL     1      -5.890  26.541  61.773  1.00  0.00     0.000 G0
ENDBRANCH  13  15
ENDBRANCH  12  13
BRANCH  12  17
ATOM     17  C   UNL     1      -4.942  21.754  61.306  1.00  0.00    -0.006 C 
ATOM     18  C   UNL     1      -4.513  21.370  59.878  1.00  0.00     0.008 C 
ATOM     19  C   UNL     1      -4.247  20.801  62.300  1.00  0.00     0.008 C 
ENDBRANCH  12  17
ENDBRANCH  11  12
ENDBRANCH   1  11
TORSDOF 1
ENDMDL
MODEL 2
REMARK VINA RESULT:    -3.276      3.433      4.965
REMARK INTER + INTRA:          -5.202
REMARK INTER:                  -5.073
REMARK INTRA:                  -0.129
REMARK UNBOUND:                -0.202
REMARK SMILES CC1=CCC[C@H](C)C(=O)C[C@H](C(C)C)C(=O)C1
REMARK SMILES IDX 8 1 9 2 6 3 7 4 5 5 4 6 3 7 2 8 1 9 10 11 11 12 15 13 16 14
REMARK SMILES IDX 17 15 12 17 13 18 14 19
REMARK H PARENT
REMARK Flexibility Score: 70.00
ROOT
ATOM      1  C   UNL     1      -4.847  20.257  63.312  1.00  0.00     0.136 C 
ATOM      2  O   UNL     1      -4.043  19.431  63.723  1.00  0.00    -0.299 OA
ENDROOT
BRANCH   1   3
ATOM      3  C   UNL     1      -4.309  21.403  62.470  1.00  0.00     0.053 C 
ATOM      4  C   UNL     1      -2.801  21.551  62.706  1.00  0.00     0.016 C 
BRANCH   3   5
ATOM      5  C   UNL     1      -4.594  21.159  60.970  1.00  0.00     0.015 C 
BRANCH   5   6
ATOM      6  C   UNL     1      -6.015  21.559  60.529  1.00  0.00     0.028 C 
BRANCH   6   7
ATOM      7  C   UNL     1      -6.443  22.890  61.098  1.00  0.00    -0.028 C 
ATOM      8  C   UNL     1      -7.461  23.100  61.964  1.00  0.00    -0.070 CG0
ATOM      9  C   UNL     1      -7.750  24.522  62.377  1.00  0.00     0.039 C 
ATOM     10  G   UNL     1      -8.272  21.984  62.603  1.00  0.00     0.000 G0
ENDBRANCH   6   7
ENDBRANCH   5   6
ENDBRANCH   3   5
ENDBRANCH   1   3
BRANCH   1  11
ATOM     11  C   UNL     1      -6.306  20.024  63.672  1.00  0.00     0.087 C 
BRANCH  11  12
ATOM     12  C   UNL     1      -6.997  20.962  64.704  1.00  0.00     0.066 C 
BRANCH  12  13
ATOM     13  C   UNL     1      -8.030  21.894  64.086  1.00  0.00     0.140 C 
ATOM     14  O   UNL     1      -8.759  22.524  64.841  1.00  0.00    -0.299 OA
BRANCH  13  15
ATOM     15  C   UNL     1      -8.278  21.987  62.600  1.00  0.00     0.106 CG0
ATOM     16  G   UNL     1      -7.439  23.096  61.987  1.00  0.00     0.000 G0
ENDBRANCH  13  15
ENDBRANCH  12  13
BRANCH  12  17
ATOM     17  C   UNL     1      -7.663  20.150  65.869  1.00  0.00    -0.006 C 
ATOM     18  C   UNL     1      -8.253  18.807  65.399  1.00  0.00     0.008 C 
ATOM     19  C   UNL     1      -6.667  19.875  67.014  1.00  0.00     0.008 C 
ENDBRANCH  12  17
ENDBRANCH  11  12
ENDBRANCH   1  11
TORSDOF 1
ENDMDL
MODEL 3
REMARK VINA RESULT:    -3.147      5.146      7.414
REMARK INTER + INTRA:          -5.005
REMARK INTER:                  -4.876
REMARK INTRA:                  -0.128
REMARK UNBOUND:                -0.202
REMARK SMILES CC1=CCC[C@H](C)C(=O)C[C@H](C(C)C)C(=O)C1
REMARK SMILES IDX 8 1 9 2 6 3 7 4 5 5 4 6 3 7 2 8 1 9 10 11 11 12 15 13 16 14
REMARK SMILES IDX 17 15 12 17 13 18 14 19
REMARK H PARENT
REMARK Flexibility Score: 70.00
ROOT
ATOM      1  C   UNL     1       1.407  27.083  65.021  1.00  0.00     0.136 C 
ATOM      2  O   UNL     1       1.659  28.101  65.650  1.00  0.00    -0.299 OA
ENDROOT
BRANCH   1   3
ATOM      3  C   UNL     1       0.207  26.261  65.464  1.00  0.00     0.053 C 
ATOM      4  C   UNL     1      -0.147  26.610  66.916  1.00  0.00     0.016 C 
BRANCH   3   5
ATOM      5  C   UNL     1      -1.005  26.521  64.541  1.00  0.00     0.015 C 
BRANCH   5   6
ATOM      6  C   UNL     1      -1.236  25.422  63.486  1.00  0.00     0.028 C 
BRANCH   6   7
ATOM      7  C   UNL     1      -0.773  25.837  62.110  1.00  0.00    -0.028 C 
ATOM      8  C   UNL     1       0.311  25.361  61.454  1.00  0.00    -0.070 CG0
ATOM      9  C   UNL     1       0.623  25.943  60.098  1.00  0.00     0.039 C 
ATOM     10  G   UNL     1       1.178  24.222  61.968  1.00  0.00     0.000 G0
ENDBRANCH   6   7
ENDBRANCH   5   6
ENDBRANCH   3   5
ENDBRANCH   1   3
BRANCH   1  11
ATOM     11  C   UNL     1       2.314  26.771  63.841  1.00  0.00     0.087 C 
BRANCH  11  12
ATOM     12  C   UNL     1       2.889  25.333  63.679  1.00  0.00     0.066 C 
BRANCH  12  13
ATOM     13  C   UNL     1       2.565  24.694  62.336  1.00  0.00     0.140 C 
ATOM     14  O   UNL     1       3.447  24.668  61.486  1.00  0.00    -0.299 OA
BRANCH  13  15
ATOM     15  C   UNL     1       1.188  24.206  61.960  1.00  0.00     0.106 CG0
ATOM     16  G   UNL     1       0.334  25.355  61.450  1.00  0.00     0.000 G0
ENDBRANCH  13  15
ENDBRANCH  12  13
BRANCH  12  17
ATOM     17  C   UNL     1       4.440  25.300  63.909  1.00  0.00    -0.006 C 
ATOM     18  C   UNL     1       5.046  26.706  64.083  1.00  0.00     0.008 C 
ATOM     19  C   UNL     1       4.816  24.448  65.138  1.00  0.00     0.008 C 
ENDBRANCH  12  17
ENDBRANCH  11  12
ENDBRANCH   1  11
TORSDOF 1
ENDMDL
MODEL 4
REMARK VINA RESULT:    -3.145      8.581     10.502
REMARK INTER + INTRA:          -5.001
REMARK INTER:                  -4.795
REMARK INTRA:                  -0.206
REMARK UNBOUND:                -0.202
REMARK SMILES CC1=CCC[C@H](C)C(=O)C[C@H](C(C)C)C(=O)C1
REMARK SMILES IDX 8 1 9 2 6 3 7 4 5 5 4 6 3 7 2 8 1 9 10 11 11 12 15 13 16 14
REMARK SMILES IDX 17 15 12 17 13 18 14 19
REMARK H PARENT
REMARK Flexibility Score: 70.00
ROOT
ATOM      1  C   UNL     1       0.680  26.641  67.331  1.00  0.00     0.136 C 
ATOM      2  O   UNL     1       0.089  26.912  66.295  1.00  0.00    -0.299 OA
ENDROOT
BRANCH   1   3
ATOM      3  C   UNL     1      -0.114  26.691  68.627  1.00  0.00     0.053 C 
ATOM      4  C   UNL     1       0.440  25.649  69.609  1.00  0.00     0.016 C 
BRANCH   3   5
ATOM      5  C   UNL     1      -0.050  28.102  69.254  1.00  0.00     0.015 C 
BRANCH   5   6
ATOM      6  C   UNL     1       1.129  28.304  70.226  1.00  0.00     0.028 C 
BRANCH   6   7
ATOM      7  C   UNL     1       2.029  29.442  69.813  1.00  0.00    -0.028 C 
ATOM      8  C   UNL     1       3.259  29.328  69.258  1.00  0.00    -0.070 CG0
ATOM      9  C   UNL     1       4.014  30.599  68.958  1.00  0.00     0.039 C 
ATOM     10  G   UNL     1       3.883  28.004  68.849  1.00  0.00     0.000 G0
ENDBRANCH   6   7
ENDBRANCH   5   6
ENDBRANCH   3   5
ENDBRANCH   1   3
BRANCH   1  11
ATOM     11  C   UNL     1       2.145  26.257  67.198  1.00  0.00     0.087 C 
BRANCH  11  12
ATOM     12  C   UNL     1       3.119  27.208  66.441  1.00  0.00     0.066 C 
BRANCH  12  13
ATOM     13  C   UNL     1       4.093  27.937  67.356  1.00  0.00     0.140 C 
ATOM     14  O   UNL     1       5.115  28.392  66.859  1.00  0.00    -0.299 OA
BRANCH  13  15
ATOM     15  C   UNL     1       3.920  28.020  68.853  1.00  0.00     0.106 CG0
ATOM     16  G   UNL     1       3.255  29.330  69.243  1.00  0.00     0.000 G0
ENDBRANCH  13  15
ENDBRANCH  12  13
BRANCH  12  17
ATOM     17  C   UNL     1       3.921  26.449  65.328  1.00  0.00    -0.006 C 
ATOM     18  C   UNL     1       4.375  25.046  65.773  1.00  0.00     0.008 C 
ATOM     19  C   UNL     1       3.103  26.311  64.029  1.00  0.00     0.008 C 
ENDBRANCH  12  17
ENDBRANCH  11  12
ENDBRANCH   1  11
TORSDOF 1
ENDMDL
MODEL 5
REMARK VINA RESULT:    -3.126      8.167     11.138
REMARK INTER + INTRA:          -4.972
REMARK INTER:                  -4.657
REMARK INTRA:                  -0.315
REMARK UNBOUND:                -0.202
REMARK SMILES CC1=CCC[C@H](C)C(=O)C[C@H](C(C)C)C(=O)C1
REMARK SMILES IDX 8 1 9 2 6 3 7 4 5 5 4 6 3 7 2 8 1 9 10 11 11 12 15 13 16 14
REMARK SMILES IDX 17 15 12 17 13 18 14 19
REMARK H PARENT
REMARK Flexibility Score: 70.00
ROOT
ATOM      1  C   UNL     1       0.665  28.282  68.081  1.00  0.00     0.136 C 
ATOM      2  O   UNL     1      -0.470  28.732  68.009  1.00  0.00    -0.299 OA
ENDROOT
BRANCH   1   3
ATOM      3  C   UNL     1       0.842  26.785  67.881  1.00  0.00     0.053 C 
ATOM      4  C   UNL     1      -0.140  26.026  68.784  1.00  0.00     0.016 C 
BRANCH   3   5
ATOM      5  C   UNL     1       0.615  26.399  66.402  1.00  0.00     0.015 C 
BRANCH   5   6
ATOM      6  C   UNL     1       1.774  26.795  65.467  1.00  0.00     0.028 C 
BRANCH   6   7
ATOM      7  C   UNL     1       3.106  26.266  65.942  1.00  0.00    -0.028 C 
ATOM      8  C   UNL     1       4.200  27.005  66.238  1.00  0.00    -0.070 CG0
ATOM      9  C   UNL     1       5.450  26.272  66.657  1.00  0.00     0.039 C 
ATOM     10  G   UNL     1       4.216  28.525  66.251  1.00  0.00     0.000 G0
ENDBRANCH   6   7
ENDBRANCH   5   6
ENDBRANCH   3   5
ENDBRANCH   1   3
BRANCH   1  11
ATOM     11  C   UNL     1       1.780  29.284  68.334  1.00  0.00     0.087 C 
BRANCH  11  12
ATOM     12  C   UNL     1       3.199  28.769  68.714  1.00  0.00     0.066 C 
BRANCH  12  13
ATOM     13  C   UNL     1       4.259  29.071  67.664  1.00  0.00     0.140 C 
ATOM     14  O   UNL     1       5.138  29.874  67.951  1.00  0.00    -0.299 OA
BRANCH  13  15
ATOM     15  C   UNL     1       4.212  28.527  66.258  1.00  0.00     0.106 CG0
ATOM     16  G   UNL     1       4.185  27.007  66.273  1.00  0.00     0.000 G0
ENDBRANCH  13  15
ENDBRANCH  12  13
BRANCH  12  17
ATOM     17  C   UNL     1       3.667  29.331  70.101  1.00  0.00    -0.006 C 
ATOM     18  C   UNL     1       2.679  30.354  70.694  1.00  0.00     0.008 C 
ATOM     19  C   UNL     1       3.882  28.203  71.131  1.00  0.00     0.008 C 
ENDBRANCH  12  17
ENDBRANCH  11  12
ENDBRANCH   1  11
TORSDOF 1
ENDMDL
MODEL 6
REMARK VINA RESULT:    -3.056      7.436     10.044
REMARK INTER + INTRA:          -4.866
REMARK INTER:                  -4.800
REMARK INTRA:                  -0.066
REMARK UNBOUND:                -0.202
REMARK SMILES CC1=CCC[C@H](C)C(=O)C[C@H](C(C)C)C(=O)C1
REMARK SMILES IDX 8 1 9 2 6 3 7 4 5 5 4 6 3 7 2 8 1 9 10 11 11 12 15 13 16 14
REMARK SMILES IDX 17 15 12 17 13 18 14 19
REMARK H PARENT
REMARK Flexibility Score: 70.00
ROOT
ATOM      1  C   UNL     1       3.322  26.531  66.374  1.00  0.00     0.136 C 
ATOM      2  O   UNL     1       3.427  25.601  65.586  1.00  0.00    -0.299 OA
ENDROOT
BRANCH   1   3
ATOM      3  C   UNL     1       4.549  26.902  67.192  1.00  0.00     0.053 C 
ATOM      4  C   UNL     1       5.652  25.859  66.966  1.00  0.00     0.016 C 
BRANCH   3   5
ATOM      5  C   UNL     1       5.058  28.310  66.809  1.00  0.00     0.015 C 
BRANCH   5   6
ATOM      6  C   UNL     1       4.943  29.347  67.943  1.00  0.00     0.028 C 
BRANCH   6   7
ATOM      7  C   UNL     1       4.312  28.774  69.188  1.00  0.00    -0.028 C 
ATOM      8  C   UNL     1       3.016  28.896  69.557  1.00  0.00    -0.070 CG0
ATOM      9  C   UNL     1       2.598  28.280  70.869  1.00  0.00     0.039 C 
ATOM     10  G   UNL     1       1.947  29.542  68.691  1.00  0.00     0.000 G0
ENDBRANCH   6   7
ENDBRANCH   5   6
ENDBRANCH   3   5
ENDBRANCH   1   3
BRANCH   1  11
ATOM     11  C   UNL     1       1.974  27.233  66.423  1.00  0.00     0.087 C 
BRANCH  11  12
ATOM     12  C   UNL     1       1.130  27.175  67.730  1.00  0.00     0.066 C 
BRANCH  12  13
ATOM     13  C   UNL     1       0.858  28.543  68.341  1.00  0.00     0.140 C 
ATOM     14  O   UNL     1      -0.308  28.889  68.476  1.00  0.00    -0.299 OA
BRANCH  13  15
ATOM     15  C   UNL     1       1.947  29.534  68.672  1.00  0.00     0.106 CG0
ATOM     16  G   UNL     1       3.008  28.889  69.549  1.00  0.00     0.000 G0
ENDBRANCH  13  15
ENDBRANCH  12  13
BRANCH  12  17
ATOM     17  C   UNL     1      -0.230  26.426  67.509  1.00  0.00    -0.006 C 
ATOM     18  C   UNL     1      -0.458  26.026  66.039  1.00  0.00     0.008 C 
ATOM     19  C   UNL     1      -0.333  25.161  68.384  1.00  0.00     0.008 C 
ENDBRANCH  12  17
ENDBRANCH  11  12
ENDBRANCH   1  11
TORSDOF 1
ENDMDL
MODEL 7
REMARK VINA RESULT:    -2.975      6.407      8.504
REMARK INTER + INTRA:          -4.742
REMARK INTER:                  -4.836
REMARK INTRA:                   0.094
REMARK UNBOUND:                -0.202
REMARK SMILES CC1=CCC[C@H](C)C(=O)C[C@H](C(C)C)C(=O)C1
REMARK SMILES IDX 8 1 9 2 6 3 7 4 5 5 4 6 3 7 2 8 1 9 10 11 11 12 15 13 16 14
REMARK SMILES IDX 17 15 12 17 13 18 14 19
REMARK H PARENT
REMARK Flexibility Score: 70.00
ROOT
ATOM      1  C   UNL     1       1.963  27.249  67.729  1.00  0.00     0.136 C 
ATOM      2  O   UNL     1       1.835  28.465  67.725  1.00  0.00    -0.299 OA
ENDROOT
BRANCH   1   3
ATOM      3  C   UNL     1       0.850  26.425  68.357  1.00  0.00     0.053 C 
ATOM      4  C   UNL     1       0.068  27.293  69.352  1.00  0.00     0.016 C 
BRANCH   3   5
ATOM      5  C   UNL     1      -0.099  25.870  67.271  1.00  0.00     0.015 C 
BRANCH   5   6
ATOM      6  C   UNL     1      -0.443  26.883  66.162  1.00  0.00     0.028 C 
BRANCH   6   7
ATOM      7  C   UNL     1      -0.237  26.316  64.778  1.00  0.00    -0.028 C 
ATOM      8  C   UNL     1       0.659  26.749  63.862  1.00  0.00    -0.070 CG0
ATOM      9  C   UNL     1       0.673  26.068  62.516  1.00  0.00     0.039 C 
ATOM     10  G   UNL     1       1.701  27.821  64.139  1.00  0.00     0.000 G0
ENDBRANCH   6   7
ENDBRANCH   5   6
ENDBRANCH   3   5
ENDBRANCH   1   3
BRANCH   1  11
ATOM     11  C   UNL     1       3.219  26.695  67.074  1.00  0.00     0.087 C 
BRANCH  11  12
ATOM     12  C   UNL     1       3.137  26.120  65.629  1.00  0.00     0.066 C 
BRANCH  12  13
ATOM     13  C   UNL     1       3.030  27.191  64.552  1.00  0.00     0.140 C 
ATOM     14  O   UNL     1       4.069  27.624  64.069  1.00  0.00    -0.299 OA
BRANCH  13  15
ATOM     15  C   UNL     1       1.724  27.825  64.141  1.00  0.00     0.106 CG0
ATOM     16  G   UNL     1       0.678  26.760  63.857  1.00  0.00     0.000 G0
ENDBRANCH  13  15
ENDBRANCH  12  13
BRANCH  12  17
ATOM     17  C   UNL     1       4.352  25.182  65.310  1.00  0.00    -0.006 C 
ATOM     18  C   UNL     1       4.846  24.405  66.545  1.00  0.00     0.008 C 
ATOM     19  C   UNL     1       4.013  24.169  64.197  1.00  0.00     0.008 C 
ENDBRANCH  12  17
ENDBRANCH  11  12
ENDBRANCH   1  11
TORSDOF 1
ENDMDL
MODEL 8
REMARK VINA RESULT:    -2.968      5.653      7.337
REMARK INTER + INTRA:          -4.732
REMARK INTER:                  -4.582
REMARK INTRA:                  -0.150
REMARK UNBOUND:                -0.202
REMARK SMILES CC1=CCC[C@H](C)C(=O)C[C@H](C(C)C)C(=O)C1
REMARK SMILES IDX 8 1 9 2 6 3 7 4 5 5 4 6 3 7 2 8 1 9 10 11 11 12 15 13 16 14
REMARK SMILES IDX 17 15 12 17 13 18 14 19
REMARK H PARENT
REMARK Flexibility Score: 70.00
ROOT
ATOM      1  C   UNL     1       4.058  26.406  64.161  1.00  0.00     0.136 C 
ATOM      2  O   UNL     1       5.014  27.165  64.233  1.00  0.00    -0.299 OA
ENDROOT
BRANCH   1   3
ATOM      3  C   UNL     1       3.806  25.478  65.339  1.00  0.00     0.053 C 
ATOM      4  C   UNL     1       5.042  24.600  65.575  1.00  0.00     0.016 C 
BRANCH   3   5
ATOM      5  C   UNL     1       3.474  26.288  66.613  1.00  0.00     0.015 C 
BRANCH   5   6
ATOM      6  C   UNL     1       1.968  26.539  66.821  1.00  0.00     0.028 C 
BRANCH   6   7
ATOM      7  C   UNL     1       1.490  27.792  66.127  1.00  0.00    -0.028 C 
ATOM      8  C   UNL     1       0.691  27.846  65.036  1.00  0.00    -0.070 CG0
ATOM      9  C   UNL     1       0.365  29.207  64.472  1.00  0.00     0.039 C 
ATOM     10  G   UNL     1       0.043  26.627  64.401  1.00  0.00     0.000 G0
ENDBRANCH   6   7
ENDBRANCH   5   6
ENDBRANCH   3   5
ENDBRANCH   1   3
BRANCH   1  11
ATOM     11  C   UNL     1       3.208  26.499  62.903  1.00  0.00     0.087 C 
BRANCH  11  12
ATOM     12  C   UNL     1       1.931  25.618  62.777  1.00  0.00     0.066 C 
BRANCH  12  13
ATOM     13  C   UNL     1       0.637  26.383  63.018  1.00  0.00     0.140 C 
ATOM     14  O   UNL     1       0.094  26.908  62.054  1.00  0.00    -0.299 OA
BRANCH  13  15
ATOM     15  C   UNL     1       0.060  26.625  64.391  1.00  0.00     0.106 CG0
ATOM     16  G   UNL     1       0.700  27.847  65.031  1.00  0.00     0.000 G0
ENDBRANCH  13  15
ENDBRANCH  12  13
BRANCH  12  17
ATOM     17  C   UNL     1       1.858  24.900  61.385  1.00  0.00    -0.006 C 
ATOM     18  C   UNL     1       3.248  24.539  60.827  1.00  0.00     0.008 C 
ATOM     19  C   UNL     1       1.007  23.615  61.450  1.00  0.00     0.008 C 
ENDBRANCH  12  17
ENDBRANCH  11  12
ENDBRANCH   1  11
TORSDOF 1
ENDMDL
MODEL 9
REMARK VINA RESULT:    -2.957      7.624      9.153
REMARK INTER + INTRA:          -4.715
REMARK INTER:                  -4.957
REMARK INTRA:                   0.242
REMARK UNBOUND:                -0.202
REMARK SMILES CC1=CCC[C@H](C)C(=O)C[C@H](C(C)C)C(=O)C1
REMARK SMILES IDX 8 1 9 2 6 3 7 4 5 5 4 6 3 7 2 8 1 9 10 11 11 12 15 13 16 14
REMARK SMILES IDX 17 15 12 17 13 18 14 19
REMARK H PARENT
REMARK Flexibility Score: 70.00
ROOT
ATOM      1  C   UNL     1       1.812  26.660  68.015  1.00  0.00     0.136 C 
ATOM      2  O   UNL     1       1.766  27.256  69.081  1.00  0.00    -0.299 OA
ENDROOT
BRANCH   1   3
ATOM      3  C   UNL     1       0.494  26.220  67.397  1.00  0.00     0.053 C 
ATOM      4  C   UNL     1      -0.455  25.736  68.501  1.00  0.00     0.016 C 
BRANCH   3   5
ATOM      5  C   UNL     1      -0.153  27.380  66.607  1.00  0.00     0.015 C 
BRANCH   5   6
ATOM      6  C   UNL     1       0.346  27.504  65.154  1.00  0.00     0.028 C 
BRANCH   6   7
ATOM      7  C   UNL     1       1.002  28.836  64.880  1.00  0.00    -0.028 C 
ATOM      8  C   UNL     1       2.249  29.027  64.389  1.00  0.00    -0.070 CG0
ATOM      9  C   UNL     1       2.730  30.448  64.230  1.00  0.00     0.039 C 
ATOM     10  G   UNL     1       3.153  27.901  63.914  1.00  0.00     0.000 G0
ENDBRANCH   6   7
ENDBRANCH   5   6
ENDBRANCH   3   5
ENDBRANCH   1   3
BRANCH   1  11
ATOM     11  C   UNL     1       3.192  26.450  67.412  1.00  0.00     0.087 C 
BRANCH  11  12
ATOM     12  C   UNL     1       3.321  26.114  65.897  1.00  0.00     0.066 C 
BRANCH  12  13
ATOM     13  C   UNL     1       3.894  27.254  65.066  1.00  0.00     0.140 C 
ATOM     14  O   UNL     1       4.962  27.739  65.418  1.00  0.00    -0.299 OA
BRANCH  13  15
ATOM     15  C   UNL     1       3.158  27.891  63.913  1.00  0.00     0.106 CG0
ATOM     16  G   UNL     1       2.260  29.013  64.407  1.00  0.00     0.000 G0
ENDBRANCH  13  15
ENDBRANCH  12  13
BRANCH  12  17
ATOM     17  C   UNL     1       4.175  24.820  65.660  1.00  0.00    -0.006 C 
ATOM     18  C   UNL     1       4.604  24.649  64.191  1.00  0.00     0.008 C 
ATOM     19  C   UNL     1       5.437  24.800  66.546  1.00  0.00     0.008 C 
ENDBRANCH  12  17
ENDBRANCH  11  12
ENDBRANCH   1  11
TORSDOF 1
ENDMDL
