MODEL 1
REMARK VINA RESULT:    -5.418      0.000      0.000
REMARK INTER + INTRA:          -9.553
REMARK INTER:                  -8.268
REMARK INTRA:                  -1.285
REMARK UNBOUND:                -1.285
REMARK SMILES CC(=O)CCC=C(C)CCC=C(C)CCC=C(C)C
REMARK SMILES IDX 10 1 11 2 12 3 13 4 14 5 15 6 16 7 18 8 17 9 19 10 9 11 7 12
REMARK SMILES IDX 6 13 8 14 5 15 4 16 2 17 3 18 1 19
REMARK H PARENT
REMARK Flexibility Score: inf
ROOT
ATOM      1  C   UNL     1     100.911 131.778 127.556  1.00  0.00     0.032 C 
ENDROOT
BRANCH   1   2
ATOM      2  C   UNL     1     101.796 131.285 126.436  1.00  0.00    -0.028 C 
ATOM      3  C   UNL     1     101.455 131.349 125.130  1.00  0.00    -0.077 C 
ATOM      4  C   UNL     1     102.421 130.808 124.107  1.00  0.00     0.039 C 
BRANCH   3   5
ATOM      5  C   UNL     1     100.119 131.884 124.656  1.00  0.00     0.034 C 
BRANCH   5   6
ATOM      6  C   UNL     1     100.313 133.124 123.777  1.00  0.00     0.032 C 
BRANCH   6   7
ATOM      7  C   UNL     1     101.128 134.169 124.496  1.00  0.00    -0.028 C 
ATOM      8  C   UNL     1      99.114 135.455 125.247  1.00  0.00     0.039 C 
ATOM      9  C   UNL     1     100.604 135.240 125.134  1.00  0.00    -0.080 C 
ATOM     10  C   UNL     1     101.516 136.239 125.795  1.00  0.00     0.039 C 
ENDBRANCH   6   7
ENDBRANCH   5   6
ENDBRANCH   3   5
ENDBRANCH   1   2
BRANCH   1  11
ATOM     11  C   UNL     1     100.237 130.612 128.287  1.00  0.00     0.034 C 
BRANCH  11  12
ATOM     12  C   UNL     1     100.839 130.421 129.663  1.00  0.00    -0.077 C 
ATOM     13  C   UNL     1     102.173 130.223 129.774  1.00  0.00    -0.028 C 
ATOM     14  C   UNL     1      99.937 130.475 130.875  1.00  0.00     0.039 C 
BRANCH  13  15
ATOM     15  C   UNL     1     102.892 129.963 131.073  1.00  0.00     0.035 C 
BRANCH  15  16
ATOM     16  C   UNL     1     103.983 131.018 131.306  1.00  0.00     0.079 C 
BRANCH  16  17
ATOM     17  C   UNL     1     103.848 131.781 132.605  1.00  0.00     0.130 C 
ATOM     18  O   UNL     1     104.819 131.840 133.346  1.00  0.00    -0.300 OA
ATOM     19  C   UNL     1     102.576 132.462 133.028  1.00  0.00     0.087 C 
ENDBRANCH  16  17
ENDBRANCH  15  16
ENDBRANCH  13  15
ENDBRANCH  11  12
ENDBRANCH   1  11
TORSDOF 9
ENDMDL
MODEL 2
REMARK VINA RESULT:    -5.414      2.992      6.859
REMARK INTER + INTRA:          -9.547
REMARK INTER:                  -7.452
REMARK INTRA:                  -2.095
REMARK UNBOUND:                -1.285
REMARK SMILES CC(=O)CCC=C(C)CCC=C(C)CCC=C(C)C
REMARK SMILES IDX 10 1 11 2 12 3 13 4 14 5 15 6 16 7 18 8 17 9 19 10 9 11 7 12
REMARK SMILES IDX 6 13 8 14 5 15 4 16 2 17 3 18 1 19
REMARK H PARENT
REMARK Flexibility Score: inf
ROOT
ATOM      1  C   UNL     1     104.408 133.536 123.499  1.00  0.00     0.032 C 
ENDROOT
BRANCH   1   2
ATOM      2  C   UNL     1     103.481 132.405 123.127  1.00  0.00    -0.028 C 
ATOM      3  C   UNL     1     102.958 131.540 124.024  1.00  0.00    -0.077 C 
ATOM      4  C   UNL     1     102.055 130.441 123.524  1.00  0.00     0.039 C 
BRANCH   3   5
ATOM      5  C   UNL     1     103.288 131.592 125.502  1.00  0.00     0.034 C 
BRANCH   5   6
ATOM      6  C   UNL     1     102.111 131.081 126.339  1.00  0.00     0.032 C 
BRANCH   6   7
ATOM      7  C   UNL     1     102.585 130.581 127.680  1.00  0.00    -0.028 C 
ATOM      8  C   UNL     1     100.301 130.685 128.705  1.00  0.00     0.039 C 
ATOM      9  C   UNL     1     101.788 130.429 128.763  1.00  0.00    -0.080 C 
ATOM     10  C   UNL     1     102.375 129.950 130.064  1.00  0.00     0.039 C 
ENDBRANCH   6   7
ENDBRANCH   5   6
ENDBRANCH   3   5
ENDBRANCH   1   2
BRANCH   1  11
ATOM     11  C   UNL     1     103.936 134.864 122.896  1.00  0.00     0.034 C 
BRANCH  11  12
ATOM     12  C   UNL     1     102.770 135.426 123.681  1.00  0.00    -0.077 C 
ATOM     13  C   UNL     1     102.741 135.258 125.023  1.00  0.00    -0.028 C 
ATOM     14  C   UNL     1     101.682 136.175 122.947  1.00  0.00     0.039 C 
BRANCH  13  15
ATOM     15  C   UNL     1     101.615 135.716 125.916  1.00  0.00     0.035 C 
BRANCH  15  16
ATOM     16  C   UNL     1     100.690 134.541 126.262  1.00  0.00     0.079 C 
BRANCH  16  17
ATOM     17  C   UNL     1      99.595 134.288 125.249  1.00  0.00     0.130 C 
ATOM     18  O   UNL     1      98.647 135.058 125.216  1.00  0.00    -0.300 OA
ATOM     19  C   UNL     1      99.618 133.130 124.289  1.00  0.00     0.087 C 
ENDBRANCH  16  17
ENDBRANCH  15  16
ENDBRANCH  13  15
ENDBRANCH  11  12
ENDBRANCH   1  11
TORSDOF 9
ENDMDL
MODEL 3
REMARK VINA RESULT:    -5.277      2.376      7.186
REMARK INTER + INTRA:          -9.338
REMARK INTER:                  -8.332
REMARK INTRA:                  -1.007
REMARK UNBOUND:                -1.285
REMARK SMILES CC(=O)CCC=C(C)CCC=C(C)CCC=C(C)C
REMARK SMILES IDX 10 1 11 2 12 3 13 4 14 5 15 6 16 7 18 8 17 9 19 10 9 11 7 12
REMARK SMILES IDX 6 13 8 14 5 15 4 16 2 17 3 18 1 19
REMARK H PARENT
REMARK Flexibility Score: inf
ROOT
ATOM      1  C   UNL     1     101.093 131.729 126.153  1.00  0.00     0.032 C 
ENDROOT
BRANCH   1   2
ATOM      2  C   UNL     1     102.333 131.080 126.718  1.00  0.00    -0.028 C 
ATOM      3  C   UNL     1     102.377 130.475 127.925  1.00  0.00    -0.077 C 
ATOM      4  C   UNL     1     103.682 129.877 128.384  1.00  0.00     0.039 C 
BRANCH   3   5
ATOM      5  C   UNL     1     101.186 130.425 128.862  1.00  0.00     0.034 C 
BRANCH   5   6
ATOM      6  C   UNL     1     101.608 129.935 130.250  1.00  0.00     0.032 C 
BRANCH   6   7
ATOM      7  C   UNL     1     101.620 131.073 131.240  1.00  0.00    -0.028 C 
ATOM      8  C   UNL     1     103.946 130.577 132.027  1.00  0.00     0.039 C 
ATOM      9  C   UNL     1     102.652 131.353 132.068  1.00  0.00    -0.080 C 
ATOM     10  C   UNL     1     102.543 132.498 133.040  1.00  0.00     0.039 C 
ENDBRANCH   6   7
ENDBRANCH   5   6
ENDBRANCH   3   5
ENDBRANCH   1   2
BRANCH   1  11
ATOM     11  C   UNL     1     100.750 131.164 124.769  1.00  0.00     0.034 C 
BRANCH  11  12
ATOM     12  C   UNL     1     100.894 132.229 123.704  1.00  0.00    -0.077 C 
ATOM     13  C   UNL     1     101.417 133.430 124.042  1.00  0.00    -0.028 C 
ATOM     14  C   UNL     1     100.466 131.916 122.288  1.00  0.00     0.039 C 
BRANCH  13  15
ATOM     15  C   UNL     1     101.564 134.594 123.096  1.00  0.00     0.035 C 
BRANCH  15  16
ATOM     16  C   UNL     1     101.391 135.923 123.846  1.00  0.00     0.079 C 
BRANCH  16  17
ATOM     17  C   UNL     1     100.622 135.814 125.143  1.00  0.00     0.130 C 
ATOM     18  O   UNL     1     101.250 135.830 126.192  1.00  0.00    -0.300 OA
ATOM     19  C   UNL     1      99.125 135.681 125.200  1.00  0.00     0.087 C 
ENDBRANCH  16  17
ENDBRANCH  15  16
ENDBRANCH  13  15
ENDBRANCH  11  12
ENDBRANCH   1  11
TORSDOF 9
ENDMDL
MODEL 4
REMARK VINA RESULT:    -5.197     13.350     15.685
REMARK INTER + INTRA:          -9.217
REMARK INTER:                  -7.475
REMARK INTRA:                  -1.742
REMARK UNBOUND:                -1.285
REMARK SMILES CC(=O)CCC=C(C)CCC=C(C)CCC=C(C)C
REMARK SMILES IDX 10 1 11 2 12 3 13 4 14 5 15 6 16 7 18 8 17 9 19 10 9 11 7 12
REMARK SMILES IDX 6 13 8 14 5 15 4 16 2 17 3 18 1 19
REMARK H PARENT
REMARK Flexibility Score: inf
ROOT
ATOM      1  C   UNL     1      96.451 145.447 134.239  1.00  0.00     0.032 C 
ENDROOT
BRANCH   1   2
ATOM      2  C   UNL     1      95.498 146.413 134.902  1.00  0.00    -0.028 C 
ATOM      3  C   UNL     1      95.851 147.239 135.911  1.00  0.00    -0.077 C 
ATOM      4  C   UNL     1      94.802 148.147 136.499  1.00  0.00     0.039 C 
BRANCH   3   5
ATOM      5  C   UNL     1      97.241 147.247 136.516  1.00  0.00     0.034 C 
BRANCH   5   6
ATOM      6  C   UNL     1      98.019 148.489 136.069  1.00  0.00     0.032 C 
BRANCH   6   7
ATOM      7  C   UNL     1      98.931 148.163 134.914  1.00  0.00    -0.028 C 
ATOM      8  C   UNL     1      97.389 149.155 133.207  1.00  0.00     0.039 C 
ATOM      9  C   UNL     1      98.646 148.428 133.618  1.00  0.00    -0.080 C 
ATOM     10  C   UNL     1      99.619 148.030 132.540  1.00  0.00     0.039 C 
ENDBRANCH   6   7
ENDBRANCH   5   6
ENDBRANCH   3   5
ENDBRANCH   1   2
BRANCH   1  11
ATOM     11  C   UNL     1      95.901 144.016 134.266  1.00  0.00     0.034 C 
BRANCH  11  12
ATOM     12  C   UNL     1      96.960 143.043 134.739  1.00  0.00    -0.077 C 
ATOM     13  C   UNL     1      97.527 142.204 133.843  1.00  0.00    -0.028 C 
ATOM     14  C   UNL     1      97.366 143.048 136.195  1.00  0.00     0.039 C 
BRANCH  13  15
ATOM     15  C   UNL     1      98.549 141.150 134.188  1.00  0.00     0.035 C 
BRANCH  15  16
ATOM     16  C   UNL     1      97.906 139.756 134.189  1.00  0.00     0.079 C 
BRANCH  16  17
ATOM     17  C   UNL     1      97.405 139.299 135.541  1.00  0.00     0.130 C 
ATOM     18  O   UNL     1      98.046 139.613 136.533  1.00  0.00    -0.300 OA
ATOM     19  C   UNL     1      96.162 138.472 135.718  1.00  0.00     0.087 C 
ENDBRANCH  16  17
ENDBRANCH  15  16
ENDBRANCH  13  15
ENDBRANCH  11  12
ENDBRANCH   1  11
TORSDOF 9
ENDMDL
MODEL 5
REMARK VINA RESULT:    -5.091     10.800     13.383
REMARK INTER + INTRA:          -9.054
REMARK INTER:                  -6.226
REMARK INTRA:                  -2.827
REMARK UNBOUND:                -1.285
REMARK SMILES CC(=O)CCC=C(C)CCC=C(C)CCC=C(C)C
REMARK SMILES IDX 10 1 11 2 12 3 13 4 14 5 15 6 16 7 18 8 17 9 19 10 9 11 7 12
REMARK SMILES IDX 6 13 8 14 5 15 4 16 2 17 3 18 1 19
REMARK H PARENT
REMARK Flexibility Score: inf
ROOT
ATOM      1  C   UNL     1      98.517 141.066 134.185  1.00  0.00     0.032 C 
ENDROOT
BRANCH   1   2
ATOM      2  C   UNL     1      97.601 142.195 133.779  1.00  0.00    -0.028 C 
ATOM      3  C   UNL     1      97.212 143.182 134.617  1.00  0.00    -0.077 C 
ATOM      4  C   UNL     1      96.281 144.246 134.094  1.00  0.00     0.039 C 
BRANCH   3   5
ATOM      5  C   UNL     1      97.623 143.229 136.075  1.00  0.00     0.034 C 
BRANCH   5   6
ATOM      6  C   UNL     1      96.437 143.624 136.960  1.00  0.00     0.032 C 
BRANCH   6   7
ATOM      7  C   UNL     1      95.955 142.445 137.768  1.00  0.00    -0.028 C 
ATOM      8  C   UNL     1      94.163 141.846 136.124  1.00  0.00     0.039 C 
ATOM      9  C   UNL     1      94.913 141.656 137.420  1.00  0.00    -0.080 C 
ATOM     10  C   UNL     1      94.499 140.521 138.319  1.00  0.00     0.039 C 
ENDBRANCH   6   7
ENDBRANCH   5   6
ENDBRANCH   3   5
ENDBRANCH   1   2
BRANCH   1  11
ATOM     11  C   UNL     1      97.784 139.720 134.161  1.00  0.00     0.034 C 
BRANCH  11  12
ATOM     12  C   UNL     1      97.403 139.290 135.561  1.00  0.00    -0.077 C 
ATOM     13  C   UNL     1      98.195 139.651 136.597  1.00  0.00    -0.028 C 
ATOM     14  C   UNL     1      96.140 138.486 135.766  1.00  0.00     0.039 C 
BRANCH  13  15
ATOM     15  C   UNL     1      97.964 139.244 138.031  1.00  0.00     0.035 C 
BRANCH  15  16
ATOM     16  C   UNL     1      98.809 138.012 138.384  1.00  0.00     0.079 C 
BRANCH  16  17
ATOM     17  C   UNL     1      98.044 136.707 138.384  1.00  0.00     0.130 C 
ATOM     18  O   UNL     1      97.004 136.645 139.023  1.00  0.00    -0.300 OA
ATOM     19  C   UNL     1      98.507 135.485 137.640  1.00  0.00     0.087 C 
ENDBRANCH  16  17
ENDBRANCH  15  16
ENDBRANCH  13  15
ENDBRANCH  11  12
ENDBRANCH   1  11
TORSDOF 9
ENDMDL
MODEL 6
REMARK VINA RESULT:    -5.076     12.584     15.174
REMARK INTER + INTRA:          -9.031
REMARK INTER:                  -6.895
REMARK INTRA:                  -2.135
REMARK UNBOUND:                -1.285
REMARK SMILES CC(=O)CCC=C(C)CCC=C(C)CCC=C(C)C
REMARK SMILES IDX 10 1 11 2 12 3 13 4 14 5 15 6 16 7 18 8 17 9 19 10 9 11 7 12
REMARK SMILES IDX 6 13 8 14 5 15 4 16 2 17 3 18 1 19
REMARK H PARENT
REMARK Flexibility Score: inf
ROOT
ATOM      1  C   UNL     1      98.348 140.530 134.637  1.00  0.00     0.032 C 
ENDROOT
BRANCH   1   2
ATOM      2  C   UNL     1      97.374 139.377 134.689  1.00  0.00    -0.028 C 
ATOM      3  C   UNL     1      96.711 139.007 135.807  1.00  0.00    -0.077 C 
ATOM      4  C   UNL     1      95.776 137.828 135.733  1.00  0.00     0.039 C 
BRANCH   3   5
ATOM      5  C   UNL     1      96.914 139.691 137.145  1.00  0.00     0.034 C 
BRANCH   5   6
ATOM      6  C   UNL     1      95.585 140.225 137.687  1.00  0.00     0.032 C 
BRANCH   6   7
ATOM      7  C   UNL     1      94.783 140.880 136.591  1.00  0.00    -0.028 C 
ATOM      8  C   UNL     1      94.628 143.072 137.795  1.00  0.00     0.039 C 
ATOM      9  C   UNL     1      94.319 142.150 136.641  1.00  0.00    -0.080 C 
ATOM     10  C   UNL     1      93.501 142.694 135.499  1.00  0.00     0.039 C 
ENDBRANCH   6   7
ENDBRANCH   5   6
ENDBRANCH   3   5
ENDBRANCH   1   2
BRANCH   1  11
ATOM     11  C   UNL     1      97.832 141.653 133.731  1.00  0.00     0.034 C 
BRANCH  11  12
ATOM     12  C   UNL     1      97.423 142.859 134.550  1.00  0.00    -0.077 C 
ATOM     13  C   UNL     1      96.615 143.788 133.991  1.00  0.00    -0.028 C 
ATOM     14  C   UNL     1      97.915 142.982 135.974  1.00  0.00     0.039 C 
BRANCH  13  15
ATOM     15  C   UNL     1      96.178 145.061 134.672  1.00  0.00     0.035 C 
BRANCH  15  16
ATOM     16  C   UNL     1      96.984 146.257 134.146  1.00  0.00     0.079 C 
BRANCH  16  17
ATOM     17  C   UNL     1      96.632 147.580 134.790  1.00  0.00     0.130 C 
ATOM     18  O   UNL     1      95.484 147.752 135.173  1.00  0.00    -0.300 OA
ATOM     19  C   UNL     1      97.628 148.691 134.975  1.00  0.00     0.087 C 
ENDBRANCH  16  17
ENDBRANCH  15  16
ENDBRANCH  13  15
ENDBRANCH  11  12
ENDBRANCH   1  11
TORSDOF 9
ENDMDL
MODEL 7
REMARK VINA RESULT:    -4.950     11.647     13.733
REMARK INTER + INTRA:          -8.839
REMARK INTER:                  -5.837
REMARK INTRA:                  -3.001
REMARK UNBOUND:                -1.285
REMARK SMILES CC(=O)CCC=C(C)CCC=C(C)CCC=C(C)C
REMARK SMILES IDX 10 1 11 2 12 3 13 4 14 5 15 6 16 7 18 8 17 9 19 10 9 11 7 12
REMARK SMILES IDX 6 13 8 14 5 15 4 16 2 17 3 18 1 19
REMARK H PARENT
REMARK Flexibility Score: inf
ROOT
ATOM      1  C   UNL     1      98.211 141.101 133.854  1.00  0.00     0.032 C 
ENDROOT
BRANCH   1   2
ATOM      2  C   UNL     1      97.706 142.509 133.648  1.00  0.00    -0.028 C 
ATOM      3  C   UNL     1      96.688 143.049 134.353  1.00  0.00    -0.077 C 
ATOM      4  C   UNL     1      96.266 144.462 134.043  1.00  0.00     0.039 C 
BRANCH   3   5
ATOM      5  C   UNL     1      95.913 142.273 135.400  1.00  0.00     0.034 C 
BRANCH   5   6
ATOM      6  C   UNL     1      95.760 143.097 136.682  1.00  0.00     0.032 C 
BRANCH   6   7
ATOM      7  C   UNL     1      96.533 142.472 137.816  1.00  0.00    -0.028 C 
ATOM      8  C   UNL     1      98.586 143.840 137.384  1.00  0.00     0.039 C 
ATOM      9  C   UNL     1      97.815 142.774 138.123  1.00  0.00    -0.080 C 
ATOM     10  C   UNL     1      98.500 142.064 139.261  1.00  0.00     0.039 C 
ENDBRANCH   6   7
ENDBRANCH   5   6
ENDBRANCH   3   5
ENDBRANCH   1   2
BRANCH   1  11
ATOM     11  C   UNL     1      99.543 141.093 134.614  1.00  0.00     0.034 C 
BRANCH  11  12
ATOM     12  C   UNL     1      99.420 140.314 135.906  1.00  0.00    -0.077 C 
ATOM     13  C   UNL     1      98.278 139.632 136.154  1.00  0.00    -0.028 C 
ATOM     14  C   UNL     1     100.581 140.305 136.873  1.00  0.00     0.039 C 
BRANCH  13  15
ATOM     15  C   UNL     1      98.001 138.864 137.422  1.00  0.00     0.035 C 
BRANCH  15  16
ATOM     16  C   UNL     1      97.004 137.727 137.156  1.00  0.00     0.079 C 
BRANCH  16  17
ATOM     17  C   UNL     1      95.667 138.180 136.614  1.00  0.00     0.130 C 
ATOM     18  O   UNL     1      95.287 137.720 135.548  1.00  0.00    -0.300 OA
ATOM     19  C   UNL     1      94.790 139.175 137.323  1.00  0.00     0.087 C 
ENDBRANCH  16  17
ENDBRANCH  15  16
ENDBRANCH  13  15
ENDBRANCH  11  12
ENDBRANCH   1  11
TORSDOF 9
ENDMDL
MODEL 8
REMARK VINA RESULT:    -4.940     11.169     12.861
REMARK INTER + INTRA:          -8.824
REMARK INTER:                  -6.368
REMARK INTRA:                  -2.456
REMARK UNBOUND:                -1.285
REMARK SMILES CC(=O)CCC=C(C)CCC=C(C)CCC=C(C)C
REMARK SMILES IDX 10 1 11 2 12 3 13 4 14 5 15 6 16 7 18 8 17 9 19 10 9 11 7 12
REMARK SMILES IDX 6 13 8 14 5 15 4 16 2 17 3 18 1 19
REMARK H PARENT
REMARK Flexibility Score: inf
ROOT
ATOM      1  C   UNL     1      98.491 140.690 134.241  1.00  0.00     0.032 C 
ENDROOT
BRANCH   1   2
ATOM      2  C   UNL     1      97.801 141.957 133.795  1.00  0.00    -0.028 C 
ATOM      3  C   UNL     1      97.004 142.697 134.597  1.00  0.00    -0.077 C 
ATOM      4  C   UNL     1      96.360 143.935 134.027  1.00  0.00     0.039 C 
BRANCH   3   5
ATOM      5  C   UNL     1      96.683 142.302 136.024  1.00  0.00     0.034 C 
BRANCH   5   6
ATOM      6  C   UNL     1      95.446 141.401 136.072  1.00  0.00     0.032 C 
BRANCH   6   7
ATOM      7  C   UNL     1      95.533 140.432 137.225  1.00  0.00    -0.028 C 
ATOM      8  C   UNL     1      95.963 138.458 135.743  1.00  0.00     0.039 C 
ATOM      9  C   UNL     1      95.733 139.101 137.089  1.00  0.00    -0.080 C 
ATOM     10  C   UNL     1      95.773 138.221 138.311  1.00  0.00     0.039 C 
ENDBRANCH   6   7
ENDBRANCH   5   6
ENDBRANCH   3   5
ENDBRANCH   1   2
BRANCH   1  11
ATOM     11  C   UNL     1      99.938 140.965 134.665  1.00  0.00     0.034 C 
BRANCH  11  12
ATOM     12  C   UNL     1     100.138 140.644 136.131  1.00  0.00    -0.077 C 
ATOM     13  C   UNL     1      99.342 139.720 136.715  1.00  0.00    -0.028 C 
ATOM     14  C   UNL     1     101.233 141.352 136.896  1.00  0.00     0.039 C 
BRANCH  13  15
ATOM     15  C   UNL     1      99.395 139.348 138.176  1.00  0.00     0.035 C 
BRANCH  15  16
ATOM     16  C   UNL     1      99.429 137.822 138.342  1.00  0.00     0.079 C 
BRANCH  16  17
ATOM     17  C   UNL     1     100.817 137.222 138.331  1.00  0.00     0.130 C 
ATOM     18  O   UNL     1     100.923 136.006 138.252  1.00  0.00    -0.300 OA
ATOM     19  C   UNL     1     102.069 138.050 138.419  1.00  0.00     0.087 C 
ENDBRANCH  16  17
ENDBRANCH  15  16
ENDBRANCH  13  15
ENDBRANCH  11  12
ENDBRANCH   1  11
TORSDOF 9
ENDMDL
MODEL 9
REMARK VINA RESULT:    -4.846     12.411     15.112
REMARK INTER + INTRA:          -8.681
REMARK INTER:                  -5.924
REMARK INTRA:                  -2.757
REMARK UNBOUND:                -1.285
REMARK SMILES CC(=O)CCC=C(C)CCC=C(C)CCC=C(C)C
REMARK SMILES IDX 10 1 11 2 12 3 13 4 14 5 15 6 16 7 18 8 17 9 19 10 9 11 7 12
REMARK SMILES IDX 6 13 8 14 5 15 4 16 2 17 3 18 1 19
REMARK H PARENT
REMARK Flexibility Score: inf
ROOT
ATOM      1  C   UNL     1      98.505 140.387 134.533  1.00  0.00     0.032 C 
ENDROOT
BRANCH   1   2
ATOM      2  C   UNL     1      97.360 139.410 134.640  1.00  0.00    -0.028 C 
ATOM      3  C   UNL     1      96.949 138.864 135.806  1.00  0.00    -0.077 C 
ATOM      4  C   UNL     1      95.801 137.887 135.779  1.00  0.00     0.039 C 
BRANCH   3   5
ATOM      5  C   UNL     1      97.632 139.145 137.129  1.00  0.00     0.034 C 
BRANCH   5   6
ATOM      6  C   UNL     1      96.610 139.180 138.270  1.00  0.00     0.032 C 
BRANCH   6   7
ATOM      7  C   UNL     1      96.414 140.588 138.771  1.00  0.00    -0.028 C 
ATOM      8  C   UNL     1      94.396 140.988 137.342  1.00  0.00     0.039 C 
ATOM      9  C   UNL     1      95.442 141.424 138.339  1.00  0.00    -0.080 C 
ATOM     10  C   UNL     1      95.358 142.824 138.889  1.00  0.00     0.039 C 
ENDBRANCH   6   7
ENDBRANCH   5   6
ENDBRANCH   3   5
ENDBRANCH   1   2
BRANCH   1  11
ATOM     11  C   UNL     1      98.059 141.697 133.874  1.00  0.00     0.034 C 
BRANCH  11  12
ATOM     12  C   UNL     1      97.427 142.623 134.892  1.00  0.00    -0.077 C 
ATOM     13  C   UNL     1      96.269 143.249 134.579  1.00  0.00    -0.028 C 
ATOM     14  C   UNL     1      98.098 142.808 136.234  1.00  0.00     0.039 C 
BRANCH  13  15
ATOM     15  C   UNL     1      95.565 144.237 135.475  1.00  0.00     0.035 C 
BRANCH  15  16
ATOM     16  C   UNL     1      94.043 144.095 135.342  1.00  0.00     0.079 C 
BRANCH  16  17
ATOM     17  C   UNL     1      93.259 144.634 136.518  1.00  0.00     0.130 C 
ATOM     18  O   UNL     1      93.699 145.609 137.110  1.00  0.00    -0.300 OA
ATOM     19  C   UNL     1      91.969 144.024 136.993  1.00  0.00     0.087 C 
ENDBRANCH  16  17
ENDBRANCH  15  16
ENDBRANCH  13  15
ENDBRANCH  11  12
ENDBRANCH   1  11
TORSDOF 9
ENDMDL
