MODEL 1
REMARK VINA RESULT:    -4.709      0.000      0.000
REMARK INTER + INTRA:          -6.325
REMARK INTER:                  -6.085
REMARK INTRA:                  -0.240
REMARK UNBOUND:                -0.240
REMARK SMILES CO[C@@]1(CO)O[C@@H](CO)[C@H](O)[C@@H]1O
REMARK SMILES IDX 3 1 12 2 10 3 7 4 6 5 2 6 1 7 4 8 5 9 13 11 11 13 8 15 9 16
REMARK H PARENT 5 10 13 12 11 14 9 17
REMARK Flexibility Score: inf
ROOT
ATOM      1  C   UNL     1      -6.175   6.892 -11.024  1.00  0.00     0.221 C 
ATOM      2  C   UNL     1      -5.981   8.426 -10.869  1.00  0.00     0.207 C 
ATOM      3  C   UNL     1      -5.011   8.574  -9.713  1.00  0.00     0.180 C 
ATOM      4  C   UNL     1      -4.399   7.181  -9.592  1.00  0.00     0.179 C 
ATOM      5  O   UNL     1      -5.332   6.244 -10.082  1.00  0.00    -0.337 OA
ENDROOT
BRANCH   1   6
ATOM      6  O   UNL     1      -5.780   6.559 -12.355  1.00  0.00    -0.349 OA
ATOM      7  C   UNL     1      -6.786   6.799 -13.322  1.00  0.00     0.198 C 
ENDBRANCH   1   6
BRANCH   1   8
ATOM      8  C   UNL     1      -7.644   6.450 -10.767  1.00  0.00     0.224 C 
BRANCH   8   9
ATOM      9  O   UNL     1      -7.702   5.243 -10.051  1.00  0.00    -0.391 OA
ATOM     10  H   UNL     1      -8.069   4.561 -10.672  1.00  0.00     0.210 HD
ENDBRANCH   8   9
ENDBRANCH   1   8
BRANCH   2  11
ATOM     11  O   UNL     1      -7.183   9.125 -10.645  1.00  0.00    -0.385 OA
ATOM     12  H   UNL     1      -7.919   8.468 -10.760  1.00  0.00     0.211 HD
ENDBRANCH   2  11
BRANCH   3  13
ATOM     13  O   UNL     1      -5.654   8.957  -8.519  1.00  0.00    -0.387 OA
ATOM     14  H   UNL     1      -6.597   9.182  -8.730  1.00  0.00     0.211 HD
ENDBRANCH   3  13
BRANCH   4  15
ATOM     15  C   UNL     1      -3.076   7.059 -10.369  1.00  0.00     0.191 C 
BRANCH  15  16
ATOM     16  O   UNL     1      -2.834   5.722 -10.718  1.00  0.00    -0.394 OA
ATOM     17  H   UNL     1      -1.984   5.712 -11.232  1.00  0.00     0.210 HD
ENDBRANCH  15  16
ENDBRANCH   4  15
TORSDOF 7
ENDMDL
MODEL 2
REMARK VINA RESULT:    -4.669      1.748      2.931
REMARK INTER + INTRA:          -6.273
REMARK INTER:                  -5.884
REMARK INTRA:                  -0.389
REMARK UNBOUND:                -0.240
REMARK SMILES CO[C@@]1(CO)O[C@@H](CO)[C@H](O)[C@@H]1O
REMARK SMILES IDX 3 1 12 2 10 3 7 4 6 5 2 6 1 7 4 8 5 9 13 11 11 13 8 15 9 16
REMARK H PARENT 5 10 13 12 11 14 9 17
REMARK Flexibility Score: inf
ROOT
ATOM      1  C   UNL     1      -5.048   6.987 -12.514  1.00  0.00     0.221 C 
ATOM      2  C   UNL     1      -6.300   7.572 -11.803  1.00  0.00     0.207 C 
ATOM      3  C   UNL     1      -6.261   6.976 -10.409  1.00  0.00     0.180 C 
ATOM      4  C   UNL     1      -4.823   6.481 -10.282  1.00  0.00     0.179 C 
ATOM      5  O   UNL     1      -4.340   6.191 -11.575  1.00  0.00    -0.337 OA
ENDROOT
BRANCH   1   6
ATOM      6  O   UNL     1      -4.252   8.098 -12.926  1.00  0.00    -0.349 OA
ATOM      7  C   UNL     1      -2.920   7.750 -13.258  1.00  0.00     0.198 C 
ENDBRANCH   1   6
BRANCH   1   8
ATOM      8  C   UNL     1      -5.421   6.102 -13.739  1.00  0.00     0.224 C 
BRANCH   8   9
ATOM      9  O   UNL     1      -5.966   6.868 -14.782  1.00  0.00    -0.391 OA
ATOM     10  H   UNL     1      -5.398   7.677 -14.869  1.00  0.00     0.210 HD
ENDBRANCH   8   9
ENDBRANCH   1   8
BRANCH   2  11
ATOM     11  O   UNL     1      -7.509   7.287 -12.467  1.00  0.00    -0.385 OA
ATOM     12  H   UNL     1      -8.037   8.128 -12.468  1.00  0.00     0.211 HD
ENDBRANCH   2  11
BRANCH   3  13
ATOM     13  O   UNL     1      -7.182   5.921 -10.251  1.00  0.00    -0.387 OA
ATOM     14  H   UNL     1      -6.677   5.068 -10.210  1.00  0.00     0.211 HD
ENDBRANCH   3  13
BRANCH   4  15
ATOM     15  C   UNL     1      -3.910   7.517  -9.601  1.00  0.00     0.191 C 
BRANCH  15  16
ATOM     16  O   UNL     1      -4.256   7.661  -8.250  1.00  0.00    -0.394 OA
ATOM     17  H   UNL     1      -4.501   8.615  -8.119  1.00  0.00     0.210 HD
ENDBRANCH  15  16
ENDBRANCH   4  15
TORSDOF 7
ENDMDL
MODEL 3
REMARK VINA RESULT:    -4.508      1.442      3.256
REMARK INTER + INTRA:          -6.066
REMARK INTER:                  -5.583
REMARK INTRA:                  -0.483
REMARK UNBOUND:                -0.240
REMARK SMILES CO[C@@]1(CO)O[C@@H](CO)[C@H](O)[C@@H]1O
REMARK SMILES IDX 3 1 12 2 10 3 7 4 6 5 2 6 1 7 4 8 5 9 13 11 11 13 8 15 9 16
REMARK H PARENT 5 10 13 12 11 14 9 17
REMARK Flexibility Score: inf
ROOT
ATOM      1  C   UNL     1      -6.739   6.687 -11.479  1.00  0.00     0.221 C 
ATOM      2  C   UNL     1      -5.212   6.685 -11.190  1.00  0.00     0.207 C 
ATOM      3  C   UNL     1      -4.846   8.152 -11.063  1.00  0.00     0.180 C 
ATOM      4  C   UNL     1      -6.196   8.830 -10.846  1.00  0.00     0.179 C 
ATOM      5  O   UNL     1      -7.192   8.033 -11.446  1.00  0.00    -0.337 OA
ENDROOT
BRANCH   1   6
ATOM      6  O   UNL     1      -7.356   5.929 -10.439  1.00  0.00    -0.349 OA
ATOM      7  C   UNL     1      -8.728   5.664 -10.667  1.00  0.00     0.198 C 
ENDBRANCH   1   6
BRANCH   1   8
ATOM      8  C   UNL     1      -7.080   6.079 -12.870  1.00  0.00     0.224 C 
BRANCH   8   9
ATOM      9  O   UNL     1      -6.670   6.921 -13.916  1.00  0.00    -0.391 OA
ATOM     10  H   UNL     1      -6.912   6.464 -14.763  1.00  0.00     0.210 HD
ENDBRANCH   8   9
ENDBRANCH   1   8
BRANCH   2  11
ATOM     11  O   UNL     1      -4.453   6.033 -12.181  1.00  0.00    -0.385 OA
ATOM     12  H   UNL     1      -4.277   5.116 -11.846  1.00  0.00     0.211 HD
ENDBRANCH   2  11
BRANCH   3  13
ATOM     13  O   UNL     1      -4.203   8.645 -12.215  1.00  0.00    -0.387 OA
ATOM     14  H   UNL     1      -3.572   7.954 -12.541  1.00  0.00     0.211 HD
ENDBRANCH   3  13
BRANCH   4  15
ATOM     15  C   UNL     1      -6.512   9.029  -9.353  1.00  0.00     0.191 C 
BRANCH  15  16
ATOM     16  O   UNL     1      -5.343   8.926  -8.587  1.00  0.00    -0.394 OA
ATOM     17  H   UNL     1      -4.853   9.783  -8.699  1.00  0.00     0.210 HD
ENDBRANCH  15  16
ENDBRANCH   4  15
TORSDOF 7
ENDMDL
MODEL 4
REMARK VINA RESULT:    -4.502      1.592      3.489
REMARK INTER + INTRA:          -6.057
REMARK INTER:                  -5.545
REMARK INTRA:                  -0.512
REMARK UNBOUND:                -0.240
REMARK SMILES CO[C@@]1(CO)O[C@@H](CO)[C@H](O)[C@@H]1O
REMARK SMILES IDX 3 1 12 2 10 3 7 4 6 5 2 6 1 7 4 8 5 9 13 11 11 13 8 15 9 16
REMARK H PARENT 5 10 13 12 11 14 9 17
REMARK Flexibility Score: inf
ROOT
ATOM      1  C   UNL     1      -5.175   6.926 -12.355  1.00  0.00     0.221 C 
ATOM      2  C   UNL     1      -4.645   6.127 -11.131  1.00  0.00     0.207 C 
ATOM      3  C   UNL     1      -5.571   6.513  -9.993  1.00  0.00     0.180 C 
ATOM      4  C   UNL     1      -6.774   7.117 -10.713  1.00  0.00     0.179 C 
ATOM      5  O   UNL     1      -6.334   7.638 -11.947  1.00  0.00    -0.337 OA
ENDROOT
BRANCH   1   6
ATOM      6  O   UNL     1      -5.507   5.968 -13.360  1.00  0.00    -0.349 OA
ATOM      7  C   UNL     1      -6.368   6.474 -14.363  1.00  0.00     0.198 C 
ENDBRANCH   1   6
BRANCH   1   8
ATOM      8  C   UNL     1      -4.129   7.942 -12.897  1.00  0.00     0.224 C 
BRANCH   8   9
ATOM      9  O   UNL     1      -3.952   9.021 -12.016  1.00  0.00    -0.391 OA
ATOM     10  H   UNL     1      -4.587   9.729 -12.301  1.00  0.00     0.210 HD
ENDBRANCH   8   9
ENDBRANCH   1   8
BRANCH   2  11
ATOM     11  O   UNL     1      -3.296   6.390 -10.829  1.00  0.00    -0.385 OA
ATOM     12  H   UNL     1      -3.048   7.212 -11.328  1.00  0.00     0.211 HD
ENDBRANCH   2  11
BRANCH   3  13
ATOM     13  O   UNL     1      -4.980   7.441  -9.113  1.00  0.00    -0.387 OA
ATOM     14  H   UNL     1      -5.285   7.236  -8.192  1.00  0.00     0.211 HD
ENDBRANCH   3  13
BRANCH   4  15
ATOM     15  C   UNL     1      -7.890   6.083 -10.948  1.00  0.00     0.191 C 
BRANCH  15  16
ATOM     16  O   UNL     1      -7.839   5.078  -9.971  1.00  0.00    -0.394 OA
ATOM     17  H   UNL     1      -7.482   5.502  -9.147  1.00  0.00     0.210 HD
ENDBRANCH  15  16
ENDBRANCH   4  15
TORSDOF 7
ENDMDL
MODEL 5
REMARK VINA RESULT:    -4.424      1.517      3.654
REMARK INTER + INTRA:          -5.956
REMARK INTER:                  -5.504
REMARK INTRA:                  -0.452
REMARK UNBOUND:                -0.240
REMARK SMILES CO[C@@]1(CO)O[C@@H](CO)[C@H](O)[C@@H]1O
REMARK SMILES IDX 3 1 12 2 10 3 7 4 6 5 2 6 1 7 4 8 5 9 13 11 11 13 8 15 9 16
REMARK H PARENT 5 10 13 12 11 14 9 17
REMARK Flexibility Score: inf
ROOT
ATOM      1  C   UNL     1      -4.140   6.890 -10.769  1.00  0.00     0.221 C 
ATOM      2  C   UNL     1      -5.560   6.271 -10.892  1.00  0.00     0.207 C 
ATOM      3  C   UNL     1      -6.281   7.161 -11.887  1.00  0.00     0.180 C 
ATOM      4  C   UNL     1      -5.142   7.913 -12.569  1.00  0.00     0.179 C 
ATOM      5  O   UNL     1      -4.059   7.986 -11.669  1.00  0.00    -0.337 OA
ENDROOT
BRANCH   1   6
ATOM      6  O   UNL     1      -3.213   5.871 -11.141  1.00  0.00    -0.349 OA
ATOM      7  C   UNL     1      -1.875   6.161 -10.780  1.00  0.00     0.198 C 
ENDBRANCH   1   6
BRANCH   1   8
ATOM      8  C   UNL     1      -3.838   7.401  -9.331  1.00  0.00     0.224 C 
BRANCH   8   9
ATOM      9  O   UNL     1      -4.776   8.361  -8.917  1.00  0.00    -0.391 OA
ATOM     10  H   UNL     1      -4.506   8.649  -8.006  1.00  0.00     0.210 HD
ENDBRANCH   8   9
ENDBRANCH   1   8
BRANCH   2  11
ATOM     11  O   UNL     1      -6.245   6.186  -9.664  1.00  0.00    -0.385 OA
ATOM     12  H   UNL     1      -5.720   6.716  -9.009  1.00  0.00     0.211 HD
ENDBRANCH   2  11
BRANCH   3  13
ATOM     13  O   UNL     1      -7.179   8.048 -11.259  1.00  0.00    -0.387 OA
ATOM     14  H   UNL     1      -8.101   7.797 -11.522  1.00  0.00     0.211 HD
ENDBRANCH   3  13
BRANCH   4  15
ATOM     15  C   UNL     1      -4.694   7.229 -13.874  1.00  0.00     0.191 C 
BRANCH  15  16
ATOM     16  O   UNL     1      -5.795   7.015 -14.716  1.00  0.00    -0.394 OA
ATOM     17  H   UNL     1      -6.055   7.903 -15.075  1.00  0.00     0.210 HD
ENDBRANCH  15  16
ENDBRANCH   4  15
TORSDOF 7
ENDMDL
MODEL 6
REMARK VINA RESULT:    -4.284     12.334     14.254
REMARK INTER + INTRA:          -5.776
REMARK INTER:                  -5.232
REMARK INTRA:                  -0.544
REMARK UNBOUND:                -0.240
REMARK SMILES CO[C@@]1(CO)O[C@@H](CO)[C@H](O)[C@@H]1O
REMARK SMILES IDX 3 1 12 2 10 3 7 4 6 5 2 6 1 7 4 8 5 9 13 11 11 13 8 15 9 16
REMARK H PARENT 5 10 13 12 11 14 9 17
REMARK Flexibility Score: inf
ROOT
ATOM      1  C   UNL     1      -7.114  -2.603 -20.267  1.00  0.00     0.221 C 
ATOM      2  C   UNL     1      -5.648  -3.079 -20.063  1.00  0.00     0.207 C 
ATOM      3  C   UNL     1      -5.719  -4.043 -18.894  1.00  0.00     0.180 C 
ATOM      4  C   UNL     1      -7.205  -4.381 -18.810  1.00  0.00     0.179 C 
ATOM      5  O   UNL     1      -7.935  -3.296 -19.337  1.00  0.00    -0.337 OA
ENDROOT
BRANCH   1   6
ATOM      6  O   UNL     1      -7.476  -2.949 -21.604  1.00  0.00    -0.349 OA
ATOM      7  C   UNL     1      -6.415  -3.513 -22.352  1.00  0.00     0.198 C 
ENDBRANCH   1   6
BRANCH   1   8
ATOM      8  C   UNL     1      -7.279  -1.074 -20.038  1.00  0.00     0.224 C 
BRANCH   8   9
ATOM      9  O   UNL     1      -6.838  -0.693 -18.760  1.00  0.00    -0.391 OA
ATOM     10  H   UNL     1      -6.288   0.124 -18.879  1.00  0.00     0.210 HD
ENDBRANCH   8   9
ENDBRANCH   1   8
BRANCH   2  11
ATOM     11  O   UNL     1      -4.743  -2.026 -19.829  1.00  0.00    -0.385 OA
ATOM     12  H   UNL     1      -4.558  -1.609 -20.710  1.00  0.00     0.211 HD
ENDBRANCH   2  11
BRANCH   3  13
ATOM     13  O   UNL     1      -5.256  -3.464 -17.695  1.00  0.00    -0.387 OA
ATOM     14  H   UNL     1      -5.628  -2.548 -17.625  1.00  0.00     0.211 HD
ENDBRANCH   3  13
BRANCH   4  15
ATOM     15  C   UNL     1      -7.550  -5.669 -19.579  1.00  0.00     0.191 C 
BRANCH  15  16
ATOM     16  O   UNL     1      -8.811  -5.555 -20.183  1.00  0.00    -0.394 OA
ATOM     17  H   UNL     1      -9.466  -5.417 -19.449  1.00  0.00     0.210 HD
ENDBRANCH  15  16
ENDBRANCH   4  15
TORSDOF 7
ENDMDL
MODEL 7
REMARK VINA RESULT:    -4.211      1.830      3.643
REMARK INTER + INTRA:          -5.681
REMARK INTER:                  -5.346
REMARK INTRA:                  -0.335
REMARK UNBOUND:                -0.240
REMARK SMILES CO[C@@]1(CO)O[C@@H](CO)[C@H](O)[C@@H]1O
REMARK SMILES IDX 3 1 12 2 10 3 7 4 6 5 2 6 1 7 4 8 5 9 13 11 11 13 8 15 9 16
REMARK H PARENT 5 10 13 12 11 14 9 17
REMARK Flexibility Score: inf
ROOT
ATOM      1  C   UNL     1      -5.424   7.061 -10.823  1.00  0.00     0.221 C 
ATOM      2  C   UNL     1      -5.141   8.256 -11.777  1.00  0.00     0.207 C 
ATOM      3  C   UNL     1      -4.765   7.610 -13.097  1.00  0.00     0.180 C 
ATOM      4  C   UNL     1      -5.274   6.180 -12.942  1.00  0.00     0.179 C 
ATOM      5  O   UNL     1      -5.284   5.860 -11.569  1.00  0.00    -0.337 OA
ENDROOT
BRANCH   1   6
ATOM      6  O   UNL     1      -6.768   7.209 -10.366  1.00  0.00    -0.349 OA
ATOM      7  C   UNL     1      -7.384   8.411 -10.792  1.00  0.00     0.198 C 
ENDBRANCH   1   6
BRANCH   1   8
ATOM      8  C   UNL     1      -4.441   7.018  -9.618  1.00  0.00     0.224 C 
BRANCH   8   9
ATOM      9  O   UNL     1      -4.653   8.094  -8.741  1.00  0.00    -0.391 OA
ATOM     10  H   UNL     1      -5.184   8.769  -9.239  1.00  0.00     0.210 HD
ENDBRANCH   8   9
ENDBRANCH   1   8
BRANCH   2  11
ATOM     11  O   UNL     1      -4.137   9.125 -11.307  1.00  0.00    -0.385 OA
ATOM     12  H   UNL     1      -3.898   8.815 -10.395  1.00  0.00     0.211 HD
ENDBRANCH   2  11
BRANCH   3  13
ATOM     13  O   UNL     1      -3.375   7.638 -13.330  1.00  0.00    -0.387 OA
ATOM     14  H   UNL     1      -3.070   8.580 -13.288  1.00  0.00     0.211 HD
ENDBRANCH   3  13
BRANCH   4  15
ATOM     15  C   UNL     1      -6.684   5.999 -13.533  1.00  0.00     0.191 C 
BRANCH  15  16
ATOM     16  O   UNL     1      -6.715   6.432 -14.867  1.00  0.00    -0.394 OA
ATOM     17  H   UNL     1      -5.965   7.074 -14.974  1.00  0.00     0.210 HD
ENDBRANCH  15  16
ENDBRANCH   4  15
TORSDOF 7
ENDMDL
MODEL 8
REMARK VINA RESULT:    -4.150      1.492      3.036
REMARK INTER + INTRA:          -5.602
REMARK INTER:                  -5.457
REMARK INTRA:                  -0.145
REMARK UNBOUND:                -0.240
REMARK SMILES CO[C@@]1(CO)O[C@@H](CO)[C@H](O)[C@@H]1O
REMARK SMILES IDX 3 1 12 2 10 3 7 4 6 5 2 6 1 7 4 8 5 9 13 11 11 13 8 15 9 16
REMARK H PARENT 5 10 13 12 11 14 9 17
REMARK Flexibility Score: inf
ROOT
ATOM      1  C   UNL     1      -6.278   6.802 -11.231  1.00  0.00     0.221 C 
ATOM      2  C   UNL     1      -4.982   7.297 -10.529  1.00  0.00     0.207 C 
ATOM      3  C   UNL     1      -3.855   6.809 -11.419  1.00  0.00     0.180 C 
ATOM      4  C   UNL     1      -4.563   6.482 -12.730  1.00  0.00     0.179 C 
ATOM      5  O   UNL     1      -5.903   6.156 -12.440  1.00  0.00    -0.337 OA
ENDROOT
BRANCH   1   6
ATOM      6  O   UNL     1      -7.064   7.960 -11.509  1.00  0.00    -0.349 OA
ATOM      7  C   UNL     1      -6.944   8.976 -10.530  1.00  0.00     0.198 C 
ENDBRANCH   1   6
BRANCH   1   8
ATOM      8  C   UNL     1      -7.080   5.798 -10.355  1.00  0.00     0.224 C 
BRANCH   8   9
ATOM      9  O   UNL     1      -8.420   5.710 -10.767  1.00  0.00    -0.391 OA
ATOM     10  H   UNL     1      -8.847   5.015 -10.202  1.00  0.00     0.210 HD
ENDBRANCH   8   9
ENDBRANCH   1   8
BRANCH   2  11
ATOM     11  O   UNL     1      -4.849   6.838  -9.204  1.00  0.00    -0.385 OA
ATOM     12  H   UNL     1      -3.900   6.977  -8.949  1.00  0.00     0.211 HD
ENDBRANCH   2  11
BRANCH   3  13
ATOM     13  O   UNL     1      -3.208   5.674 -10.889  1.00  0.00    -0.387 OA
ATOM     14  H   UNL     1      -2.851   5.138 -11.642  1.00  0.00     0.211 HD
ENDBRANCH   3  13
BRANCH   4  15
ATOM     15  C   UNL     1      -4.513   7.657 -13.725  1.00  0.00     0.191 C 
BRANCH  15  16
ATOM     16  O   UNL     1      -5.306   7.381 -14.848  1.00  0.00    -0.394 OA
ATOM     17  H   UNL     1      -5.063   6.466 -15.149  1.00  0.00     0.210 HD
ENDBRANCH  15  16
ENDBRANCH   4  15
TORSDOF 7
ENDMDL
MODEL 9
REMARK VINA RESULT:    -4.069     11.510     13.415
REMARK INTER + INTRA:          -5.499
REMARK INTER:                  -5.405
REMARK INTRA:                  -0.094
REMARK UNBOUND:                -0.240
REMARK SMILES CO[C@@]1(CO)O[C@@H](CO)[C@H](O)[C@@H]1O
REMARK SMILES IDX 3 1 12 2 10 3 7 4 6 5 2 6 1 7 4 8 5 9 13 11 11 13 8 15 9 16
REMARK H PARENT 5 10 13 12 11 14 9 17
REMARK Flexibility Score: inf
ROOT
ATOM      1  C   UNL     1      -6.553  -2.206 -20.550  1.00  0.00     0.221 C 
ATOM      2  C   UNL     1      -6.787  -2.653 -19.080  1.00  0.00     0.207 C 
ATOM      3  C   UNL     1      -5.393  -2.839 -18.511  1.00  0.00     0.180 C 
ATOM      4  C   UNL     1      -4.509  -2.087 -19.502  1.00  0.00     0.179 C 
ATOM      5  O   UNL     1      -5.152  -2.088 -20.757  1.00  0.00    -0.337 OA
ENDROOT
BRANCH   1   6
ATOM      6  O   UNL     1      -7.187  -0.936 -20.700  1.00  0.00    -0.349 OA
ATOM      7  C   UNL     1      -7.713  -0.418 -19.492  1.00  0.00     0.198 C 
ENDBRANCH   1   6
BRANCH   1   8
ATOM      8  C   UNL     1      -7.126  -3.224 -21.577  1.00  0.00     0.224 C 
BRANCH   8   9
ATOM      9  O   UNL     1      -6.205  -3.496 -22.603  1.00  0.00    -0.391 OA
ATOM     10  H   UNL     1      -6.618  -4.189 -23.181  1.00  0.00     0.210 HD
ENDBRANCH   8   9
ENDBRANCH   1   8
BRANCH   2  11
ATOM     11  O   UNL     1      -7.566  -3.820 -18.964  1.00  0.00    -0.385 OA
ATOM     12  H   UNL     1      -6.932  -4.577 -18.869  1.00  0.00     0.211 HD
ENDBRANCH   2  11
BRANCH   3  13
ATOM     13  O   UNL     1      -5.026  -4.197 -18.424  1.00  0.00    -0.387 OA
ATOM     14  H   UNL     1      -5.083  -4.594 -19.331  1.00  0.00     0.211 HD
ENDBRANCH   3  13
BRANCH   4  15
ATOM     15  C   UNL     1      -4.236  -0.640 -19.054  1.00  0.00     0.191 C 
BRANCH  15  16
ATOM     16  O   UNL     1      -4.412  -0.515 -17.669  1.00  0.00    -0.394 OA
ATOM     17  H   UNL     1      -3.513  -0.344 -17.282  1.00  0.00     0.210 HD
ENDBRANCH  15  16
ENDBRANCH   4  15
TORSDOF 7
ENDMDL
