MODEL 1
REMARK VINA RESULT:    -3.653      0.000      0.000
REMARK INTER + INTRA:          -4.616
REMARK INTER:                  -4.401
REMARK INTRA:                  -0.216
REMARK UNBOUND:                -0.216
REMARK SMILES OCC(O)CO
REMARK SMILES IDX 3 1 5 2 6 3 2 5 1 6 4 8
REMARK H PARENT 6 4 1 7 4 9
REMARK Flexibility Score: inf
ROOT
ATOM      1  C   UNL     1     141.818 145.559 113.372  1.00  0.00     0.165 C 
ENDROOT
BRANCH   1   2
ATOM      2  C   UNL     1     141.438 144.208 112.739  1.00  0.00     0.190 C 
BRANCH   2   3
ATOM      3  O   UNL     1     140.561 143.494 113.567  1.00  0.00    -0.394 OA
ATOM      4  H   UNL     1     139.820 144.117 113.784  1.00  0.00     0.210 HD
ENDBRANCH   2   3
ENDBRANCH   1   2
BRANCH   1   5
ATOM      5  C   UNL     1     140.802 146.675 113.071  1.00  0.00     0.190 C 
BRANCH   5   6
ATOM      6  O   UNL     1     139.640 146.166 112.469  1.00  0.00    -0.394 OA
ATOM      7  H   UNL     1     139.735 146.305 111.490  1.00  0.00     0.210 HD
ENDBRANCH   5   6
ENDBRANCH   1   5
BRANCH   1   8
ATOM      8  O   UNL     1     142.045 145.429 114.754  1.00  0.00    -0.388 OA
ATOM      9  H   UNL     1     141.165 145.310 115.199  1.00  0.00     0.211 HD
ENDBRANCH   1   8
TORSDOF 5
ENDMDL
MODEL 2
REMARK VINA RESULT:    -3.622      1.226      2.246
REMARK INTER + INTRA:          -4.579
REMARK INTER:                  -4.355
REMARK INTRA:                  -0.224
REMARK UNBOUND:                -0.216
REMARK SMILES OCC(O)CO
REMARK SMILES IDX 3 1 5 2 6 3 2 5 1 6 4 8
REMARK H PARENT 6 4 1 7 4 9
REMARK Flexibility Score: inf
ROOT
ATOM      1  C   UNL     1     141.791 145.550 113.377  1.00  0.00     0.165 C 
ENDROOT
BRANCH   1   2
ATOM      2  C   UNL     1     142.972 144.967 114.174  1.00  0.00     0.190 C 
BRANCH   2   3
ATOM      3  O   UNL     1     142.554 144.520 115.436  1.00  0.00    -0.394 OA
ATOM      4  H   UNL     1     143.093 143.709 115.632  1.00  0.00     0.210 HD
ENDBRANCH   2   3
ENDBRANCH   1   2
BRANCH   1   5
ATOM      5  C   UNL     1     140.947 144.474 112.670  1.00  0.00     0.190 C 
BRANCH   5   6
ATOM      6  O   UNL     1     140.564 143.455 113.557  1.00  0.00    -0.394 OA
ATOM      7  H   UNL     1     139.608 143.608 113.779  1.00  0.00     0.210 HD
ENDBRANCH   5   6
ENDBRANCH   1   5
BRANCH   1   8
ATOM      8  O   UNL     1     140.992 146.383 114.182  1.00  0.00    -0.388 OA
ATOM      9  H   UNL     1     141.114 146.104 115.126  1.00  0.00     0.211 HD
ENDBRANCH   1   8
TORSDOF 5
ENDMDL
MODEL 3
REMARK VINA RESULT:    -3.601      1.147      2.906
REMARK INTER + INTRA:          -4.554
REMARK INTER:                  -4.370
REMARK INTRA:                  -0.183
REMARK UNBOUND:                -0.216
REMARK SMILES OCC(O)CO
REMARK SMILES IDX 3 1 5 2 6 3 2 5 1 6 4 8
REMARK H PARENT 6 4 1 7 4 9
REMARK Flexibility Score: inf
ROOT
ATOM      1  C   UNL     1     141.655 144.603 113.112  1.00  0.00     0.165 C 
ENDROOT
BRANCH   1   2
ATOM      2  C   UNL     1     141.210 146.076 113.048  1.00  0.00     0.190 C 
BRANCH   2   3
ATOM      3  O   UNL     1     140.832 146.542 114.315  1.00  0.00    -0.394 OA
ATOM      4  H   UNL     1     140.492 145.750 114.808  1.00  0.00     0.210 HD
ENDBRANCH   2   3
ENDBRANCH   1   2
BRANCH   1   5
ATOM      5  C   UNL     1     142.863 144.376 114.038  1.00  0.00     0.190 C 
BRANCH   5   6
ATOM      6  O   UNL     1     142.577 144.752 115.360  1.00  0.00    -0.394 OA
ATOM      7  H   UNL     1     141.960 145.528 115.314  1.00  0.00     0.210 HD
ENDBRANCH   5   6
ENDBRANCH   1   5
BRANCH   1   8
ATOM      8  O   UNL     1     140.581 143.759 113.450  1.00  0.00    -0.388 OA
ATOM      9  H   UNL     1     139.990 144.253 114.076  1.00  0.00     0.211 HD
ENDBRANCH   1   8
TORSDOF 5
ENDMDL
MODEL 4
REMARK VINA RESULT:    -3.449      1.725      2.384
REMARK INTER + INTRA:          -4.371
REMARK INTER:                  -4.369
REMARK INTRA:                  -0.002
REMARK UNBOUND:                -0.216
REMARK SMILES OCC(O)CO
REMARK SMILES IDX 3 1 5 2 6 3 2 5 1 6 4 8
REMARK H PARENT 6 4 1 7 4 9
REMARK Flexibility Score: inf
ROOT
ATOM      1  C   UNL     1     142.416 144.982 113.767  1.00  0.00     0.165 C 
ENDROOT
BRANCH   1   2
ATOM      2  C   UNL     1     143.844 144.800 113.222  1.00  0.00     0.190 C 
BRANCH   2   3
ATOM      3  O   UNL     1     144.550 143.847 113.970  1.00  0.00    -0.394 OA
ATOM      4  H   UNL     1     144.299 142.963 113.594  1.00  0.00     0.210 HD
ENDBRANCH   2   3
ENDBRANCH   1   2
BRANCH   1   5
ATOM      5  C   UNL     1     141.400 144.011 113.139  1.00  0.00     0.190 C 
BRANCH   5   6
ATOM      6  O   UNL     1     140.220 144.672 112.764  1.00  0.00    -0.394 OA
ATOM      7  H   UNL     1     140.021 144.403 111.829  1.00  0.00     0.210 HD
ENDBRANCH   5   6
ENDBRANCH   1   5
BRANCH   1   8
ATOM      8  O   UNL     1     142.392 144.914 115.172  1.00  0.00    -0.388 OA
ATOM      9  H   UNL     1     142.938 144.133 115.449  1.00  0.00     0.211 HD
ENDBRANCH   1   8
TORSDOF 5
ENDMDL
MODEL 5
REMARK VINA RESULT:    -3.412      1.441      2.599
REMARK INTER + INTRA:          -4.326
REMARK INTER:                  -4.323
REMARK INTRA:                  -0.003
REMARK UNBOUND:                -0.216
REMARK SMILES OCC(O)CO
REMARK SMILES IDX 3 1 5 2 6 3 2 5 1 6 4 8
REMARK H PARENT 6 4 1 7 4 9
REMARK Flexibility Score: inf
ROOT
ATOM      1  C   UNL     1     141.980 144.894 113.852  1.00  0.00     0.165 C 
ENDROOT
BRANCH   1   2
ATOM      2  C   UNL     1     141.254 144.118 112.738  1.00  0.00     0.190 C 
BRANCH   2   3
ATOM      3  O   UNL     1     140.008 144.695 112.455  1.00  0.00    -0.394 OA
ATOM      4  H   UNL     1     139.697 145.107 113.303  1.00  0.00     0.210 HD
ENDBRANCH   2   3
ENDBRANCH   1   2
BRANCH   1   5
ATOM      5  C   UNL     1     143.436 145.246 113.496  1.00  0.00     0.190 C 
BRANCH   5   6
ATOM      6  O   UNL     1     144.228 145.387 114.646  1.00  0.00    -0.394 OA
ATOM      7  H   UNL     1     144.942 144.699 114.593  1.00  0.00     0.210 HD
ENDBRANCH   5   6
ENDBRANCH   1   5
BRANCH   1   8
ATOM      8  O   UNL     1     141.254 146.035 114.237  1.00  0.00    -0.388 OA
ATOM      9  H   UNL     1     141.050 146.558 113.418  1.00  0.00     0.211 HD
ENDBRANCH   1   8
TORSDOF 5
ENDMDL
MODEL 6
REMARK VINA RESULT:    -3.293      0.749      2.416
REMARK INTER + INTRA:          -4.183
REMARK INTER:                  -3.971
REMARK INTRA:                  -0.212
REMARK UNBOUND:                -0.216
REMARK SMILES OCC(O)CO
REMARK SMILES IDX 3 1 5 2 6 3 2 5 1 6 4 8
REMARK H PARENT 6 4 1 7 4 9
REMARK Flexibility Score: inf
ROOT
ATOM      1  C   UNL     1     141.737 145.606 113.501  1.00  0.00     0.165 C 
ENDROOT
BRANCH   1   2
ATOM      2  C   UNL     1     140.783 146.690 112.969  1.00  0.00     0.190 C 
BRANCH   2   3
ATOM      3  O   UNL     1     139.628 146.116 112.418  1.00  0.00    -0.394 OA
ATOM      4  H   UNL     1     138.889 146.752 112.607  1.00  0.00     0.210 HD
ENDBRANCH   2   3
ENDBRANCH   1   2
BRANCH   1   5
ATOM      5  C   UNL     1     141.497 144.223 112.868  1.00  0.00     0.190 C 
BRANCH   5   6
ATOM      6  O   UNL     1     140.576 143.469 113.612  1.00  0.00    -0.394 OA
ATOM      7  H   UNL     1     140.923 142.539 113.646  1.00  0.00     0.210 HD
ENDBRANCH   5   6
ENDBRANCH   1   5
BRANCH   1   8
ATOM      8  O   UNL     1     143.081 146.002 113.376  1.00  0.00    -0.388 OA
ATOM      9  H   UNL     1     143.400 145.723 112.478  1.00  0.00     0.211 HD
ENDBRANCH   1   8
TORSDOF 5
ENDMDL
MODEL 7
REMARK VINA RESULT:    -3.112      2.709      3.778
REMARK INTER + INTRA:          -3.965
REMARK INTER:                  -3.962
REMARK INTRA:                  -0.003
REMARK UNBOUND:                -0.216
REMARK SMILES OCC(O)CO
REMARK SMILES IDX 3 1 5 2 6 3 2 5 1 6 4 8
REMARK H PARENT 6 4 1 7 4 9
REMARK Flexibility Score: inf
ROOT
ATOM      1  C   UNL     1     143.798 144.584 113.361  1.00  0.00     0.165 C 
ENDROOT
BRANCH   1   2
ATOM      2  C   UNL     1     142.449 145.018 113.964  1.00  0.00     0.190 C 
BRANCH   2   3
ATOM      3  O   UNL     1     142.420 144.788 115.346  1.00  0.00    -0.394 OA
ATOM      4  H   UNL     1     141.550 144.345 115.532  1.00  0.00     0.210 HD
ENDBRANCH   2   3
ENDBRANCH   1   2
BRANCH   1   5
ATOM      5  C   UNL     1     144.780 145.754 113.171  1.00  0.00     0.190 C 
BRANCH   5   6
ATOM      6  O   UNL     1     146.114 145.318 113.215  1.00  0.00    -0.394 OA
ATOM      7  H   UNL     1     146.528 145.731 114.017  1.00  0.00     0.210 HD
ENDBRANCH   5   6
ENDBRANCH   1   5
BRANCH   1   8
ATOM      8  O   UNL     1     144.378 143.541 114.105  1.00  0.00    -0.388 OA
ATOM      9  H   UNL     1     143.681 142.851 114.260  1.00  0.00     0.211 HD
ENDBRANCH   1   8
TORSDOF 5
ENDMDL
MODEL 8
REMARK VINA RESULT:    -3.080     11.526     12.213
REMARK INTER + INTRA:          -3.925
REMARK INTER:                  -3.702
REMARK INTRA:                  -0.223
REMARK UNBOUND:                -0.216
REMARK SMILES OCC(O)CO
REMARK SMILES IDX 3 1 5 2 6 3 2 5 1 6 4 8
REMARK H PARENT 6 4 1 7 4 9
REMARK Flexibility Score: inf
ROOT
ATOM      1  C   UNL     1     129.477 145.155 116.458  1.00  0.00     0.165 C 
ENDROOT
BRANCH   1   2
ATOM      2  C   UNL     1     128.092 144.581 116.109  1.00  0.00     0.190 C 
BRANCH   2   3
ATOM      3  O   UNL     1     127.712 144.941 114.809  1.00  0.00    -0.394 OA
ATOM      4  H   UNL     1     128.451 145.501 114.452  1.00  0.00     0.210 HD
ENDBRANCH   2   3
ENDBRANCH   1   2
BRANCH   1   5
ATOM      5  C   UNL     1     130.640 144.287 115.943  1.00  0.00     0.190 C 
BRANCH   5   6
ATOM      6  O   UNL     1     130.275 143.564 114.797  1.00  0.00    -0.394 OA
ATOM      7  H   UNL     1     129.993 144.226 114.113  1.00  0.00     0.210 HD
ENDBRANCH   5   6
ENDBRANCH   1   5
BRANCH   1   8
ATOM      8  O   UNL     1     129.601 146.488 116.027  1.00  0.00    -0.388 OA
ATOM      9  H   UNL     1     128.788 146.718 115.506  1.00  0.00     0.211 HD
ENDBRANCH   1   8
TORSDOF 5
ENDMDL
MODEL 9
REMARK VINA RESULT:    -3.078      1.666      3.136
REMARK INTER + INTRA:          -3.924
REMARK INTER:                  -3.716
REMARK INTRA:                  -0.208
REMARK UNBOUND:                -0.216
REMARK SMILES OCC(O)CO
REMARK SMILES IDX 3 1 5 2 6 3 2 5 1 6 4 8
REMARK H PARENT 6 4 1 7 4 9
REMARK Flexibility Score: inf
ROOT
ATOM      1  C   UNL     1     141.337 144.184 112.743  1.00  0.00     0.165 C 
ENDROOT
BRANCH   1   2
ATOM      2  C   UNL     1     142.518 145.107 113.092  1.00  0.00     0.190 C 
BRANCH   2   3
ATOM      3  O   UNL     1     143.739 144.517 112.737  1.00  0.00    -0.394 OA
ATOM      4  H   UNL     1     144.113 144.136 113.574  1.00  0.00     0.210 HD
ENDBRANCH   2   3
ENDBRANCH   1   2
BRANCH   1   5
ATOM      5  C   UNL     1     141.166 143.018 113.734  1.00  0.00     0.190 C 
BRANCH   5   6
ATOM      6  O   UNL     1     141.971 143.187 114.871  1.00  0.00    -0.394 OA
ATOM      7  H   UNL     1     141.466 143.764 115.502  1.00  0.00     0.210 HD
ENDBRANCH   5   6
ENDBRANCH   1   5
BRANCH   1   8
ATOM      8  O   UNL     1     140.143 144.914 112.597  1.00  0.00    -0.388 OA
ATOM      9  H   UNL     1     139.640 144.852 113.451  1.00  0.00     0.211 HD
ENDBRANCH   1   8
TORSDOF 5
ENDMDL
