MODEL 1
REMARK VINA RESULT:    -4.918      0.000      0.000
REMARK INTER + INTRA:          -4.918
REMARK INTER:                  -4.918
REMARK INTRA:                   0.000
REMARK UNBOUND:                 0.000
REMARK SMILES C[C@H]1C(=O)CC[C@H]2[C@]1(C)CC[C@@H]1[C@]2(C)CC[C@@]2(C)[C@@H]3CC(C)(C)CC[C@]3(C)CC[C@]12C
REMARK SMILES IDX 1 1 2 2 3 3 4 4 5 5 6 6 7 7 8 8 10 9 11 10 12 11 13 12 15 13
REMARK SMILES IDX 16 14 17 15 30 16 29 17 28 18 26 19 19 20 20 21 21 22 24 23
REMARK SMILES IDX 25 24 22 25 23 26 27 27 31 28 18 29 14 30 9 31
REMARK H PARENT
REMARK Flexibility Score: inf
ROOT
ATOM      1  C   UNL     1     120.137 110.582 121.196  1.00  0.00     0.016 C 
ATOM      2  C   UNL     1     120.315 110.767 119.672  1.00  0.00     0.059 C 
ATOM      3  C   UNL     1     120.574 109.467 118.937  1.00  0.00     0.136 C 
ATOM      4  O   UNL     1     120.501 108.376 119.503  1.00  0.00    -0.299 OA
ATOM      5  C   UNL     1     120.788 109.515 117.445  1.00  0.00     0.076 C 
ATOM      6  C   UNL     1     120.834 110.962 116.940  1.00  0.00     0.012 C 
ATOM      7  C   UNL     1     119.548 111.743 117.377  1.00  0.00     0.002 C 
ATOM      8  C   UNL     1     119.149 111.540 118.933  1.00  0.00    -0.020 C 
ATOM      9  C   UNL     1     118.874 112.887 119.704  1.00  0.00     0.008 C 
ATOM     10  C   UNL     1     118.162 114.036 118.936  1.00  0.00     0.005 C 
ATOM     11  C   UNL     1     118.143 113.825 117.404  1.00  0.00     0.002 C 
ATOM     12  C   UNL     1     119.527 113.255 116.905  1.00  0.00    -0.026 C 
ATOM     13  C   UNL     1     119.595 113.334 115.357  1.00  0.00     0.008 C 
ATOM     14  C   UNL     1     119.252 114.697 114.714  1.00  0.00     0.008 C 
ATOM     15  C   UNL     1     118.333 115.688 115.521  1.00  0.00    -0.024 C 
ATOM     16  C   UNL     1     117.357 114.868 116.452  1.00  0.00    -0.024 C 
ATOM     17  C   UNL     1     116.464 115.875 117.277  1.00  0.00     0.008 C 
ATOM     18  C   UNL     1     116.268 117.291 116.679  1.00  0.00     0.007 C 
ATOM     19  C   UNL     1     116.271 117.399 115.127  1.00  0.00    -0.029 C 
ATOM     20  C   UNL     1     117.511 116.596 114.479  1.00  0.00     0.002 C 
ATOM     21  C   UNL     1     118.500 117.383 113.541  1.00  0.00     0.011 C 
ATOM     22  C   UNL     1     118.004 118.722 112.980  1.00  0.00    -0.035 C 
ATOM     23  C   UNL     1     117.472 119.549 114.160  1.00  0.00     0.007 C 
ATOM     24  C   UNL     1     116.213 118.937 114.757  1.00  0.00     0.007 C 
ATOM     25  C   UNL     1     119.193 119.479 112.343  1.00  0.00     0.011 C 
ATOM     26  C   UNL     1     116.944 118.501 111.875  1.00  0.00     0.011 C 
ATOM     27  C   UNL     1     114.895 116.804 114.660  1.00  0.00     0.011 C 
ATOM     28  C   UNL     1     116.380 113.974 115.586  1.00  0.00     0.012 C 
ATOM     29  C   UNL     1     119.238 116.643 116.385  1.00  0.00     0.012 C 
ATOM     30  C   UNL     1     120.793 113.973 117.492  1.00  0.00     0.012 C 
ATOM     31  C   UNL     1     117.841 110.682 119.002  1.00  0.00     0.012 C 
ENDROOT
TORSDOF 0
ENDMDL
MODEL 2
REMARK VINA RESULT:    -4.771      4.630      6.535
REMARK INTER + INTRA:          -4.771
REMARK INTER:                  -4.771
REMARK INTRA:                   0.000
REMARK UNBOUND:                 0.000
REMARK SMILES C[C@H]1C(=O)CC[C@H]2[C@]1(C)CC[C@@H]1[C@]2(C)CC[C@@]2(C)[C@@H]3CC(C)(C)CC[C@]3(C)CC[C@]12C
REMARK SMILES IDX 1 1 2 2 3 3 4 4 5 5 6 6 7 7 8 8 10 9 11 10 12 11 13 12 15 13
REMARK SMILES IDX 16 14 17 15 30 16 29 17 28 18 26 19 19 20 20 21 21 22 24 23
REMARK SMILES IDX 25 24 22 25 23 26 27 27 31 28 18 29 14 30 9 31
REMARK H PARENT
REMARK Flexibility Score: inf
ROOT
ATOM      1  C   UNL     1     110.417 112.258 121.050  1.00  0.00     0.016 C 
ATOM      2  C   UNL     1     110.586 112.212 119.514  1.00  0.00     0.059 C 
ATOM      3  C   UNL     1     109.278 112.018 118.773  1.00  0.00     0.136 C 
ATOM      4  O   UNL     1     108.193 112.042 119.355  1.00  0.00    -0.299 OA
ATOM      5  C   UNL     1     109.310 111.934 117.268  1.00  0.00     0.076 C 
ATOM      6  C   UNL     1     110.752 111.932 116.746  1.00  0.00     0.012 C 
ATOM      7  C   UNL     1     111.539 113.175 117.285  1.00  0.00     0.002 C 
ATOM      8  C   UNL     1     111.352 113.438 118.871  1.00  0.00    -0.020 C 
ATOM      9  C   UNL     1     112.707 113.645 119.649  1.00  0.00     0.008 C 
ATOM     10  C   UNL     1     113.849 114.420 118.934  1.00  0.00     0.005 C 
ATOM     11  C   UNL     1     113.622 114.573 117.412  1.00  0.00     0.002 C 
ATOM     12  C   UNL     1     113.046 113.236 116.801  1.00  0.00    -0.026 C 
ATOM     13  C   UNL     1     113.109 113.303 115.252  1.00  0.00     0.008 C 
ATOM     14  C   UNL     1     114.465 113.701 114.627  1.00  0.00     0.008 C 
ATOM     15  C   UNL     1     115.466 114.546 115.501  1.00  0.00    -0.024 C 
ATOM     16  C   UNL     1     114.656 115.438 116.521  1.00  0.00    -0.024 C 
ATOM     17  C   UNL     1     115.673 116.256 117.410  1.00  0.00     0.008 C 
ATOM     18  C   UNL     1     117.082 116.503 116.817  1.00  0.00     0.007 C 
ATOM     19  C   UNL     1     117.175 116.635 115.269  1.00  0.00    -0.029 C 
ATOM     20  C   UNL     1     116.364 115.455 114.524  1.00  0.00     0.002 C 
ATOM     21  C   UNL     1     117.140 114.551 113.496  1.00  0.00     0.011 C 
ATOM     22  C   UNL     1     118.473 115.093 112.966  1.00  0.00    -0.035 C 
ATOM     23  C   UNL     1     119.313 115.521 114.179  1.00  0.00     0.007 C 
ATOM     24  C   UNL     1     118.709 116.724 114.889  1.00  0.00     0.007 C 
ATOM     25  C   UNL     1     119.223 113.964 112.221  1.00  0.00     0.011 C 
ATOM     26  C   UNL     1     118.242 116.245 111.960  1.00  0.00     0.011 C 
ATOM     27  C   UNL     1     116.576 118.046 114.929  1.00  0.00     0.011 C 
ATOM     28  C   UNL     1     113.754 116.486 115.752  1.00  0.00     0.012 C 
ATOM     29  C   UNL     1     116.429 113.570 116.273  1.00  0.00     0.012 C 
ATOM     30  C   UNL     1     113.769 111.925 117.269  1.00  0.00     0.012 C 
ATOM     31  C   UNL     1     110.497 114.735 119.063  1.00  0.00     0.012 C 
ENDROOT
TORSDOF 0
ENDMDL
MODEL 3
REMARK VINA RESULT:    -4.768      5.259      9.453
REMARK INTER + INTRA:          -4.768
REMARK INTER:                  -4.768
REMARK INTRA:                   0.000
REMARK UNBOUND:                 0.000
REMARK SMILES C[C@H]1C(=O)CC[C@H]2[C@]1(C)CC[C@@H]1[C@]2(C)CC[C@@]2(C)[C@@H]3CC(C)(C)CC[C@]3(C)CC[C@]12C
REMARK SMILES IDX 1 1 2 2 3 3 4 4 5 5 6 6 7 7 8 8 10 9 11 10 12 11 13 12 15 13
REMARK SMILES IDX 16 14 17 15 30 16 29 17 28 18 26 19 19 20 20 21 21 22 24 23
REMARK SMILES IDX 25 24 22 25 23 26 27 27 31 28 18 29 14 30 9 31
REMARK H PARENT
REMARK Flexibility Score: inf
ROOT
ATOM      1  C   UNL     1     112.034 122.658 121.051  1.00  0.00     0.016 C 
ATOM      2  C   UNL     1     112.010 122.495 119.514  1.00  0.00     0.059 C 
ATOM      3  C   UNL     1     111.801 123.803 118.777  1.00  0.00     0.136 C 
ATOM      4  O   UNL     1     111.799 124.886 119.364  1.00  0.00    -0.299 OA
ATOM      5  C   UNL     1     111.735 123.777 117.271  1.00  0.00     0.076 C 
ATOM      6  C   UNL     1     111.765 122.337 116.742  1.00  0.00     0.012 C 
ATOM      7  C   UNL     1     113.017 121.570 117.292  1.00  0.00     0.002 C 
ATOM      8  C   UNL     1     113.257 121.754 118.882  1.00  0.00    -0.020 C 
ATOM      9  C   UNL     1     113.480 120.399 119.656  1.00  0.00     0.008 C 
ATOM     10  C   UNL     1     114.284 119.276 118.945  1.00  0.00     0.005 C 
ATOM     11  C   UNL     1     114.450 119.512 117.426  1.00  0.00     0.002 C 
ATOM     12  C   UNL     1     113.111 120.067 116.801  1.00  0.00    -0.026 C 
ATOM     13  C   UNL     1     113.197 120.013 115.253  1.00  0.00     0.008 C 
ATOM     14  C   UNL     1     113.626 118.667 114.626  1.00  0.00     0.008 C 
ATOM     15  C   UNL     1     114.479 117.678 115.506  1.00  0.00    -0.024 C 
ATOM     16  C   UNL     1     115.344 118.499 116.541  1.00  0.00    -0.024 C 
ATOM     17  C   UNL     1     116.170 117.492 117.434  1.00  0.00     0.008 C 
ATOM     18  C   UNL     1     116.450 116.091 116.837  1.00  0.00     0.007 C 
ATOM     19  C   UNL     1     116.601 116.008 115.291  1.00  0.00    -0.029 C 
ATOM     20  C   UNL     1     115.416 116.801 114.536  1.00  0.00     0.002 C 
ATOM     21  C   UNL     1     114.538 116.014 113.494  1.00  0.00     0.011 C 
ATOM     22  C   UNL     1     115.111 114.693 112.964  1.00  0.00    -0.035 C 
ATOM     23  C   UNL     1     115.540 113.855 114.177  1.00  0.00     0.007 C 
ATOM     24  C   UNL     1     116.722 114.478 114.905  1.00  0.00     0.007 C 
ATOM     25  C   UNL     1     114.005 113.927 112.201  1.00  0.00     0.011 C 
ATOM     26  C   UNL     1     116.270 114.950 111.972  1.00  0.00     0.011 C 
ATOM     27  C   UNL     1     118.005 116.634 114.971  1.00  0.00     0.011 C 
ATOM     28  C   UNL     1     116.385 119.423 115.788  1.00  0.00     0.012 C 
ATOM     29  C   UNL     1     113.512 116.694 116.262  1.00  0.00     0.012 C 
ATOM     30  C   UNL     1     111.807 119.318 117.250  1.00  0.00     0.012 C 
ATOM     31  C   UNL     1     114.536 122.632 119.093  1.00  0.00     0.012 C 
ENDROOT
TORSDOF 0
ENDMDL
MODEL 4
REMARK VINA RESULT:    -4.702      5.016      8.216
REMARK INTER + INTRA:          -4.702
REMARK INTER:                  -4.702
REMARK INTRA:                   0.000
REMARK UNBOUND:                 0.000
REMARK SMILES C[C@H]1C(=O)CC[C@H]2[C@]1(C)CC[C@@H]1[C@]2(C)CC[C@@]2(C)[C@@H]3CC(C)(C)CC[C@]3(C)CC[C@]12C
REMARK SMILES IDX 1 1 2 2 3 3 4 4 5 5 6 6 7 7 8 8 10 9 11 10 12 11 13 12 15 13
REMARK SMILES IDX 16 14 17 15 30 16 29 17 28 18 26 19 19 20 20 21 21 22 24 23
REMARK SMILES IDX 25 24 22 25 23 26 27 27 31 28 18 29 14 30 9 31
REMARK H PARENT
REMARK Flexibility Score: inf
ROOT
ATOM      1  C   UNL     1     118.861 116.923 115.342  1.00  0.00     0.016 C 
ATOM      2  C   UNL     1     117.784 116.013 114.708  1.00  0.00     0.059 C 
ATOM      3  C   UNL     1     118.204 115.427 113.375  1.00  0.00     0.136 C 
ATOM      4  O   UNL     1     119.347 115.564 112.937  1.00  0.00    -0.299 OA
ATOM      5  C   UNL     1     117.231 114.539 112.642  1.00  0.00     0.076 C 
ATOM      6  C   UNL     1     115.875 114.495 113.358  1.00  0.00     0.012 C 
ATOM      7  C   UNL     1     116.053 114.067 114.855  1.00  0.00     0.002 C 
ATOM      8  C   UNL     1     117.247 114.843 115.627  1.00  0.00    -0.020 C 
ATOM      9  C   UNL     1     116.819 115.452 117.016  1.00  0.00     0.008 C 
ATOM     10  C   UNL     1     115.819 114.646 117.891  1.00  0.00     0.005 C 
ATOM     11  C   UNL     1     115.099 113.519 117.114  1.00  0.00     0.002 C 
ATOM     12  C   UNL     1     114.696 114.013 115.670  1.00  0.00    -0.026 C 
ATOM     13  C   UNL     1     113.724 112.990 115.024  1.00  0.00     0.008 C 
ATOM     14  C   UNL     1     112.499 112.566 115.866  1.00  0.00     0.008 C 
ATOM     15  C   UNL     1     112.597 112.690 117.432  1.00  0.00    -0.024 C 
ATOM     16  C   UNL     1     114.099 112.513 117.886  1.00  0.00    -0.024 C 
ATOM     17  C   UNL     1     114.185 112.670 119.455  1.00  0.00     0.008 C 
ATOM     18  C   UNL     1     112.893 112.389 120.260  1.00  0.00     0.007 C 
ATOM     19  C   UNL     1     111.921 111.325 119.672  1.00  0.00    -0.029 C 
ATOM     20  C   UNL     1     111.656 111.570 118.100  1.00  0.00     0.002 C 
ATOM     21  C   UNL     1     110.170 111.744 117.613  1.00  0.00     0.011 C 
ATOM     22  C   UNL     1     109.068 111.267 118.568  1.00  0.00    -0.035 C 
ATOM     23  C   UNL     1     109.350 111.886 119.945  1.00  0.00     0.007 C 
ATOM     24  C   UNL     1     110.618 111.322 120.570  1.00  0.00     0.007 C 
ATOM     25  C   UNL     1     107.699 111.784 118.066  1.00  0.00     0.011 C 
ATOM     26  C   UNL     1     108.999 109.722 118.607  1.00  0.00     0.011 C 
ATOM     27  C   UNL     1     112.611 109.938 119.929  1.00  0.00     0.011 C 
ATOM     28  C   UNL     1     114.622 111.063 117.529  1.00  0.00     0.012 C 
ATOM     29  C   UNL     1     112.056 114.100 117.873  1.00  0.00     0.012 C 
ATOM     30  C   UNL     1     114.029 115.432 115.614  1.00  0.00     0.012 C 
ATOM     31  C   UNL     1     118.407 113.827 115.895  1.00  0.00     0.012 C 
ENDROOT
TORSDOF 0
ENDMDL
MODEL 5
REMARK VINA RESULT:    -4.699      5.104      8.097
REMARK INTER + INTRA:          -4.699
REMARK INTER:                  -4.699
REMARK INTRA:                   0.000
REMARK UNBOUND:                 0.000
REMARK SMILES C[C@H]1C(=O)CC[C@H]2[C@]1(C)CC[C@@H]1[C@]2(C)CC[C@@]2(C)[C@@H]3CC(C)(C)CC[C@]3(C)CC[C@]12C
REMARK SMILES IDX 1 1 2 2 3 3 4 4 5 5 6 6 7 7 8 8 10 9 11 10 12 11 13 12 15 13
REMARK SMILES IDX 16 14 17 15 30 16 29 17 28 18 26 19 19 20 20 21 21 22 24 23
REMARK SMILES IDX 25 24 22 25 23 26 27 27 31 28 18 29 14 30 9 31
REMARK H PARENT
REMARK Flexibility Score: inf
ROOT
ATOM      1  C   UNL     1     117.054 114.179 114.853  1.00  0.00     0.016 C 
ATOM      2  C   UNL     1     116.113 115.283 114.318  1.00  0.00     0.059 C 
ATOM      3  C   UNL     1     115.446 114.918 113.006  1.00  0.00     0.136 C 
ATOM      4  O   UNL     1     115.552 113.793 112.516  1.00  0.00    -0.299 OA
ATOM      5  C   UNL     1     114.520 115.922 112.367  1.00  0.00     0.076 C 
ATOM      6  C   UNL     1     114.525 117.247 113.139  1.00  0.00     0.012 C 
ATOM      7  C   UNL     1     114.186 117.010 114.651  1.00  0.00     0.002 C 
ATOM      8  C   UNL     1     115.002 115.785 115.326  1.00  0.00    -0.020 C 
ATOM      9  C   UNL     1     115.695 116.155 116.692  1.00  0.00     0.008 C 
ATOM     10  C   UNL     1     114.947 117.120 117.653  1.00  0.00     0.005 C 
ATOM     11  C   UNL     1     113.779 117.873 116.974  1.00  0.00     0.002 C 
ATOM     12  C   UNL     1     114.187 118.334 115.521  1.00  0.00    -0.026 C 
ATOM     13  C   UNL     1     113.132 119.333 114.977  1.00  0.00     0.008 C 
ATOM     14  C   UNL     1     112.764 120.523 115.891  1.00  0.00     0.008 C 
ATOM     15  C   UNL     1     112.982 120.362 117.442  1.00  0.00    -0.024 C 
ATOM     16  C   UNL     1     112.825 118.844 117.845  1.00  0.00    -0.024 C 
ATOM     17  C   UNL     1     113.076 118.694 119.397  1.00  0.00     0.008 C 
ATOM     18  C   UNL     1     112.848 119.954 120.269  1.00  0.00     0.007 C 
ATOM     19  C   UNL     1     111.756 120.950 119.785  1.00  0.00    -0.029 C 
ATOM     20  C   UNL     1     111.907 121.278 118.212  1.00  0.00     0.002 C 
ATOM     21  C   UNL     1     112.058 122.782 117.776  1.00  0.00     0.011 C 
ATOM     22  C   UNL     1     111.644 123.846 118.801  1.00  0.00    -0.035 C 
ATOM     23  C   UNL     1     112.344 123.507 120.126  1.00  0.00     0.007 C 
ATOM     24  C   UNL     1     111.811 122.217 120.732  1.00  0.00     0.007 C 
ATOM     25  C   UNL     1     112.136 125.233 118.325  1.00  0.00     0.011 C 
ATOM     26  C   UNL     1     110.105 123.916 118.936  1.00  0.00     0.011 C 
ATOM     27  C   UNL     1     110.383 120.254 120.096  1.00  0.00     0.011 C 
ATOM     28  C   UNL     1     111.354 118.338 117.554  1.00  0.00     0.012 C 
ATOM     29  C   UNL     1     114.418 120.883 117.819  1.00  0.00     0.012 C 
ATOM     30  C   UNL     1     115.603 119.000 115.407  1.00  0.00     0.012 C 
ATOM     31  C   UNL     1     113.999 114.616 115.608  1.00  0.00     0.012 C 
ENDROOT
TORSDOF 0
ENDMDL
MODEL 6
REMARK VINA RESULT:    -4.688      2.775      8.144
REMARK INTER + INTRA:          -4.688
REMARK INTER:                  -4.688
REMARK INTRA:                   0.000
REMARK UNBOUND:                 0.000
REMARK SMILES C[C@H]1C(=O)CC[C@H]2[C@]1(C)CC[C@@H]1[C@]2(C)CC[C@@]2(C)[C@@H]3CC(C)(C)CC[C@]3(C)CC[C@]12C
REMARK SMILES IDX 1 1 2 2 3 3 4 4 5 5 6 6 7 7 8 8 10 9 11 10 12 11 13 12 15 13
REMARK SMILES IDX 16 14 17 15 30 16 29 17 28 18 26 19 19 20 20 21 21 22 24 23
REMARK SMILES IDX 25 24 22 25 23 26 27 27 31 28 18 29 14 30 9 31
REMARK H PARENT
REMARK Flexibility Score: inf
ROOT
ATOM      1  C   UNL     1     115.863 118.961 115.039  1.00  0.00     0.016 C 
ATOM      2  C   UNL     1     116.867 117.931 114.473  1.00  0.00     0.059 C 
ATOM      3  C   UNL     1     117.563 118.403 113.212  1.00  0.00     0.136 C 
ATOM      4  O   UNL     1     117.427 119.551 112.788  1.00  0.00    -0.299 OA
ATOM      5  C   UNL     1     118.551 117.479 112.547  1.00  0.00     0.076 C 
ATOM      6  C   UNL     1     118.575 116.109 113.236  1.00  0.00     0.012 C 
ATOM      7  C   UNL     1     118.852 116.264 114.771  1.00  0.00     0.002 C 
ATOM      8  C   UNL     1     117.963 117.411 115.489  1.00  0.00    -0.020 C 
ATOM      9  C   UNL     1     117.239 116.929 116.804  1.00  0.00     0.008 C 
ATOM     10  C   UNL     1     117.993 115.936 117.730  1.00  0.00     0.005 C 
ATOM     11  C   UNL     1     119.215 115.274 117.051  1.00  0.00     0.002 C 
ATOM     12  C   UNL     1     118.877 114.889 115.557  1.00  0.00    -0.026 C 
ATOM     13  C   UNL     1     119.990 113.969 114.993  1.00  0.00     0.008 C 
ATOM     14  C   UNL     1     120.376 112.739 115.845  1.00  0.00     0.008 C 
ATOM     15  C   UNL     1     120.099 112.794 117.394  1.00  0.00    -0.024 C 
ATOM     16  C   UNL     1     120.178 114.289 117.895  1.00  0.00    -0.024 C 
ATOM     17  C   UNL     1     119.868 114.332 119.443  1.00  0.00     0.008 C 
ATOM     18  C   UNL     1     120.118 113.030 120.244  1.00  0.00     0.007 C 
ATOM     19  C   UNL     1     121.267 112.110 119.741  1.00  0.00    -0.029 C 
ATOM     20  C   UNL     1     121.184 111.875 118.146  1.00  0.00     0.002 C 
ATOM     21  C   UNL     1     121.111 110.396 117.613  1.00  0.00     0.011 C 
ATOM     22  C   UNL     1     121.533 109.288 118.587  1.00  0.00    -0.035 C 
ATOM     23  C   UNL     1     120.775 109.515 119.903  1.00  0.00     0.007 C 
ATOM     24  C   UNL     1     121.232 110.785 120.606  1.00  0.00     0.007 C 
ATOM     25  C   UNL     1     121.116 107.915 118.009  1.00  0.00     0.011 C 
ATOM     26  C   UNL     1     123.069 109.270 118.773  1.00  0.00     0.011 C 
ATOM     27  C   UNL     1     122.598 112.839 120.144  1.00  0.00     0.011 C 
ATOM     28  C   UNL     1     121.635 114.870 117.690  1.00  0.00     0.012 C 
ATOM     29  C   UNL     1     118.674 112.194 117.686  1.00  0.00     0.012 C 
ATOM     30  C   UNL     1     117.494 114.177 115.351  1.00  0.00     0.012 C 
ATOM     31  C   UNL     1     118.906 118.599 115.878  1.00  0.00     0.012 C 
ENDROOT
TORSDOF 0
ENDMDL
MODEL 7
REMARK VINA RESULT:    -4.648      4.726      7.078
REMARK INTER + INTRA:          -4.648
REMARK INTER:                  -4.648
REMARK INTRA:                   0.000
REMARK UNBOUND:                 0.000
REMARK SMILES C[C@H]1C(=O)CC[C@H]2[C@]1(C)CC[C@@H]1[C@]2(C)CC[C@@]2(C)[C@@H]3CC(C)(C)CC[C@]3(C)CC[C@]12C
REMARK SMILES IDX 1 1 2 2 3 3 4 4 5 5 6 6 7 7 8 8 10 9 11 10 12 11 13 12 15 13
REMARK SMILES IDX 16 14 17 15 30 16 29 17 28 18 26 19 19 20 20 21 21 22 24 23
REMARK SMILES IDX 25 24 22 25 23 26 27 27 31 28 18 29 14 30 9 31
REMARK H PARENT
REMARK Flexibility Score: inf
ROOT
ATOM      1  C   UNL     1     123.498 121.228 120.994  1.00  0.00     0.016 C 
ATOM      2  C   UNL     1     123.133 121.184 119.492  1.00  0.00     0.059 C 
ATOM      3  C   UNL     1     124.343 121.236 118.580  1.00  0.00     0.136 C 
ATOM      4  O   UNL     1     125.491 121.174 119.021  1.00  0.00    -0.299 OA
ATOM      5  C   UNL     1     124.120 121.222 117.089  1.00  0.00     0.076 C 
ATOM      6  C   UNL     1     122.625 121.291 116.753  1.00  0.00     0.012 C 
ATOM      7  C   UNL     1     121.840 120.145 117.478  1.00  0.00     0.002 C 
ATOM      8  C   UNL     1     122.216 119.975 119.044  1.00  0.00    -0.020 C 
ATOM      9  C   UNL     1     120.963 119.916 119.999  1.00  0.00     0.008 C 
ATOM     10  C   UNL     1     119.693 119.178 119.492  1.00  0.00     0.005 C 
ATOM     11  C   UNL     1     119.709 118.909 117.969  1.00  0.00     0.002 C 
ATOM     12  C   UNL     1     120.282 120.158 117.193  1.00  0.00    -0.026 C 
ATOM     13  C   UNL     1     120.014 119.993 115.673  1.00  0.00     0.008 C 
ATOM     14  C   UNL     1     118.566 119.652 115.255  1.00  0.00     0.008 C 
ATOM     15  C   UNL     1     117.638 118.939 116.308  1.00  0.00    -0.024 C 
ATOM     16  C   UNL     1     118.517 118.062 117.283  1.00  0.00    -0.024 C 
ATOM     17  C   UNL     1     117.576 117.378 118.351  1.00  0.00     0.008 C 
ATOM     18  C   UNL     1     116.089 117.192 117.959  1.00  0.00     0.007 C 
ATOM     19  C   UNL     1     115.788 116.966 116.450  1.00  0.00    -0.029 C 
ATOM     20  C   UNL     1     116.566 118.033 115.523  1.00  0.00     0.002 C 
ATOM     21  C   UNL     1     115.720 118.920 114.536  1.00  0.00     0.011 C 
ATOM     22  C   UNL     1     114.298 118.439 114.219  1.00  0.00    -0.035 C 
ATOM     23  C   UNL     1     113.598 118.153 115.556  1.00  0.00     0.007 C 
ATOM     24  C   UNL     1     114.215 116.960 116.273  1.00  0.00     0.007 C 
ATOM     25  C   UNL     1     113.528 119.566 113.492  1.00  0.00     0.011 C 
ATOM     26  C   UNL     1     114.325 117.209 113.281  1.00  0.00     0.011 C 
ATOM     27  C   UNL     1     116.249 115.496 116.144  1.00  0.00     0.011 C 
ATOM     28  C   UNL     1     119.245 116.904 116.487  1.00  0.00     0.012 C 
ATOM     29  C   UNL     1     116.845 120.030 117.120  1.00  0.00     0.012 C 
ATOM     30  C   UNL     1     119.708 121.545 117.648  1.00  0.00     0.012 C 
ATOM     31  C   UNL     1     123.007 118.636 119.222  1.00  0.00     0.012 C 
ENDROOT
TORSDOF 0
ENDMDL
MODEL 8
REMARK VINA RESULT:    -4.636      5.331      8.296
REMARK INTER + INTRA:          -4.636
REMARK INTER:                  -4.636
REMARK INTRA:                   0.000
REMARK UNBOUND:                 0.000
REMARK SMILES C[C@H]1C(=O)CC[C@H]2[C@]1(C)CC[C@@H]1[C@]2(C)CC[C@@]2(C)[C@@H]3CC(C)(C)CC[C@]3(C)CC[C@]12C
REMARK SMILES IDX 1 1 2 2 3 3 4 4 5 5 6 6 7 7 8 8 10 9 11 10 12 11 13 12 15 13
REMARK SMILES IDX 16 14 17 15 30 16 29 17 28 18 26 19 19 20 20 21 21 22 24 23
REMARK SMILES IDX 25 24 22 25 23 26 27 27 31 28 18 29 14 30 9 31
REMARK H PARENT
REMARK Flexibility Score: inf
ROOT
ATOM      1  C   UNL     1     114.087 116.320 115.179  1.00  0.00     0.016 C 
ATOM      2  C   UNL     1     115.190 117.254 114.628  1.00  0.00     0.059 C 
ATOM      3  C   UNL     1     114.813 117.919 113.319  1.00  0.00     0.136 C 
ATOM      4  O   UNL     1     113.681 117.819 112.843  1.00  0.00    -0.299 OA
ATOM      5  C   UNL     1     115.814 118.838 112.666  1.00  0.00     0.076 C 
ATOM      6  C   UNL     1     117.149 118.827 113.421  1.00  0.00     0.012 C 
ATOM      7  C   UNL     1     116.932 119.171 114.934  1.00  0.00     0.002 C 
ATOM      8  C   UNL     1     115.711 118.365 115.627  1.00  0.00    -0.020 C 
ATOM      9  C   UNL     1     116.094 117.673 116.991  1.00  0.00     0.008 C 
ATOM     10  C   UNL     1     117.075 118.418 117.937  1.00  0.00     0.005 C 
ATOM     11  C   UNL     1     117.826 119.580 117.246  1.00  0.00     0.002 C 
ATOM     12  C   UNL     1     118.267 119.165 115.788  1.00  0.00    -0.026 C 
ATOM     13  C   UNL     1     119.265 120.213 115.229  1.00  0.00     0.008 C 
ATOM     14  C   UNL     1     120.468 120.577 116.127  1.00  0.00     0.008 C 
ATOM     15  C   UNL     1     120.326 120.364 117.681  1.00  0.00    -0.024 C 
ATOM     16  C   UNL     1     118.813 120.530 118.102  1.00  0.00    -0.024 C 
ATOM     17  C   UNL     1     118.681 120.285 119.656  1.00  0.00     0.008 C 
ATOM     18  C   UNL     1     119.953 120.507 120.512  1.00  0.00     0.007 C 
ATOM     19  C   UNL     1     120.949 121.592 120.013  1.00  0.00    -0.029 C 
ATOM     20  C   UNL     1     121.257 121.435 118.437  1.00  0.00     0.002 C 
ATOM     21  C   UNL     1     122.755 121.274 117.982  1.00  0.00     0.011 C 
ATOM     22  C   UNL     1     123.833 121.684 118.994  1.00  0.00    -0.035 C 
ATOM     23  C   UNL     1     123.507 120.991 120.324  1.00  0.00     0.007 C 
ATOM     24  C   UNL     1     122.227 121.532 120.945  1.00  0.00     0.007 C 
ATOM     25  C   UNL     1     125.211 121.183 118.501  1.00  0.00     0.011 C 
ATOM     26  C   UNL     1     123.914 123.224 119.123  1.00  0.00     0.011 C 
ATOM     27  C   UNL     1     120.265 122.970 120.330  1.00  0.00     0.011 C 
ATOM     28  C   UNL     1     118.312 122.003 117.814  1.00  0.00     0.012 C 
ATOM     29  C   UNL     1     120.842 118.926 118.056  1.00  0.00     0.012 C 
ATOM     30  C   UNL     1     118.923 117.745 115.670  1.00  0.00     0.012 C 
ATOM     31  C   UNL     1     114.552 119.375 115.920  1.00  0.00     0.012 C 
ENDROOT
TORSDOF 0
ENDMDL
MODEL 9
REMARK VINA RESULT:    -4.500      6.576      9.651
REMARK INTER + INTRA:          -4.500
REMARK INTER:                  -4.500
REMARK INTRA:                   0.000
REMARK UNBOUND:                 0.000
REMARK SMILES C[C@H]1C(=O)CC[C@H]2[C@]1(C)CC[C@@H]1[C@]2(C)CC[C@@]2(C)[C@@H]3CC(C)(C)CC[C@]3(C)CC[C@]12C
REMARK SMILES IDX 1 1 2 2 3 3 4 4 5 5 6 6 7 7 8 8 10 9 11 10 12 11 13 12 15 13
REMARK SMILES IDX 16 14 17 15 30 16 29 17 28 18 26 19 19 20 20 21 21 22 24 23
REMARK SMILES IDX 25 24 22 25 23 26 27 27 31 28 18 29 14 30 9 31
REMARK H PARENT
REMARK Flexibility Score: inf
ROOT
ATOM      1  C   UNL     1     126.934 122.251 118.345  1.00  0.00     0.016 C 
ATOM      2  C   UNL     1     125.632 122.961 117.909  1.00  0.00     0.059 C 
ATOM      3  C   UNL     1     125.855 124.030 116.858  1.00  0.00     0.136 C 
ATOM      4  O   UNL     1     126.952 124.194 116.322  1.00  0.00    -0.299 OA
ATOM      5  C   UNL     1     124.665 124.813 116.364  1.00  0.00     0.076 C 
ATOM      6  C   UNL     1     123.400 124.450 117.153  1.00  0.00     0.012 C 
ATOM      7  C   UNL     1     123.147 122.904 117.115  1.00  0.00     0.002 C 
ATOM      8  C   UNL     1     124.463 122.012 117.422  1.00  0.00    -0.020 C 
ATOM      9  C   UNL     1     124.238 120.895 118.512  1.00  0.00     0.008 C 
ATOM     10  C   UNL     1     122.868 120.163 118.536  1.00  0.00     0.005 C 
ATOM     11  C   UNL     1     121.776 120.885 117.711  1.00  0.00     0.002 C 
ATOM     12  C   UNL     1     121.863 122.447 117.923  1.00  0.00    -0.026 C 
ATOM     13  C   UNL     1     120.595 123.123 117.340  1.00  0.00     0.008 C 
ATOM     14  C   UNL     1     119.232 122.543 117.781  1.00  0.00     0.008 C 
ATOM     15  C   UNL     1     119.184 121.045 118.265  1.00  0.00    -0.024 C 
ATOM     16  C   UNL     1     120.315 120.217 117.539  1.00  0.00    -0.024 C 
ATOM     17  C   UNL     1     120.274 118.726 118.057  1.00  0.00     0.008 C 
ATOM     18  C   UNL     1     118.931 118.222 118.640  1.00  0.00     0.007 C 
ATOM     19  C   UNL     1     117.635 118.835 118.037  1.00  0.00    -0.029 C 
ATOM     20  C   UNL     1     117.729 120.443 117.940  1.00  0.00     0.002 C 
ATOM     21  C   UNL     1     116.613 121.299 118.647  1.00  0.00     0.011 C 
ATOM     22  C   UNL     1     115.314 120.572 119.018  1.00  0.00    -0.035 C 
ATOM     23  C   UNL     1     115.699 119.297 119.782  1.00  0.00     0.007 C 
ATOM     24  C   UNL     1     116.412 118.295 118.885  1.00  0.00     0.007 C 
ATOM     25  C   UNL     1     114.475 121.473 119.955  1.00  0.00     0.011 C 
ATOM     26  C   UNL     1     114.461 120.284 117.760  1.00  0.00     0.011 C 
ATOM     27  C   UNL     1     117.481 118.183 116.617  1.00  0.00     0.011 C 
ATOM     28  C   UNL     1     120.065 120.180 115.977  1.00  0.00     0.012 C 
ATOM     29  C   UNL     1     119.389 121.000 119.825  1.00  0.00     0.012 C 
ATOM     30  C   UNL     1     122.028 122.908 119.414  1.00  0.00     0.012 C 
ATOM     31  C   UNL     1     124.899 121.298 116.099  1.00  0.00     0.012 C 
ENDROOT
TORSDOF 0
ENDMDL
