MODEL 1
REMARK VINA RESULT:    -5.494      0.000      0.000
REMARK INTER + INTRA:          -7.193
REMARK INTER:                  -6.940
REMARK INTRA:                  -0.253
REMARK UNBOUND:                -0.253
REMARK SMILES CC(C)=CCCC(C)=CCO
REMARK SMILES IDX 7 1 9 2 8 3 6 4 5 5 4 6 1 7 2 8 3 9 10 10 11 11
REMARK H PARENT 11 12
REMARK Flexibility Score: inf
ROOT
ATOM      1  C   UNL     1      28.889   9.327  10.226  1.00  0.00    -0.075 C 
ATOM      2  C   UNL     1      28.398  10.261   9.381  1.00  0.00    -0.000 C 
ATOM      3  C   UNL     1      29.592   9.710  11.507  1.00  0.00     0.039 C 
ENDROOT
BRANCH   1   4
ATOM      4  C   UNL     1      28.718   7.862   9.887  1.00  0.00     0.034 C 
BRANCH   4   5
ATOM      5  C   UNL     1      28.341   7.686   8.411  1.00  0.00     0.032 C 
BRANCH   5   6
ATOM      6  C   UNL     1      28.122   6.229   8.085  1.00  0.00    -0.028 C 
ATOM      7  C   UNL     1      28.486   4.090   6.932  1.00  0.00     0.039 C 
ATOM      8  C   UNL     1      28.782   5.556   7.116  1.00  0.00    -0.080 C 
ATOM      9  C   UNL     1      29.784   6.234   6.211  1.00  0.00     0.039 C 
ENDBRANCH   5   6
ENDBRANCH   4   5
ENDBRANCH   1   4
BRANCH   2  10
ATOM     10  C   UNL     1      28.503  11.743   9.616  1.00  0.00     0.183 C 
BRANCH  10  11
ATOM     11  O   UNL     1      27.635  12.423   8.754  1.00  0.00    -0.392 OA
ATOM     12  H   UNL     1      28.072  13.292   8.552  1.00  0.00     0.210 HD
ENDBRANCH  10  11
ENDBRANCH   2  10
TORSDOF 5
ENDMDL
MODEL 2
REMARK VINA RESULT:    -5.251     10.305     10.928
REMARK INTER + INTRA:          -6.886
REMARK INTER:                  -6.828
REMARK INTRA:                  -0.058
REMARK UNBOUND:                -0.253
REMARK SMILES CC(C)=CCCC(C)=CCO
REMARK SMILES IDX 7 1 9 2 8 3 6 4 5 5 4 6 1 7 2 8 3 9 10 10 11 11
REMARK H PARENT 11 12
REMARK Flexibility Score: inf
ROOT
ATOM      1  C   UNL     1      18.220   9.178  10.052  1.00  0.00    -0.075 C 
ATOM      2  C   UNL     1      19.187   9.386  10.974  1.00  0.00    -0.000 C 
ATOM      3  C   UNL     1      18.090  10.056   8.829  1.00  0.00     0.039 C 
ENDROOT
BRANCH   1   4
ATOM      4  C   UNL     1      17.254   8.029  10.243  1.00  0.00     0.034 C 
BRANCH   4   5
ATOM      5  C   UNL     1      17.240   7.567  11.705  1.00  0.00     0.032 C 
BRANCH   5   6
ATOM      6  C   UNL     1      18.243   6.462  11.926  1.00  0.00    -0.028 C 
ATOM      7  C   UNL     1      19.036   4.159  12.252  1.00  0.00     0.039 C 
ATOM      8  C   UNL     1      17.921   5.158  12.078  1.00  0.00    -0.080 C 
ATOM      9  C   UNL     1      16.486   4.685  12.095  1.00  0.00     0.039 C 
ENDBRANCH   5   6
ENDBRANCH   4   5
ENDBRANCH   1   4
BRANCH   2  10
ATOM     10  C   UNL     1      20.205  10.489  10.886  1.00  0.00     0.183 C 
BRANCH  10  11
ATOM     11  O   UNL     1      21.472   9.947  10.640  1.00  0.00    -0.392 OA
ATOM     12  H   UNL     1      21.345   8.963  10.585  1.00  0.00     0.210 HD
ENDBRANCH  10  11
ENDBRANCH   2  10
TORSDOF 5
ENDMDL
MODEL 3
REMARK VINA RESULT:    -5.094      9.863     11.029
REMARK INTER + INTRA:          -6.687
REMARK INTER:                  -6.458
REMARK INTRA:                  -0.229
REMARK UNBOUND:                -0.253
REMARK SMILES CC(C)=CCCC(C)=CCO
REMARK SMILES IDX 7 1 9 2 8 3 6 4 5 5 4 6 1 7 2 8 3 9 10 10 11 11
REMARK H PARENT 11 12
REMARK Flexibility Score: inf
ROOT
ATOM      1  C   UNL     1      27.008   6.635  17.848  1.00  0.00    -0.075 C 
ATOM      2  C   UNL     1      26.854   6.876  19.169  1.00  0.00    -0.000 C 
ATOM      3  C   UNL     1      27.666   7.639  16.930  1.00  0.00     0.039 C 
ENDROOT
BRANCH   1   4
ATOM      4  C   UNL     1      26.524   5.319  17.277  1.00  0.00     0.034 C 
BRANCH   4   5
ATOM      5  C   UNL     1      25.822   4.484  18.354  1.00  0.00     0.032 C 
BRANCH   5   6
ATOM      6  C   UNL     1      25.475   3.114  17.827  1.00  0.00    -0.028 C 
ATOM      7  C   UNL     1      24.770   0.762  17.931  1.00  0.00     0.039 C 
ATOM      8  C   UNL     1      25.130   2.062  18.603  1.00  0.00    -0.080 C 
ATOM      9  C   UNL     1      25.114   2.152  20.111  1.00  0.00     0.039 C 
ENDBRANCH   5   6
ENDBRANCH   4   5
ENDBRANCH   1   4
BRANCH   2  10
ATOM     10  C   UNL     1      27.301   8.142  19.847  1.00  0.00     0.183 C 
BRANCH  10  11
ATOM     11  O   UNL     1      27.082   8.043  21.226  1.00  0.00    -0.392 OA
ATOM     12  H   UNL     1      27.980   7.960  21.643  1.00  0.00     0.210 HD
ENDBRANCH  10  11
ENDBRANCH   2  10
TORSDOF 5
ENDMDL
MODEL 4
REMARK VINA RESULT:    -5.005      3.026      6.044
REMARK INTER + INTRA:          -6.574
REMARK INTER:                  -6.324
REMARK INTRA:                  -0.251
REMARK UNBOUND:                -0.253
REMARK SMILES CC(C)=CCCC(C)=CCO
REMARK SMILES IDX 7 1 9 2 8 3 6 4 5 5 4 6 1 7 2 8 3 9 10 10 11 11
REMARK H PARENT 11 12
REMARK Flexibility Score: inf
ROOT
ATOM      1  C   UNL     1      28.854   5.828   6.998  1.00  0.00    -0.075 C 
ATOM      2  C   UNL     1      28.756   4.501   6.758  1.00  0.00    -0.000 C 
ATOM      3  C   UNL     1      29.895   6.682   6.312  1.00  0.00     0.039 C 
ENDROOT
BRANCH   1   4
ATOM      4  C   UNL     1      27.887   6.476   7.965  1.00  0.00     0.034 C 
BRANCH   4   5
ATOM      5  C   UNL     1      28.641   7.263   9.043  1.00  0.00     0.032 C 
BRANCH   5   6
ATOM      6  C   UNL     1      28.290   8.729   8.979  1.00  0.00    -0.028 C 
ATOM      7  C   UNL     1      28.252  11.080   9.696  1.00  0.00     0.039 C 
ATOM      8  C   UNL     1      28.639   9.639   9.915  1.00  0.00    -0.080 C 
ATOM      9  C   UNL     1      29.386   9.250  11.170  1.00  0.00     0.039 C 
ENDBRANCH   5   6
ENDBRANCH   4   5
ENDBRANCH   1   4
BRANCH   2  10
ATOM     10  C   UNL     1      29.655   3.752   5.814  1.00  0.00     0.183 C 
BRANCH  10  11
ATOM     11  O   UNL     1      29.150   3.834   4.511  1.00  0.00    -0.392 OA
ATOM     12  H   UNL     1      28.241   3.434   4.542  1.00  0.00     0.210 HD
ENDBRANCH  10  11
ENDBRANCH   2  10
TORSDOF 5
ENDMDL
MODEL 5
REMARK VINA RESULT:    -4.995      9.143     10.375
REMARK INTER + INTRA:          -6.563
REMARK INTER:                  -6.317
REMARK INTRA:                  -0.246
REMARK UNBOUND:                -0.253
REMARK SMILES CC(C)=CCCC(C)=CCO
REMARK SMILES IDX 7 1 9 2 8 3 6 4 5 5 4 6 1 7 2 8 3 9 10 10 11 11
REMARK H PARENT 11 12
REMARK Flexibility Score: inf
ROOT
ATOM      1  C   UNL     1      27.710   6.394  17.669  1.00  0.00    -0.075 C 
ATOM      2  C   UNL     1      27.642   7.732  17.484  1.00  0.00    -0.000 C 
ATOM      3  C   UNL     1      28.914   5.743  18.308  1.00  0.00     0.039 C 
ENDROOT
BRANCH   1   4
ATOM      4  C   UNL     1      26.544   5.531  17.238  1.00  0.00     0.034 C 
BRANCH   4   5
ATOM      5  C   UNL     1      26.055   4.658  18.400  1.00  0.00     0.032 C 
BRANCH   5   6
ATOM      6  C   UNL     1      25.597   3.310  17.901  1.00  0.00    -0.028 C 
ATOM      7  C   UNL     1      24.765   1.003  18.059  1.00  0.00     0.039 C 
ATOM      8  C   UNL     1      25.242   2.280  18.701  1.00  0.00    -0.080 C 
ATOM      9  C   UNL     1      25.327   2.371  20.207  1.00  0.00     0.039 C 
ENDBRANCH   5   6
ENDBRANCH   4   5
ENDBRANCH   1   4
BRANCH   2  10
ATOM     10  C   UNL     1      28.734   8.688  17.878  1.00  0.00     0.183 C 
BRANCH  10  11
ATOM     11  O   UNL     1      29.592   8.901  16.792  1.00  0.00    -0.392 OA
ATOM     12  H   UNL     1      29.496   9.859  16.548  1.00  0.00     0.210 HD
ENDBRANCH  10  11
ENDBRANCH   2  10
TORSDOF 5
ENDMDL
MODEL 6
REMARK VINA RESULT:    -4.931      9.671     11.407
REMARK INTER + INTRA:          -6.482
REMARK INTER:                  -6.111
REMARK INTRA:                  -0.370
REMARK UNBOUND:                -0.253
REMARK SMILES CC(C)=CCCC(C)=CCO
REMARK SMILES IDX 7 1 9 2 8 3 6 4 5 5 4 6 1 7 2 8 3 9 10 10 11 11
REMARK H PARENT 11 12
REMARK Flexibility Score: inf
ROOT
ATOM      1  C   UNL     1      26.833   4.609  17.820  1.00  0.00    -0.075 C 
ATOM      2  C   UNL     1      25.760   3.834  18.095  1.00  0.00    -0.000 C 
ATOM      3  C   UNL     1      28.219   4.240  18.296  1.00  0.00     0.039 C 
ENDROOT
BRANCH   1   4
ATOM      4  C   UNL     1      26.643   5.868  17.002  1.00  0.00     0.034 C 
BRANCH   4   5
ATOM      5  C   UNL     1      26.587   7.103  17.910  1.00  0.00     0.032 C 
BRANCH   5   6
ATOM      6  C   UNL     1      27.810   7.965  17.715  1.00  0.00    -0.028 C 
ATOM      7  C   UNL     1      29.684   9.413  18.371  1.00  0.00     0.039 C 
ATOM      8  C   UNL     1      28.449   8.619  18.710  1.00  0.00    -0.080 C 
ATOM      9  C   UNL     1      27.951   8.588  20.137  1.00  0.00     0.039 C 
ENDBRANCH   5   6
ENDBRANCH   4   5
ENDBRANCH   1   4
BRANCH   2  10
ATOM     10  C   UNL     1      25.828   2.560  18.891  1.00  0.00     0.183 C 
BRANCH  10  11
ATOM     11  O   UNL     1      25.418   1.482  18.097  1.00  0.00    -0.392 OA
ATOM     12  H   UNL     1      25.426   0.684  18.689  1.00  0.00     0.210 HD
ENDBRANCH  10  11
ENDBRANCH   2  10
TORSDOF 5
ENDMDL
MODEL 7
REMARK VINA RESULT:    -4.872      9.486     10.742
REMARK INTER + INTRA:          -6.407
REMARK INTER:                  -6.132
REMARK INTRA:                  -0.275
REMARK UNBOUND:                -0.253
REMARK SMILES CC(C)=CCCC(C)=CCO
REMARK SMILES IDX 7 1 9 2 8 3 6 4 5 5 4 6 1 7 2 8 3 9 10 10 11 11
REMARK H PARENT 11 12
REMARK Flexibility Score: inf
ROOT
ATOM      1  C   UNL     1      26.607   6.316  17.876  1.00  0.00    -0.075 C 
ATOM      2  C   UNL     1      27.591   6.954  17.203  1.00  0.00    -0.000 C 
ATOM      3  C   UNL     1      25.920   6.950  19.063  1.00  0.00     0.039 C 
ENDROOT
BRANCH   1   4
ATOM      4  C   UNL     1      26.172   4.941  17.418  1.00  0.00     0.034 C 
BRANCH   4   5
ATOM      5  C   UNL     1      27.016   3.852  18.089  1.00  0.00     0.032 C 
BRANCH   5   6
ATOM      6  C   UNL     1      26.372   3.390  19.374  1.00  0.00    -0.028 C 
ATOM      7  C   UNL     1      24.920   2.027  20.813  1.00  0.00     0.039 C 
ATOM      8  C   UNL     1      25.447   2.409  19.453  1.00  0.00    -0.080 C 
ATOM      9  C   UNL     1      24.920   1.704  18.225  1.00  0.00     0.039 C 
ENDBRANCH   5   6
ENDBRANCH   4   5
ENDBRANCH   1   4
BRANCH   2  10
ATOM     10  C   UNL     1      28.100   8.323  17.561  1.00  0.00     0.183 C 
BRANCH  10  11
ATOM     11  O   UNL     1      29.109   8.702  16.667  1.00  0.00    -0.392 OA
ATOM     12  H   UNL     1      29.929   8.825  17.213  1.00  0.00     0.210 HD
ENDBRANCH  10  11
ENDBRANCH   2  10
TORSDOF 5
ENDMDL
MODEL 8
REMARK VINA RESULT:    -4.844      9.196     10.110
REMARK INTER + INTRA:          -6.372
REMARK INTER:                  -6.034
REMARK INTRA:                  -0.338
REMARK UNBOUND:                -0.253
REMARK SMILES CC(C)=CCCC(C)=CCO
REMARK SMILES IDX 7 1 9 2 8 3 6 4 5 5 4 6 1 7 2 8 3 9 10 10 11 11
REMARK H PARENT 11 12
REMARK Flexibility Score: inf
ROOT
ATOM      1  C   UNL     1      27.554   7.784  18.698  1.00  0.00    -0.075 C 
ATOM      2  C   UNL     1      28.443   8.055  17.716  1.00  0.00    -0.000 C 
ATOM      3  C   UNL     1      27.682   8.398  20.073  1.00  0.00     0.039 C 
ENDROOT
BRANCH   1   4
ATOM      4  C   UNL     1      26.394   6.856  18.409  1.00  0.00     0.034 C 
BRANCH   4   5
ATOM      5  C   UNL     1      26.824   5.727  17.465  1.00  0.00     0.032 C 
BRANCH   5   6
ATOM      6  C   UNL     1      25.951   4.510  17.655  1.00  0.00    -0.028 C 
ATOM      7  C   UNL     1      25.254   2.352  18.601  1.00  0.00     0.039 C 
ATOM      8  C   UNL     1      26.243   3.484  18.484  1.00  0.00    -0.080 C 
ATOM      9  C   UNL     1      27.530   3.434  19.275  1.00  0.00     0.039 C 
ENDBRANCH   5   6
ENDBRANCH   4   5
ENDBRANCH   1   4
BRANCH   2  10
ATOM     10  C   UNL     1      29.628   8.965  17.885  1.00  0.00     0.183 C 
BRANCH  10  11
ATOM     11  O   UNL     1      30.160   9.289  16.631  1.00  0.00    -0.392 OA
ATOM     12  H   UNL     1      29.694   8.706  15.976  1.00  0.00     0.210 HD
ENDBRANCH  10  11
ENDBRANCH   2  10
TORSDOF 5
ENDMDL
MODEL 9
REMARK VINA RESULT:    -4.740      9.661     11.442
REMARK INTER + INTRA:          -6.240
REMARK INTER:                  -5.758
REMARK INTRA:                  -0.482
REMARK UNBOUND:                -0.253
REMARK SMILES CC(C)=CCCC(C)=CCO
REMARK SMILES IDX 7 1 9 2 8 3 6 4 5 5 4 6 1 7 2 8 3 9 10 10 11 11
REMARK H PARENT 11 12
REMARK Flexibility Score: inf
ROOT
ATOM      1  C   UNL     1      26.122   4.924  18.460  1.00  0.00    -0.075 C 
ATOM      2  C   UNL     1      25.728   5.591  19.568  1.00  0.00    -0.000 C 
ATOM      3  C   UNL     1      25.737   3.482  18.225  1.00  0.00     0.039 C 
ENDROOT
BRANCH   1   4
ATOM      4  C   UNL     1      26.957   5.644  17.423  1.00  0.00     0.034 C 
BRANCH   4   5
ATOM      5  C   UNL     1      26.664   7.148  17.438  1.00  0.00     0.032 C 
BRANCH   5   6
ATOM      6  C   UNL     1      27.946   7.943  17.392  1.00  0.00    -0.028 C 
ATOM      7  C   UNL     1      29.801   9.297  18.267  1.00  0.00     0.039 C 
ATOM      8  C   UNL     1      28.492   8.573  18.456  1.00  0.00    -0.080 C 
ATOM      9  C   UNL     1      27.822   8.584  19.810  1.00  0.00     0.039 C 
ENDBRANCH   5   6
ENDBRANCH   4   5
ENDBRANCH   1   4
BRANCH   2  10
ATOM     10  C   UNL     1      24.893   4.982  20.660  1.00  0.00     0.183 C 
BRANCH  10  11
ATOM     11  O   UNL     1      23.592   5.496  20.605  1.00  0.00    -0.392 OA
ATOM     12  H   UNL     1      23.677   6.476  20.740  1.00  0.00     0.210 HD
ENDBRANCH  10  11
ENDBRANCH   2  10
TORSDOF 5
ENDMDL
