MODEL 1
REMARK VINA RESULT:    -3.786      0.000      0.000
REMARK INTER + INTRA:          -4.118
REMARK INTER:                  -4.118
REMARK INTRA:                   0.000
REMARK UNBOUND:                 0.000
REMARK SMILES Oc1cccc(O)c1O
REMARK SMILES IDX 4 1 5 2 6 3 8 4 2 5 3 6 7 7 1 9 9 11
REMARK H PARENT 7 8 1 10 9 12
REMARK Flexibility Score: inf
ROOT
ATOM      1  C   UNL     1     159.228 156.636 170.083  1.00  0.00     0.008 A 
ATOM      2  C   UNL     1     158.070 155.861 170.094  1.00  0.00     0.050 A 
ATOM      3  C   UNL     1     156.812 156.471 170.108  1.00  0.00     0.161 A 
ATOM      4  C   UNL     1     156.707 157.876 170.111  1.00  0.00     0.200 A 
ATOM      5  C   UNL     1     157.888 158.662 170.100  1.00  0.00     0.161 A 
ATOM      6  C   UNL     1     159.137 158.029 170.086  1.00  0.00     0.050 A 
ENDROOT
BRANCH   3   7
ATOM      7  O   UNL     1     155.674 155.664 170.118  1.00  0.00    -0.504 OA
ATOM      8  H   UNL     1     155.496 154.989 170.853  1.00  0.00     0.293 HD
ENDBRANCH   3   7
BRANCH   5   9
ATOM      9  O   UNL     1     157.867 160.058 170.103  1.00  0.00    -0.504 OA
ATOM     10  H   UNL     1     157.337 160.617 169.451  1.00  0.00     0.293 HD
ENDBRANCH   5   9
BRANCH   4  11
ATOM     11  O   UNL     1     155.432 158.448 170.125  1.00  0.00    -0.502 OA
ATOM     12  H   UNL     1     155.191 159.283 170.639  1.00  0.00     0.293 HD
ENDBRANCH   4  11
TORSDOF 3
ENDMDL
MODEL 2
REMARK VINA RESULT:    -3.715      1.625      2.558
REMARK INTER + INTRA:          -4.041
REMARK INTER:                  -4.041
REMARK INTRA:                   0.000
REMARK UNBOUND:                 0.000
REMARK SMILES Oc1cccc(O)c1O
REMARK SMILES IDX 4 1 5 2 6 3 8 4 2 5 3 6 7 7 1 9 9 11
REMARK H PARENT 7 8 1 10 9 12
REMARK Flexibility Score: inf
ROOT
ATOM      1  C   UNL     1     155.966 158.801 169.995  1.00  0.00     0.008 A 
ATOM      2  C   UNL     1     156.079 157.411 170.017  1.00  0.00     0.050 A 
ATOM      3  C   UNL     1     157.338 156.806 170.061  1.00  0.00     0.161 A 
ATOM      4  C   UNL     1     158.503 157.598 170.081  1.00  0.00     0.200 A 
ATOM      5  C   UNL     1     158.384 159.011 170.058  1.00  0.00     0.161 A 
ATOM      6  C   UNL     1     157.113 159.596 170.015  1.00  0.00     0.050 A 
ENDROOT
BRANCH   3   7
ATOM      7  O   UNL     1     157.413 155.414 170.082  1.00  0.00    -0.504 OA
ATOM      8  H   UNL     1     156.778 154.846 170.631  1.00  0.00     0.293 HD
ENDBRANCH   3   7
BRANCH   5   9
ATOM      9  O   UNL     1     159.490 159.863 170.077  1.00  0.00    -0.504 OA
ATOM     10  H   UNL     1     159.778 160.435 169.296  1.00  0.00     0.293 HD
ENDBRANCH   5   9
BRANCH   4  11
ATOM     11  O   UNL     1     159.743 156.955 170.125  1.00  0.00    -0.502 OA
ATOM     12  H   UNL     1     160.014 156.203 169.508  1.00  0.00     0.293 HD
ENDBRANCH   4  11
TORSDOF 3
ENDMDL
MODEL 3
REMARK VINA RESULT:    -3.631      1.644      2.710
REMARK INTER + INTRA:          -3.949
REMARK INTER:                  -3.949
REMARK INTRA:                   0.000
REMARK UNBOUND:                 0.000
REMARK SMILES Oc1cccc(O)c1O
REMARK SMILES IDX 4 1 5 2 6 3 8 4 2 5 3 6 7 7 1 9 9 11
REMARK H PARENT 7 8 1 10 9 12
REMARK Flexibility Score: inf
ROOT
ATOM      1  C   UNL     1     158.770 159.225 170.089  1.00  0.00     0.008 A 
ATOM      2  C   UNL     1     157.388 159.038 170.087  1.00  0.00     0.050 A 
ATOM      3  C   UNL     1     156.850 157.748 170.098  1.00  0.00     0.161 A 
ATOM      4  C   UNL     1     157.702 156.626 170.110  1.00  0.00     0.200 A 
ATOM      5  C   UNL     1     159.107 156.820 170.112  1.00  0.00     0.161 A 
ATOM      6  C   UNL     1     159.624 158.121 170.101  1.00  0.00     0.050 A 
ENDROOT
BRANCH   3   7
ATOM      7  O   UNL     1     155.463 157.600 170.096  1.00  0.00    -0.504 OA
ATOM      8  H   UNL     1     155.005 156.781 170.478  1.00  0.00     0.293 HD
ENDBRANCH   3   7
BRANCH   5   9
ATOM      9  O   UNL     1     160.016 155.760 170.124  1.00  0.00    -0.504 OA
ATOM     10  H   UNL     1     159.772 154.807 170.350  1.00  0.00     0.293 HD
ENDBRANCH   5   9
BRANCH   4  11
ATOM     11  O   UNL     1     157.125 155.353 170.121  1.00  0.00    -0.502 OA
ATOM     12  H   UNL     1     156.909 154.822 169.290  1.00  0.00     0.293 HD
ENDBRANCH   4  11
TORSDOF 3
ENDMDL
MODEL 4
REMARK VINA RESULT:    -3.572      1.502      2.659
REMARK INTER + INTRA:          -3.885
REMARK INTER:                  -3.885
REMARK INTRA:                   0.000
REMARK UNBOUND:                 0.000
REMARK SMILES Oc1cccc(O)c1O
REMARK SMILES IDX 4 1 5 2 6 3 8 4 2 5 3 6 7 7 1 9 9 11
REMARK H PARENT 7 8 1 10 9 12
REMARK Flexibility Score: inf
ROOT
ATOM      1  C   UNL     1     156.459 156.078 169.942  1.00  0.00     0.008 A 
ATOM      2  C   UNL     1     155.648 157.212 169.961  1.00  0.00     0.050 A 
ATOM      3  C   UNL     1     156.220 158.487 170.022  1.00  0.00     0.161 A 
ATOM      4  C   UNL     1     157.621 158.633 170.065  1.00  0.00     0.200 A 
ATOM      5  C   UNL     1     158.441 157.477 170.046  1.00  0.00     0.161 A 
ATOM      6  C   UNL     1     157.847 156.210 169.985  1.00  0.00     0.050 A 
ENDROOT
BRANCH   3   7
ATOM      7  O   UNL     1     155.378 159.599 170.039  1.00  0.00    -0.504 OA
ATOM      8  H   UNL     1     155.060 160.050 169.189  1.00  0.00     0.293 HD
ENDBRANCH   3   7
BRANCH   5   9
ATOM      9  O   UNL     1     159.836 157.539 170.085  1.00  0.00    -0.504 OA
ATOM     10  H   UNL     1     160.376 158.334 169.778  1.00  0.00     0.293 HD
ENDBRANCH   5   9
BRANCH   4  11
ATOM     11  O   UNL     1     158.153 159.924 170.125  1.00  0.00    -0.502 OA
ATOM     12  H   UNL     1     157.933 160.658 169.468  1.00  0.00     0.293 HD
ENDBRANCH   4  11
TORSDOF 3
ENDMDL
MODEL 5
REMARK VINA RESULT:    -3.549      1.426      2.658
REMARK INTER + INTRA:          -3.861
REMARK INTER:                  -3.861
REMARK INTRA:                   0.000
REMARK UNBOUND:                 0.000
REMARK SMILES Oc1cccc(O)c1O
REMARK SMILES IDX 4 1 5 2 6 3 8 4 2 5 3 6 7 7 1 9 9 11
REMARK H PARENT 7 8 1 10 9 12
REMARK Flexibility Score: inf
ROOT
ATOM      1  C   UNL     1     158.475 159.436 170.067  1.00  0.00     0.008 A 
ATOM      2  C   UNL     1     159.237 158.269 170.069  1.00  0.00     0.050 A 
ATOM      3  C   UNL     1     158.613 157.018 170.087  1.00  0.00     0.161 A 
ATOM      4  C   UNL     1     157.207 156.930 170.103  1.00  0.00     0.200 A 
ATOM      5  C   UNL     1     156.435 158.119 170.100  1.00  0.00     0.161 A 
ATOM      6  C   UNL     1     157.082 159.361 170.082  1.00  0.00     0.050 A 
ENDROOT
BRANCH   3   7
ATOM      7  O   UNL     1     159.407 155.871 170.089  1.00  0.00    -0.504 OA
ATOM      8  H   UNL     1     159.628 155.364 169.240  1.00  0.00     0.293 HD
ENDBRANCH   3   7
BRANCH   5   9
ATOM      9  O   UNL     1     155.039 158.114 170.114  1.00  0.00    -0.504 OA
ATOM     10  H   UNL     1     154.481 157.941 170.938  1.00  0.00     0.293 HD
ENDBRANCH   5   9
BRANCH   4  11
ATOM     11  O   UNL     1     156.621 155.661 170.120  1.00  0.00    -0.502 OA
ATOM     12  H   UNL     1     155.638 155.488 169.962  1.00  0.00     0.293 HD
ENDBRANCH   4  11
TORSDOF 3
ENDMDL
MODEL 6
REMARK VINA RESULT:    -3.538      1.482      2.748
REMARK INTER + INTRA:          -3.849
REMARK INTER:                  -3.849
REMARK INTRA:                   0.000
REMARK UNBOUND:                 0.000
REMARK SMILES Oc1cccc(O)c1O
REMARK SMILES IDX 4 1 5 2 6 3 8 4 2 5 3 6 7 7 1 9 9 11
REMARK H PARENT 7 8 1 10 9 12
REMARK Flexibility Score: inf
ROOT
ATOM      1  C   UNL     1     156.666 156.145 170.124  1.00  0.00     0.008 A 
ATOM      2  C   UNL     1     158.039 156.392 170.125  1.00  0.00     0.050 A 
ATOM      3  C   UNL     1     158.520 157.703 170.072  1.00  0.00     0.161 A 
ATOM      4  C   UNL     1     157.620 158.785 170.017  1.00  0.00     0.200 A 
ATOM      5  C   UNL     1     156.225 158.531 170.016  1.00  0.00     0.161 A 
ATOM      6  C   UNL     1     155.765 157.209 170.070  1.00  0.00     0.050 A 
ENDROOT
BRANCH   3   7
ATOM      7  O   UNL     1     159.899 157.911 170.075  1.00  0.00    -0.504 OA
ATOM      8  H   UNL     1     160.507 157.509 170.779  1.00  0.00     0.293 HD
ENDBRANCH   3   7
BRANCH   5   9
ATOM      9  O   UNL     1     155.271 159.549 169.964  1.00  0.00    -0.504 OA
ATOM     10  H   UNL     1     155.419 160.441 169.515  1.00  0.00     0.293 HD
ENDBRANCH   5   9
BRANCH   4  11
ATOM     11  O   UNL     1     158.142 160.081 169.966  1.00  0.00    -0.502 OA
ATOM     12  H   UNL     1     159.127 160.298 170.015  1.00  0.00     0.293 HD
ENDBRANCH   4  11
TORSDOF 3
ENDMDL
MODEL 7
REMARK VINA RESULT:    -3.249      2.207      3.130
REMARK INTER + INTRA:          -3.534
REMARK INTER:                  -3.534
REMARK INTRA:                   0.000
REMARK UNBOUND:                 0.000
REMARK SMILES Oc1cccc(O)c1O
REMARK SMILES IDX 4 1 5 2 6 3 8 4 2 5 3 6 7 7 1 9 9 11
REMARK H PARENT 7 8 1 10 9 12
REMARK Flexibility Score: inf
ROOT
ATOM      1  C   UNL     1     155.174 157.180 167.530  1.00  0.00     0.008 A 
ATOM      2  C   UNL     1     155.148 155.796 167.699  1.00  0.00     0.050 A 
ATOM      3  C   UNL     1     156.052 155.173 168.563  1.00  0.00     0.161 A 
ATOM      4  C   UNL     1     156.999 155.941 169.270  1.00  0.00     0.200 A 
ATOM      5  C   UNL     1     157.023 157.348 169.095  1.00  0.00     0.161 A 
ATOM      6  C   UNL     1     156.108 157.951 168.224  1.00  0.00     0.050 A 
ENDROOT
BRANCH   3   7
ATOM      7  O   UNL     1     155.996 153.787 168.708  1.00  0.00    -0.504 OA
ATOM      8  H   UNL     1     155.561 153.187 168.017  1.00  0.00     0.293 HD
ENDBRANCH   3   7
BRANCH   5   9
ATOM      9  O   UNL     1     157.930 158.176 169.759  1.00  0.00    -0.504 OA
ATOM     10  H   UNL     1     158.737 157.842 170.265  1.00  0.00     0.293 HD
ENDBRANCH   5   9
BRANCH   4  11
ATOM     11  O   UNL     1     157.886 155.281 170.125  1.00  0.00    -0.502 OA
ATOM     12  H   UNL     1     157.856 155.345 171.132  1.00  0.00     0.293 HD
ENDBRANCH   4  11
TORSDOF 3
ENDMDL
