MODEL 1
REMARK VINA RESULT:    -4.110      0.000      0.000
REMARK INTER + INTRA:          -8.394
REMARK INTER:                  -6.393
REMARK INTRA:                  -2.001
REMARK UNBOUND:                -2.001
REMARK SMILES COc1cc(CNC(=O)CCCCC=CC(C)C)ccc1O
REMARK SMILES IDX 11 1 12 2 13 3 14 4 15 5 16 6 17 7 18 8 10 9 8 10 9 11 7 12
REMARK SMILES IDX 6 14 5 15 4 16 19 17 3 18 20 19 21 20 2 21 1 22 22 23
REMARK H PARENT 7 13 22 24
REMARK Flexibility Score: inf
ROOT
ATOM      1  C   UNL     1     111.587 112.714 106.968  1.00  0.00     0.010 C 
ENDROOT
BRANCH   1   2
ATOM      2  C   UNL     1     112.231 113.181 105.650  1.00  0.00     0.005 C 
BRANCH   2   3
ATOM      3  C   UNL     1     111.506 112.634 104.411  1.00  0.00     0.027 C 
BRANCH   3   4
ATOM      4  C   UNL     1     110.311 111.810 104.803  1.00  0.00    -0.031 C 
ATOM      5  C   UNL     1     109.083 112.080 104.331  1.00  0.00    -0.028 C 
BRANCH   5   6
ATOM      6  C   UNL     1     107.888 111.245 104.725  1.00  0.00     0.005 C 
ATOM      7  C   UNL     1     106.610 111.794 104.079  1.00  0.00     0.012 C 
ATOM      8  C   UNL     1     107.740 111.208 106.250  1.00  0.00     0.012 C 
ENDBRANCH   5   6
ENDBRANCH   3   4
ENDBRANCH   2   3
ENDBRANCH   1   2
BRANCH   1   9
ATOM      9  C   UNL     1     112.543 111.959 107.906  1.00  0.00     0.100 C 
BRANCH   9  10
ATOM     10  C   UNL     1     112.232 110.492 107.960  1.00  0.00     0.220 C 
ATOM     11  O   UNL     1     111.843 109.982 109.046  1.00  0.00    -0.275 OA
ATOM     12  N   UNL     1     112.340 109.685 106.779  1.00  0.00    -0.352 N 
ATOM     13  H   UNL     1     112.631 110.134 105.881  1.00  0.00     0.163 HD
BRANCH  12  14
ATOM     14  C   UNL     1     112.018 108.261 106.768  1.00  0.00     0.151 C 
BRANCH  14  15
ATOM     15  C   UNL     1     110.672 108.036 106.136  1.00  0.00    -0.025 A 
ATOM     16  C   UNL     1     109.537 107.809 106.930  1.00  0.00     0.056 A 
ATOM     17  C   UNL     1     110.550 108.020 104.739  1.00  0.00     0.009 A 
ATOM     18  C   UNL     1     108.282 107.576 106.335  1.00  0.00     0.160 A 
ATOM     19  C   UNL     1     109.308 107.791 104.143  1.00  0.00     0.050 A 
ATOM     20  C   UNL     1     108.175 107.569 104.936  1.00  0.00     0.157 A 
BRANCH  18  21
ATOM     21  O   UNL     1     107.124 107.345 107.095  1.00  0.00    -0.493 OA
ATOM     22  C   UNL     1     106.986 106.305 108.057  1.00  0.00     0.278 C 
ENDBRANCH  18  21
BRANCH  20  23
ATOM     23  O   UNL     1     106.936 107.341 104.341  1.00  0.00    -0.504 OA
ATOM     24  H   UNL     1     106.239 106.747 104.776  1.00  0.00     0.293 HD
ENDBRANCH  20  23
ENDBRANCH  14  15
ENDBRANCH  12  14
ENDBRANCH   9  10
ENDBRANCH   1   9
TORSDOF 10
ENDMDL
MODEL 2
REMARK VINA RESULT:    -4.036      2.125      4.515
REMARK INTER + INTRA:          -8.278
REMARK INTER:                  -6.379
REMARK INTRA:                  -1.898
REMARK UNBOUND:                -2.001
REMARK SMILES COc1cc(CNC(=O)CCCCC=CC(C)C)ccc1O
REMARK SMILES IDX 11 1 12 2 13 3 14 4 15 5 16 6 17 7 18 8 10 9 8 10 9 11 7 12
REMARK SMILES IDX 6 14 5 15 4 16 19 17 3 18 20 19 21 20 2 21 1 22 22 23
REMARK H PARENT 7 13 22 24
REMARK Flexibility Score: inf
ROOT
ATOM      1  C   UNL     1     107.346 111.731 104.974  1.00  0.00     0.010 C 
ENDROOT
BRANCH   1   2
ATOM      2  C   UNL     1     108.461 112.642 104.430  1.00  0.00     0.005 C 
BRANCH   2   3
ATOM      3  C   UNL     1     109.745 111.870 104.093  1.00  0.00     0.027 C 
BRANCH   3   4
ATOM      4  C   UNL     1     110.873 112.273 105.002  1.00  0.00    -0.031 C 
ATOM      5  C   UNL     1     110.771 112.175 106.338  1.00  0.00    -0.028 C 
BRANCH   5   6
ATOM      6  C   UNL     1     111.909 112.577 107.245  1.00  0.00     0.005 C 
ATOM      7  C   UNL     1     112.948 113.401 106.474  1.00  0.00     0.012 C 
ATOM      8  C   UNL     1     112.565 111.338 107.864  1.00  0.00     0.012 C 
ENDBRANCH   5   6
ENDBRANCH   3   4
ENDBRANCH   2   3
ENDBRANCH   1   2
BRANCH   1   9
ATOM      9  C   UNL     1     107.146 111.815 106.496  1.00  0.00     0.100 C 
BRANCH   9  10
ATOM     10  C   UNL     1     107.744 110.636 107.206  1.00  0.00     0.220 C 
ATOM     11  O   UNL     1     107.625 110.542 108.458  1.00  0.00    -0.275 OA
ATOM     12  N   UNL     1     108.412 109.606 106.463  1.00  0.00    -0.352 N 
ATOM     13  H   UNL     1     108.470 109.686 105.422  1.00  0.00     0.163 HD
BRANCH  12  14
ATOM     14  C   UNL     1     108.982 108.422 107.100  1.00  0.00     0.151 C 
BRANCH  14  15
ATOM     15  C   UNL     1     110.392 108.204 106.625  1.00  0.00    -0.025 A 
ATOM     16  C   UNL     1     111.389 107.773 107.515  1.00  0.00     0.056 A 
ATOM     17  C   UNL     1     110.728 108.462 105.288  1.00  0.00     0.009 A 
ATOM     18  C   UNL     1     112.714 107.591 107.073  1.00  0.00     0.160 A 
ATOM     19  C   UNL     1     112.039 108.283 104.844  1.00  0.00     0.050 A 
ATOM     20  C   UNL     1     113.032 107.848 105.731  1.00  0.00     0.157 A 
BRANCH  18  21
ATOM     21  O   UNL     1     113.738 107.162 107.932  1.00  0.00    -0.493 OA
ATOM     22  C   UNL     1     113.802 105.869 108.525  1.00  0.00     0.278 C 
ENDBRANCH  18  21
BRANCH  20  23
ATOM     23  O   UNL     1     114.341 107.669 105.287  1.00  0.00    -0.504 OA
ATOM     24  H   UNL     1     114.836 106.797 105.430  1.00  0.00     0.293 HD
ENDBRANCH  20  23
ENDBRANCH  14  15
ENDBRANCH  12  14
ENDBRANCH   9  10
ENDBRANCH   1   9
TORSDOF 10
ENDMDL
MODEL 3
REMARK VINA RESULT:    -3.931      1.802      3.593
REMARK INTER + INTRA:          -8.114
REMARK INTER:                  -6.227
REMARK INTRA:                  -1.887
REMARK UNBOUND:                -2.001
REMARK SMILES COc1cc(CNC(=O)CCCCC=CC(C)C)ccc1O
REMARK SMILES IDX 11 1 12 2 13 3 14 4 15 5 16 6 17 7 18 8 10 9 8 10 9 11 7 12
REMARK SMILES IDX 6 14 5 15 4 16 19 17 3 18 20 19 21 20 2 21 1 22 22 23
REMARK H PARENT 7 13 22 24
REMARK Flexibility Score: inf
ROOT
ATOM      1  C   UNL     1     111.756 112.821 104.989  1.00  0.00     0.010 C 
ENDROOT
BRANCH   1   2
ATOM      2  C   UNL     1     112.594 111.715 104.321  1.00  0.00     0.005 C 
BRANCH   2   3
ATOM      3  C   UNL     1     111.815 110.402 104.152  1.00  0.00     0.027 C 
BRANCH   3   4
ATOM      4  C   UNL     1     112.348 109.336 105.068  1.00  0.00    -0.031 C 
ATOM      5  C   UNL     1     111.723 109.013 106.212  1.00  0.00    -0.028 C 
BRANCH   5   6
ATOM      6  C   UNL     1     112.262 107.937 107.126  1.00  0.00     0.005 C 
ATOM      7  C   UNL     1     112.701 108.538 108.467  1.00  0.00     0.012 C 
ATOM      8  C   UNL     1     113.433 107.207 106.461  1.00  0.00     0.012 C 
ENDBRANCH   5   6
ENDBRANCH   3   4
ENDBRANCH   2   3
ENDBRANCH   1   2
BRANCH   1   9
ATOM      9  C   UNL     1     111.868 112.861 106.522  1.00  0.00     0.100 C 
BRANCH   9  10
ATOM     10  C   UNL     1     110.695 112.203 107.187  1.00  0.00     0.220 C 
ATOM     11  O   UNL     1     110.815 111.768 108.364  1.00  0.00    -0.275 OA
ATOM     12  N   UNL     1     109.437 112.104 106.503  1.00  0.00    -0.352 N 
ATOM     13  H   UNL     1     109.348 112.502 105.541  1.00  0.00     0.163 HD
BRANCH  12  14
ATOM     14  C   UNL     1     108.255 111.504 107.116  1.00  0.00     0.151 C 
BRANCH  14  15
ATOM     15  C   UNL     1     108.094 110.082 106.653  1.00  0.00    -0.025 A 
ATOM     16  C   UNL     1     107.851 109.052 107.575  1.00  0.00     0.056 A 
ATOM     17  C   UNL     1     108.218 109.772 105.291  1.00  0.00     0.009 A 
ATOM     18  C   UNL     1     107.724 107.718 107.141  1.00  0.00     0.160 A 
ATOM     19  C   UNL     1     108.092 108.452 104.855  1.00  0.00     0.050 A 
ATOM     20  C   UNL     1     107.844 107.425 105.775  1.00  0.00     0.157 A 
BRANCH  18  21
ATOM     21  O   UNL     1     107.481 106.661 108.032  1.00  0.00    -0.493 OA
ATOM     22  C   UNL     1     108.011 106.581 109.351  1.00  0.00     0.278 C 
ENDBRANCH  18  21
BRANCH  20  23
ATOM     23  O   UNL     1     107.718 106.108 105.339  1.00  0.00    -0.504 OA
ATOM     24  H   UNL     1     107.918 105.844 104.381  1.00  0.00     0.293 HD
ENDBRANCH  20  23
ENDBRANCH  14  15
ENDBRANCH  12  14
ENDBRANCH   9  10
ENDBRANCH   1   9
TORSDOF 10
ENDMDL
MODEL 4
REMARK VINA RESULT:    -3.904      2.541      5.017
REMARK INTER + INTRA:          -8.074
REMARK INTER:                  -6.110
REMARK INTRA:                  -1.964
REMARK UNBOUND:                -2.001
REMARK SMILES COc1cc(CNC(=O)CCCCC=CC(C)C)ccc1O
REMARK SMILES IDX 11 1 12 2 13 3 14 4 15 5 16 6 17 7 18 8 10 9 8 10 9 11 7 12
REMARK SMILES IDX 6 14 5 15 4 16 19 17 3 18 20 19 21 20 2 21 1 22 22 23
REMARK H PARENT 7 13 22 24
REMARK Flexibility Score: inf
ROOT
ATOM      1  C   UNL     1     107.817 110.830 104.907  1.00  0.00     0.010 C 
ENDROOT
BRANCH   1   2
ATOM      2  C   UNL     1     107.700 109.693 103.876  1.00  0.00     0.005 C 
BRANCH   2   3
ATOM      3  C   UNL     1     108.416 108.410 104.325  1.00  0.00     0.027 C 
BRANCH   3   4
ATOM      4  C   UNL     1     108.189 108.148 105.788  1.00  0.00    -0.031 C 
ATOM      5  C   UNL     1     109.186 107.758 106.598  1.00  0.00    -0.028 C 
BRANCH   5   6
ATOM      6  C   UNL     1     108.951 107.502 108.068  1.00  0.00     0.005 C 
ATOM      7  C   UNL     1     107.571 106.871 108.292  1.00  0.00     0.012 C 
ATOM      8  C   UNL     1     109.077 108.804 108.866  1.00  0.00     0.012 C 
ENDBRANCH   5   6
ENDBRANCH   3   4
ENDBRANCH   2   3
ENDBRANCH   1   2
BRANCH   1   9
ATOM      9  C   UNL     1     108.625 112.044 104.421  1.00  0.00     0.100 C 
BRANCH   9  10
ATOM     10  C   UNL     1     110.023 112.041 104.966  1.00  0.00     0.220 C 
ATOM     11  O   UNL     1     110.892 112.792 104.445  1.00  0.00    -0.275 OA
ATOM     12  N   UNL     1     110.358 111.219 106.093  1.00  0.00    -0.352 N 
ATOM     13  H   UNL     1     109.615 110.630 106.533  1.00  0.00     0.163 HD
BRANCH  12  14
ATOM     14  C   UNL     1     111.694 111.203 106.683  1.00  0.00     0.151 C 
BRANCH  14  15
ATOM     15  C   UNL     1     112.231 109.799 106.718  1.00  0.00    -0.025 A 
ATOM     16  C   UNL     1     112.622 109.212 107.932  1.00  0.00     0.056 A 
ATOM     17  C   UNL     1     112.375 109.076 105.525  1.00  0.00     0.009 A 
ATOM     18  C   UNL     1     113.146 107.904 107.959  1.00  0.00     0.160 A 
ATOM     19  C   UNL     1     112.892 107.779 105.546  1.00  0.00     0.050 A 
ATOM     20  C   UNL     1     113.278 107.192 106.758  1.00  0.00     0.157 A 
BRANCH  18  21
ATOM     21  O   UNL     1     113.547 107.283 109.152  1.00  0.00    -0.493 OA
ATOM     22  C   UNL     1     114.086 107.970 110.276  1.00  0.00     0.278 C 
ENDBRANCH  18  21
BRANCH  20  23
ATOM     23  O   UNL     1     113.794 105.897 106.778  1.00  0.00    -0.504 OA
ATOM     24  H   UNL     1     114.139 105.476 107.632  1.00  0.00     0.293 HD
ENDBRANCH  20  23
ENDBRANCH  14  15
ENDBRANCH  12  14
ENDBRANCH   9  10
ENDBRANCH   1   9
TORSDOF 10
ENDMDL
MODEL 5
REMARK VINA RESULT:    -3.898      2.320      4.236
REMARK INTER + INTRA:          -8.064
REMARK INTER:                  -6.029
REMARK INTRA:                  -2.035
REMARK UNBOUND:                -2.001
REMARK SMILES COc1cc(CNC(=O)CCCCC=CC(C)C)ccc1O
REMARK SMILES IDX 11 1 12 2 13 3 14 4 15 5 16 6 17 7 18 8 10 9 8 10 9 11 7 12
REMARK SMILES IDX 6 14 5 15 4 16 19 17 3 18 20 19 21 20 2 21 1 22 22 23
REMARK H PARENT 7 13 22 24
REMARK Flexibility Score: inf
ROOT
ATOM      1  C   UNL     1     107.378 111.651 106.725  1.00  0.00     0.010 C 
ENDROOT
BRANCH   1   2
ATOM      2  C   UNL     1     107.468 112.025 105.234  1.00  0.00     0.005 C 
BRANCH   2   3
ATOM      3  C   UNL     1     107.915 110.847 104.355  1.00  0.00     0.027 C 
BRANCH   3   4
ATOM      4  C   UNL     1     107.836 109.549 105.109  1.00  0.00    -0.031 C 
ATOM      5  C   UNL     1     108.940 108.869 105.461  1.00  0.00    -0.028 C 
BRANCH   5   6
ATOM      6  C   UNL     1     108.853 107.568 106.223  1.00  0.00     0.005 C 
ATOM      7  C   UNL     1     107.474 106.923 106.034  1.00  0.00     0.012 C 
ATOM      8  C   UNL     1     109.132 107.800 107.712  1.00  0.00     0.012 C 
ENDBRANCH   5   6
ENDBRANCH   3   4
ENDBRANCH   2   3
ENDBRANCH   1   2
BRANCH   1   9
ATOM      9  C   UNL     1     108.182 112.572 107.658  1.00  0.00     0.100 C 
BRANCH   9  10
ATOM     10  C   UNL     1     109.595 112.098 107.832  1.00  0.00     0.220 C 
ATOM     11  O   UNL     1     109.893 111.401 108.840  1.00  0.00    -0.275 OA
ATOM     12  N   UNL     1     110.587 112.400 106.841  1.00  0.00    -0.352 N 
ATOM     13  H   UNL     1     110.312 112.949 105.995  1.00  0.00     0.163 HD
BRANCH  12  14
ATOM     14  C   UNL     1     111.968 111.935 106.945  1.00  0.00     0.151 C 
BRANCH  14  15
ATOM     15  C   UNL     1     112.144 110.651 106.182  1.00  0.00    -0.025 A 
ATOM     16  C   UNL     1     112.362 109.441 106.859  1.00  0.00     0.056 A 
ATOM     17  C   UNL     1     112.121 110.662 104.780  1.00  0.00     0.009 A 
ATOM     18  C   UNL     1     112.549 108.243 106.141  1.00  0.00     0.160 A 
ATOM     19  C   UNL     1     112.305 109.478 104.063  1.00  0.00     0.050 A 
ATOM     20  C   UNL     1     112.518 108.270 104.739  1.00  0.00     0.157 A 
BRANCH  18  21
ATOM     21  O   UNL     1     112.770 107.013 106.781  1.00  0.00    -0.493 OA
ATOM     22  C   UNL     1     113.922 106.706 107.560  1.00  0.00     0.278 C 
ENDBRANCH  18  21
BRANCH  20  23
ATOM     23  O   UNL     1     112.701 107.089 104.023  1.00  0.00    -0.504 OA
ATOM     24  H   UNL     1     111.924 106.606 103.587  1.00  0.00     0.293 HD
ENDBRANCH  20  23
ENDBRANCH  14  15
ENDBRANCH  12  14
ENDBRANCH   9  10
ENDBRANCH   1   9
TORSDOF 10
ENDMDL
MODEL 6
REMARK VINA RESULT:    -3.816      2.490      4.714
REMARK INTER + INTRA:          -7.936
REMARK INTER:                  -5.943
REMARK INTRA:                  -1.992
REMARK UNBOUND:                -2.001
REMARK SMILES COc1cc(CNC(=O)CCCCC=CC(C)C)ccc1O
REMARK SMILES IDX 11 1 12 2 13 3 14 4 15 5 16 6 17 7 18 8 10 9 8 10 9 11 7 12
REMARK SMILES IDX 6 14 5 15 4 16 19 17 3 18 20 19 21 20 2 21 1 22 22 23
REMARK H PARENT 7 13 22 24
REMARK Flexibility Score: inf
ROOT
ATOM      1  C   UNL     1     108.040 111.869 104.851  1.00  0.00     0.010 C 
ENDROOT
BRANCH   1   2
ATOM      2  C   UNL     1     108.237 112.224 106.336  1.00  0.00     0.005 C 
BRANCH   2   3
ATOM      3  C   UNL     1     107.871 111.065 107.275  1.00  0.00     0.027 C 
BRANCH   3   4
ATOM      4  C   UNL     1     107.915 109.748 106.551  1.00  0.00    -0.031 C 
ATOM      5  C   UNL     1     108.696 108.739 106.969  1.00  0.00    -0.028 C 
BRANCH   5   6
ATOM      6  C   UNL     1     108.731 107.417 106.239  1.00  0.00     0.005 C 
ATOM      7  C   UNL     1     109.048 107.629 104.754  1.00  0.00     0.012 C 
ATOM      8  C   UNL     1     107.396 106.682 106.399  1.00  0.00     0.012 C 
ENDBRANCH   5   6
ENDBRANCH   3   4
ENDBRANCH   2   3
ENDBRANCH   1   2
BRANCH   1   9
ATOM      9  C   UNL     1     108.877 112.720 103.881  1.00  0.00     0.100 C 
BRANCH   9  10
ATOM     10  C   UNL     1     110.319 112.308 103.875  1.00  0.00     0.220 C 
ATOM     11  O   UNL     1     111.216 113.194 103.882  1.00  0.00    -0.275 OA
ATOM     12  N   UNL     1     110.675 110.918 103.901  1.00  0.00    -0.352 N 
ATOM     13  H   UNL     1     109.917 110.199 103.930  1.00  0.00     0.163 HD
BRANCH  12  14
ATOM     14  C   UNL     1     112.062 110.463 103.930  1.00  0.00     0.151 C 
BRANCH  14  15
ATOM     15  C   UNL     1     112.311 109.627 105.155  1.00  0.00    -0.025 A 
ATOM     16  C   UNL     1     111.954 110.100 106.428  1.00  0.00     0.056 A 
ATOM     17  C   UNL     1     112.934 108.377 105.035  1.00  0.00     0.009 A 
ATOM     18  C   UNL     1     112.209 109.325 107.577  1.00  0.00     0.160 A 
ATOM     19  C   UNL     1     113.188 107.604 106.169  1.00  0.00     0.050 A 
ATOM     20  C   UNL     1     112.827 108.074 107.439  1.00  0.00     0.157 A 
BRANCH  18  21
ATOM     21  O   UNL     1     111.866 109.763 108.866  1.00  0.00    -0.493 OA
ATOM     22  C   UNL     1     111.274 111.024 109.158  1.00  0.00     0.278 C 
ENDBRANCH  18  21
BRANCH  20  23
ATOM     23  O   UNL     1     113.081 107.302 108.571  1.00  0.00    -0.504 OA
ATOM     24  H   UNL     1     112.333 106.991 109.180  1.00  0.00     0.293 HD
ENDBRANCH  20  23
ENDBRANCH  14  15
ENDBRANCH  12  14
ENDBRANCH   9  10
ENDBRANCH   1   9
TORSDOF 10
ENDMDL
MODEL 7
REMARK VINA RESULT:    -3.736      2.307      5.615
REMARK INTER + INTRA:          -7.811
REMARK INTER:                  -5.461
REMARK INTRA:                  -2.350
REMARK UNBOUND:                -2.001
REMARK SMILES COc1cc(CNC(=O)CCCCC=CC(C)C)ccc1O
REMARK SMILES IDX 11 1 12 2 13 3 14 4 15 5 16 6 17 7 18 8 10 9 8 10 9 11 7 12
REMARK SMILES IDX 6 14 5 15 4 16 19 17 3 18 20 19 21 20 2 21 1 22 22 23
REMARK H PARENT 7 13 22 24
REMARK Flexibility Score: inf
ROOT
ATOM      1  C   UNL     1     113.693 107.771 105.324  1.00  0.00     0.010 C 
ENDROOT
BRANCH   1   2
ATOM      2  C   UNL     1     112.914 107.439 106.609  1.00  0.00     0.005 C 
BRANCH   2   3
ATOM      3  C   UNL     1     112.580 108.688 107.439  1.00  0.00     0.027 C 
BRANCH   3   4
ATOM      4  C   UNL     1     111.093 108.855 107.589  1.00  0.00    -0.031 C 
ATOM      5  C   UNL     1     110.239 107.859 107.303  1.00  0.00    -0.028 C 
BRANCH   5   6
ATOM      6  C   UNL     1     108.747 108.032 107.461  1.00  0.00     0.005 C 
ATOM      7  C   UNL     1     108.134 108.619 106.183  1.00  0.00     0.012 C 
ATOM      8  C   UNL     1     108.436 108.932 108.661  1.00  0.00     0.012 C 
ENDBRANCH   5   6
ENDBRANCH   3   4
ENDBRANCH   2   3
ENDBRANCH   1   2
BRANCH   1   9
ATOM      9  C   UNL     1     112.843 107.739 104.043  1.00  0.00     0.100 C 
BRANCH   9  10
ATOM     10  C   UNL     1     111.913 108.912 103.958  1.00  0.00     0.220 C 
ATOM     11  O   UNL     1     110.670 108.712 103.876  1.00  0.00    -0.275 OA
ATOM     12  N   UNL     1     112.429 110.250 104.010  1.00  0.00    -0.352 N 
ATOM     13  H   UNL     1     113.459 110.395 104.113  1.00  0.00     0.163 HD
BRANCH  12  14
ATOM     14  C   UNL     1     111.566 111.428 103.965  1.00  0.00     0.151 C 
BRANCH  14  15
ATOM     15  C   UNL     1     111.195 111.855 105.358  1.00  0.00    -0.025 A 
ATOM     16  C   UNL     1     112.186 112.230 106.279  1.00  0.00     0.056 A 
ATOM     17  C   UNL     1     109.851 111.850 105.756  1.00  0.00     0.009 A 
ATOM     18  C   UNL     1     111.838 112.608 107.591  1.00  0.00     0.160 A 
ATOM     19  C   UNL     1     109.500 112.225 107.055  1.00  0.00     0.050 A 
ATOM     20  C   UNL     1     110.489 112.604 107.972  1.00  0.00     0.157 A 
BRANCH  18  21
ATOM     21  O   UNL     1     112.800 112.989 108.540  1.00  0.00    -0.493 OA
ATOM     22  C   UNL     1     113.999 113.692 108.234  1.00  0.00     0.278 C 
ENDBRANCH  18  21
BRANCH  20  23
ATOM     23  O   UNL     1     110.137 112.978 109.268  1.00  0.00    -0.504 OA
ATOM     24  H   UNL     1     110.587 112.569 110.079  1.00  0.00     0.293 HD
ENDBRANCH  20  23
ENDBRANCH  14  15
ENDBRANCH  12  14
ENDBRANCH   9  10
ENDBRANCH   1   9
TORSDOF 10
ENDMDL
MODEL 8
REMARK VINA RESULT:    -3.711      1.860      2.412
REMARK INTER + INTRA:          -7.773
REMARK INTER:                  -6.068
REMARK INTRA:                  -1.705
REMARK UNBOUND:                -2.001
REMARK SMILES COc1cc(CNC(=O)CCCCC=CC(C)C)ccc1O
REMARK SMILES IDX 11 1 12 2 13 3 14 4 15 5 16 6 17 7 18 8 10 9 8 10 9 11 7 12
REMARK SMILES IDX 6 14 5 15 4 16 19 17 3 18 20 19 21 20 2 21 1 22 22 23
REMARK H PARENT 7 13 22 24
REMARK Flexibility Score: inf
ROOT
ATOM      1  C   UNL     1     112.245 111.783 105.065  1.00  0.00     0.010 C 
ENDROOT
BRANCH   1   2
ATOM      2  C   UNL     1     111.243 112.710 104.353  1.00  0.00     0.005 C 
BRANCH   2   3
ATOM      3  C   UNL     1     109.897 112.024 104.073  1.00  0.00     0.027 C 
BRANCH   3   4
ATOM      4  C   UNL     1     108.936 112.235 105.209  1.00  0.00    -0.031 C 
ATOM      5  C   UNL     1     108.127 111.254 105.641  1.00  0.00    -0.028 C 
BRANCH   5   6
ATOM      6  C   UNL     1     107.167 111.472 106.787  1.00  0.00     0.005 C 
ATOM      7  C   UNL     1     106.867 112.965 106.962  1.00  0.00     0.012 C 
ATOM      8  C   UNL     1     107.740 110.889 108.083  1.00  0.00     0.012 C 
ENDBRANCH   5   6
ENDBRANCH   3   4
ENDBRANCH   2   3
ENDBRANCH   1   2
BRANCH   1   9
ATOM      9  C   UNL     1     112.446 110.422 104.379  1.00  0.00     0.100 C 
BRANCH   9  10
ATOM     10  C   UNL     1     112.242 109.279 105.329  1.00  0.00     0.220 C 
ATOM     11  O   UNL     1     112.974 108.257 105.234  1.00  0.00    -0.275 OA
ATOM     12  N   UNL     1     111.250 109.365 106.362  1.00  0.00    -0.352 N 
ATOM     13  H   UNL     1     110.677 110.236 106.446  1.00  0.00     0.163 HD
BRANCH  12  14
ATOM     14  C   UNL     1     111.033 108.297 107.334  1.00  0.00     0.151 C 
BRANCH  14  15
ATOM     15  C   UNL     1     109.622 107.785 107.238  1.00  0.00    -0.025 A 
ATOM     16  C   UNL     1     108.924 107.390 108.391  1.00  0.00     0.056 A 
ATOM     17  C   UNL     1     109.004 107.669 105.985  1.00  0.00     0.009 A 
ATOM     18  C   UNL     1     107.610 106.889 108.296  1.00  0.00     0.160 A 
ATOM     19  C   UNL     1     107.701 107.174 105.885  1.00  0.00     0.050 A 
ATOM     20  C   UNL     1     107.004 106.785 107.036  1.00  0.00     0.157 A 
BRANCH  18  21
ATOM     21  O   UNL     1     106.881 106.485 109.425  1.00  0.00    -0.493 OA
ATOM     22  C   UNL     1     107.460 105.947 110.608  1.00  0.00     0.278 C 
ENDBRANCH  18  21
BRANCH  20  23
ATOM     23  O   UNL     1     105.704 106.292 106.935  1.00  0.00    -0.504 OA
ATOM     24  H   UNL     1     105.068 106.308 107.723  1.00  0.00     0.293 HD
ENDBRANCH  20  23
ENDBRANCH  14  15
ENDBRANCH  12  14
ENDBRANCH   9  10
ENDBRANCH   1   9
TORSDOF 10
ENDMDL
