MODEL 1
REMARK VINA RESULT:    -5.583      0.000      0.000
REMARK INTER + INTRA:          -5.946
REMARK INTER:                  -5.910
REMARK INTRA:                  -0.037
REMARK UNBOUND:                -0.037
REMARK SMILES COc1ccc2ccc(=O)oc2c1
REMARK SMILES IDX 3 1 13 2 12 3 6 4 5 5 4 6 7 7 8 8 9 9 10 10 11 11 2 12 1 13
REMARK H PARENT
REMARK Flexibility Score: inf
ROOT
ATOM      1  C   UNL     1      21.725   0.867 -22.008  1.00  0.00     0.122 A 
ATOM      2  C   UNL     1      21.580   1.343 -20.690  1.00  0.00     0.094 A 
ATOM      3  C   UNL     1      20.872   0.594 -19.744  1.00  0.00     0.142 A 
ATOM      4  C   UNL     1      20.302  -0.644 -20.111  1.00  0.00     0.018 A 
ATOM      5  C   UNL     1      20.447  -1.118 -21.422  1.00  0.00     0.016 A 
ATOM      6  C   UNL     1      21.156  -0.363 -22.360  1.00  0.00     0.047 A 
ATOM      7  C   UNL     1      19.600  -1.369 -19.143  1.00  0.00     0.019 A 
ATOM      8  C   UNL     1      19.484  -0.854 -17.853  1.00  0.00     0.094 A 
ATOM      9  C   UNL     1      20.075   0.380 -17.560  1.00  0.00     0.336 A 
ATOM     10  O   UNL     1      19.982   0.862 -16.401  1.00  0.00    -0.246 OA
ATOM     11  O   UNL     1      20.738   1.050 -18.500  1.00  0.00    -0.423 OA
ENDROOT
BRANCH   1  12
ATOM     12  O   UNL     1      22.426   1.581 -22.992  1.00  0.00    -0.497 OA
ATOM     13  C   UNL     1      22.404   2.998 -23.125  1.00  0.00     0.278 C 
ENDBRANCH   1  12
TORSDOF 1
ENDMDL
MODEL 2
REMARK VINA RESULT:    -5.524      0.970      4.687
REMARK INTER + INTRA:          -5.883
REMARK INTER:                  -5.850
REMARK INTRA:                  -0.033
REMARK UNBOUND:                -0.037
REMARK SMILES COc1ccc2ccc(=O)oc2c1
REMARK SMILES IDX 3 1 13 2 12 3 6 4 5 5 4 6 7 7 8 8 9 9 10 10 11 11 2 12 1 13
REMARK H PARENT
REMARK Flexibility Score: inf
ROOT
ATOM      1  C   UNL     1      20.387   0.428 -17.745  1.00  0.00     0.122 A 
ATOM      2  C   UNL     1      21.089   1.123 -18.750  1.00  0.00     0.094 A 
ATOM      3  C   UNL     1      21.127   0.625 -20.057  1.00  0.00     0.142 A 
ATOM      4  C   UNL     1      20.460  -0.579 -20.370  1.00  0.00     0.018 A 
ATOM      5  C   UNL     1      19.762  -1.270 -19.371  1.00  0.00     0.016 A 
ATOM      6  C   UNL     1      19.728  -0.765 -18.068  1.00  0.00     0.047 A 
ATOM      7  C   UNL     1      20.516  -1.051 -21.685  1.00  0.00     0.019 A 
ATOM      8  C   UNL     1      21.225  -0.326 -22.642  1.00  0.00     0.094 A 
ATOM      9  C   UNL     1      21.862   0.859 -22.260  1.00  0.00     0.336 A 
ATOM     10  O   UNL     1      22.506   1.528 -23.110  1.00  0.00    -0.246 OA
ATOM     11  O   UNL     1      21.792   1.287 -21.001  1.00  0.00    -0.423 OA
ENDROOT
BRANCH   1  12
ATOM     12  O   UNL     1      20.320   0.887 -16.421  1.00  0.00    -0.497 OA
ATOM     13  C   UNL     1      19.109   1.121 -15.712  1.00  0.00     0.278 C 
ENDBRANCH   1  12
TORSDOF 1
ENDMDL
MODEL 3
REMARK VINA RESULT:    -5.126      1.357      1.632
REMARK INTER + INTRA:          -5.463
REMARK INTER:                  -5.425
REMARK INTRA:                  -0.038
REMARK UNBOUND:                -0.037
REMARK SMILES COc1ccc2ccc(=O)oc2c1
REMARK SMILES IDX 3 1 13 2 12 3 6 4 5 5 4 6 7 7 8 8 9 9 10 10 11 11 2 12 1 13
REMARK H PARENT
REMARK Flexibility Score: inf
ROOT
ATOM      1  C   UNL     1      21.117   0.442 -20.945  1.00  0.00     0.122 A 
ATOM      2  C   UNL     1      21.322   0.973 -19.656  1.00  0.00     0.094 A 
ATOM      3  C   UNL     1      20.497   0.586 -18.594  1.00  0.00     0.142 A 
ATOM      4  C   UNL     1      19.455  -0.339 -18.815  1.00  0.00     0.018 A 
ATOM      5  C   UNL     1      19.251  -0.868 -20.097  1.00  0.00     0.016 A 
ATOM      6  C   UNL     1      20.080  -0.477 -21.152  1.00  0.00     0.047 A 
ATOM      7  C   UNL     1      18.648  -0.706 -17.734  1.00  0.00     0.019 A 
ATOM      8  C   UNL     1      18.893  -0.151 -16.479  1.00  0.00     0.094 A 
ATOM      9  C   UNL     1      19.943   0.761 -16.333  1.00  0.00     0.336 A 
ATOM     10  O   UNL     1      20.180   1.273 -15.208  1.00  0.00    -0.246 OA
ATOM     11  O   UNL     1      20.697   1.092 -17.379  1.00  0.00    -0.423 OA
ENDROOT
BRANCH   1  12
ATOM     12  O   UNL     1      21.917   0.798 -22.041  1.00  0.00    -0.497 OA
ATOM     13  C   UNL     1      22.229  -0.070 -23.125  1.00  0.00     0.278 C 
ENDBRANCH   1  12
TORSDOF 1
ENDMDL
MODEL 4
REMARK VINA RESULT:    -5.027      2.438      4.907
REMARK INTER + INTRA:          -5.358
REMARK INTER:                  -5.324
REMARK INTRA:                  -0.033
REMARK UNBOUND:                -0.037
REMARK SMILES COc1ccc2ccc(=O)oc2c1
REMARK SMILES IDX 3 1 13 2 12 3 6 4 5 5 4 6 7 7 8 8 9 9 10 10 11 11 2 12 1 13
REMARK H PARENT
REMARK Flexibility Score: inf
ROOT
ATOM      1  C   UNL     1      21.503   1.442 -16.106  1.00  0.00     0.122 A 
ATOM      2  C   UNL     1      21.799   1.019 -17.417  1.00  0.00     0.094 A 
ATOM      3  C   UNL     1      20.839   0.339 -18.173  1.00  0.00     0.142 A 
ATOM      4  C   UNL     1      19.567   0.076 -17.621  1.00  0.00     0.018 A 
ATOM      5  C   UNL     1      19.271   0.496 -16.317  1.00  0.00     0.016 A 
ATOM      6  C   UNL     1      20.237   1.175 -15.569  1.00  0.00     0.047 A 
ATOM      7  C   UNL     1      18.628  -0.605 -18.401  1.00  0.00     0.019 A 
ATOM      8  C   UNL     1      18.971  -1.002 -19.693  1.00  0.00     0.094 A 
ATOM      9  C   UNL     1      20.251  -0.708 -20.175  1.00  0.00     0.336 A 
ATOM     10  O   UNL     1      20.579  -1.058 -21.339  1.00  0.00    -0.246 OA
ATOM     11  O   UNL     1      21.126  -0.057 -19.411  1.00  0.00    -0.423 OA
ENDROOT
BRANCH   1  12
ATOM     12  O   UNL     1      22.433   2.126 -15.309  1.00  0.00    -0.497 OA
ATOM     13  C   UNL     1      23.591   1.532 -14.733  1.00  0.00     0.278 C 
ENDBRANCH   1  12
TORSDOF 1
ENDMDL
MODEL 5
REMARK VINA RESULT:    -5.007     14.738     17.985
REMARK INTER + INTRA:          -5.337
REMARK INTER:                  -5.304
REMARK INTRA:                  -0.033
REMARK UNBOUND:                -0.037
REMARK SMILES COc1ccc2ccc(=O)oc2c1
REMARK SMILES IDX 3 1 13 2 12 3 6 4 5 5 4 6 7 7 8 8 9 9 10 10 11 11 2 12 1 13
REMARK H PARENT
REMARK Flexibility Score: inf
ROOT
ATOM      1  C   UNL     1       8.304  -6.427  -7.052  1.00  0.00     0.122 A 
ATOM      2  C   UNL     1       9.688  -6.465  -7.315  1.00  0.00     0.094 A 
ATOM      3  C   UNL     1      10.181  -6.053  -8.558  1.00  0.00     0.142 A 
ATOM      4  C   UNL     1       9.289  -5.598  -9.552  1.00  0.00     0.018 A 
ATOM      5  C   UNL     1       7.912  -5.560  -9.291  1.00  0.00     0.016 A 
ATOM      6  C   UNL     1       7.428  -5.973  -8.046  1.00  0.00     0.047 A 
ATOM      7  C   UNL     1       9.811  -5.194 -10.784  1.00  0.00     0.019 A 
ATOM      8  C   UNL     1      11.188  -5.251 -10.995  1.00  0.00     0.094 A 
ATOM      9  C   UNL     1      12.013  -5.713  -9.964  1.00  0.00     0.336 A 
ATOM     10  O   UNL     1      13.259  -5.772 -10.134  1.00  0.00    -0.246 OA
ATOM     11  O   UNL     1      11.489  -6.092  -8.800  1.00  0.00    -0.423 OA
ENDROOT
BRANCH   1  12
ATOM     12  O   UNL     1       7.762  -6.829  -5.822  1.00  0.00    -0.497 OA
ATOM     13  C   UNL     1       7.253  -8.131  -5.554  1.00  0.00     0.278 C 
ENDBRANCH   1  12
TORSDOF 1
ENDMDL
MODEL 6
REMARK VINA RESULT:    -4.948     16.567     18.825
REMARK INTER + INTRA:          -5.274
REMARK INTER:                  -5.238
REMARK INTRA:                  -0.035
REMARK UNBOUND:                -0.037
REMARK SMILES COc1ccc2ccc(=O)oc2c1
REMARK SMILES IDX 3 1 13 2 12 3 6 4 5 5 4 6 7 7 8 8 9 9 10 10 11 11 2 12 1 13
REMARK H PARENT
REMARK Flexibility Score: inf
ROOT
ATOM      1  C   UNL     1       7.871  -6.495  -6.816  1.00  0.00     0.122 A 
ATOM      2  C   UNL     1       7.653  -5.449  -7.736  1.00  0.00     0.094 A 
ATOM      3  C   UNL     1       7.836  -5.665  -9.106  1.00  0.00     0.142 A 
ATOM      4  C   UNL     1       8.239  -6.935  -9.570  1.00  0.00     0.018 A 
ATOM      5  C   UNL     1       8.456  -7.975  -8.656  1.00  0.00     0.016 A 
ATOM      6  C   UNL     1       8.271  -7.751  -7.289  1.00  0.00     0.047 A 
ATOM      7  C   UNL     1       8.414  -7.120 -10.944  1.00  0.00     0.019 A 
ATOM      8  C   UNL     1       8.186  -6.052 -11.812  1.00  0.00     0.094 A 
ATOM      9  C   UNL     1       7.788  -4.821 -11.282  1.00  0.00     0.336 A 
ATOM     10  O   UNL     1       7.577  -3.845 -12.049  1.00  0.00    -0.246 OA
ATOM     11  O   UNL     1       7.629  -4.672  -9.968  1.00  0.00    -0.423 OA
ENDROOT
BRANCH   1  12
ATOM     12  O   UNL     1       7.701  -6.327  -5.434  1.00  0.00    -0.497 OA
ATOM     13  C   UNL     1       8.278  -5.270  -4.675  1.00  0.00     0.278 C 
ENDBRANCH   1  12
TORSDOF 1
ENDMDL
MODEL 7
REMARK VINA RESULT:    -4.901     14.382     17.068
REMARK INTER + INTRA:          -5.224
REMARK INTER:                  -5.192
REMARK INTRA:                  -0.032
REMARK UNBOUND:                -0.037
REMARK SMILES COc1ccc2ccc(=O)oc2c1
REMARK SMILES IDX 3 1 13 2 12 3 6 4 5 5 4 6 7 7 8 8 9 9 10 10 11 11 2 12 1 13
REMARK H PARENT
REMARK Flexibility Score: inf
ROOT
ATOM      1  C   UNL     1      11.566  -6.046 -10.025  1.00  0.00     0.122 A 
ATOM      2  C   UNL     1      11.154  -6.345  -8.710  1.00  0.00     0.094 A 
ATOM      3  C   UNL     1       9.837  -6.098  -8.310  1.00  0.00     0.142 A 
ATOM      4  C   UNL     1       8.916  -5.547  -9.226  1.00  0.00     0.018 A 
ATOM      5  C   UNL     1       9.324  -5.250 -10.534  1.00  0.00     0.016 A 
ATOM      6  C   UNL     1      10.642  -5.500 -10.925  1.00  0.00     0.047 A 
ATOM      7  C   UNL     1       7.606  -5.312  -8.797  1.00  0.00     0.019 A 
ATOM      8  C   UNL     1       7.250  -5.625  -7.486  1.00  0.00     0.094 A 
ATOM      9  C   UNL     1       8.215  -6.168  -6.632  1.00  0.00     0.336 A 
ATOM     10  O   UNL     1       7.913  -6.458  -5.445  1.00  0.00    -0.246 OA
ATOM     11  O   UNL     1       9.455  -6.383  -7.067  1.00  0.00    -0.423 OA
ENDROOT
BRANCH   1  12
ATOM     12  O   UNL     1      12.875  -6.276 -10.472  1.00  0.00    -0.497 OA
ATOM     13  C   UNL     1      13.789  -5.250 -10.845  1.00  0.00     0.278 C 
ENDBRANCH   1  12
TORSDOF 1
ENDMDL
MODEL 8
REMARK VINA RESULT:    -4.826     16.149     18.405
REMARK INTER + INTRA:          -5.145
REMARK INTER:                  -5.107
REMARK INTRA:                  -0.038
REMARK UNBOUND:                -0.037
REMARK SMILES COc1ccc2ccc(=O)oc2c1
REMARK SMILES IDX 3 1 13 2 12 3 6 4 5 5 4 6 7 7 8 8 9 9 10 10 11 11 2 12 1 13
REMARK H PARENT
REMARK Flexibility Score: inf
ROOT
ATOM      1  C   UNL     1       8.046  -5.864 -10.909  1.00  0.00     0.122 A 
ATOM      2  C   UNL     1       8.011  -5.188  -9.673  1.00  0.00     0.094 A 
ATOM      3  C   UNL     1       7.973  -5.910  -8.475  1.00  0.00     0.142 A 
ATOM      4  C   UNL     1       7.970  -7.321  -8.504  1.00  0.00     0.018 A 
ATOM      5  C   UNL     1       8.005  -7.993  -9.734  1.00  0.00     0.016 A 
ATOM      6  C   UNL     1       8.043  -7.265 -10.925  1.00  0.00     0.047 A 
ATOM      7  C   UNL     1       7.931  -8.014  -7.291  1.00  0.00     0.019 A 
ATOM      8  C   UNL     1       7.897  -7.298  -6.095  1.00  0.00     0.094 A 
ATOM      9  C   UNL     1       7.902  -5.900  -6.142  1.00  0.00     0.336 A 
ATOM     10  O   UNL     1       7.872  -5.236  -5.073  1.00  0.00    -0.246 OA
ATOM     11  O   UNL     1       7.940  -5.265  -7.311  1.00  0.00    -0.423 OA
ENDROOT
BRANCH   1  12
ATOM     12  O   UNL     1       8.085  -5.185 -12.135  1.00  0.00    -0.497 OA
ATOM     13  C   UNL     1       7.669  -3.836 -12.322  1.00  0.00     0.278 C 
ENDBRANCH   1  12
TORSDOF 1
ENDMDL
MODEL 9
REMARK VINA RESULT:    -4.824     15.331     18.011
REMARK INTER + INTRA:          -5.143
REMARK INTER:                  -5.107
REMARK INTRA:                  -0.036
REMARK UNBOUND:                -0.037
REMARK SMILES COc1ccc2ccc(=O)oc2c1
REMARK SMILES IDX 3 1 13 2 12 3 6 4 5 5 4 6 7 7 8 8 9 9 10 10 11 11 2 12 1 13
REMARK H PARENT
REMARK Flexibility Score: inf
ROOT
ATOM      1  C   UNL     1      11.313  -6.903  -9.398  1.00  0.00     0.122 A 
ATOM      2  C   UNL     1      10.713  -6.042  -8.458  1.00  0.00     0.094 A 
ATOM      3  C   UNL     1       9.691  -6.508  -7.625  1.00  0.00     0.142 A 
ATOM      4  C   UNL     1       9.257  -7.847  -7.726  1.00  0.00     0.018 A 
ATOM      5  C   UNL     1       9.853  -8.705  -8.661  1.00  0.00     0.016 A 
ATOM      6  C   UNL     1      10.874  -8.231  -9.489  1.00  0.00     0.047 A 
ATOM      7  C   UNL     1       8.234  -8.284  -6.880  1.00  0.00     0.019 A 
ATOM      8  C   UNL     1       7.673  -7.391  -5.968  1.00  0.00     0.094 A 
ATOM      9  C   UNL     1       8.152  -6.077  -5.923  1.00  0.00     0.336 A 
ATOM     10  O   UNL     1       7.660  -5.257  -5.105  1.00  0.00    -0.246 OA
ATOM     11  O   UNL     1       9.129  -5.688  -6.739  1.00  0.00    -0.423 OA
ENDROOT
BRANCH   1  12
ATOM     12  O   UNL     1      12.340  -6.483 -10.255  1.00  0.00    -0.497 OA
ATOM     13  C   UNL     1      12.304  -5.289 -11.029  1.00  0.00     0.278 C 
ENDBRANCH   1  12
TORSDOF 1
ENDMDL
