MODEL 1
REMARK VINA RESULT:    -4.724      0.000      0.000
REMARK INTER + INTRA:          -6.566
REMARK INTER:                  -6.243
REMARK INTRA:                  -0.323
REMARK UNBOUND:                -0.323
REMARK SMILES C=CCC[C@@H](O)CCC
REMARK SMILES IDX 4 1 5 2 7 3 8 4 9 5 6 6 3 8 2 9 1 10
REMARK H PARENT 6 7
REMARK Flexibility Score: inf
ROOT
ATOM      1  C   UNL     1     135.290 123.933 138.684  1.00  0.00     0.036 C 
ENDROOT
BRANCH   1   2
ATOM      2  C   UNL     1     134.912 123.205 139.989  1.00  0.00     0.114 C 
BRANCH   2   3
ATOM      3  C   UNL     1     135.462 123.958 141.217  1.00  0.00     0.031 C 
BRANCH   3   4
ATOM      4  C   UNL     1     134.336 124.594 142.043  1.00  0.00    -0.001 C 
ATOM      5  C   UNL     1     133.692 123.573 142.977  1.00  0.00     0.004 C 
ENDBRANCH   3   4
ENDBRANCH   2   3
BRANCH   2   6
ATOM      6  O   UNL     1     135.373 121.875 139.971  1.00  0.00    -0.393 OA
ATOM      7  H   UNL     1     136.117 121.807 140.626  1.00  0.00     0.210 HD
ENDBRANCH   2   6
ENDBRANCH   1   2
BRANCH   1   8
ATOM      8  C   UNL     1     136.306 125.056 138.936  1.00  0.00     0.029 C 
BRANCH   8   9
ATOM      9  C   UNL     1     137.692 124.640 138.524  1.00  0.00    -0.035 C 
ATOM     10  C   UNL     1     137.901 123.603 137.706  1.00  0.00     0.004 C 
ENDBRANCH   8   9
ENDBRANCH   1   8
TORSDOF 6
ENDMDL
MODEL 2
REMARK VINA RESULT:    -4.692      0.702      4.254
REMARK INTER + INTRA:          -6.524
REMARK INTER:                  -6.211
REMARK INTRA:                  -0.314
REMARK UNBOUND:                -0.323
REMARK SMILES C=CCC[C@@H](O)CCC
REMARK SMILES IDX 4 1 5 2 7 3 8 4 9 5 6 6 3 8 2 9 1 10
REMARK H PARENT 6 7
REMARK Flexibility Score: inf
ROOT
ATOM      1  C   UNL     1     135.829 124.023 141.041  1.00  0.00     0.036 C 
ENDROOT
BRANCH   1   2
ATOM      2  C   UNL     1     135.863 122.944 139.939  1.00  0.00     0.114 C 
BRANCH   2   3
ATOM      3  C   UNL     1     135.617 123.568 138.551  1.00  0.00     0.031 C 
BRANCH   3   4
ATOM      4  C   UNL     1     136.759 124.506 138.141  1.00  0.00    -0.001 C 
ATOM      5  C   UNL     1     138.019 123.720 137.789  1.00  0.00     0.004 C 
ENDBRANCH   3   4
ENDBRANCH   2   3
BRANCH   2   6
ATOM      6  O   UNL     1     134.924 121.930 140.204  1.00  0.00    -0.393 OA
ATOM      7  H   UNL     1     135.429 121.116 140.470  1.00  0.00     0.210 HD
ENDBRANCH   2   6
ENDBRANCH   1   2
BRANCH   1   8
ATOM      8  C   UNL     1     134.551 124.871 140.963  1.00  0.00     0.029 C 
BRANCH   8   9
ATOM      9  C   UNL     1     133.769 124.796 142.246  1.00  0.00    -0.035 C 
ATOM     10  C   UNL     1     133.713 123.674 142.971  1.00  0.00     0.004 C 
ENDBRANCH   8   9
ENDBRANCH   1   8
TORSDOF 6
ENDMDL
MODEL 3
REMARK VINA RESULT:    -4.691      1.143      4.104
REMARK INTER + INTRA:          -6.523
REMARK INTER:                  -6.268
REMARK INTRA:                  -0.255
REMARK UNBOUND:                -0.323
REMARK SMILES C=CCC[C@@H](O)CCC
REMARK SMILES IDX 4 1 5 2 7 3 8 4 9 5 6 6 3 8 2 9 1 10
REMARK H PARENT 6 7
REMARK Flexibility Score: inf
ROOT
ATOM      1  C   UNL     1     134.865 123.187 140.875  1.00  0.00     0.036 C 
ENDROOT
BRANCH   1   2
ATOM      2  C   UNL     1     135.685 122.634 139.692  1.00  0.00     0.114 C 
BRANCH   2   3
ATOM      3  C   UNL     1     135.250 123.294 138.368  1.00  0.00     0.031 C 
BRANCH   3   4
ATOM      4  C   UNL     1     136.330 124.237 137.823  1.00  0.00    -0.001 C 
ATOM      5  C   UNL     1     137.718 123.613 137.940  1.00  0.00     0.004 C 
ENDBRANCH   3   4
ENDBRANCH   2   3
BRANCH   2   6
ATOM      6  O   UNL     1     135.569 121.234 139.614  1.00  0.00    -0.393 OA
ATOM      7  H   UNL     1     134.785 120.967 140.163  1.00  0.00     0.210 HD
ENDBRANCH   2   6
ENDBRANCH   1   2
BRANCH   1   8
ATOM      8  C   UNL     1     135.350 124.581 141.298  1.00  0.00     0.029 C 
BRANCH   8   9
ATOM      9  C   UNL     1     135.051 124.844 142.749  1.00  0.00    -0.035 C 
ATOM     10  C   UNL     1     135.960 124.630 143.705  1.00  0.00     0.004 C 
ENDBRANCH   8   9
ENDBRANCH   1   8
TORSDOF 6
ENDMDL
MODEL 4
REMARK VINA RESULT:    -4.633      1.340      1.613
REMARK INTER + INTRA:          -6.446
REMARK INTER:                  -6.036
REMARK INTRA:                  -0.410
REMARK UNBOUND:                -0.323
REMARK SMILES C=CCC[C@@H](O)CCC
REMARK SMILES IDX 4 1 5 2 7 3 8 4 9 5 6 6 3 8 2 9 1 10
REMARK H PARENT 6 7
REMARK Flexibility Score: inf
ROOT
ATOM      1  C   UNL     1     135.891 122.787 139.837  1.00  0.00     0.036 C 
ENDROOT
BRANCH   1   2
ATOM      2  C   UNL     1     135.810 123.665 141.102  1.00  0.00     0.114 C 
BRANCH   2   3
ATOM      3  C   UNL     1     134.804 124.817 140.908  1.00  0.00     0.031 C 
BRANCH   3   4
ATOM      4  C   UNL     1     133.832 124.926 142.090  1.00  0.00    -0.001 C 
ATOM      5  C   UNL     1     133.761 123.614 142.868  1.00  0.00     0.004 C 
ENDBRANCH   3   4
ENDBRANCH   2   3
BRANCH   2   6
ATOM      6  O   UNL     1     137.080 124.164 141.446  1.00  0.00    -0.393 OA
ATOM      7  H   UNL     1     137.078 125.140 141.265  1.00  0.00     0.210 HD
ENDBRANCH   2   6
ENDBRANCH   1   2
BRANCH   1   8
ATOM      8  C   UNL     1     135.307 123.505 138.611  1.00  0.00     0.029 C 
BRANCH   8   9
ATOM      9  C   UNL     1     136.396 124.083 137.749  1.00  0.00    -0.035 C 
ATOM     10  C   UNL     1     137.661 123.659 137.834  1.00  0.00     0.004 C 
ENDBRANCH   8   9
ENDBRANCH   1   8
TORSDOF 6
ENDMDL
MODEL 5
REMARK VINA RESULT:    -4.512      1.284      1.773
REMARK INTER + INTRA:          -6.286
REMARK INTER:                  -5.740
REMARK INTRA:                  -0.546
REMARK UNBOUND:                -0.323
REMARK SMILES C=CCC[C@@H](O)CCC
REMARK SMILES IDX 4 1 5 2 7 3 8 4 9 5 6 6 3 8 2 9 1 10
REMARK H PARENT 6 7
REMARK Flexibility Score: inf
ROOT
ATOM      1  C   UNL     1     136.687 123.810 137.915  1.00  0.00     0.036 C 
ENDROOT
BRANCH   1   2
ATOM      2  C   UNL     1     135.349 123.535 138.632  1.00  0.00     0.114 C 
BRANCH   2   3
ATOM      3  C   UNL     1     135.125 124.539 139.779  1.00  0.00     0.031 C 
BRANCH   3   4
ATOM      4  C   UNL     1     134.956 123.830 141.129  1.00  0.00    -0.001 C 
ATOM      5  C   UNL     1     135.189 124.793 142.290  1.00  0.00     0.004 C 
ENDBRANCH   3   4
ENDBRANCH   2   3
BRANCH   2   6
ATOM      6  O   UNL     1     135.301 122.212 139.110  1.00  0.00    -0.393 OA
ATOM      7  H   UNL     1     135.581 121.615 138.367  1.00  0.00     0.210 HD
ENDBRANCH   2   6
ENDBRANCH   1   2
BRANCH   1   8
ATOM      8  C   UNL     1     137.622 124.675 138.773  1.00  0.00     0.029 C 
BRANCH   8   9
ATOM      9  C   UNL     1     138.657 123.833 139.468  1.00  0.00    -0.035 C 
ATOM     10  C   UNL     1     138.568 123.541 140.770  1.00  0.00     0.004 C 
ENDBRANCH   8   9
ENDBRANCH   1   8
TORSDOF 6
ENDMDL
MODEL 6
REMARK VINA RESULT:    -4.435      1.963      2.850
REMARK INTER + INTRA:          -6.185
REMARK INTER:                  -5.642
REMARK INTRA:                  -0.543
REMARK UNBOUND:                -0.323
REMARK SMILES C=CCC[C@@H](O)CCC
REMARK SMILES IDX 4 1 5 2 7 3 8 4 9 5 6 6 3 8 2 9 1 10
REMARK H PARENT 6 7
REMARK Flexibility Score: inf
ROOT
ATOM      1  C   UNL     1     137.695 124.670 138.900  1.00  0.00     0.036 C 
ENDROOT
BRANCH   1   2
ATOM      2  C   UNL     1     138.341 123.790 139.989  1.00  0.00     0.114 C 
BRANCH   2   3
ATOM      3  C   UNL     1     137.267 123.170 140.904  1.00  0.00     0.031 C 
BRANCH   3   4
ATOM      4  C   UNL     1     136.303 124.234 141.447  1.00  0.00    -0.001 C 
ATOM      5  C   UNL     1     134.869 123.712 141.483  1.00  0.00     0.004 C 
ENDBRANCH   3   4
ENDBRANCH   2   3
BRANCH   2   6
ATOM      6  O   UNL     1     139.272 124.529 140.742  1.00  0.00    -0.393 OA
ATOM      7  H   UNL     1     138.791 125.304 141.136  1.00  0.00     0.210 HD
ENDBRANCH   2   6
ENDBRANCH   1   2
BRANCH   1   8
ATOM      8  C   UNL     1     137.135 123.824 137.747  1.00  0.00     0.029 C 
BRANCH   8   9
ATOM      9  C   UNL     1     135.631 123.827 137.751  1.00  0.00    -0.035 C 
ATOM     10  C   UNL     1     134.930 124.908 138.107  1.00  0.00     0.004 C 
ENDBRANCH   8   9
ENDBRANCH   1   8
TORSDOF 6
ENDMDL
MODEL 7
REMARK VINA RESULT:    -4.337      6.724      7.581
REMARK INTER + INTRA:          -6.054
REMARK INTER:                  -5.890
REMARK INTRA:                  -0.164
REMARK UNBOUND:                -0.323
REMARK SMILES C=CCC[C@@H](O)CCC
REMARK SMILES IDX 4 1 5 2 7 3 8 4 9 5 6 6 3 8 2 9 1 10
REMARK H PARENT 6 7
REMARK Flexibility Score: inf
ROOT
ATOM      1  C   UNL     1     131.538 129.210 137.447  1.00  0.00     0.036 C 
ENDROOT
BRANCH   1   2
ATOM      2  C   UNL     1     130.881 128.094 138.283  1.00  0.00     0.114 C 
BRANCH   2   3
ATOM      3  C   UNL     1     131.284 126.703 137.755  1.00  0.00     0.031 C 
BRANCH   3   4
ATOM      4  C   UNL     1     132.764 126.656 137.352  1.00  0.00    -0.001 C 
ATOM      5  C   UNL     1     133.536 125.651 138.203  1.00  0.00     0.004 C 
ENDBRANCH   3   4
ENDBRANCH   2   3
BRANCH   2   6
ATOM      6  O   UNL     1     129.481 128.237 138.296  1.00  0.00    -0.393 OA
ATOM      7  H   UNL     1     129.139 127.768 139.102  1.00  0.00     0.210 HD
ENDBRANCH   2   6
ENDBRANCH   1   2
BRANCH   1   8
ATOM      8  C   UNL     1     131.175 130.604 137.979  1.00  0.00     0.029 C 
BRANCH   8   9
ATOM      9  C   UNL     1     131.654 131.684 137.048  1.00  0.00    -0.035 C 
ATOM     10  C   UNL     1     132.383 132.717 137.484  1.00  0.00     0.004 C 
ENDBRANCH   8   9
ENDBRANCH   1   8
TORSDOF 6
ENDMDL
MODEL 8
REMARK VINA RESULT:    -4.301      1.714      4.220
REMARK INTER + INTRA:          -6.007
REMARK INTER:                  -5.794
REMARK INTRA:                  -0.213
REMARK UNBOUND:                -0.323
REMARK SMILES C=CCC[C@@H](O)CCC
REMARK SMILES IDX 4 1 5 2 7 3 8 4 9 5 6 6 3 8 2 9 1 10
REMARK H PARENT 6 7
REMARK Flexibility Score: inf
ROOT
ATOM      1  C   UNL     1     135.343 124.926 140.017  1.00  0.00     0.036 C 
ENDROOT
BRANCH   1   2
ATOM      2  C   UNL     1     135.192 124.225 138.652  1.00  0.00     0.114 C 
BRANCH   2   3
ATOM      3  C   UNL     1     136.552 124.124 137.933  1.00  0.00     0.031 C 
BRANCH   3   4
ATOM      4  C   UNL     1     137.676 124.772 138.753  1.00  0.00    -0.001 C 
ATOM      5  C   UNL     1     138.559 123.714 139.410  1.00  0.00     0.004 C 
ENDBRANCH   3   4
ENDBRANCH   2   3
BRANCH   2   6
ATOM      6  O   UNL     1     134.251 124.895 137.847  1.00  0.00    -0.393 OA
ATOM      7  H   UNL     1     134.744 125.564 137.303  1.00  0.00     0.210 HD
ENDBRANCH   2   6
ENDBRANCH   1   2
BRANCH   1   8
ATOM      8  C   UNL     1     134.925 124.008 141.174  1.00  0.00     0.029 C 
BRANCH   8   9
ATOM      9  C   UNL     1     134.899 124.755 142.480  1.00  0.00    -0.035 C 
ATOM     10  C   UNL     1     135.832 124.564 143.418  1.00  0.00     0.004 C 
ENDBRANCH   8   9
ENDBRANCH   1   8
TORSDOF 6
ENDMDL
MODEL 9
REMARK VINA RESULT:    -4.113      1.718      2.548
REMARK INTER + INTRA:          -5.759
REMARK INTER:                  -5.536
REMARK INTRA:                  -0.223
REMARK UNBOUND:                -0.323
REMARK SMILES C=CCC[C@@H](O)CCC
REMARK SMILES IDX 4 1 5 2 7 3 8 4 9 5 6 6 3 8 2 9 1 10
REMARK H PARENT 6 7
REMARK Flexibility Score: inf
ROOT
ATOM      1  C   UNL     1     135.346 123.762 140.921  1.00  0.00     0.036 C 
ENDROOT
BRANCH   1   2
ATOM      2  C   UNL     1     134.142 123.556 141.863  1.00  0.00     0.114 C 
BRANCH   2   3
ATOM      3  C   UNL     1     134.491 123.987 143.301  1.00  0.00     0.031 C 
BRANCH   3   4
ATOM      4  C   UNL     1     135.930 124.508 143.404  1.00  0.00    -0.001 C 
ATOM      5  C   UNL     1     136.363 124.647 144.861  1.00  0.00     0.004 C 
ENDBRANCH   3   4
ENDBRANCH   2   3
BRANCH   2   6
ATOM      6  O   UNL     1     133.708 122.218 141.834  1.00  0.00    -0.393 OA
ATOM      7  H   UNL     1     134.263 121.708 142.481  1.00  0.00     0.210 HD
ENDBRANCH   2   6
ENDBRANCH   1   2
BRANCH   1   8
ATOM      8  C   UNL     1     135.405 122.680 139.833  1.00  0.00     0.029 C 
BRANCH   8   9
ATOM      9  C   UNL     1     135.650 123.284 138.477  1.00  0.00    -0.035 C 
ATOM     10  C   UNL     1     135.271 124.532 138.184  1.00  0.00     0.004 C 
ENDBRANCH   8   9
ENDBRANCH   1   8
TORSDOF 6
ENDMDL
