MODEL 1
REMARK VINA RESULT:    -5.233      0.000      0.000
REMARK INTER + INTRA:          -6.627
REMARK INTER:                  -6.304
REMARK INTRA:                  -0.323
REMARK UNBOUND:                -0.323
REMARK SMILES O=c1c(O)c(-c2ccc(O)c(O)c2)oc2cc(O)cc(O)c12
REMARK SMILES IDX 5 1 3 2 2 3 1 4 22 5 20 6 19 7 17 8 16 9 15 10 14 11 6 12
REMARK SMILES IDX 7 13 8 14 9 15 13 16 11 17 10 18 12 20 4 22 21 24 18 26
REMARK H PARENT 10 19 12 21 4 23 21 25 18 27
REMARK Flexibility Score: inf
ROOT
ATOM      1  C   UNL     1      54.275   7.161 -48.259  1.00  0.00     0.180 A 
ATOM      2  C   UNL     1      54.782   5.975 -48.824  1.00  0.00     0.208 A 
ATOM      3  C   UNL     1      54.780   5.832 -50.220  1.00  0.00     0.238 A 
ATOM      4  O   UNL     1      55.221   4.770 -50.736  1.00  0.00    -0.285 OA
ATOM      5  C   UNL     1      54.292   6.881 -51.027  1.00  0.00     0.111 A 
ATOM      6  C   UNL     1      54.258   6.818 -52.441  1.00  0.00     0.134 A 
ATOM      7  C   UNL     1      53.766   7.909 -53.174  1.00  0.00     0.093 A 
ATOM      8  C   UNL     1      53.308   9.056 -52.523  1.00  0.00     0.123 A 
ATOM      9  C   UNL     1      53.337   9.123 -51.126  1.00  0.00     0.094 A 
ATOM     10  C   UNL     1      53.824   8.047 -50.378  1.00  0.00     0.146 A 
ATOM     11  O   UNL     1      53.836   8.135 -49.052  1.00  0.00    -0.452 OA
ENDROOT
BRANCH   1  12
ATOM     12  C   UNL     1      54.225   7.378 -46.795  1.00  0.00     0.025 A 
ATOM     13  C   UNL     1      53.067   7.091 -46.052  1.00  0.00     0.016 A 
ATOM     14  C   UNL     1      53.035   7.327 -44.675  1.00  0.00     0.051 A 
ATOM     15  C   UNL     1      54.154   7.863 -44.024  1.00  0.00     0.157 A 
ATOM     16  C   UNL     1      55.337   7.936 -46.141  1.00  0.00     0.062 A 
ATOM     17  C   UNL     1      55.305   8.171 -44.759  1.00  0.00     0.158 A 
BRANCH  15  18
ATOM     18  O   UNL     1      54.127   8.098 -42.651  1.00  0.00    -0.504 OA
ATOM     19  H   UNL     1      54.963   8.026 -42.084  1.00  0.00     0.293 HD
ENDBRANCH  15  18
BRANCH  17  20
ATOM     20  O   UNL     1      56.414   8.713 -44.111  1.00  0.00    -0.504 OA
ATOM     21  H   UNL     1      56.426   8.854 -43.108  1.00  0.00     0.293 HD
ENDBRANCH  17  20
ENDBRANCH   1  12
BRANCH   2  22
ATOM     22  O   UNL     1      55.306   4.971 -48.005  1.00  0.00    -0.502 OA
ATOM     23  H   UNL     1      54.895   4.047 -47.948  1.00  0.00     0.293 HD
ENDBRANCH   2  22
BRANCH   6  24
ATOM     24  O   UNL     1      54.709   5.687 -53.121  1.00  0.00    -0.507 OA
ATOM     25  H   UNL     1      55.447   5.099 -52.749  1.00  0.00     0.293 HD
ENDBRANCH   6  24
BRANCH   8  26
ATOM     26  O   UNL     1      52.824  10.125 -53.274  1.00  0.00    -0.508 OA
ATOM     27  H   UNL     1      51.899  10.508 -53.117  1.00  0.00     0.293 HD
ENDBRANCH   8  26
TORSDOF 6
ENDMDL
MODEL 2
REMARK VINA RESULT:    -5.233      1.002      1.614
REMARK INTER + INTRA:          -6.627
REMARK INTER:                  -6.311
REMARK INTRA:                  -0.316
REMARK UNBOUND:                -0.323
REMARK SMILES O=c1c(O)c(-c2ccc(O)c(O)c2)oc2cc(O)cc(O)c12
REMARK SMILES IDX 5 1 3 2 2 3 1 4 22 5 20 6 19 7 17 8 16 9 15 10 14 11 6 12
REMARK SMILES IDX 7 13 8 14 9 15 13 16 11 17 10 18 12 20 4 22 21 24 18 26
REMARK H PARENT 10 19 12 21 4 23 21 25 18 27
REMARK Flexibility Score: inf
ROOT
ATOM      1  C   UNL     1      54.690   7.263 -47.522  1.00  0.00     0.180 A 
ATOM      2  C   UNL     1      55.223   6.077 -48.064  1.00  0.00     0.208 A 
ATOM      3  C   UNL     1      55.137   5.864 -49.449  1.00  0.00     0.238 A 
ATOM      4  O   UNL     1      55.601   4.801 -49.943  1.00  0.00    -0.285 OA
ATOM      5  C   UNL     1      54.541   6.845 -50.269  1.00  0.00     0.111 A 
ATOM      6  C   UNL     1      54.419   6.709 -51.673  1.00  0.00     0.134 A 
ATOM      7  C   UNL     1      53.822   7.735 -52.421  1.00  0.00     0.093 A 
ATOM      8  C   UNL     1      53.346   8.889 -51.795  1.00  0.00     0.123 A 
ATOM      9  C   UNL     1      53.463   9.028 -50.408  1.00  0.00     0.094 A 
ATOM     10  C   UNL     1      54.055   8.017 -49.645  1.00  0.00     0.146 A 
ATOM     11  O   UNL     1      54.149   8.172 -48.328  1.00  0.00    -0.452 OA
ENDROOT
BRANCH   1  12
ATOM     12  C   UNL     1      54.724   7.551 -46.071  1.00  0.00     0.025 A 
ATOM     13  C   UNL     1      55.767   8.301 -45.498  1.00  0.00     0.016 A 
ATOM     14  C   UNL     1      55.791   8.540 -44.121  1.00  0.00     0.051 A 
ATOM     15  C   UNL     1      54.782   8.025 -43.297  1.00  0.00     0.157 A 
ATOM     16  C   UNL     1      53.727   7.018 -45.236  1.00  0.00     0.062 A 
ATOM     17  C   UNL     1      53.750   7.260 -43.855  1.00  0.00     0.158 A 
BRANCH  15  18
ATOM     18  O   UNL     1      54.801   8.263 -41.924  1.00  0.00    -0.504 OA
ATOM     19  H   UNL     1      54.592   9.177 -41.542  1.00  0.00     0.293 HD
ENDBRANCH  15  18
BRANCH  17  20
ATOM     20  O   UNL     1      52.753   6.741 -43.032  1.00  0.00    -0.504 OA
ATOM     21  H   UNL     1      52.083   6.062 -43.374  1.00  0.00     0.293 HD
ENDBRANCH  17  20
ENDBRANCH   1  12
BRANCH   2  22
ATOM     22  O   UNL     1      55.853   5.144 -47.236  1.00  0.00    -0.502 OA
ATOM     23  H   UNL     1      55.431   4.807 -46.379  1.00  0.00     0.293 HD
ENDBRANCH   2  22
BRANCH   6  24
ATOM     24  O   UNL     1      54.885   5.569 -52.328  1.00  0.00    -0.507 OA
ATOM     25  H   UNL     1      55.177   4.743 -51.819  1.00  0.00     0.293 HD
ENDBRANCH   6  24
BRANCH   8  26
ATOM     26  O   UNL     1      52.757   9.892 -52.561  1.00  0.00    -0.508 OA
ATOM     27  H   UNL     1      52.694   9.820 -53.571  1.00  0.00     0.293 HD
ENDBRANCH   8  26
TORSDOF 6
ENDMDL
MODEL 3
REMARK VINA RESULT:    -5.217      2.146      7.875
REMARK INTER + INTRA:          -6.607
REMARK INTER:                  -6.359
REMARK INTRA:                  -0.248
REMARK UNBOUND:                -0.323
REMARK SMILES O=c1c(O)c(-c2ccc(O)c(O)c2)oc2cc(O)cc(O)c12
REMARK SMILES IDX 5 1 3 2 2 3 1 4 22 5 20 6 19 7 17 8 16 9 15 10 14 11 6 12
REMARK SMILES IDX 7 13 8 14 9 15 13 16 11 17 10 18 12 20 4 22 21 24 18 26
REMARK H PARENT 10 19 12 21 4 23 21 25 18 27
REMARK Flexibility Score: inf
ROOT
ATOM      1  C   UNL     1      54.524   7.394 -45.552  1.00  0.00     0.180 A 
ATOM      2  C   UNL     1      55.506   8.112 -44.844  1.00  0.00     0.208 A 
ATOM      3  C   UNL     1      55.422   8.180 -43.444  1.00  0.00     0.238 A 
ATOM      4  O   UNL     1      56.290   8.830 -42.802  1.00  0.00    -0.285 OA
ATOM      5  C   UNL     1      54.373   7.514 -42.777  1.00  0.00     0.111 A 
ATOM      6  C   UNL     1      54.218   7.531 -41.369  1.00  0.00     0.134 A 
ATOM      7  C   UNL     1      53.152   6.834 -40.779  1.00  0.00     0.093 A 
ATOM      8  C   UNL     1      52.241   6.127 -41.566  1.00  0.00     0.123 A 
ATOM      9  C   UNL     1      52.388   6.108 -42.957  1.00  0.00     0.094 A 
ATOM     10  C   UNL     1      53.443   6.796 -43.564  1.00  0.00     0.146 A 
ATOM     11  O   UNL     1      53.557   6.766 -44.887  1.00  0.00    -0.452 OA
ENDROOT
BRANCH   1  12
ATOM     12  C   UNL     1      54.533   7.292 -47.029  1.00  0.00     0.025 A 
ATOM     13  C   UNL     1      55.474   6.494 -47.702  1.00  0.00     0.016 A 
ATOM     14  C   UNL     1      55.479   6.432 -49.098  1.00  0.00     0.051 A 
ATOM     15  C   UNL     1      54.552   7.175 -49.841  1.00  0.00     0.157 A 
ATOM     16  C   UNL     1      53.620   8.052 -47.780  1.00  0.00     0.062 A 
ATOM     17  C   UNL     1      53.623   7.989 -49.181  1.00  0.00     0.158 A 
BRANCH  15  18
ATOM     18  O   UNL     1      54.552   7.114 -51.233  1.00  0.00    -0.504 OA
ATOM     19  H   UNL     1      54.349   6.253 -51.726  1.00  0.00     0.293 HD
ENDBRANCH  15  18
BRANCH  17  20
ATOM     20  O   UNL     1      52.708   8.733 -49.922  1.00  0.00    -0.504 OA
ATOM     21  H   UNL     1      51.769   8.908 -49.584  1.00  0.00     0.293 HD
ENDBRANCH  17  20
ENDBRANCH   1  12
BRANCH   2  22
ATOM     22  O   UNL     1      56.563   8.721 -45.526  1.00  0.00    -0.502 OA
ATOM     23  H   UNL     1      57.411   8.223 -45.769  1.00  0.00     0.293 HD
ENDBRANCH   2  22
BRANCH   6  24
ATOM     24  O   UNL     1      55.112   8.228 -40.556  1.00  0.00    -0.507 OA
ATOM     25  H   UNL     1      55.907   8.725 -40.941  1.00  0.00     0.293 HD
ENDBRANCH   6  24
BRANCH   8  26
ATOM     26  O   UNL     1      51.192   5.444 -40.954  1.00  0.00    -0.508 OA
ATOM     27  H   UNL     1      50.903   4.524 -41.268  1.00  0.00     0.293 HD
ENDBRANCH   8  26
TORSDOF 6
ENDMDL
MODEL 4
REMARK VINA RESULT:    -5.203      1.719      7.142
REMARK INTER + INTRA:          -6.591
REMARK INTER:                  -6.288
REMARK INTRA:                  -0.302
REMARK UNBOUND:                -0.323
REMARK SMILES O=c1c(O)c(-c2ccc(O)c(O)c2)oc2cc(O)cc(O)c12
REMARK SMILES IDX 5 1 3 2 2 3 1 4 22 5 20 6 19 7 17 8 16 9 15 10 14 11 6 12
REMARK SMILES IDX 7 13 8 14 9 15 13 16 11 17 10 18 12 20 4 22 21 24 18 26
REMARK H PARENT 10 19 12 21 4 23 21 25 18 27
REMARK Flexibility Score: inf
ROOT
ATOM      1  C   UNL     1      53.486   7.617 -47.606  1.00  0.00     0.180 A 
ATOM      2  C   UNL     1      52.361   6.965 -47.066  1.00  0.00     0.208 A 
ATOM      3  C   UNL     1      52.296   6.758 -45.679  1.00  0.00     0.238 A 
ATOM      4  O   UNL     1      51.299   6.166 -45.187  1.00  0.00    -0.285 OA
ATOM      5  C   UNL     1      53.344   7.223 -44.856  1.00  0.00     0.111 A 
ATOM      6  C   UNL     1      53.353   7.057 -43.450  1.00  0.00     0.134 A 
ATOM      7  C   UNL     1      54.429   7.556 -42.699  1.00  0.00     0.093 A 
ATOM      8  C   UNL     1      55.490   8.213 -43.324  1.00  0.00     0.123 A 
ATOM      9  C   UNL     1      55.486   8.379 -44.713  1.00  0.00     0.094 A 
ATOM     10  C   UNL     1      54.424   7.888 -45.479  1.00  0.00     0.146 A 
ATOM     11  O   UNL     1      54.448   8.054 -46.797  1.00  0.00    -0.452 OA
ENDROOT
BRANCH   1  12
ATOM     12  C   UNL     1      53.637   7.855 -49.060  1.00  0.00     0.025 A 
ATOM     13  C   UNL     1      53.288   9.088 -49.640  1.00  0.00     0.016 A 
ATOM     14  C   UNL     1      53.417   9.281 -51.018  1.00  0.00     0.051 A 
ATOM     15  C   UNL     1      53.884   8.244 -51.836  1.00  0.00     0.157 A 
ATOM     16  C   UNL     1      54.084   6.812 -49.888  1.00  0.00     0.062 A 
ATOM     17  C   UNL     1      54.215   7.007 -51.271  1.00  0.00     0.158 A 
BRANCH  15  18
ATOM     18  O   UNL     1      54.015   8.434 -53.210  1.00  0.00    -0.504 OA
ATOM     19  H   UNL     1      54.922   8.556 -53.644  1.00  0.00     0.293 HD
ENDBRANCH  15  18
BRANCH  17  20
ATOM     20  O   UNL     1      54.670   5.974 -52.088  1.00  0.00    -0.504 OA
ATOM     21  H   UNL     1      55.567   6.025 -52.557  1.00  0.00     0.293 HD
ENDBRANCH  17  20
ENDBRANCH   1  12
BRANCH   2  22
ATOM     22  O   UNL     1      51.314   6.560 -47.898  1.00  0.00    -0.502 OA
ATOM     23  H   UNL     1      50.378   6.937 -47.815  1.00  0.00     0.293 HD
ENDBRANCH   2  22
BRANCH   6  24
ATOM     24  O   UNL     1      52.308   6.406 -42.795  1.00  0.00    -0.507 OA
ATOM     25  H   UNL     1      52.444   5.519 -42.324  1.00  0.00     0.293 HD
ENDBRANCH   6  24
BRANCH   8  26
ATOM     26  O   UNL     1      56.545   8.700 -42.555  1.00  0.00    -0.508 OA
ATOM     27  H   UNL     1      56.451   9.543 -41.999  1.00  0.00     0.293 HD
ENDBRANCH   8  26
TORSDOF 6
ENDMDL
MODEL 5
REMARK VINA RESULT:    -5.200      2.005      7.551
REMARK INTER + INTRA:          -6.588
REMARK INTER:                  -6.270
REMARK INTRA:                  -0.318
REMARK UNBOUND:                -0.323
REMARK SMILES O=c1c(O)c(-c2ccc(O)c(O)c2)oc2cc(O)cc(O)c12
REMARK SMILES IDX 5 1 3 2 2 3 1 4 22 5 20 6 19 7 17 8 16 9 15 10 14 11 6 12
REMARK SMILES IDX 7 13 8 14 9 15 13 16 11 17 10 18 12 20 4 22 21 24 18 26
REMARK H PARENT 10 19 12 21 4 23 21 25 18 27
REMARK Flexibility Score: inf
ROOT
ATOM      1  C   UNL     1      54.079   7.356 -46.128  1.00  0.00     0.180 A 
ATOM      2  C   UNL     1      53.039   6.655 -45.488  1.00  0.00     0.208 A 
ATOM      3  C   UNL     1      53.029   6.584 -44.086  1.00  0.00     0.238 A 
ATOM      4  O   UNL     1      52.109   5.949 -43.504  1.00  0.00    -0.285 OA
ATOM      5  C   UNL     1      54.044   7.229 -43.350  1.00  0.00     0.111 A 
ATOM      6  C   UNL     1      54.105   7.208 -41.935  1.00  0.00     0.134 A 
ATOM      7  C   UNL     1      55.143   7.884 -41.274  1.00  0.00     0.093 A 
ATOM      8  C   UNL     1      56.116   8.576 -41.997  1.00  0.00     0.123 A 
ATOM      9  C   UNL     1      56.062   8.599 -43.394  1.00  0.00     0.094 A 
ATOM     10  C   UNL     1      55.036   7.932 -44.071  1.00  0.00     0.146 A 
ATOM     11  O   UNL     1      55.011   7.965 -45.400  1.00  0.00    -0.452 OA
ENDROOT
BRANCH   1  12
ATOM     12  C   UNL     1      54.169   7.460 -47.602  1.00  0.00     0.025 A 
ATOM     13  C   UNL     1      54.978   6.586 -48.349  1.00  0.00     0.016 A 
ATOM     14  C   UNL     1      55.067   6.718 -49.738  1.00  0.00     0.051 A 
ATOM     15  C   UNL     1      54.358   7.731 -50.397  1.00  0.00     0.157 A 
ATOM     16  C   UNL     1      53.478   8.487 -48.267  1.00  0.00     0.062 A 
ATOM     17  C   UNL     1      53.565   8.618 -49.660  1.00  0.00     0.158 A 
BRANCH  15  18
ATOM     18  O   UNL     1      54.442   7.864 -51.782  1.00  0.00    -0.504 OA
ATOM     19  H   UNL     1      54.024   7.185 -52.406  1.00  0.00     0.293 HD
ENDBRANCH  15  18
BRANCH  17  20
ATOM     20  O   UNL     1      52.868   9.630 -50.317  1.00  0.00    -0.504 OA
ATOM     21  H   UNL     1      52.611   9.549 -51.294  1.00  0.00     0.293 HD
ENDBRANCH  17  20
ENDBRANCH   1  12
BRANCH   2  22
ATOM     22  O   UNL     1      52.018   6.066 -46.240  1.00  0.00    -0.502 OA
ATOM     23  H   UNL     1      51.197   5.656 -45.812  1.00  0.00     0.293 HD
ENDBRANCH   2  22
BRANCH   6  24
ATOM     24  O   UNL     1      53.147   6.527 -41.184  1.00  0.00    -0.507 OA
ATOM     25  H   UNL     1      52.255   6.252 -41.580  1.00  0.00     0.293 HD
ENDBRANCH   6  24
BRANCH   8  26
ATOM     26  O   UNL     1      57.135   9.239 -41.316  1.00  0.00    -0.508 OA
ATOM     27  H   UNL     1      58.096   9.207 -41.638  1.00  0.00     0.293 HD
ENDBRANCH   8  26
TORSDOF 6
ENDMDL
MODEL 6
REMARK VINA RESULT:    -5.090     10.951     14.325
REMARK INTER + INTRA:          -6.455
REMARK INTER:                  -6.419
REMARK INTRA:                  -0.036
REMARK UNBOUND:                -0.323
REMARK SMILES O=c1c(O)c(-c2ccc(O)c(O)c2)oc2cc(O)cc(O)c12
REMARK SMILES IDX 5 1 3 2 2 3 1 4 22 5 20 6 19 7 17 8 16 9 15 10 14 11 6 12
REMARK SMILES IDX 7 13 8 14 9 15 13 16 11 17 10 18 12 20 4 22 21 24 18 26
REMARK H PARENT 10 19 12 21 4 23 21 25 18 27
REMARK Flexibility Score: inf
ROOT
ATOM      1  C   UNL     1      59.556  -3.379 -48.910  1.00  0.00     0.180 A 
ATOM      2  C   UNL     1      59.639  -2.153 -48.224  1.00  0.00     0.208 A 
ATOM      3  C   UNL     1      59.842  -2.164 -46.835  1.00  0.00     0.238 A 
ATOM      4  O   UNL     1      59.907  -1.071 -46.209  1.00  0.00    -0.285 OA
ATOM      5  C   UNL     1      59.978  -3.395 -46.161  1.00  0.00     0.111 A 
ATOM      6  C   UNL     1      60.188  -3.493 -44.764  1.00  0.00     0.134 A 
ATOM      7  C   UNL     1      60.323  -4.757 -44.168  1.00  0.00     0.093 A 
ATOM      8  C   UNL     1      60.251  -5.919 -44.939  1.00  0.00     0.123 A 
ATOM      9  C   UNL     1      60.043  -5.828 -46.319  1.00  0.00     0.094 A 
ATOM     10  C   UNL     1      59.906  -4.579 -46.931  1.00  0.00     0.146 A 
ATOM     11  O   UNL     1      59.704  -4.521 -48.243  1.00  0.00    -0.452 OA
ENDROOT
BRANCH   1  12
ATOM     12  C   UNL     1      59.324  -3.451 -50.371  1.00  0.00     0.025 A 
ATOM     13  C   UNL     1      58.268  -2.750 -50.980  1.00  0.00     0.016 A 
ATOM     14  C   UNL     1      58.054  -2.852 -52.357  1.00  0.00     0.051 A 
ATOM     15  C   UNL     1      58.883  -3.663 -53.142  1.00  0.00     0.157 A 
ATOM     16  C   UNL     1      60.139  -4.279 -51.160  1.00  0.00     0.062 A 
ATOM     17  C   UNL     1      59.926  -4.380 -52.543  1.00  0.00     0.158 A 
BRANCH  15  18
ATOM     18  O   UNL     1      58.674  -3.765 -54.516  1.00  0.00    -0.504 OA
ATOM     19  H   UNL     1      58.919  -3.012 -55.147  1.00  0.00     0.293 HD
ENDBRANCH  15  18
BRANCH  17  20
ATOM     20  O   UNL     1      60.744  -5.193 -53.325  1.00  0.00    -0.504 OA
ATOM     21  H   UNL     1      61.038  -6.110 -53.010  1.00  0.00     0.293 HD
ENDBRANCH  17  20
ENDBRANCH   1  12
BRANCH   2  22
ATOM     22  O   UNL     1      59.552  -0.946 -48.923  1.00  0.00    -0.502 OA
ATOM     23  H   UNL     1      59.618  -0.897 -49.932  1.00  0.00     0.293 HD
ENDBRANCH   2  22
BRANCH   6  24
ATOM     24  O   UNL     1      60.265  -2.351 -43.967  1.00  0.00    -0.507 OA
ATOM     25  H   UNL     1      60.713  -1.502 -44.292  1.00  0.00     0.293 HD
ENDBRANCH   6  24
BRANCH   8  26
ATOM     26  O   UNL     1      60.389  -7.160 -44.322  1.00  0.00    -0.508 OA
ATOM     27  H   UNL     1      59.628  -7.831 -44.303  1.00  0.00     0.293 HD
ENDBRANCH   8  26
TORSDOF 6
ENDMDL
MODEL 7
REMARK VINA RESULT:    -5.082      2.679      4.200
REMARK INTER + INTRA:          -6.445
REMARK INTER:                  -6.127
REMARK INTRA:                  -0.319
REMARK UNBOUND:                -0.323
REMARK SMILES O=c1c(O)c(-c2ccc(O)c(O)c2)oc2cc(O)cc(O)c12
REMARK SMILES IDX 5 1 3 2 2 3 1 4 22 5 20 6 19 7 17 8 16 9 15 10 14 11 6 12
REMARK SMILES IDX 7 13 8 14 9 15 13 16 11 17 10 18 12 20 4 22 21 24 18 26
REMARK H PARENT 10 19 12 21 4 23 21 25 18 27
REMARK Flexibility Score: inf
ROOT
ATOM      1  C   UNL     1      53.215   7.750 -50.599  1.00  0.00     0.180 A 
ATOM      2  C   UNL     1      53.573   8.820 -51.440  1.00  0.00     0.208 A 
ATOM      3  C   UNL     1      52.783   9.092 -52.569  1.00  0.00     0.238 A 
ATOM      4  O   UNL     1      53.102  10.040 -53.335  1.00  0.00    -0.285 OA
ATOM      5  C   UNL     1      51.641   8.305 -52.825  1.00  0.00     0.111 A 
ATOM      6  C   UNL     1      50.791   8.515 -53.938  1.00  0.00     0.134 A 
ATOM      7  C   UNL     1      49.666   7.695 -54.118  1.00  0.00     0.093 A 
ATOM      8  C   UNL     1      49.378   6.672 -53.212  1.00  0.00     0.123 A 
ATOM      9  C   UNL     1      50.215   6.459 -52.112  1.00  0.00     0.094 A 
ATOM     10  C   UNL     1      51.340   7.266 -51.915  1.00  0.00     0.146 A 
ATOM     11  O   UNL     1      52.122   7.038 -50.864  1.00  0.00    -0.452 OA
ENDROOT
BRANCH   1  12
ATOM     12  C   UNL     1      54.007   7.388 -49.402  1.00  0.00     0.025 A 
ATOM     13  C   UNL     1      55.167   6.600 -49.503  1.00  0.00     0.016 A 
ATOM     14  C   UNL     1      55.886   6.251 -48.356  1.00  0.00     0.051 A 
ATOM     15  C   UNL     1      55.451   6.675 -47.094  1.00  0.00     0.157 A 
ATOM     16  C   UNL     1      53.564   7.791 -48.131  1.00  0.00     0.062 A 
ATOM     17  C   UNL     1      54.286   7.443 -46.981  1.00  0.00     0.158 A 
BRANCH  15  18
ATOM     18  O   UNL     1      56.166   6.330 -45.948  1.00  0.00    -0.504 OA
ATOM     19  H   UNL     1      56.926   5.662 -45.979  1.00  0.00     0.293 HD
ENDBRANCH  15  18
BRANCH  17  20
ATOM     20  O   UNL     1      53.850   7.855 -45.723  1.00  0.00    -0.504 OA
ATOM     21  H   UNL     1      54.494   8.222 -45.032  1.00  0.00     0.293 HD
ENDBRANCH  17  20
ENDBRANCH   1  12
BRANCH   2  22
ATOM     22  O   UNL     1      54.682   9.615 -51.137  1.00  0.00    -0.502 OA
ATOM     23  H   UNL     1      54.823  10.529 -51.549  1.00  0.00     0.293 HD
ENDBRANCH   2  22
BRANCH   6  24
ATOM     24  O   UNL     1      51.051   9.529 -54.860  1.00  0.00    -0.507 OA
ATOM     25  H   UNL     1      51.611   9.365 -55.688  1.00  0.00     0.293 HD
ENDBRANCH   6  24
BRANCH   8  26
ATOM     26  O   UNL     1      48.255   5.873 -53.415  1.00  0.00    -0.508 OA
ATOM     27  H   UNL     1      47.796   5.822 -54.318  1.00  0.00     0.293 HD
ENDBRANCH   8  26
TORSDOF 6
ENDMDL
MODEL 8
REMARK VINA RESULT:    -5.070      9.244     12.467
REMARK INTER + INTRA:          -6.431
REMARK INTER:                  -6.104
REMARK INTRA:                  -0.327
REMARK UNBOUND:                -0.323
REMARK SMILES O=c1c(O)c(-c2ccc(O)c(O)c2)oc2cc(O)cc(O)c12
REMARK SMILES IDX 5 1 3 2 2 3 1 4 22 5 20 6 19 7 17 8 16 9 15 10 14 11 6 12
REMARK SMILES IDX 7 13 8 14 9 15 13 16 11 17 10 18 12 20 4 22 21 24 18 26
REMARK H PARENT 10 19 12 21 4 23 21 25 18 27
REMARK Flexibility Score: inf
ROOT
ATOM      1  C   UNL     1      56.362  -2.204 -51.985  1.00  0.00     0.180 A 
ATOM      2  C   UNL     1      56.209  -1.141 -51.075  1.00  0.00     0.208 A 
ATOM      3  C   UNL     1      57.229  -0.891 -50.144  1.00  0.00     0.238 A 
ATOM      4  O   UNL     1      57.097   0.051 -49.317  1.00  0.00    -0.285 OA
ATOM      5  C   UNL     1      58.390  -1.691 -50.152  1.00  0.00     0.111 A 
ATOM      6  C   UNL     1      59.466  -1.502 -49.249  1.00  0.00     0.134 A 
ATOM      7  C   UNL     1      60.593  -2.336 -49.327  1.00  0.00     0.093 A 
ATOM      8  C   UNL     1      60.664  -3.349 -50.285  1.00  0.00     0.123 A 
ATOM      9  C   UNL     1      59.605  -3.541 -51.178  1.00  0.00     0.094 A 
ATOM     10  C   UNL     1      58.473  -2.722 -51.116  1.00  0.00     0.146 A 
ATOM     11  O   UNL     1      57.478  -2.929 -51.973  1.00  0.00    -0.452 OA
ENDROOT
BRANCH   1  12
ATOM     12  C   UNL     1      55.323  -2.544 -52.984  1.00  0.00     0.025 A 
ATOM     13  C   UNL     1      54.339  -3.512 -52.716  1.00  0.00     0.016 A 
ATOM     14  C   UNL     1      53.383  -3.833 -53.683  1.00  0.00     0.051 A 
ATOM     15  C   UNL     1      53.403  -3.201 -54.933  1.00  0.00     0.157 A 
ATOM     16  C   UNL     1      55.351  -1.929 -54.246  1.00  0.00     0.062 A 
ATOM     17  C   UNL     1      54.390  -2.250 -55.216  1.00  0.00     0.158 A 
BRANCH  15  18
ATOM     18  O   UNL     1      52.449  -3.517 -55.899  1.00  0.00    -0.504 OA
ATOM     19  H   UNL     1      51.461  -3.358 -55.740  1.00  0.00     0.293 HD
ENDBRANCH  15  18
BRANCH  17  20
ATOM     20  O   UNL     1      54.413  -1.628 -56.463  1.00  0.00    -0.504 OA
ATOM     21  H   UNL     1      53.723  -0.933 -56.723  1.00  0.00     0.293 HD
ENDBRANCH  17  20
ENDBRANCH   1  12
BRANCH   2  22
ATOM     22  O   UNL     1      55.070  -0.332 -51.120  1.00  0.00    -0.502 OA
ATOM     23  H   UNL     1      55.123   0.674 -51.219  1.00  0.00     0.293 HD
ENDBRANCH   2  22
BRANCH   6  24
ATOM     24  O   UNL     1      59.425  -0.498 -48.282  1.00  0.00    -0.507 OA
ATOM     25  H   UNL     1      59.116  -0.682 -47.335  1.00  0.00     0.293 HD
ENDBRANCH   6  24
BRANCH   8  26
ATOM     26  O   UNL     1      61.795  -4.161 -50.341  1.00  0.00    -0.508 OA
ATOM     27  H   UNL     1      61.866  -4.927 -51.002  1.00  0.00     0.293 HD
ENDBRANCH   8  26
TORSDOF 6
ENDMDL
MODEL 9
REMARK VINA RESULT:    -4.982      1.320      2.977
REMARK INTER + INTRA:          -6.324
REMARK INTER:                  -6.054
REMARK INTRA:                  -0.270
REMARK UNBOUND:                -0.323
REMARK SMILES O=c1c(O)c(-c2ccc(O)c(O)c2)oc2cc(O)cc(O)c12
REMARK SMILES IDX 5 1 3 2 2 3 1 4 22 5 20 6 19 7 17 8 16 9 15 10 14 11 6 12
REMARK SMILES IDX 7 13 8 14 9 15 13 16 11 17 10 18 12 20 4 22 21 24 18 26
REMARK H PARENT 10 19 12 21 4 23 21 25 18 27
REMARK Flexibility Score: inf
ROOT
ATOM      1  C   UNL     1      53.813   7.528 -49.069  1.00  0.00     0.180 A 
ATOM      2  C   UNL     1      53.339   8.594 -49.857  1.00  0.00     0.208 A 
ATOM      3  C   UNL     1      53.403   8.486 -51.256  1.00  0.00     0.238 A 
ATOM      4  O   UNL     1      52.991   9.438 -51.971  1.00  0.00    -0.285 OA
ATOM      5  C   UNL     1      53.921   7.311 -51.840  1.00  0.00     0.111 A 
ATOM      6  C   UNL     1      54.018   7.122 -53.240  1.00  0.00     0.134 A 
ATOM      7  C   UNL     1      54.536   5.919 -53.744  1.00  0.00     0.093 A 
ATOM      8  C   UNL     1      54.958   4.907 -52.880  1.00  0.00     0.123 A 
ATOM      9  C   UNL     1      54.866   5.089 -51.496  1.00  0.00     0.094 A 
ATOM     10  C   UNL     1      54.353   6.280 -50.974  1.00  0.00     0.146 A 
ATOM     11  O   UNL     1      54.281   6.430 -49.655  1.00  0.00    -0.452 OA
ENDROOT
BRANCH   1  12
ATOM     12  C   UNL     1      53.797   7.575 -47.589  1.00  0.00     0.025 A 
ATOM     13  C   UNL     1      52.605   7.396 -46.864  1.00  0.00     0.016 A 
ATOM     14  C   UNL     1      52.610   7.467 -45.469  1.00  0.00     0.051 A 
ATOM     15  C   UNL     1      53.800   7.730 -44.779  1.00  0.00     0.157 A 
ATOM     16  C   UNL     1      54.984   7.860 -46.893  1.00  0.00     0.062 A 
ATOM     17  C   UNL     1      54.988   7.930 -45.492  1.00  0.00     0.158 A 
BRANCH  15  18
ATOM     18  O   UNL     1      53.809   7.801 -43.387  1.00  0.00    -0.504 OA
ATOM     19  H   UNL     1      53.092   7.352 -42.829  1.00  0.00     0.293 HD
ENDBRANCH  15  18
BRANCH  17  20
ATOM     20  O   UNL     1      56.170   8.200 -44.805  1.00  0.00    -0.504 OA
ATOM     21  H   UNL     1      57.077   8.051 -45.230  1.00  0.00     0.293 HD
ENDBRANCH  17  20
ENDBRANCH   1  12
BRANCH   2  22
ATOM     22  O   UNL     1      52.784   9.726 -49.254  1.00  0.00    -0.502 OA
ATOM     23  H   UNL     1      52.947  10.662 -49.605  1.00  0.00     0.293 HD
ENDBRANCH   2  22
BRANCH   6  24
ATOM     24  O   UNL     1      53.604   8.113 -54.130  1.00  0.00    -0.507 OA
ATOM     25  H   UNL     1      53.022   7.900 -54.932  1.00  0.00     0.293 HD
ENDBRANCH   6  24
BRANCH   8  26
ATOM     26  O   UNL     1      55.469   3.723 -53.407  1.00  0.00    -0.508 OA
ATOM     27  H   UNL     1      54.858   2.973 -53.715  1.00  0.00     0.293 HD
ENDBRANCH   8  26
TORSDOF 6
ENDMDL
