MODEL 1
REMARK VINA RESULT:    -2.477      0.000      0.000
REMARK INTER + INTRA:          -3.826
REMARK INTER:                  -3.346
REMARK INTRA:                  -0.480
REMARK UNBOUND:                -0.480
REMARK SMILES CCCCCCCC=O
REMARK SMILES IDX 5 1 4 2 3 3 2 4 1 5 6 6 7 7 8 8 9 9
REMARK H PARENT
REMARK Flexibility Score: inf
ROOT
ATOM      1  C   UNL     1     138.364 148.568 145.474  1.00  0.00     0.000 C 
ENDROOT
BRANCH   1   2
ATOM      2  C   UNL     1     139.162 147.380 144.923  1.00  0.00     0.000 C 
BRANCH   2   3
ATOM      3  C   UNL     1     138.648 146.968 143.536  1.00  0.00    -0.000 C 
BRANCH   3   4
ATOM      4  C   UNL     1     138.154 145.513 143.497  1.00  0.00    -0.003 C 
ATOM      5  C   UNL     1     136.637 145.399 143.654  1.00  0.00     0.004 C 
ENDBRANCH   3   4
ENDBRANCH   2   3
ENDBRANCH   1   2
BRANCH   1   6
ATOM      6  C   UNL     1     137.809 149.434 144.339  1.00  0.00     0.008 C 
BRANCH   6   7
ATOM      7  C   UNL     1     136.429 149.996 144.699  1.00  0.00     0.072 C 
BRANCH   7   8
ATOM      8  C   UNL     1     135.335 149.055 144.292  1.00  0.00     0.224 C 
ATOM      9  O   UNL     1     135.283 148.642 143.145  1.00  0.00    -0.303 OA
ENDBRANCH   7   8
ENDBRANCH   6   7
ENDBRANCH   1   6
TORSDOF 6
ENDMDL
MODEL 2
REMARK VINA RESULT:    -2.461      9.989     11.514
REMARK INTER + INTRA:          -3.804
REMARK INTER:                  -3.325
REMARK INTRA:                  -0.480
REMARK UNBOUND:                -0.480
REMARK SMILES CCCCCCCC=O
REMARK SMILES IDX 5 1 4 2 3 3 2 4 1 5 6 6 7 7 8 8 9 9
REMARK H PARENT
REMARK Flexibility Score: inf
ROOT
ATOM      1  C   UNL     1     133.100 138.375 145.390  1.00  0.00     0.000 C 
ENDROOT
BRANCH   1   2
ATOM      2  C   UNL     1     134.182 139.263 144.764  1.00  0.00     0.000 C 
BRANCH   2   3
ATOM      3  C   UNL     1     134.700 138.658 143.451  1.00  0.00    -0.000 C 
BRANCH   3   4
ATOM      4  C   UNL     1     136.136 138.124 143.573  1.00  0.00    -0.003 C 
ATOM      5  C   UNL     1     136.196 136.598 143.648  1.00  0.00     0.004 C 
ENDBRANCH   3   4
ENDBRANCH   2   3
ENDBRANCH   1   2
BRANCH   1   6
ATOM      6  C   UNL     1     132.101 137.895 144.331  1.00  0.00     0.008 C 
BRANCH   6   7
ATOM      7  C   UNL     1     131.614 136.474 144.638  1.00  0.00     0.072 C 
BRANCH   7   8
ATOM      8  C   UNL     1     132.679 135.459 144.348  1.00  0.00     0.224 C 
ATOM      9  O   UNL     1     132.969 135.195 143.193  1.00  0.00    -0.303 OA
ENDBRANCH   7   8
ENDBRANCH   6   7
ENDBRANCH   1   6
TORSDOF 6
ENDMDL
MODEL 3
REMARK VINA RESULT:    -2.449     14.088     16.340
REMARK INTER + INTRA:          -3.788
REMARK INTER:                  -3.303
REMARK INTRA:                  -0.485
REMARK UNBOUND:                -0.480
REMARK SMILES CCCCCCCC=O
REMARK SMILES IDX 5 1 4 2 3 3 2 4 1 5 6 6 7 7 8 8 9 9
REMARK H PARENT
REMARK Flexibility Score: inf
ROOT
ATOM      1  C   UNL     1     143.345 132.981 145.524  1.00  0.00     0.000 C 
ENDROOT
BRANCH   1   2
ATOM      2  C   UNL     1     142.412 134.062 144.964  1.00  0.00     0.000 C 
BRANCH   2   3
ATOM      3  C   UNL     1     142.870 134.515 143.570  1.00  0.00    -0.000 C 
BRANCH   3   4
ATOM      4  C   UNL     1     143.292 135.992 143.537  1.00  0.00    -0.003 C 
ATOM      5  C   UNL     1     144.801 136.180 143.694  1.00  0.00     0.004 C 
ENDBRANCH   3   4
ENDBRANCH   2   3
ENDBRANCH   1   2
BRANCH   1   6
ATOM      6  C   UNL     1     143.801 132.020 144.421  1.00  0.00     0.008 C 
BRANCH   6   7
ATOM      7  C   UNL     1     145.269 131.620 144.612  1.00  0.00     0.072 C 
BRANCH   7   8
ATOM      8  C   UNL     1     146.185 132.783 144.375  1.00  0.00     0.224 C 
ATOM      9  O   UNL     1     146.505 133.083 143.236  1.00  0.00    -0.303 OA
ENDBRANCH   7   8
ENDBRANCH   6   7
ENDBRANCH   1   6
TORSDOF 6
ENDMDL
MODEL 4
REMARK VINA RESULT:    -2.446     10.024     11.507
REMARK INTER + INTRA:          -3.785
REMARK INTER:                  -3.301
REMARK INTRA:                  -0.483
REMARK UNBOUND:                -0.480
REMARK SMILES CCCCCCCC=O
REMARK SMILES IDX 5 1 4 2 3 3 2 4 1 5 6 6 7 7 8 8 9 9
REMARK H PARENT
REMARK Flexibility Score: inf
ROOT
ATOM      1  C   UNL     1     148.711 143.238 145.518  1.00  0.00     0.000 C 
ENDROOT
BRANCH   1   2
ATOM      2  C   UNL     1     147.498 142.464 144.987  1.00  0.00     0.000 C 
BRANCH   2   3
ATOM      3  C   UNL     1     147.056 143.004 143.620  1.00  0.00    -0.000 C 
BRANCH   3   4
ATOM      4  C   UNL     1     145.571 143.399 143.592  1.00  0.00    -0.003 C 
ATOM      5  C   UNL     1     145.360 144.913 143.635  1.00  0.00     0.004 C 
ENDBRANCH   3   4
ENDBRANCH   2   3
ENDBRANCH   1   2
BRANCH   1   6
ATOM      6  C   UNL     1     149.496 143.885 144.372  1.00  0.00     0.008 C 
BRANCH   6   7
ATOM      7  C   UNL     1     149.895 145.324 144.721  1.00  0.00     0.072 C 
BRANCH   7   8
ATOM      8  C   UNL     1     148.816 146.294 144.341  1.00  0.00     0.224 C 
ATOM      9  O   UNL     1     148.540 146.466 143.165  1.00  0.00    -0.303 OA
ENDBRANCH   7   8
ENDBRANCH   6   7
ENDBRANCH   1   6
TORSDOF 6
ENDMDL
MODEL 5
REMARK VINA RESULT:    -2.428      2.120      3.866
REMARK INTER + INTRA:          -3.759
REMARK INTER:                  -3.247
REMARK INTRA:                  -0.512
REMARK UNBOUND:                -0.480
REMARK SMILES CCCCCCCC=O
REMARK SMILES IDX 5 1 4 2 3 3 2 4 1 5 6 6 7 7 8 8 9 9
REMARK H PARENT
REMARK Flexibility Score: inf
ROOT
ATOM      1  C   UNL     1     138.992 145.614 144.856  1.00  0.00     0.000 C 
ENDROOT
BRANCH   1   2
ATOM      2  C   UNL     1     139.589 147.020 144.994  1.00  0.00     0.000 C 
BRANCH   2   3
ATOM      3  C   UNL     1     138.838 147.834 146.058  1.00  0.00    -0.000 C 
BRANCH   3   4
ATOM      4  C   UNL     1     137.770 148.757 145.451  1.00  0.00    -0.003 C 
ATOM      5  C   UNL     1     138.183 149.330 144.096  1.00  0.00     0.004 C 
ENDBRANCH   3   4
ENDBRANCH   2   3
ENDBRANCH   1   2
BRANCH   1   6
ATOM      6  C   UNL     1     138.316 145.433 143.492  1.00  0.00     0.008 C 
BRANCH   6   7
ATOM      7  C   UNL     1     136.790 145.439 143.630  1.00  0.00     0.072 C 
BRANCH   7   8
ATOM      8  C   UNL     1     136.352 144.714 144.868  1.00  0.00     0.224 C 
ATOM      9  O   UNL     1     135.497 143.847 144.795  1.00  0.00    -0.303 OA
ENDBRANCH   7   8
ENDBRANCH   6   7
ENDBRANCH   1   6
TORSDOF 6
ENDMDL
MODEL 6
REMARK VINA RESULT:    -2.402      9.809     11.507
REMARK INTER + INTRA:          -3.724
REMARK INTER:                  -3.209
REMARK INTRA:                  -0.516
REMARK UNBOUND:                -0.480
REMARK SMILES CCCCCCCC=O
REMARK SMILES IDX 5 1 4 2 3 3 2 4 1 5 6 6 7 7 8 8 9 9
REMARK H PARENT
REMARK Flexibility Score: inf
ROOT
ATOM      1  C   UNL     1     133.092 138.450 145.526  1.00  0.00     0.000 C 
ENDROOT
BRANCH   1   2
ATOM      2  C   UNL     1     132.235 137.934 144.364  1.00  0.00     0.000 C 
BRANCH   2   3
ATOM      3  C   UNL     1     131.590 136.585 144.713  1.00  0.00    -0.000 C 
BRANCH   3   4
ATOM      4  C   UNL     1     132.609 135.435 144.750  1.00  0.00    -0.003 C 
ATOM      5  C   UNL     1     133.166 135.092 143.369  1.00  0.00     0.004 C 
ENDBRANCH   3   4
ENDBRANCH   2   3
ENDBRANCH   1   2
BRANCH   1   6
ATOM      6  C   UNL     1     134.385 139.095 145.014  1.00  0.00     0.008 C 
BRANCH   6   7
ATOM      7  C   UNL     1     134.685 138.659 143.576  1.00  0.00     0.072 C 
BRANCH   7   8
ATOM      8  C   UNL     1     136.066 138.086 143.459  1.00  0.00     0.224 C 
ATOM      9  O   UNL     1     136.248 136.894 143.645  1.00  0.00    -0.303 OA
ENDBRANCH   7   8
ENDBRANCH   6   7
ENDBRANCH   1   6
TORSDOF 6
ENDMDL
MODEL 7
REMARK VINA RESULT:    -2.396      9.517     11.076
REMARK INTER + INTRA:          -3.716
REMARK INTER:                  -3.144
REMARK INTRA:                  -0.572
REMARK UNBOUND:                -0.480
REMARK SMILES CCCCCCCC=O
REMARK SMILES IDX 5 1 4 2 3 3 2 4 1 5 6 6 7 7 8 8 9 9
REMARK H PARENT
REMARK Flexibility Score: inf
ROOT
ATOM      1  C   UNL     1     135.870 138.974 144.724  1.00  0.00     0.000 C 
ENDROOT
BRANCH   1   2
ATOM      2  C   UNL     1     134.513 139.689 144.709  1.00  0.00     0.000 C 
BRANCH   2   3
ATOM      3  C   UNL     1     133.422 138.809 145.336  1.00  0.00    -0.000 C 
BRANCH   3   4
ATOM      4  C   UNL     1     132.435 138.259 144.295  1.00  0.00    -0.003 C 
ATOM      5  C   UNL     1     132.147 136.769 144.481  1.00  0.00     0.004 C 
ENDBRANCH   3   4
ENDBRANCH   2   3
ENDBRANCH   1   2
BRANCH   1   6
ATOM      6  C   UNL     1     136.128 138.253 143.396  1.00  0.00     0.008 C 
BRANCH   6   7
ATOM      7  C   UNL     1     136.091 136.731 143.581  1.00  0.00     0.072 C 
BRANCH   7   8
ATOM      8  C   UNL     1     136.245 136.355 145.024  1.00  0.00     0.224 C 
ATOM      9  O   UNL     1     135.486 135.541 145.525  1.00  0.00    -0.303 OA
ENDBRANCH   7   8
ENDBRANCH   6   7
ENDBRANCH   1   6
TORSDOF 6
ENDMDL
MODEL 8
REMARK VINA RESULT:    -2.390     13.907     15.934
REMARK INTER + INTRA:          -3.709
REMARK INTER:                  -3.212
REMARK INTRA:                  -0.496
REMARK UNBOUND:                -0.480
REMARK SMILES CCCCCCCC=O
REMARK SMILES IDX 5 1 4 2 3 3 2 4 1 5 6 6 7 7 8 8 9 9
REMARK H PARENT
REMARK Flexibility Score: inf
ROOT
ATOM      1  C   UNL     1     143.169 133.131 145.442  1.00  0.00     0.000 C 
ENDROOT
BRANCH   1   2
ATOM      2  C   UNL     1     143.612 132.136 144.362  1.00  0.00     0.000 C 
BRANCH   2   3
ATOM      3  C   UNL     1     144.995 131.553 144.685  1.00  0.00    -0.000 C 
BRANCH   3   4
ATOM      4  C   UNL     1     146.094 132.626 144.724  1.00  0.00    -0.003 C 
ATOM      5  C   UNL     1     146.570 133.036 143.330  1.00  0.00     0.004 C 
ENDBRANCH   3   4
ENDBRANCH   2   3
ENDBRANCH   1   2
BRANCH   1   6
ATOM      6  C   UNL     1     142.361 134.282 144.833  1.00  0.00     0.008 C 
BRANCH   6   7
ATOM      7  C   UNL     1     142.950 134.716 143.486  1.00  0.00     0.072 C 
BRANCH   7   8
ATOM      8  C   UNL     1     143.569 136.079 143.577  1.00  0.00     0.224 C 
ATOM      9  O   UNL     1     144.780 136.203 143.491  1.00  0.00    -0.303 OA
ENDBRANCH   7   8
ENDBRANCH   6   7
ENDBRANCH   1   6
TORSDOF 6
ENDMDL
MODEL 9
REMARK VINA RESULT:    -2.383      1.298      3.428
REMARK INTER + INTRA:          -3.699
REMARK INTER:                  -3.160
REMARK INTRA:                  -0.539
REMARK UNBOUND:                -0.480
REMARK SMILES CCCCCCCC=O
REMARK SMILES IDX 5 1 4 2 3 3 2 4 1 5 6 6 7 7 8 8 9 9
REMARK H PARENT
REMARK Flexibility Score: inf
ROOT
ATOM      1  C   UNL     1     138.486 148.491 145.409  1.00  0.00     0.000 C 
ENDROOT
BRANCH   1   2
ATOM      2  C   UNL     1     137.886 149.395 144.324  1.00  0.00     0.000 C 
BRANCH   2   3
ATOM      3  C   UNL     1     136.527 149.955 144.765  1.00  0.00    -0.000 C 
BRANCH   3   4
ATOM      4  C   UNL     1     135.410 148.901 144.720  1.00  0.00    -0.003 C 
ATOM      5  C   UNL     1     135.015 148.518 143.293  1.00  0.00     0.004 C 
ENDBRANCH   3   4
ENDBRANCH   2   3
ENDBRANCH   1   2
BRANCH   1   6
ATOM      6  C   UNL     1     139.201 147.285 144.789  1.00  0.00     0.008 C 
BRANCH   6   7
ATOM      7  C   UNL     1     138.410 146.728 143.599  1.00  0.00     0.072 C 
BRANCH   7   8
ATOM      8  C   UNL     1     137.495 145.620 144.027  1.00  0.00     0.224 C 
ATOM      9  O   UNL     1     136.537 145.321 143.332  1.00  0.00    -0.303 OA
ENDBRANCH   7   8
ENDBRANCH   6   7
ENDBRANCH   1   6
TORSDOF 6
ENDMDL
