MODEL 1
REMARK VINA RESULT:    -5.270      0.000      0.000
REMARK INTER + INTRA:         -10.461
REMARK INTER:                  -9.276
REMARK INTRA:                  -1.185
REMARK UNBOUND:                -1.185
REMARK SMILES CCCCCCCCCCCCCCC(=O)[O-]
REMARK SMILES IDX 9 1 10 2 11 3 12 4 13 5 14 6 15 7 16 8 17 9 8 10 7 11 6 12
REMARK SMILES IDX 5 13 4 14 3 15 2 16 1 17
REMARK H PARENT
REMARK Flexibility Score: inf
ROOT
ATOM      1  C   UNL     1     -10.723  -0.968 -10.052  1.00  0.00     0.000 C 
ENDROOT
BRANCH   1   2
ATOM      2  C   UNL     1     -12.045  -0.175 -10.061  1.00  0.00     0.000 C 
BRANCH   2   3
ATOM      3  C   UNL     1     -13.253  -0.925 -10.658  1.00  0.00     0.000 C 
BRANCH   3   4
ATOM      4  C   UNL     1     -14.596  -0.182 -10.555  1.00  0.00     0.000 C 
BRANCH   4   5
ATOM      5  C   UNL     1     -14.686   0.721  -9.313  1.00  0.00     0.006 C 
BRANCH   5   6
ATOM      6  C   UNL     1     -14.935   2.190  -9.682  1.00  0.00     0.053 C 
BRANCH   6   7
ATOM      7  C   UNL     1     -13.927   3.101  -9.049  1.00  0.00     0.041 C 
ATOM      8  O   UNL     1     -12.719   3.051  -9.398  1.00  0.00    -0.550 OA
ATOM      9  O   UNL     1     -14.319   3.986  -8.053  1.00  0.00    -0.550 OA
ENDBRANCH   6   7
ENDBRANCH   5   6
ENDBRANCH   4   5
ENDBRANCH   3   4
ENDBRANCH   2   3
ENDBRANCH   1   2
BRANCH   1  10
ATOM     10  C   UNL     1     -10.864  -2.466  -9.715  1.00  0.00     0.000 C 
BRANCH  10  11
ATOM     11  C   UNL     1      -9.623  -3.319 -10.028  1.00  0.00    -0.000 C 
BRANCH  11  12
ATOM     12  C   UNL     1      -8.982  -3.924  -8.766  1.00  0.00    -0.000 C 
BRANCH  12  13
ATOM     13  C   UNL     1      -9.714  -3.509  -7.479  1.00  0.00    -0.000 C 
BRANCH  13  14
ATOM     14  C   UNL     1     -10.354  -4.704  -6.752  1.00  0.00    -0.000 C 
BRANCH  14  15
ATOM     15  C   UNL     1     -10.608  -5.894  -7.701  1.00  0.00    -0.000 C 
BRANCH  15  16
ATOM     16  C   UNL     1     -12.088  -6.072  -8.081  1.00  0.00    -0.003 C 
ATOM     17  C   UNL     1     -12.356  -5.839  -9.567  1.00  0.00     0.004 C 
ENDBRANCH  15  16
ENDBRANCH  14  15
ENDBRANCH  13  14
ENDBRANCH  12  13
ENDBRANCH  11  12
ENDBRANCH  10  11
ENDBRANCH   1  10
TORSDOF 13
ENDMDL
MODEL 2
REMARK VINA RESULT:    -5.250      3.960      7.878
REMARK INTER + INTRA:         -10.425
REMARK INTER:                  -9.592
REMARK INTRA:                  -0.833
REMARK UNBOUND:                -1.185
REMARK SMILES CCCCCCCCCCCCCCC(=O)[O-]
REMARK SMILES IDX 9 1 10 2 11 3 12 4 13 5 14 6 15 7 16 8 17 9 8 10 7 11 6 12
REMARK SMILES IDX 5 13 4 14 3 15 2 16 1 17
REMARK H PARENT
REMARK Flexibility Score: inf
ROOT
ATOM      1  C   UNL     1     -10.863  -2.057  -9.676  1.00  0.00     0.000 C 
ENDROOT
BRANCH   1   2
ATOM      2  C   UNL     1      -9.569  -2.825 -10.014  1.00  0.00     0.000 C 
BRANCH   2   3
ATOM      3  C   UNL     1      -9.272  -4.036  -9.109  1.00  0.00     0.000 C 
BRANCH   3   4
ATOM      4  C   UNL     1      -9.686  -3.865  -7.636  1.00  0.00     0.000 C 
BRANCH   4   5
ATOM      5  C   UNL     1     -10.577  -5.012  -7.130  1.00  0.00     0.006 C 
BRANCH   5   6
ATOM      6  C   UNL     1     -11.488  -5.568  -8.233  1.00  0.00     0.053 C 
BRANCH   6   7
ATOM      7  C   UNL     1     -11.277  -7.037  -8.441  1.00  0.00     0.041 C 
ATOM      8  O   UNL     1     -11.926  -7.652  -9.327  1.00  0.00    -0.550 OA
ATOM      9  O   UNL     1     -10.384  -7.733  -7.636  1.00  0.00    -0.550 OA
ENDBRANCH   6   7
ENDBRANCH   5   6
ENDBRANCH   4   5
ENDBRANCH   3   4
ENDBRANCH   2   3
ENDBRANCH   1   2
BRANCH   1  10
ATOM     10  C   UNL     1     -10.985  -0.665 -10.328  1.00  0.00     0.000 C 
BRANCH  10  11
ATOM     11  C   UNL     1     -12.220   0.144  -9.898  1.00  0.00    -0.000 C 
BRANCH  11  12
ATOM     12  C   UNL     1     -13.537  -0.457 -10.421  1.00  0.00    -0.000 C 
BRANCH  12  13
ATOM     13  C   UNL     1     -14.776   0.231  -9.824  1.00  0.00    -0.000 C 
BRANCH  13  14
ATOM     14  C   UNL     1     -14.711   1.764  -9.937  1.00  0.00    -0.000 C 
BRANCH  14  15
ATOM     15  C   UNL     1     -14.702   2.449  -8.554  1.00  0.00    -0.000 C 
BRANCH  15  16
ATOM     16  C   UNL     1     -14.101   3.865  -8.573  1.00  0.00    -0.003 C 
ATOM     17  C   UNL     1     -12.574   3.867  -8.577  1.00  0.00     0.004 C 
ENDBRANCH  15  16
ENDBRANCH  14  15
ENDBRANCH  13  14
ENDBRANCH  12  13
ENDBRANCH  11  12
ENDBRANCH  10  11
ENDBRANCH   1  10
TORSDOF 13
ENDMDL
MODEL 3
REMARK VINA RESULT:    -4.608     17.213     18.946
REMARK INTER + INTRA:          -9.296
REMARK INTER:                  -8.032
REMARK INTRA:                  -1.264
REMARK UNBOUND:                -1.185
REMARK SMILES CCCCCCCCCCCCCCC(=O)[O-]
REMARK SMILES IDX 9 1 10 2 11 3 12 4 13 5 14 6 15 7 16 8 17 9 8 10 7 11 6 12
REMARK SMILES IDX 5 13 4 14 3 15 2 16 1 17
REMARK H PARENT
REMARK Flexibility Score: inf
ROOT
ATOM      1  C   UNL     1      -9.318   5.662   6.782  1.00  0.00     0.000 C 
ENDROOT
BRANCH   1   2
ATOM      2  C   UNL     1      -9.507   7.022   6.080  1.00  0.00     0.000 C 
BRANCH   2   3
ATOM      3  C   UNL     1      -8.376   8.042   6.317  1.00  0.00     0.000 C 
BRANCH   3   4
ATOM      4  C   UNL     1      -7.969   8.862   5.080  1.00  0.00     0.000 C 
BRANCH   4   5
ATOM      5  C   UNL     1      -7.120  10.095   5.434  1.00  0.00     0.006 C 
BRANCH   5   6
ATOM      6  C   UNL     1      -6.074   9.787   6.514  1.00  0.00     0.053 C 
BRANCH   6   7
ATOM      7  C   UNL     1      -5.003  10.834   6.566  1.00  0.00     0.041 C 
ATOM      8  O   UNL     1      -4.932  11.622   7.545  1.00  0.00    -0.550 OA
ATOM      9  O   UNL     1      -4.099  10.956   5.518  1.00  0.00    -0.550 OA
ENDBRANCH   6   7
ENDBRANCH   5   6
ENDBRANCH   4   5
ENDBRANCH   3   4
ENDBRANCH   2   3
ENDBRANCH   1   2
BRANCH   1  10
ATOM     10  C   UNL     1     -10.284   5.394   7.954  1.00  0.00     0.000 C 
BRANCH  10  11
ATOM     11  C   UNL     1     -10.663   3.916   8.154  1.00  0.00    -0.000 C 
BRANCH  11  12
ATOM     12  C   UNL     1     -12.125   3.731   8.597  1.00  0.00    -0.000 C 
BRANCH  12  13
ATOM     13  C   UNL     1     -12.921   5.046   8.561  1.00  0.00    -0.000 C 
BRANCH  13  14
ATOM     14  C   UNL     1     -13.985   5.062   7.450  1.00  0.00    -0.000 C 
BRANCH  14  15
ATOM     15  C   UNL     1     -13.869   6.312   6.552  1.00  0.00    -0.000 C 
BRANCH  15  16
ATOM     16  C   UNL     1     -12.958   6.108   5.330  1.00  0.00    -0.003 C 
ATOM     17  C   UNL     1     -12.963   4.670   4.813  1.00  0.00     0.004 C 
ENDBRANCH  15  16
ENDBRANCH  14  15
ENDBRANCH  13  14
ENDBRANCH  12  13
ENDBRANCH  11  12
ENDBRANCH  10  11
ENDBRANCH   1  10
TORSDOF 13
ENDMDL
MODEL 4
REMARK VINA RESULT:    -4.512     14.815     16.606
REMARK INTER + INTRA:          -9.127
REMARK INTER:                  -8.093
REMARK INTRA:                  -1.033
REMARK UNBOUND:                -1.185
REMARK SMILES CCCCCCCCCCCCCCC(=O)[O-]
REMARK SMILES IDX 9 1 10 2 11 3 12 4 13 5 14 6 15 7 16 8 17 9 8 10 7 11 6 12
REMARK SMILES IDX 5 13 4 14 3 15 2 16 1 17
REMARK H PARENT
REMARK Flexibility Score: inf
ROOT
ATOM      1  C   UNL     1     -13.426   5.645   5.184  1.00  0.00     0.000 C 
ENDROOT
BRANCH   1   2
ATOM      2  C   UNL     1     -13.977   5.175   3.823  1.00  0.00     0.000 C 
BRANCH   2   3
ATOM      3  C   UNL     1     -14.973   6.142   3.153  1.00  0.00     0.000 C 
BRANCH   3   4
ATOM      4  C   UNL     1     -14.382   7.012   2.030  1.00  0.00     0.000 C 
BRANCH   4   5
ATOM      5  C   UNL     1     -14.153   8.471   2.461  1.00  0.00     0.006 C 
BRANCH   5   6
ATOM      6  C   UNL     1     -13.634   9.341   1.309  1.00  0.00     0.053 C 
BRANCH   6   7
ATOM      7  C   UNL     1     -13.326  10.736   1.760  1.00  0.00     0.041 C 
ATOM      8  O   UNL     1     -14.200  11.417   2.359  1.00  0.00    -0.550 OA
ATOM      9  O   UNL     1     -12.082  11.295   1.494  1.00  0.00    -0.550 OA
ENDBRANCH   6   7
ENDBRANCH   5   6
ENDBRANCH   4   5
ENDBRANCH   3   4
ENDBRANCH   2   3
ENDBRANCH   1   2
BRANCH   1  10
ATOM     10  C   UNL     1     -13.602   4.640   6.340  1.00  0.00     0.000 C 
BRANCH  10  11
ATOM     11  C   UNL     1     -13.796   5.277   7.727  1.00  0.00    -0.000 C 
BRANCH  11  12
ATOM     12  C   UNL     1     -12.763   4.788   8.757  1.00  0.00    -0.000 C 
BRANCH  12  13
ATOM     13  C   UNL     1     -12.015   3.529   8.288  1.00  0.00    -0.000 C 
BRANCH  13  14
ATOM     14  C   UNL     1     -10.554   3.818   7.906  1.00  0.00    -0.000 C 
BRANCH  14  15
ATOM     15  C   UNL     1     -10.196   5.310   8.066  1.00  0.00    -0.000 C 
BRANCH  15  16
ATOM     16  C   UNL     1      -9.423   5.889   6.869  1.00  0.00    -0.003 C 
ATOM     17  C   UNL     1      -9.933   5.377   5.523  1.00  0.00     0.004 C 
ENDBRANCH  15  16
ENDBRANCH  14  15
ENDBRANCH  13  14
ENDBRANCH  12  13
ENDBRANCH  11  12
ENDBRANCH  10  11
ENDBRANCH   1  10
TORSDOF 13
ENDMDL
MODEL 5
REMARK VINA RESULT:    -4.492     16.524     18.534
REMARK INTER + INTRA:          -9.091
REMARK INTER:                  -7.901
REMARK INTRA:                  -1.191
REMARK UNBOUND:                -1.185
REMARK SMILES CCCCCCCCCCCCCCC(=O)[O-]
REMARK SMILES IDX 9 1 10 2 11 3 12 4 13 5 14 6 15 7 16 8 17 9 8 10 7 11 6 12
REMARK SMILES IDX 5 13 4 14 3 15 2 16 1 17
REMARK H PARENT
REMARK Flexibility Score: inf
ROOT
ATOM      1  C   UNL     1     -10.929   3.995   7.661  1.00  0.00     0.000 C 
ENDROOT
BRANCH   1   2
ATOM      2  C   UNL     1     -12.257   4.230   8.408  1.00  0.00     0.000 C 
BRANCH   2   3
ATOM      3  C   UNL     1     -12.484   5.673   8.899  1.00  0.00     0.000 C 
BRANCH   3   4
ATOM      4  C   UNL     1     -13.756   6.352   8.361  1.00  0.00     0.000 C 
BRANCH   4   5
ATOM      5  C   UNL     1     -14.220   5.769   7.015  1.00  0.00     0.006 C 
BRANCH   5   6
ATOM      6  C   UNL     1     -13.347   6.246   5.846  1.00  0.00     0.053 C 
BRANCH   6   7
ATOM      7  C   UNL     1     -13.357   5.269   4.710  1.00  0.00     0.041 C 
ATOM      8  O   UNL     1     -12.391   4.480   4.543  1.00  0.00    -0.550 OA
ATOM      9  O   UNL     1     -14.422   5.250   3.818  1.00  0.00    -0.550 OA
ENDBRANCH   6   7
ENDBRANCH   5   6
ENDBRANCH   4   5
ENDBRANCH   3   4
ENDBRANCH   2   3
ENDBRANCH   1   2
BRANCH   1  10
ATOM     10  C   UNL     1      -9.954   5.190   7.674  1.00  0.00     0.000 C 
BRANCH  10  11
ATOM     11  C   UNL     1      -9.588   5.740   6.284  1.00  0.00    -0.000 C 
BRANCH  11  12
ATOM     12  C   UNL     1      -9.740   7.269   6.191  1.00  0.00    -0.000 C 
BRANCH  12  13
ATOM     13  C   UNL     1      -8.388   7.999   6.252  1.00  0.00    -0.000 C 
BRANCH  13  14
ATOM     14  C   UNL     1      -8.177   8.949   5.061  1.00  0.00    -0.000 C 
BRANCH  14  15
ATOM     15  C   UNL     1      -7.161  10.066   5.381  1.00  0.00    -0.000 C 
BRANCH  15  16
ATOM     16  C   UNL     1      -6.166   9.692   6.493  1.00  0.00    -0.003 C 
ATOM     17  C   UNL     1      -4.883  10.519   6.451  1.00  0.00     0.004 C 
ENDBRANCH  15  16
ENDBRANCH  14  15
ENDBRANCH  13  14
ENDBRANCH  12  13
ENDBRANCH  11  12
ENDBRANCH  10  11
ENDBRANCH   1  10
TORSDOF 13
ENDMDL
MODEL 6
REMARK VINA RESULT:    -4.489     16.842     18.590
REMARK INTER + INTRA:          -9.086
REMARK INTER:                  -7.360
REMARK INTRA:                  -1.726
REMARK UNBOUND:                -1.185
REMARK SMILES CCCCCCCCCCCCCCC(=O)[O-]
REMARK SMILES IDX 9 1 10 2 11 3 12 4 13 5 14 6 15 7 16 8 17 9 8 10 7 11 6 12
REMARK SMILES IDX 5 13 4 14 3 15 2 16 1 17
REMARK H PARENT
REMARK Flexibility Score: inf
ROOT
ATOM      1  C   UNL     1     -11.330   4.603   5.196  1.00  0.00     0.000 C 
ENDROOT
BRANCH   1   2
ATOM      2  C   UNL     1     -10.000   5.173   5.728  1.00  0.00     0.000 C 
BRANCH   2   3
ATOM      3  C   UNL     1     -10.031   6.669   6.098  1.00  0.00     0.000 C 
BRANCH   3   4
ATOM      4  C   UNL     1      -8.688   7.251   6.571  1.00  0.00     0.000 C 
BRANCH   4   5
ATOM      5  C   UNL     1      -8.333   8.576   5.875  1.00  0.00     0.006 C 
BRANCH   5   6
ATOM      6  C   UNL     1      -7.524   9.510   6.786  1.00  0.00     0.053 C 
BRANCH   6   7
ATOM      7  C   UNL     1      -6.447  10.228   6.030  1.00  0.00     0.041 C 
ATOM      8  O   UNL     1      -5.235  10.024   6.306  1.00  0.00    -0.550 OA
ATOM      9  O   UNL     1      -6.783  11.143   5.041  1.00  0.00    -0.550 OA
ENDBRANCH   6   7
ENDBRANCH   5   6
ENDBRANCH   4   5
ENDBRANCH   3   4
ENDBRANCH   2   3
ENDBRANCH   1   2
BRANCH   1  10
ATOM     10  C   UNL     1     -12.012   3.571   6.117  1.00  0.00     0.000 C 
BRANCH  10  11
ATOM     11  C   UNL     1     -11.152   3.090   7.299  1.00  0.00    -0.000 C 
BRANCH  11  12
ATOM     12  C   UNL     1     -11.779   3.421   8.665  1.00  0.00    -0.000 C 
BRANCH  12  13
ATOM     13  C   UNL     1     -12.856   4.515   8.568  1.00  0.00    -0.000 C 
BRANCH  13  14
ATOM     14  C   UNL     1     -12.317   5.907   8.941  1.00  0.00    -0.000 C 
BRANCH  14  15
ATOM     15  C   UNL     1     -13.062   7.036   8.198  1.00  0.00    -0.000 C 
BRANCH  15  16
ATOM     16  C   UNL     1     -14.072   6.525   7.157  1.00  0.00    -0.003 C 
ATOM     17  C   UNL     1     -13.874   7.145   5.776  1.00  0.00     0.004 C 
ENDBRANCH  15  16
ENDBRANCH  14  15
ENDBRANCH  13  14
ENDBRANCH  12  13
ENDBRANCH  11  12
ENDBRANCH  10  11
ENDBRANCH   1  10
TORSDOF 13
ENDMDL
MODEL 7
REMARK VINA RESULT:    -4.478     15.101     17.723
REMARK INTER + INTRA:          -9.066
REMARK INTER:                  -8.208
REMARK INTRA:                  -0.858
REMARK UNBOUND:                -1.185
REMARK SMILES CCCCCCCCCCCCCCC(=O)[O-]
REMARK SMILES IDX 9 1 10 2 11 3 12 4 13 5 14 6 15 7 16 8 17 9 8 10 7 11 6 12
REMARK SMILES IDX 5 13 4 14 3 15 2 16 1 17
REMARK H PARENT
REMARK Flexibility Score: inf
ROOT
ATOM      1  C   UNL     1     -13.532   5.444   5.675  1.00  0.00     0.000 C 
ENDROOT
BRANCH   1   2
ATOM      2  C   UNL     1     -14.058   5.332   7.121  1.00  0.00     0.000 C 
BRANCH   2   3
ATOM      3  C   UNL     1     -13.009   4.899   8.165  1.00  0.00     0.000 C 
BRANCH   3   4
ATOM      4  C   UNL     1     -12.243   3.609   7.823  1.00  0.00     0.000 C 
BRANCH   4   5
ATOM      5  C   UNL     1     -10.719   3.811   7.789  1.00  0.00     0.006 C 
BRANCH   5   6
ATOM      6  C   UNL     1     -10.329   5.292   7.882  1.00  0.00     0.053 C 
BRANCH   6   7
ATOM      7  C   UNL     1      -9.726   5.790   6.603  1.00  0.00     0.041 C 
ATOM      8  O   UNL     1     -10.057   5.275   5.503  1.00  0.00    -0.550 OA
ATOM      9  O   UNL     1      -8.777   6.804   6.631  1.00  0.00    -0.550 OA
ENDBRANCH   6   7
ENDBRANCH   5   6
ENDBRANCH   4   5
ENDBRANCH   3   4
ENDBRANCH   2   3
ENDBRANCH   1   2
BRANCH   1  10
ATOM     10  C   UNL     1     -14.279   6.459   4.787  1.00  0.00     0.000 C 
BRANCH  10  11
ATOM     11  C   UNL     1     -14.733   5.914   3.422  1.00  0.00    -0.000 C 
BRANCH  11  12
ATOM     12  C   UNL     1     -14.317   6.821   2.251  1.00  0.00    -0.000 C 
BRANCH  12  13
ATOM     13  C   UNL     1     -14.043   8.267   2.695  1.00  0.00    -0.000 C 
BRANCH  13  14
ATOM     14  C   UNL     1     -14.018   9.253   1.514  1.00  0.00    -0.000 C 
BRANCH  14  15
ATOM     15  C   UNL     1     -13.893  10.718   1.983  1.00  0.00    -0.000 C 
BRANCH  15  16
ATOM     16  C   UNL     1     -12.518  11.342   1.689  1.00  0.00    -0.003 C 
ATOM     17  C   UNL     1     -11.861  10.778   0.430  1.00  0.00     0.004 C 
ENDBRANCH  15  16
ENDBRANCH  14  15
ENDBRANCH  13  14
ENDBRANCH  12  13
ENDBRANCH  11  12
ENDBRANCH  10  11
ENDBRANCH   1  10
TORSDOF 13
ENDMDL
MODEL 8
REMARK VINA RESULT:    -4.443      1.230      2.312
REMARK INTER + INTRA:          -9.005
REMARK INTER:                  -7.829
REMARK INTRA:                  -1.175
REMARK UNBOUND:                -1.185
REMARK SMILES CCCCCCCCCCCCCCC(=O)[O-]
REMARK SMILES IDX 9 1 10 2 11 3 12 4 13 5 14 6 15 7 16 8 17 9 8 10 7 11 6 12
REMARK SMILES IDX 5 13 4 14 3 15 2 16 1 17
REMARK H PARENT
REMARK Flexibility Score: inf
ROOT
ATOM      1  C   UNL     1     -10.587  -3.010  -9.692  1.00  0.00     0.000 C 
ENDROOT
BRANCH   1   2
ATOM      2  C   UNL     1     -10.621  -1.509  -9.346  1.00  0.00     0.000 C 
BRANCH   2   3
ATOM      3  C   UNL     1     -11.350  -0.618 -10.371  1.00  0.00     0.000 C 
BRANCH   3   4
ATOM      4  C   UNL     1     -12.885  -0.733 -10.358  1.00  0.00     0.000 C 
BRANCH   4   5
ATOM      5  C   UNL     1     -13.581   0.602 -10.042  1.00  0.00     0.006 C 
BRANCH   5   6
ATOM      6  C   UNL     1     -12.650   1.583  -9.318  1.00  0.00     0.053 C 
BRANCH   6   7
ATOM      7  C   UNL     1     -13.310   2.909  -9.088  1.00  0.00     0.041 C 
ATOM      8  O   UNL     1     -14.524   2.965  -8.759  1.00  0.00    -0.550 OA
ATOM      9  O   UNL     1     -12.590   4.084  -9.265  1.00  0.00    -0.550 OA
ENDBRANCH   6   7
ENDBRANCH   5   6
ENDBRANCH   4   5
ENDBRANCH   3   4
ENDBRANCH   2   3
ENDBRANCH   1   2
BRANCH   1  10
ATOM     10  C   UNL     1      -9.580  -3.845  -8.876  1.00  0.00     0.000 C 
BRANCH  10  11
ATOM     11  C   UNL     1     -10.080  -4.287  -7.489  1.00  0.00    -0.000 C 
BRANCH  11  12
ATOM     12  C   UNL     1     -10.066  -5.816  -7.310  1.00  0.00    -0.000 C 
BRANCH  12  13
ATOM     13  C   UNL     1     -11.307  -6.490  -7.917  1.00  0.00    -0.000 C 
BRANCH  13  14
ATOM     14  C   UNL     1     -12.596  -6.157  -7.146  1.00  0.00    -0.000 C 
BRANCH  14  15
ATOM     15  C   UNL     1     -13.807  -5.979  -8.086  1.00  0.00    -0.000 C 
BRANCH  15  16
ATOM     16  C   UNL     1     -13.446  -5.345  -9.439  1.00  0.00    -0.003 C 
ATOM     17  C   UNL     1     -14.405  -4.229  -9.852  1.00  0.00     0.004 C 
ENDBRANCH  15  16
ENDBRANCH  14  15
ENDBRANCH  13  14
ENDBRANCH  12  13
ENDBRANCH  11  12
ENDBRANCH  10  11
ENDBRANCH   1  10
TORSDOF 13
ENDMDL
MODEL 9
REMARK VINA RESULT:    -4.319     16.833     18.597
REMARK INTER + INTRA:          -8.787
REMARK INTER:                  -7.232
REMARK INTRA:                  -1.555
REMARK UNBOUND:                -1.185
REMARK SMILES CCCCCCCCCCCCCCC(=O)[O-]
REMARK SMILES IDX 9 1 10 2 11 3 12 4 13 5 14 6 15 7 16 8 17 9 8 10 7 11 6 12
REMARK SMILES IDX 5 13 4 14 3 15 2 16 1 17
REMARK H PARENT
REMARK Flexibility Score: inf
ROOT
ATOM      1  C   UNL     1     -12.450   7.537   7.445  1.00  0.00     0.000 C 
ENDROOT
BRANCH   1   2
ATOM      2  C   UNL     1     -11.285   7.877   6.494  1.00  0.00     0.000 C 
BRANCH   2   3
ATOM      3  C   UNL     1     -10.117   6.871   6.505  1.00  0.00     0.000 C 
BRANCH   3   4
ATOM      4  C   UNL     1      -8.752   7.454   6.098  1.00  0.00     0.000 C 
BRANCH   4   5
ATOM      5  C   UNL     1      -8.756   8.990   6.025  1.00  0.00     0.006 C 
BRANCH   5   6
ATOM      6  C   UNL     1      -7.447   9.546   5.448  1.00  0.00     0.053 C 
BRANCH   6   7
ATOM      7  C   UNL     1      -6.512  10.000   6.528  1.00  0.00     0.041 C 
ATOM      8  O   UNL     1      -6.944  10.226   7.688  1.00  0.00    -0.550 OA
ATOM      9  O   UNL     1      -5.167  10.201   6.243  1.00  0.00    -0.550 OA
ENDBRANCH   6   7
ENDBRANCH   5   6
ENDBRANCH   4   5
ENDBRANCH   3   4
ENDBRANCH   2   3
ENDBRANCH   1   2
BRANCH   1  10
ATOM     10  C   UNL     1     -13.771   7.156   6.748  1.00  0.00     0.000 C 
BRANCH  10  11
ATOM     11  C   UNL     1     -13.606   6.446   5.393  1.00  0.00    -0.000 C 
BRANCH  11  12
ATOM     12  C   UNL     1     -13.579   4.913   5.524  1.00  0.00    -0.000 C 
BRANCH  12  13
ATOM     13  C   UNL     1     -12.163   4.334   5.368  1.00  0.00    -0.000 C 
BRANCH  13  14
ATOM     14  C   UNL     1     -11.752   3.451   6.559  1.00  0.00    -0.000 C 
BRANCH  14  15
ATOM     15  C   UNL     1     -12.476   3.856   7.860  1.00  0.00    -0.000 C 
BRANCH  15  16
ATOM     16  C   UNL     1     -11.613   3.688   9.122  1.00  0.00    -0.003 C 
ATOM     17  C   UNL     1     -10.375   4.583   9.125  1.00  0.00     0.004 C 
ENDBRANCH  15  16
ENDBRANCH  14  15
ENDBRANCH  13  14
ENDBRANCH  12  13
ENDBRANCH  11  12
ENDBRANCH  10  11
ENDBRANCH   1  10
TORSDOF 13
ENDMDL
