MODEL 1
REMARK VINA RESULT:    -6.163      0.000      0.000
REMARK INTER + INTRA:          -7.448
REMARK INTER:                  -7.244
REMARK INTRA:                  -0.204
REMARK UNBOUND:                -0.204
REMARK SMILES CCC=Cc1oc(O)c2ccc(O)cc12
REMARK SMILES IDX 7 1 6 2 5 3 15 4 14 5 12 6 11 7 10 8 9 9 8 10 4 12 3 13 2 14
REMARK SMILES IDX 1 15 13 16
REMARK H PARENT 8 11 13 17
REMARK Flexibility Score: inf
ROOT
ATOM      1  C   UNL     1     -13.374  25.562 -20.883  1.00  0.00     0.290 A 
ATOM      2  O   UNL     1     -14.676  25.742 -20.968  1.00  0.00    -0.425 OA
ATOM      3  C   UNL     1     -15.048  26.613 -20.046  1.00  0.00     0.138 A 
ATOM      4  C   UNL     1     -13.927  27.001 -19.317  1.00  0.00     0.035 A 
ATOM      5  C   UNL     1     -13.768  27.819 -18.195  1.00  0.00     0.059 A 
ATOM      6  C   UNL     1     -12.470  27.976 -17.669  1.00  0.00     0.116 A 
ATOM      7  C   UNL     1     -11.374  27.302 -18.260  1.00  0.00     0.047 A 
ATOM      8  C   UNL     1     -11.569  26.460 -19.369  1.00  0.00     0.020 A 
ATOM      9  C   UNL     1     -12.864  26.332 -19.865  1.00  0.00     0.067 A 
ENDROOT
BRANCH   1  10
ATOM     10  O   UNL     1     -12.642  24.711 -21.703  1.00  0.00    -0.480 OA
ATOM     11  H   UNL     1     -11.659  24.884 -21.873  1.00  0.00     0.297 HD
ENDBRANCH   1  10
BRANCH   3  12
ATOM     12  C   UNL     1     -16.447  27.038 -19.873  1.00  0.00     0.043 C 
ATOM     13  C   UNL     1     -17.112  27.732 -20.802  1.00  0.00    -0.023 C 
BRANCH  13  14
ATOM     14  C   UNL     1     -18.551  28.115 -20.613  1.00  0.00     0.024 C 
ATOM     15  C   UNL     1     -19.013  29.080 -21.702  1.00  0.00     0.008 C 
ENDBRANCH  13  14
ENDBRANCH   3  12
BRANCH   6  16
ATOM     16  O   UNL     1     -12.279  28.794 -16.557  1.00  0.00    -0.508 OA
ATOM     17  H   UNL     1     -11.680  28.511 -15.790  1.00  0.00     0.293 HD
ENDBRANCH   6  16
TORSDOF 4
ENDMDL
MODEL 2
REMARK VINA RESULT:    -5.470      8.597     12.473
REMARK INTER + INTRA:          -6.633
REMARK INTER:                  -6.436
REMARK INTRA:                  -0.198
REMARK UNBOUND:                -0.204
REMARK SMILES CCC=Cc1oc(O)c2ccc(O)cc12
REMARK SMILES IDX 7 1 6 2 5 3 15 4 14 5 12 6 11 7 10 8 9 9 8 10 4 12 3 13 2 14
REMARK SMILES IDX 1 15 13 16
REMARK H PARENT 8 11 13 17
REMARK Flexibility Score: inf
ROOT
ATOM      1  C   UNL     1     -26.337  26.676 -22.354  1.00  0.00     0.290 A 
ATOM      2  O   UNL     1     -25.115  27.156 -22.233  1.00  0.00    -0.425 OA
ATOM      3  C   UNL     1     -25.015  27.783 -21.074  1.00  0.00     0.138 A 
ATOM      4  C   UNL     1     -26.243  27.720 -20.422  1.00  0.00     0.035 A 
ATOM      5  C   UNL     1     -26.708  28.279 -19.229  1.00  0.00     0.059 A 
ATOM      6  C   UNL     1     -28.050  28.048 -18.867  1.00  0.00     0.116 A 
ATOM      7  C   UNL     1     -28.894  27.283 -19.709  1.00  0.00     0.047 A 
ATOM      8  C   UNL     1     -28.408  26.759 -20.920  1.00  0.00     0.020 A 
ATOM      9  C   UNL     1     -27.076  27.005 -21.243  1.00  0.00     0.067 A 
ENDROOT
BRANCH   1  10
ATOM     10  O   UNL     1     -26.795  25.958 -23.452  1.00  0.00    -0.480 OA
ATOM     11  H   UNL     1     -27.558  25.299 -23.351  1.00  0.00     0.297 HD
ENDBRANCH   1  10
BRANCH   3  12
ATOM     12  C   UNL     1     -23.772  28.434 -20.628  1.00  0.00     0.043 C 
ATOM     13  C   UNL     1     -23.085  29.285 -21.397  1.00  0.00    -0.023 C 
BRANCH  13  14
ATOM     14  C   UNL     1     -21.843  29.963 -20.899  1.00  0.00     0.024 C 
ATOM     15  C   UNL     1     -20.587  29.278 -21.431  1.00  0.00     0.008 C 
ENDBRANCH  13  14
ENDBRANCH   3  12
BRANCH   6  16
ATOM     16  O   UNL     1     -28.540  28.584 -17.678  1.00  0.00    -0.508 OA
ATOM     17  H   UNL     1     -28.569  28.039 -16.824  1.00  0.00     0.293 HD
ENDBRANCH   6  16
TORSDOF 4
ENDMDL
MODEL 3
REMARK VINA RESULT:    -5.454      8.717     11.006
REMARK INTER + INTRA:          -6.615
REMARK INTER:                  -6.432
REMARK INTRA:                  -0.182
REMARK UNBOUND:                -0.204
REMARK SMILES CCC=Cc1oc(O)c2ccc(O)cc12
REMARK SMILES IDX 7 1 6 2 5 3 15 4 14 5 12 6 11 7 10 8 9 9 8 10 4 12 3 13 2 14
REMARK SMILES IDX 1 15 13 16
REMARK H PARENT 8 11 13 17
REMARK Flexibility Score: inf
ROOT
ATOM      1  C   UNL     1     -14.276  23.800 -30.457  1.00  0.00     0.290 A 
ATOM      2  O   UNL     1     -14.312  24.437 -29.304  1.00  0.00    -0.425 OA
ATOM      3  C   UNL     1     -14.741  23.606 -28.370  1.00  0.00     0.138 A 
ATOM      4  C   UNL     1     -15.012  22.373 -28.956  1.00  0.00     0.035 A 
ATOM      5  C   UNL     1     -15.558  21.189 -28.454  1.00  0.00     0.059 A 
ATOM      6  C   UNL     1     -15.741  20.113 -29.346  1.00  0.00     0.116 A 
ATOM      7  C   UNL     1     -15.393  20.251 -30.712  1.00  0.00     0.047 A 
ATOM      8  C   UNL     1     -14.875  21.465 -31.196  1.00  0.00     0.020 A 
ATOM      9  C   UNL     1     -14.704  22.505 -30.285  1.00  0.00     0.067 A 
ENDROOT
BRANCH   1  10
ATOM     10  O   UNL     1     -13.872  24.370 -31.658  1.00  0.00    -0.480 OA
ATOM     11  H   UNL     1     -13.972  23.858 -32.527  1.00  0.00     0.297 HD
ENDBRANCH   1  10
BRANCH   3  12
ATOM     12  C   UNL     1     -14.894  24.005 -26.962  1.00  0.00     0.043 C 
ATOM     13  C   UNL     1     -14.260  25.058 -26.435  1.00  0.00    -0.023 C 
BRANCH  13  14
ATOM     14  C   UNL     1     -14.469  25.464 -25.006  1.00  0.00     0.024 C 
ATOM     15  C   UNL     1     -13.155  25.452 -24.229  1.00  0.00     0.008 C 
ENDBRANCH  13  14
ENDBRANCH   3  12
BRANCH   6  16
ATOM     16  O   UNL     1     -16.275  18.916 -28.872  1.00  0.00    -0.508 OA
ATOM     17  H   UNL     1     -15.687  18.206 -28.451  1.00  0.00     0.293 HD
ENDBRANCH   6  16
TORSDOF 4
ENDMDL
MODEL 4
REMARK VINA RESULT:    -5.396      8.142     12.021
REMARK INTER + INTRA:          -6.547
REMARK INTER:                  -6.286
REMARK INTRA:                  -0.261
REMARK UNBOUND:                -0.204
REMARK SMILES CCC=Cc1oc(O)c2ccc(O)cc12
REMARK SMILES IDX 7 1 6 2 5 3 15 4 14 5 12 6 11 7 10 8 9 9 8 10 4 12 3 13 2 14
REMARK SMILES IDX 1 15 13 16
REMARK H PARENT 8 11 13 17
REMARK Flexibility Score: inf
ROOT
ATOM      1  C   UNL     1     -25.669  28.807 -18.529  1.00  0.00     0.290 A 
ATOM      2  O   UNL     1     -24.430  29.147 -18.824  1.00  0.00    -0.425 OA
ATOM      3  C   UNL     1     -24.147  28.716 -20.040  1.00  0.00     0.138 A 
ATOM      4  C   UNL     1     -25.257  28.048 -20.550  1.00  0.00     0.035 A 
ATOM      5  C   UNL     1     -25.469  27.337 -21.735  1.00  0.00     0.059 A 
ATOM      6  C   UNL     1     -26.726  26.733 -21.929  1.00  0.00     0.116 A 
ATOM      7  C   UNL     1     -27.729  26.837 -20.934  1.00  0.00     0.047 A 
ATOM      8  C   UNL     1     -27.477  27.532 -19.737  1.00  0.00     0.020 A 
ATOM      9  C   UNL     1     -26.224  28.119 -19.582  1.00  0.00     0.067 A 
ENDROOT
BRANCH   1  10
ATOM     10  O   UNL     1     -26.301  29.100 -17.326  1.00  0.00    -0.480 OA
ATOM     11  H   UNL     1     -26.790  29.979 -17.205  1.00  0.00     0.297 HD
ENDBRANCH   1  10
BRANCH   3  12
ATOM     12  C   UNL     1     -22.837  28.935 -20.675  1.00  0.00     0.043 C 
ATOM     13  C   UNL     1     -22.617  29.910 -21.563  1.00  0.00    -0.023 C 
BRANCH  13  14
ATOM     14  C   UNL     1     -21.259  30.133 -22.161  1.00  0.00     0.024 C 
ATOM     15  C   UNL     1     -20.228  29.178 -21.566  1.00  0.00     0.008 C 
ENDBRANCH  13  14
ENDBRANCH   3  12
BRANCH   6  16
ATOM     16  O   UNL     1     -26.971  26.026 -23.105  1.00  0.00    -0.508 OA
ATOM     17  H   UNL     1     -27.395  25.106 -23.090  1.00  0.00     0.293 HD
ENDBRANCH   6  16
TORSDOF 4
ENDMDL
MODEL 5
REMARK VINA RESULT:    -5.343      9.658     12.073
REMARK INTER + INTRA:          -6.484
REMARK INTER:                  -6.254
REMARK INTRA:                  -0.230
REMARK UNBOUND:                -0.204
REMARK SMILES CCC=Cc1oc(O)c2ccc(O)cc12
REMARK SMILES IDX 7 1 6 2 5 3 15 4 14 5 12 6 11 7 10 8 9 9 8 10 4 12 3 13 2 14
REMARK SMILES IDX 1 15 13 16
REMARK H PARENT 8 11 13 17
REMARK Flexibility Score: inf
ROOT
ATOM      1  C   UNL     1     -23.571  28.671 -20.506  1.00  0.00     0.290 A 
ATOM      2  O   UNL     1     -23.762  29.171 -19.301  1.00  0.00    -0.425 OA
ATOM      3  C   UNL     1     -24.972  28.838 -18.888  1.00  0.00     0.138 A 
ATOM      4  C   UNL     1     -25.601  28.099 -19.887  1.00  0.00     0.035 A 
ATOM      5  C   UNL     1     -26.893  27.581 -20.006  1.00  0.00     0.059 A 
ATOM      6  C   UNL     1     -27.227  26.901 -21.193  1.00  0.00     0.116 A 
ATOM      7  C   UNL     1     -26.275  26.770 -22.233  1.00  0.00     0.047 A 
ATOM      8  C   UNL     1     -24.991  27.329 -22.099  1.00  0.00     0.020 A 
ATOM      9  C   UNL     1     -24.695  27.992 -20.910  1.00  0.00     0.067 A 
ENDROOT
BRANCH   1  10
ATOM     10  O   UNL     1     -22.405  28.826 -21.246  1.00  0.00    -0.480 OA
ATOM     11  H   UNL     1     -22.443  29.184 -22.193  1.00  0.00     0.297 HD
ENDBRANCH   1  10
BRANCH   3  12
ATOM     12  C   UNL     1     -25.500  29.240 -17.574  1.00  0.00     0.043 C 
ATOM     13  C   UNL     1     -25.362  28.487 -16.478  1.00  0.00    -0.023 C 
BRANCH  13  14
ATOM     14  C   UNL     1     -25.876  28.944 -15.144  1.00  0.00     0.024 C 
ATOM     15  C   UNL     1     -24.908  29.921 -14.483  1.00  0.00     0.008 C 
ENDBRANCH  13  14
ENDBRANCH   3  12
BRANCH   6  16
ATOM     16  O   UNL     1     -28.505  26.364 -21.336  1.00  0.00    -0.508 OA
ATOM     17  H   UNL     1     -28.926  26.238 -22.249  1.00  0.00     0.293 HD
ENDBRANCH   6  16
TORSDOF 4
ENDMDL
MODEL 6
REMARK VINA RESULT:    -5.283     10.823     13.001
REMARK INTER + INTRA:          -6.414
REMARK INTER:                  -6.202
REMARK INTRA:                  -0.212
REMARK UNBOUND:                -0.204
REMARK SMILES CCC=Cc1oc(O)c2ccc(O)cc12
REMARK SMILES IDX 7 1 6 2 5 3 15 4 14 5 12 6 11 7 10 8 9 9 8 10 4 12 3 13 2 14
REMARK SMILES IDX 1 15 13 16
REMARK H PARENT 8 11 13 17
REMARK Flexibility Score: inf
ROOT
ATOM      1  C   UNL     1     -25.401  27.400 -21.255  1.00  0.00     0.290 A 
ATOM      2  O   UNL     1     -26.529  26.865 -21.679  1.00  0.00    -0.425 OA
ATOM      3  C   UNL     1     -27.468  27.075 -20.772  1.00  0.00     0.138 A 
ATOM      4  C   UNL     1     -26.911  27.766 -19.700  1.00  0.00     0.035 A 
ATOM      5  C   UNL     1     -27.426  28.160 -18.462  1.00  0.00     0.059 A 
ATOM      6  C   UNL     1     -26.563  28.824 -17.568  1.00  0.00     0.116 A 
ATOM      7  C   UNL     1     -25.213  29.061 -17.921  1.00  0.00     0.047 A 
ATOM      8  C   UNL     1     -24.713  28.625 -19.162  1.00  0.00     0.020 A 
ATOM      9  C   UNL     1     -25.596  27.975 -20.022  1.00  0.00     0.067 A 
ENDROOT
BRANCH   1  10
ATOM     10  O   UNL     1     -24.203  27.369 -21.958  1.00  0.00    -0.480 OA
ATOM     11  H   UNL     1     -23.341  27.114 -21.489  1.00  0.00     0.297 HD
ENDBRANCH   1  10
BRANCH   3  12
ATOM     12  C   UNL     1     -28.853  26.604 -20.941  1.00  0.00     0.043 C 
ATOM     13  C   UNL     1     -29.712  27.175 -21.791  1.00  0.00    -0.023 C 
BRANCH  13  14
ATOM     14  C   UNL     1     -31.105  26.646 -21.970  1.00  0.00     0.024 C 
ATOM     15  C   UNL     1     -31.125  25.447 -22.914  1.00  0.00     0.008 C 
ENDBRANCH  13  14
ENDBRANCH   3  12
BRANCH   6  16
ATOM     16  O   UNL     1     -27.051  29.239 -16.329  1.00  0.00    -0.508 OA
ATOM     17  H   UNL     1     -27.417  30.173 -16.192  1.00  0.00     0.293 HD
ENDBRANCH   6  16
TORSDOF 4
ENDMDL
MODEL 7
REMARK VINA RESULT:    -5.223      9.976     12.763
REMARK INTER + INTRA:          -6.344
REMARK INTER:                  -6.110
REMARK INTRA:                  -0.234
REMARK UNBOUND:                -0.204
REMARK SMILES CCC=Cc1oc(O)c2ccc(O)cc12
REMARK SMILES IDX 7 1 6 2 5 3 15 4 14 5 12 6 11 7 10 8 9 9 8 10 4 12 3 13 2 14
REMARK SMILES IDX 1 15 13 16
REMARK H PARENT 8 11 13 17
REMARK Flexibility Score: inf
ROOT
ATOM      1  C   UNL     1     -24.036  28.221 -20.242  1.00  0.00     0.290 A 
ATOM      2  O   UNL     1     -24.411  28.680 -19.065  1.00  0.00    -0.425 OA
ATOM      3  C   UNL     1     -25.704  28.452 -18.910  1.00  0.00     0.138 A 
ATOM      4  C   UNL     1     -26.191  27.829 -20.056  1.00  0.00     0.035 A 
ATOM      5  C   UNL     1     -27.477  27.451 -20.450  1.00  0.00     0.059 A 
ATOM      6  C   UNL     1     -27.634  26.865 -21.722  1.00  0.00     0.116 A 
ATOM      7  C   UNL     1     -26.514  26.688 -22.570  1.00  0.00     0.047 A 
ATOM      8  C   UNL     1     -25.236  27.107 -22.159  1.00  0.00     0.020 A 
ATOM      9  C   UNL     1     -25.118  27.679 -20.895  1.00  0.00     0.067 A 
ENDROOT
BRANCH   1  10
ATOM     10  O   UNL     1     -22.740  28.292 -20.737  1.00  0.00    -0.480 OA
ATOM     11  H   UNL     1     -22.413  27.615 -21.417  1.00  0.00     0.297 HD
ENDBRANCH   1  10
BRANCH   3  12
ATOM     12  C   UNL     1     -26.439  28.843 -17.696  1.00  0.00     0.043 C 
ATOM     13  C   UNL     1     -27.388  29.784 -17.695  1.00  0.00    -0.023 C 
BRANCH  13  14
ATOM     14  C   UNL     1     -28.147  30.131 -16.449  1.00  0.00     0.024 C 
ATOM     15  C   UNL     1     -29.572  29.586 -16.499  1.00  0.00     0.008 C 
ENDBRANCH  13  14
ENDBRANCH   3  12
BRANCH   6  16
ATOM     16  O   UNL     1     -28.903  26.468 -22.139  1.00  0.00    -0.508 OA
ATOM     17  H   UNL     1     -29.091  25.515 -22.428  1.00  0.00     0.293 HD
ENDBRANCH   6  16
TORSDOF 4
ENDMDL
MODEL 8
REMARK VINA RESULT:    -5.198     11.130     14.205
REMARK INTER + INTRA:          -6.314
REMARK INTER:                  -6.073
REMARK INTRA:                  -0.241
REMARK UNBOUND:                -0.204
REMARK SMILES CCC=Cc1oc(O)c2ccc(O)cc12
REMARK SMILES IDX 7 1 6 2 5 3 15 4 14 5 12 6 11 7 10 8 9 9 8 10 4 12 3 13 2 14
REMARK SMILES IDX 1 15 13 16
REMARK H PARENT 8 11 13 17
REMARK Flexibility Score: inf
ROOT
ATOM      1  C   UNL     1     -28.705  28.364 -18.672  1.00  0.00     0.290 A 
ATOM      2  O   UNL     1     -29.685  27.860 -19.395  1.00  0.00    -0.425 OA
ATOM      3  C   UNL     1     -29.168  27.247 -20.446  1.00  0.00     0.138 A 
ATOM      4  C   UNL     1     -27.783  27.378 -20.406  1.00  0.00     0.035 A 
ATOM      5  C   UNL     1     -26.773  27.001 -21.296  1.00  0.00     0.059 A 
ATOM      6  C   UNL     1     -25.443  27.327 -20.965  1.00  0.00     0.116 A 
ATOM      7  C   UNL     1     -25.157  28.032 -19.770  1.00  0.00     0.047 A 
ATOM      8  C   UNL     1     -26.196  28.427 -18.909  1.00  0.00     0.020 A 
ATOM      9  C   UNL     1     -27.498  28.084 -19.267  1.00  0.00     0.067 A 
ENDROOT
BRANCH   1  10
ATOM     10  O   UNL     1     -28.884  29.076 -17.492  1.00  0.00    -0.480 OA
ATOM     11  H   UNL     1     -29.624  29.764 -17.417  1.00  0.00     0.297 HD
ENDBRANCH   1  10
BRANCH   3  12
ATOM     12  C   UNL     1     -29.997  26.573 -21.458  1.00  0.00     0.043 C 
ATOM     13  C   UNL     1     -30.209  27.082 -22.676  1.00  0.00    -0.023 C 
BRANCH  13  14
ATOM     14  C   UNL     1     -31.027  26.351 -23.700  1.00  0.00     0.024 C 
ATOM     15  C   UNL     1     -30.909  27.008 -25.073  1.00  0.00     0.008 C 
ENDBRANCH  13  14
ENDBRANCH   3  12
BRANCH   6  16
ATOM     16  O   UNL     1     -24.414  26.956 -21.828  1.00  0.00    -0.508 OA
ATOM     17  H   UNL     1     -24.560  26.272 -22.561  1.00  0.00     0.293 HD
ENDBRANCH   6  16
TORSDOF 4
ENDMDL
MODEL 9
REMARK VINA RESULT:    -5.119      5.481      8.180
REMARK INTER + INTRA:          -6.221
REMARK INTER:                  -5.987
REMARK INTRA:                  -0.234
REMARK UNBOUND:                -0.204
REMARK SMILES CCC=Cc1oc(O)c2ccc(O)cc12
REMARK SMILES IDX 7 1 6 2 5 3 15 4 14 5 12 6 11 7 10 8 9 9 8 10 4 12 3 13 2 14
REMARK SMILES IDX 1 15 13 16
REMARK H PARENT 8 11 13 17
REMARK Flexibility Score: inf
ROOT
ATOM      1  C   UNL     1     -21.201  31.948 -20.294  1.00  0.00     0.290 A 
ATOM      2  O   UNL     1     -22.320  31.273 -20.464  1.00  0.00    -0.425 OA
ATOM      3  C   UNL     1     -22.024  30.050 -20.867  1.00  0.00     0.138 A 
ATOM      4  C   UNL     1     -20.641  29.936 -20.980  1.00  0.00     0.035 A 
ATOM      5  C   UNL     1     -19.813  28.908 -21.439  1.00  0.00     0.059 A 
ATOM      6  C   UNL     1     -18.423  29.137 -21.460  1.00  0.00     0.116 A 
ATOM      7  C   UNL     1     -17.899  30.384 -21.042  1.00  0.00     0.047 A 
ATOM      8  C   UNL     1     -18.758  31.412 -20.615  1.00  0.00     0.020 A 
ATOM      9  C   UNL     1     -20.126  31.149 -20.604  1.00  0.00     0.067 A 
ENDROOT
BRANCH   1  10
ATOM     10  O   UNL     1     -21.136  33.271 -19.873  1.00  0.00    -0.480 OA
ATOM     11  H   UNL     1     -21.841  33.936 -20.166  1.00  0.00     0.297 HD
ENDBRANCH   1  10
BRANCH   3  12
ATOM     12  C   UNL     1     -23.054  29.035 -21.146  1.00  0.00     0.043 C 
ATOM     13  C   UNL     1     -23.814  28.493 -20.190  1.00  0.00    -0.023 C 
BRANCH  13  14
ATOM     14  C   UNL     1     -24.883  27.491 -20.512  1.00  0.00     0.024 C 
ATOM     15  C   UNL     1     -25.042  27.317 -22.020  1.00  0.00     0.008 C 
ENDBRANCH  13  14
ENDBRANCH   3  12
BRANCH   6  16
ATOM     16  O   UNL     1     -17.571  28.127 -21.903  1.00  0.00    -0.508 OA
ATOM     17  H   UNL     1     -16.568  28.262 -21.943  1.00  0.00     0.293 HD
ENDBRANCH   6  16
TORSDOF 4
ENDMDL
