MODEL 1
REMARK VINA RESULT:    -4.032      0.000      0.000
REMARK INTER + INTRA:          -9.453
REMARK INTER:                  -7.331
REMARK INTRA:                  -2.122
REMARK UNBOUND:                -2.122
REMARK SMILES CCCCCCCCCCCCCC[C@@H](C)C(=O)[O-]
REMARK SMILES IDX 9 1 10 2 11 3 12 4 13 5 14 6 15 7 16 8 17 9 18 10 19 11 8 12
REMARK SMILES IDX 7 13 6 14 5 15 4 16 3 17 2 18 1 19
REMARK H PARENT
REMARK Flexibility Score: inf
ROOT
ATOM      1  C   UNL     1     -16.376   5.006  29.934  1.00  0.00     0.000 C 
ENDROOT
BRANCH   1   2
ATOM      2  C   UNL     1     -16.197   6.409  30.541  1.00  0.00     0.000 C 
BRANCH   2   3
ATOM      3  C   UNL     1     -15.226   7.287  29.739  1.00  0.00     0.000 C 
BRANCH   3   4
ATOM      4  C   UNL     1     -14.255   6.426  28.921  1.00  0.00     0.000 C 
BRANCH   4   5
ATOM      5  C   UNL     1     -13.006   6.073  29.743  1.00  0.00     0.001 C 
BRANCH   5   6
ATOM      6  C   UNL     1     -12.646   4.577  29.673  1.00  0.00     0.009 C 
BRANCH   6   7
ATOM      7  C   UNL     1     -12.155   3.980  31.011  1.00  0.00     0.032 C 
ATOM      8  C   UNL     1     -12.847   2.640  31.285  1.00  0.00     0.014 C 
BRANCH   7   9
ATOM      9  C   UNL     1     -10.662   3.791  31.013  1.00  0.00     0.044 C 
ATOM     10  O   UNL     1      -9.940   4.460  30.227  1.00  0.00    -0.550 OA
ATOM     11  O   UNL     1     -10.072   2.870  31.870  1.00  0.00    -0.550 OA
ENDBRANCH   7   9
ENDBRANCH   6   7
ENDBRANCH   5   6
ENDBRANCH   4   5
ENDBRANCH   3   4
ENDBRANCH   2   3
ENDBRANCH   1   2
BRANCH   1  12
ATOM     12  C   UNL     1     -16.595   3.877  30.961  1.00  0.00     0.000 C 
BRANCH  12  13
ATOM     13  C   UNL     1     -15.947   4.116  32.337  1.00  0.00    -0.000 C 
BRANCH  13  14
ATOM     14  C   UNL     1     -16.753   3.520  33.512  1.00  0.00    -0.000 C 
BRANCH  14  15
ATOM     15  C   UNL     1     -15.947   2.480  34.309  1.00  0.00    -0.000 C 
BRANCH  15  16
ATOM     16  C   UNL     1     -16.653   1.117  34.383  1.00  0.00    -0.000 C 
BRANCH  16  17
ATOM     17  C   UNL     1     -16.917   0.514  32.991  1.00  0.00    -0.000 C 
BRANCH  17  18
ATOM     18  C   UNL     1     -15.620   0.197  32.233  1.00  0.00    -0.003 C 
ATOM     19  C   UNL     1     -15.803   0.228  30.715  1.00  0.00     0.004 C 
ENDBRANCH  17  18
ENDBRANCH  16  17
ENDBRANCH  15  16
ENDBRANCH  14  15
ENDBRANCH  13  14
ENDBRANCH  12  13
ENDBRANCH   1  12
TORSDOF 14
ENDMDL
MODEL 2
REMARK VINA RESULT:    -3.923      1.405      2.850
REMARK INTER + INTRA:          -9.256
REMARK INTER:                  -7.817
REMARK INTRA:                  -1.439
REMARK UNBOUND:                -2.122
REMARK SMILES CCCCCCCCCCCCCC[C@@H](C)C(=O)[O-]
REMARK SMILES IDX 9 1 10 2 11 3 12 4 13 5 14 6 15 7 16 8 17 9 18 10 19 11 8 12
REMARK SMILES IDX 7 13 6 14 5 15 4 16 3 17 2 18 1 19
REMARK H PARENT
REMARK Flexibility Score: inf
ROOT
ATOM      1  C   UNL     1     -14.216   6.688  29.438  1.00  0.00     0.000 C 
ENDROOT
BRANCH   1   2
ATOM      2  C   UNL     1     -13.554   7.320  28.201  1.00  0.00     0.000 C 
BRANCH   2   3
ATOM      3  C   UNL     1     -12.058   6.988  28.089  1.00  0.00     0.000 C 
BRANCH   3   4
ATOM      4  C   UNL     1     -11.227   7.880  29.021  1.00  0.00     0.000 C 
BRANCH   4   5
ATOM      5  C   UNL     1     -10.357   7.032  29.962  1.00  0.00     0.001 C 
BRANCH   5   6
ATOM      6  C   UNL     1     -10.681   5.528  29.882  1.00  0.00     0.009 C 
BRANCH   6   7
ATOM      7  C   UNL     1     -10.987   4.873  31.249  1.00  0.00     0.032 C 
ATOM      8  C   UNL     1     -12.347   4.168  31.211  1.00  0.00     0.014 C 
BRANCH   7   9
ATOM      9  C   UNL     1      -9.916   3.892  31.638  1.00  0.00     0.044 C 
ATOM     10  O   UNL     1     -10.151   2.654  31.610  1.00  0.00    -0.550 OA
ATOM     11  O   UNL     1      -8.664   4.342  32.043  1.00  0.00    -0.550 OA
ENDBRANCH   7   9
ENDBRANCH   6   7
ENDBRANCH   5   6
ENDBRANCH   4   5
ENDBRANCH   3   4
ENDBRANCH   2   3
ENDBRANCH   1   2
BRANCH   1  12
ATOM     12  C   UNL     1     -15.545   7.339  29.868  1.00  0.00     0.000 C 
BRANCH  12  13
ATOM     13  C   UNL     1     -16.388   6.508  30.853  1.00  0.00    -0.000 C 
BRANCH  13  14
ATOM     14  C   UNL     1     -16.283   4.985  30.624  1.00  0.00    -0.000 C 
BRANCH  14  15
ATOM     15  C   UNL     1     -16.914   4.175  31.771  1.00  0.00    -0.000 C 
BRANCH  15  16
ATOM     16  C   UNL     1     -16.094   2.926  32.132  1.00  0.00    -0.000 C 
BRANCH  16  17
ATOM     17  C   UNL     1     -15.487   3.007  33.544  1.00  0.00    -0.000 C 
BRANCH  17  18
ATOM     18  C   UNL     1     -16.133   2.012  34.519  1.00  0.00    -0.003 C 
ATOM     19  C   UNL     1     -17.064   1.022  33.818  1.00  0.00     0.004 C 
ENDBRANCH  17  18
ENDBRANCH  16  17
ENDBRANCH  15  16
ENDBRANCH  14  15
ENDBRANCH  13  14
ENDBRANCH  12  13
ENDBRANCH   1  12
TORSDOF 14
ENDMDL
MODEL 3
REMARK VINA RESULT:    -3.907      1.915      3.557
REMARK INTER + INTRA:          -9.227
REMARK INTER:                  -7.955
REMARK INTRA:                  -1.272
REMARK UNBOUND:                -2.122
REMARK SMILES CCCCCCCCCCCCCC[C@@H](C)C(=O)[O-]
REMARK SMILES IDX 9 1 10 2 11 3 12 4 13 5 14 6 15 7 16 8 17 9 18 10 19 11 8 12
REMARK SMILES IDX 7 13 6 14 5 15 4 16 3 17 2 18 1 19
REMARK H PARENT
REMARK Flexibility Score: inf
ROOT
ATOM      1  C   UNL     1     -14.307   6.029  29.056  1.00  0.00     0.000 C 
ENDROOT
BRANCH   1   2
ATOM      2  C   UNL     1     -12.950   5.655  29.679  1.00  0.00     0.000 C 
BRANCH   2   3
ATOM      3  C   UNL     1     -12.850   4.166  30.042  1.00  0.00     0.000 C 
BRANCH   3   4
ATOM      4  C   UNL     1     -11.950   3.959  31.267  1.00  0.00     0.000 C 
BRANCH   4   5
ATOM      5  C   UNL     1     -10.816   4.995  31.297  1.00  0.00     0.001 C 
BRANCH   5   6
ATOM      6  C   UNL     1      -9.440   4.385  30.967  1.00  0.00     0.009 C 
BRANCH   6   7
ATOM      7  C   UNL     1      -8.543   4.140  32.202  1.00  0.00     0.032 C 
ATOM      8  C   UNL     1      -8.291   2.640  32.390  1.00  0.00     0.014 C 
BRANCH   7   9
ATOM      9  C   UNL     1      -7.230   4.865  32.078  1.00  0.00     0.044 C 
ATOM     10  O   UNL     1      -6.907   5.406  30.988  1.00  0.00    -0.550 OA
ATOM     11  O   UNL     1      -6.361   4.932  33.161  1.00  0.00    -0.550 OA
ENDBRANCH   7   9
ENDBRANCH   6   7
ENDBRANCH   5   6
ENDBRANCH   4   5
ENDBRANCH   3   4
ENDBRANCH   2   3
ENDBRANCH   1   2
BRANCH   1  12
ATOM     12  C   UNL     1     -15.073   7.147  29.789  1.00  0.00     0.000 C 
BRANCH  12  13
ATOM     13  C   UNL     1     -16.261   6.668  30.643  1.00  0.00    -0.000 C 
BRANCH  13  14
ATOM     14  C   UNL     1     -16.422   5.133  30.675  1.00  0.00    -0.000 C 
BRANCH  14  15
ATOM     15  C   UNL     1     -16.667   4.599  32.097  1.00  0.00    -0.000 C 
BRANCH  15  16
ATOM     16  C   UNL     1     -15.482   3.781  32.633  1.00  0.00    -0.000 C 
BRANCH  16  17
ATOM     17  C   UNL     1     -15.820   2.287  32.792  1.00  0.00    -0.000 C 
BRANCH  17  18
ATOM     18  C   UNL     1     -16.789   2.025  33.954  1.00  0.00    -0.003 C 
ATOM     19  C   UNL     1     -16.123   1.298  35.123  1.00  0.00     0.004 C 
ENDBRANCH  17  18
ENDBRANCH  16  17
ENDBRANCH  15  16
ENDBRANCH  14  15
ENDBRANCH  13  14
ENDBRANCH  12  13
ENDBRANCH   1  12
TORSDOF 14
ENDMDL
MODEL 4
REMARK VINA RESULT:    -3.861      1.927      3.272
REMARK INTER + INTRA:          -9.142
REMARK INTER:                  -7.604
REMARK INTRA:                  -1.538
REMARK UNBOUND:                -2.122
REMARK SMILES CCCCCCCCCCCCCC[C@@H](C)C(=O)[O-]
REMARK SMILES IDX 9 1 10 2 11 3 12 4 13 5 14 6 15 7 16 8 17 9 18 10 19 11 8 12
REMARK SMILES IDX 7 13 6 14 5 15 4 16 3 17 2 18 1 19
REMARK H PARENT
REMARK Flexibility Score: inf
ROOT
ATOM      1  C   UNL     1     -15.524   4.291  32.229  1.00  0.00     0.000 C 
ENDROOT
BRANCH   1   2
ATOM      2  C   UNL     1     -16.392   3.987  30.995  1.00  0.00     0.000 C 
BRANCH   2   3
ATOM      3  C   UNL     1     -16.414   5.141  29.981  1.00  0.00     0.000 C 
BRANCH   3   4
ATOM      4  C   UNL     1     -16.224   6.492  30.683  1.00  0.00     0.000 C 
BRANCH   4   5
ATOM      5  C   UNL     1     -15.368   7.439  29.829  1.00  0.00     0.001 C 
BRANCH   5   6
ATOM      6  C   UNL     1     -14.463   6.690  28.831  1.00  0.00     0.009 C 
BRANCH   6   7
ATOM      7  C   UNL     1     -13.181   7.460  28.438  1.00  0.00     0.032 C 
ATOM      8  C   UNL     1     -13.360   8.961  28.692  1.00  0.00     0.014 C 
BRANCH   7   9
ATOM      9  C   UNL     1     -11.984   6.955  29.197  1.00  0.00     0.044 C 
ATOM     10  O   UNL     1     -12.092   5.955  29.954  1.00  0.00    -0.550 OA
ATOM     11  O   UNL     1     -10.756   7.596  29.078  1.00  0.00    -0.550 OA
ENDBRANCH   7   9
ENDBRANCH   6   7
ENDBRANCH   5   6
ENDBRANCH   4   5
ENDBRANCH   3   4
ENDBRANCH   2   3
ENDBRANCH   1   2
BRANCH   1  12
ATOM     12  C   UNL     1     -15.097   3.056  33.045  1.00  0.00     0.000 C 
BRANCH  12  13
ATOM     13  C   UNL     1     -15.935   2.790  34.309  1.00  0.00    -0.000 C 
BRANCH  13  14
ATOM     14  C   UNL     1     -16.256   1.297  34.537  1.00  0.00    -0.000 C 
BRANCH  14  15
ATOM     15  C   UNL     1     -17.121   0.705  33.411  1.00  0.00    -0.000 C 
BRANCH  15  16
ATOM     16  C   UNL     1     -16.308  -0.162  32.436  1.00  0.00    -0.000 C 
BRANCH  16  17
ATOM     17  C   UNL     1     -16.469   0.289  30.973  1.00  0.00    -0.000 C 
BRANCH  17  18
ATOM     18  C   UNL     1     -15.208   0.030  30.136  1.00  0.00    -0.003 C 
ATOM     19  C   UNL     1     -13.920   0.331  30.904  1.00  0.00     0.004 C 
ENDBRANCH  17  18
ENDBRANCH  16  17
ENDBRANCH  15  16
ENDBRANCH  14  15
ENDBRANCH  13  14
ENDBRANCH  12  13
ENDBRANCH   1  12
TORSDOF 14
ENDMDL
MODEL 5
REMARK VINA RESULT:    -3.833      2.951      4.875
REMARK INTER + INTRA:          -9.093
REMARK INTER:                  -7.929
REMARK INTRA:                  -1.163
REMARK UNBOUND:                -2.122
REMARK SMILES CCCCCCCCCCCCCC[C@@H](C)C(=O)[O-]
REMARK SMILES IDX 9 1 10 2 11 3 12 4 13 5 14 6 15 7 16 8 17 9 18 10 19 11 8 12
REMARK SMILES IDX 7 13 6 14 5 15 4 16 3 17 2 18 1 19
REMARK H PARENT
REMARK Flexibility Score: inf
ROOT
ATOM      1  C   UNL     1     -12.283   7.571  28.546  1.00  0.00     0.000 C 
ENDROOT
BRANCH   1   2
ATOM      2  C   UNL     1     -10.827   7.936  28.886  1.00  0.00     0.000 C 
BRANCH   2   3
ATOM      3  C   UNL     1     -10.193   6.976  29.904  1.00  0.00     0.000 C 
BRANCH   3   4
ATOM      4  C   UNL     1     -11.234   5.991  30.452  1.00  0.00     0.000 C 
BRANCH   4   5
ATOM      5  C   UNL     1     -10.563   4.896  31.296  1.00  0.00     0.001 C 
BRANCH   5   6
ATOM      6  C   UNL     1      -9.026   4.919  31.192  1.00  0.00     0.009 C 
BRANCH   6   7
ATOM      7  C   UNL     1      -8.304   4.163  32.331  1.00  0.00     0.032 C 
ATOM      8  C   UNL     1      -8.498   2.651  32.176  1.00  0.00     0.014 C 
BRANCH   7   9
ATOM      9  C   UNL     1      -6.835   4.487  32.359  1.00  0.00     0.044 C 
ATOM     10  O   UNL     1      -6.088   4.118  31.415  1.00  0.00    -0.550 OA
ATOM     11  O   UNL     1      -6.290   5.184  33.431  1.00  0.00    -0.550 OA
ENDBRANCH   7   9
ENDBRANCH   6   7
ENDBRANCH   5   6
ENDBRANCH   4   5
ENDBRANCH   3   4
ENDBRANCH   2   3
ENDBRANCH   1   2
BRANCH   1  12
ATOM     12  C   UNL     1     -13.217   8.774  28.313  1.00  0.00     0.000 C 
BRANCH  12  13
ATOM     13  C   UNL     1     -14.625   8.630  28.921  1.00  0.00    -0.000 C 
BRANCH  13  14
ATOM     14  C   UNL     1     -14.937   7.207  29.430  1.00  0.00    -0.000 C 
BRANCH  14  15
ATOM     15  C   UNL     1     -16.091   7.188  30.447  1.00  0.00    -0.000 C 
BRANCH  15  16
ATOM     16  C   UNL     1     -16.307   5.799  31.070  1.00  0.00    -0.000 C 
BRANCH  16  17
ATOM     17  C   UNL     1     -15.281   4.765  30.572  1.00  0.00    -0.000 C 
BRANCH  17  18
ATOM     18  C   UNL     1     -15.942   3.466  30.090  1.00  0.00    -0.003 C 
ATOM     19  C   UNL     1     -16.924   3.697  28.941  1.00  0.00     0.004 C 
ENDBRANCH  17  18
ENDBRANCH  16  17
ENDBRANCH  15  16
ENDBRANCH  14  15
ENDBRANCH  13  14
ENDBRANCH  12  13
ENDBRANCH   1  12
TORSDOF 14
ENDMDL
MODEL 6
REMARK VINA RESULT:    -3.812      2.117      3.391
REMARK INTER + INTRA:          -9.054
REMARK INTER:                  -6.846
REMARK INTRA:                  -2.208
REMARK UNBOUND:                -2.122
REMARK SMILES CCCCCCCCCCCCCC[C@@H](C)C(=O)[O-]
REMARK SMILES IDX 9 1 10 2 11 3 12 4 13 5 14 6 15 7 16 8 17 9 18 10 19 11 8 12
REMARK SMILES IDX 7 13 6 14 5 15 4 16 3 17 2 18 1 19
REMARK H PARENT
REMARK Flexibility Score: inf
ROOT
ATOM      1  C   UNL     1     -14.298   6.568  28.964  1.00  0.00     0.000 C 
ENDROOT
BRANCH   1   2
ATOM      2  C   UNL     1     -12.834   6.992  28.748  1.00  0.00     0.000 C 
BRANCH   2   3
ATOM      3  C   UNL     1     -11.829   5.983  29.324  1.00  0.00     0.000 C 
BRANCH   3   4
ATOM      4  C   UNL     1     -10.473   6.649  29.590  1.00  0.00     0.000 C 
BRANCH   4   5
ATOM      5  C   UNL     1      -9.612   5.787  30.525  1.00  0.00     0.001 C 
BRANCH   5   6
ATOM      6  C   UNL     1     -10.449   4.836  31.402  1.00  0.00     0.009 C 
BRANCH   6   7
ATOM      7  C   UNL     1     -10.027   3.352  31.308  1.00  0.00     0.032 C 
ATOM      8  C   UNL     1      -9.916   2.920  29.842  1.00  0.00     0.014 C 
BRANCH   7   9
ATOM      9  C   UNL     1      -8.720   3.108  32.011  1.00  0.00     0.044 C 
ATOM     10  O   UNL     1      -8.413   3.784  33.028  1.00  0.00    -0.550 OA
ATOM     11  O   UNL     1      -7.838   2.143  31.538  1.00  0.00    -0.550 OA
ENDBRANCH   7   9
ENDBRANCH   6   7
ENDBRANCH   5   6
ENDBRANCH   4   5
ENDBRANCH   3   4
ENDBRANCH   2   3
ENDBRANCH   1   2
BRANCH   1  12
ATOM     12  C   UNL     1     -15.144   7.550  29.797  1.00  0.00     0.000 C 
BRANCH  12  13
ATOM     13  C   UNL     1     -16.307   6.908  30.576  1.00  0.00    -0.000 C 
BRANCH  13  14
ATOM     14  C   UNL     1     -16.279   5.364  30.568  1.00  0.00    -0.000 C 
BRANCH  14  15
ATOM     15  C   UNL     1     -16.544   4.767  31.961  1.00  0.00    -0.000 C 
BRANCH  15  16
ATOM     16  C   UNL     1     -15.431   3.808  32.413  1.00  0.00    -0.000 C 
BRANCH  16  17
ATOM     17  C   UNL     1     -14.136   3.984  31.601  1.00  0.00    -0.000 C 
BRANCH  17  18
ATOM     18  C   UNL     1     -13.688   2.683  30.919  1.00  0.00    -0.003 C 
ATOM     19  C   UNL     1     -13.647   2.800  29.395  1.00  0.00     0.004 C 
ENDBRANCH  17  18
ENDBRANCH  16  17
ENDBRANCH  15  16
ENDBRANCH  14  15
ENDBRANCH  13  14
ENDBRANCH  12  13
ENDBRANCH   1  12
TORSDOF 14
ENDMDL
MODEL 7
REMARK VINA RESULT:    -3.770      2.678      6.297
REMARK INTER + INTRA:          -8.977
REMARK INTER:                  -7.915
REMARK INTRA:                  -1.062
REMARK UNBOUND:                -2.122
REMARK SMILES CCCCCCCCCCCCCC[C@@H](C)C(=O)[O-]
REMARK SMILES IDX 9 1 10 2 11 3 12 4 13 5 14 6 15 7 16 8 17 9 18 10 19 11 8 12
REMARK SMILES IDX 7 13 6 14 5 15 4 16 3 17 2 18 1 19
REMARK H PARENT
REMARK Flexibility Score: inf
ROOT
ATOM      1  C   UNL     1     -14.487   7.240  29.102  1.00  0.00     0.000 C 
ENDROOT
BRANCH   1   2
ATOM      2  C   UNL     1     -15.642   7.167  30.118  1.00  0.00     0.000 C 
BRANCH   2   3
ATOM      3  C   UNL     1     -16.272   5.769  30.206  1.00  0.00     0.000 C 
BRANCH   3   4
ATOM      4  C   UNL     1     -16.731   5.463  31.637  1.00  0.00     0.000 C 
BRANCH   4   5
ATOM      5  C   UNL     1     -16.005   4.228  32.194  1.00  0.00     0.001 C 
BRANCH   5   6
ATOM      6  C   UNL     1     -16.895   3.381  33.124  1.00  0.00     0.009 C 
BRANCH   6   7
ATOM      7  C   UNL     1     -17.125   1.933  32.633  1.00  0.00     0.032 C 
ATOM      8  C   UNL     1     -17.047   1.868  31.104  1.00  0.00     0.014 C 
BRANCH   7   9
ATOM      9  C   UNL     1     -16.124   0.984  33.234  1.00  0.00     0.044 C 
ATOM     10  O   UNL     1     -15.389   0.285  32.488  1.00  0.00    -0.550 OA
ATOM     11  O   UNL     1     -16.011   0.864  34.614  1.00  0.00    -0.550 OA
ENDBRANCH   7   9
ENDBRANCH   6   7
ENDBRANCH   5   6
ENDBRANCH   4   5
ENDBRANCH   3   4
ENDBRANCH   2   3
ENDBRANCH   1   2
BRANCH   1  12
ATOM     12  C   UNL     1     -14.127   8.662  28.628  1.00  0.00     0.000 C 
BRANCH  12  13
ATOM     13  C   UNL     1     -12.633   8.890  28.335  1.00  0.00    -0.000 C 
BRANCH  13  14
ATOM     14  C   UNL     1     -11.765   7.628  28.526  1.00  0.00    -0.000 C 
BRANCH  14  15
ATOM     15  C   UNL     1     -10.522   7.897  29.393  1.00  0.00    -0.000 C 
BRANCH  15  16
ATOM     16  C   UNL     1     -10.253   6.770  30.403  1.00  0.00    -0.000 C 
BRANCH  16  17
ATOM     17  C   UNL     1     -11.366   5.707  30.411  1.00  0.00    -0.000 C 
BRANCH  17  18
ATOM     18  C   UNL     1     -11.007   4.485  31.269  1.00  0.00    -0.003 C 
ATOM     19  C   UNL     1      -9.499   4.244  31.347  1.00  0.00     0.004 C 
ENDBRANCH  17  18
ENDBRANCH  16  17
ENDBRANCH  15  16
ENDBRANCH  14  15
ENDBRANCH  13  14
ENDBRANCH  12  13
ENDBRANCH   1  12
TORSDOF 14
ENDMDL
MODEL 8
REMARK VINA RESULT:    -3.748     19.885     22.163
REMARK INTER + INTRA:          -8.936
REMARK INTER:                  -6.566
REMARK INTRA:                  -2.371
REMARK UNBOUND:                -2.122
REMARK SMILES CCCCCCCCCCCCCC[C@@H](C)C(=O)[O-]
REMARK SMILES IDX 9 1 10 2 11 3 12 4 13 5 14 6 15 7 16 8 17 9 18 10 19 11 8 12
REMARK SMILES IDX 7 13 6 14 5 15 4 16 3 17 2 18 1 19
REMARK H PARENT
REMARK Flexibility Score: inf
ROOT
ATOM      1  C   UNL     1      -0.600  -8.975  17.760  1.00  0.00     0.000 C 
ENDROOT
BRANCH   1   2
ATOM      2  C   UNL     1       0.238  -7.813  17.197  1.00  0.00     0.000 C 
BRANCH   2   3
ATOM      3  C   UNL     1       0.541  -6.732  18.246  1.00  0.00     0.000 C 
BRANCH   3   4
ATOM      4  C   UNL     1      -0.752  -6.081  18.753  1.00  0.00     0.000 C 
BRANCH   4   5
ATOM      5  C   UNL     1      -0.490  -4.650  19.247  1.00  0.00     0.001 C 
BRANCH   5   6
ATOM      6  C   UNL     1       0.934  -4.461  19.804  1.00  0.00     0.009 C 
BRANCH   6   7
ATOM      7  C   UNL     1       1.408  -2.990  19.847  1.00  0.00     0.032 C 
ATOM      8  C   UNL     1       0.258  -2.048  19.473  1.00  0.00     0.014 C 
BRANCH   7   9
ATOM      9  C   UNL     1       1.944  -2.626  21.204  1.00  0.00     0.044 C 
ATOM     10  O   UNL     1       1.894  -3.459  22.148  1.00  0.00    -0.550 OA
ATOM     11  O   UNL     1       2.485  -1.366  21.430  1.00  0.00    -0.550 OA
ENDBRANCH   7   9
ENDBRANCH   6   7
ENDBRANCH   5   6
ENDBRANCH   4   5
ENDBRANCH   3   4
ENDBRANCH   2   3
ENDBRANCH   1   2
BRANCH   1  12
ATOM     12  C   UNL     1       0.195 -10.020  18.566  1.00  0.00     0.000 C 
BRANCH  12  13
ATOM     13  C   UNL     1       1.595 -10.342  18.009  1.00  0.00    -0.000 C 
BRANCH  13  14
ATOM     14  C   UNL     1       2.746  -9.916  18.945  1.00  0.00    -0.000 C 
BRANCH  14  15
ATOM     15  C   UNL     1       2.256  -9.588  20.366  1.00  0.00    -0.000 C 
BRANCH  15  16
ATOM     16  C   UNL     1       2.690  -8.189  20.832  1.00  0.00    -0.000 C 
BRANCH  16  17
ATOM     17  C   UNL     1       1.624  -7.501  21.703  1.00  0.00    -0.000 C 
BRANCH  17  18
ATOM     18  C   UNL     1       0.546  -8.479  22.195  1.00  0.00    -0.003 C 
ATOM     19  C   UNL     1      -0.854  -8.104  21.709  1.00  0.00     0.004 C 
ENDBRANCH  17  18
ENDBRANCH  16  17
ENDBRANCH  15  16
ENDBRANCH  14  15
ENDBRANCH  13  14
ENDBRANCH  12  13
ENDBRANCH   1  12
TORSDOF 14
ENDMDL
MODEL 9
REMARK VINA RESULT:    -3.737     19.245     22.245
REMARK INTER + INTRA:          -8.917
REMARK INTER:                  -6.718
REMARK INTRA:                  -2.198
REMARK UNBOUND:                -2.122
REMARK SMILES CCCCCCCCCCCCCC[C@@H](C)C(=O)[O-]
REMARK SMILES IDX 9 1 10 2 11 3 12 4 13 5 14 6 15 7 16 8 17 9 18 10 19 11 8 12
REMARK SMILES IDX 7 13 6 14 5 15 4 16 3 17 2 18 1 19
REMARK H PARENT
REMARK Flexibility Score: inf
ROOT
ATOM      1  C   UNL     1       1.373  -8.719  21.539  1.00  0.00     0.000 C 
ENDROOT
BRANCH   1   2
ATOM      2  C   UNL     1       1.309  -7.351  22.241  1.00  0.00     0.000 C 
BRANCH   2   3
ATOM      3  C   UNL     1       2.686  -6.684  22.377  1.00  0.00     0.000 C 
BRANCH   3   4
ATOM      4  C   UNL     1       2.710  -5.323  21.670  1.00  0.00     0.000 C 
BRANCH   4   5
ATOM      5  C   UNL     1       1.748  -5.309  20.472  1.00  0.00     0.001 C 
BRANCH   5   6
ATOM      6  C   UNL     1       1.579  -3.907  19.858  1.00  0.00     0.009 C 
BRANCH   6   7
ATOM      7  C   UNL     1       0.109  -3.497  19.610  1.00  0.00     0.032 C 
ATOM      8  C   UNL     1      -0.749  -3.813  20.840  1.00  0.00     0.014 C 
BRANCH   7   9
ATOM      9  C   UNL     1      -0.004  -2.036  19.273  1.00  0.00     0.044 C 
ATOM     10  O   UNL     1      -1.137  -1.505  19.128  1.00  0.00    -0.550 OA
ATOM     11  O   UNL     1       1.140  -1.263  19.107  1.00  0.00    -0.550 OA
ENDBRANCH   7   9
ENDBRANCH   6   7
ENDBRANCH   5   6
ENDBRANCH   4   5
ENDBRANCH   3   4
ENDBRANCH   2   3
ENDBRANCH   1   2
BRANCH   1  12
ATOM     12  C   UNL     1       2.790  -9.183  21.147  1.00  0.00     0.000 C 
BRANCH  12  13
ATOM     13  C   UNL     1       3.052  -9.262  19.632  1.00  0.00    -0.000 C 
BRANCH  13  14
ATOM     14  C   UNL     1       2.270 -10.391  18.926  1.00  0.00    -0.000 C 
BRANCH  14  15
ATOM     15  C   UNL     1       1.117  -9.854  18.061  1.00  0.00    -0.000 C 
BRANCH  15  16
ATOM     16  C   UNL     1       1.130  -8.321  17.947  1.00  0.00    -0.000 C 
BRANCH  16  17
ATOM     17  C   UNL     1      -0.132  -7.771  17.257  1.00  0.00    -0.000 C 
BRANCH  17  18
ATOM     18  C   UNL     1      -0.862  -6.726  18.114  1.00  0.00    -0.003 C 
ATOM     19  C   UNL     1      -1.368  -7.300  19.437  1.00  0.00     0.004 C 
ENDBRANCH  17  18
ENDBRANCH  16  17
ENDBRANCH  15  16
ENDBRANCH  14  15
ENDBRANCH  13  14
ENDBRANCH  12  13
ENDBRANCH   1  12
TORSDOF 14
ENDMDL
