MODEL 1
REMARK VINA RESULT:    -2.205      0.000      0.000
REMARK INTER + INTRA:          -4.994
REMARK INTER:                  -4.267
REMARK INTRA:                  -0.728
REMARK UNBOUND:                -0.728
REMARK SMILES CCCCCCCCCCCCCCCCCC(=O)[O-]
REMARK SMILES IDX 10 1 11 2 12 3 13 4 14 5 15 6 16 7 17 8 18 9 19 10 20 11
REMARK SMILES IDX 9 12 8 13 7 14 6 15 5 16 4 17 3 18 2 19 1 20
REMARK H PARENT
REMARK Flexibility Score: inf
ROOT
ATOM      1  C   UNL     1      -3.493  -9.083   4.779  1.00  0.00     0.000 C 
ENDROOT
BRANCH   1   2
ATOM      2  C   UNL     1      -3.411  -9.856   3.452  1.00  0.00     0.000 C 
BRANCH   2   3
ATOM      3  C   UNL     1      -4.795 -10.159   2.853  1.00  0.00     0.000 C 
BRANCH   3   4
ATOM      4  C   UNL     1      -5.161  -9.210   1.702  1.00  0.00     0.000 C 
BRANCH   4   5
ATOM      5  C   UNL     1      -6.541  -8.556   1.889  1.00  0.00     0.000 C 
BRANCH   5   6
ATOM      6  C   UNL     1      -6.988  -8.553   3.367  1.00  0.00     0.000 C 
BRANCH   6   7
ATOM      7  C   UNL     1      -6.940  -7.161   4.020  1.00  0.00     0.006 C 
BRANCH   7   8
ATOM      8  C   UNL     1      -5.661  -6.386   3.684  1.00  0.00     0.053 C 
BRANCH   8   9
ATOM      9  C   UNL     1      -5.859  -4.923   3.921  1.00  0.00     0.041 C 
ATOM     10  O   UNL     1      -5.166  -4.079   3.294  1.00  0.00    -0.550 OA
ATOM     11  O   UNL     1      -6.778  -4.491   4.870  1.00  0.00    -0.550 OA
ENDBRANCH   8   9
ENDBRANCH   7   8
ENDBRANCH   6   7
ENDBRANCH   5   6
ENDBRANCH   4   5
ENDBRANCH   3   4
ENDBRANCH   2   3
ENDBRANCH   1   2
BRANCH   1  12
ATOM     12  C   UNL     1      -2.245  -8.246   5.125  1.00  0.00     0.000 C 
BRANCH  12  13
ATOM     13  C   UNL     1      -2.144  -6.892   4.399  1.00  0.00    -0.000 C 
BRANCH  13  14
ATOM     14  C   UNL     1      -0.758  -6.247   4.528  1.00  0.00    -0.000 C 
BRANCH  14  15
ATOM     15  C   UNL     1       0.281  -7.270   5.002  1.00  0.00    -0.000 C 
BRANCH  15  16
ATOM     16  C   UNL     1       0.340  -8.475   4.052  1.00  0.00    -0.000 C 
BRANCH  16  17
ATOM     17  C   UNL     1       0.302  -9.824   4.793  1.00  0.00    -0.000 C 
BRANCH  17  18
ATOM     18  C   UNL     1       0.042 -11.054   3.899  1.00  0.00    -0.000 C 
BRANCH  18  19
ATOM     19  C   UNL     1      -0.306 -10.731   2.434  1.00  0.00    -0.003 C 
ATOM     20  C   UNL     1       0.855 -10.988   1.476  1.00  0.00     0.004 C 
ENDBRANCH  18  19
ENDBRANCH  17  18
ENDBRANCH  16  17
ENDBRANCH  15  16
ENDBRANCH  14  15
ENDBRANCH  13  14
ENDBRANCH  12  13
ENDBRANCH   1  12
TORSDOF 16
ENDMDL
MODEL 2
REMARK VINA RESULT:    -2.197      1.966      6.470
REMARK INTER + INTRA:          -4.979
REMARK INTER:                  -3.431
REMARK INTRA:                  -1.548
REMARK UNBOUND:                -0.728
REMARK SMILES CCCCCCCCCCCCCCCCCC(=O)[O-]
REMARK SMILES IDX 10 1 11 2 12 3 13 4 14 5 15 6 16 7 17 8 18 9 19 10 20 11
REMARK SMILES IDX 9 12 8 13 7 14 6 15 5 16 4 17 3 18 2 19 1 20
REMARK H PARENT
REMARK Flexibility Score: inf
ROOT
ATOM      1  C   UNL     1      -2.996 -10.931   3.706  1.00  0.00     0.000 C 
ENDROOT
BRANCH   1   2
ATOM      2  C   UNL     1      -2.152  -9.779   3.135  1.00  0.00     0.000 C 
BRANCH   2   3
ATOM      3  C   UNL     1      -0.828 -10.262   2.518  1.00  0.00     0.000 C 
BRANCH   3   4
ATOM      4  C   UNL     1       0.055 -11.012   3.529  1.00  0.00     0.000 C 
BRANCH   4   5
ATOM      5  C   UNL     1       0.276 -10.216   4.827  1.00  0.00     0.000 C 
BRANCH   5   6
ATOM      6  C   UNL     1       1.432  -9.201   4.698  1.00  0.00     0.000 C 
BRANCH   6   7
ATOM      7  C   UNL     1       1.046  -7.774   5.122  1.00  0.00     0.006 C 
BRANCH   7   8
ATOM      8  C   UNL     1       0.362  -6.982   4.002  1.00  0.00     0.053 C 
BRANCH   8   9
ATOM      9  C   UNL     1      -0.734  -6.130   4.559  1.00  0.00     0.041 C 
ATOM     10  O   UNL     1      -1.896  -6.596   4.689  1.00  0.00    -0.550 OA
ATOM     11  O   UNL     1      -0.482  -4.805   4.894  1.00  0.00    -0.550 OA
ENDBRANCH   8   9
ENDBRANCH   7   8
ENDBRANCH   6   7
ENDBRANCH   5   6
ENDBRANCH   4   5
ENDBRANCH   3   4
ENDBRANCH   2   3
ENDBRANCH   1   2
BRANCH   1  12
ATOM     12  C   UNL     1      -4.379 -11.115   3.046  1.00  0.00     0.000 C 
BRANCH  12  13
ATOM     13  C   UNL     1      -4.398 -10.953   1.515  1.00  0.00    -0.000 C 
BRANCH  13  14
ATOM     14  C   UNL     1      -5.571 -10.095   1.021  1.00  0.00    -0.000 C 
BRANCH  14  15
ATOM     15  C   UNL     1      -5.308  -8.607   1.278  1.00  0.00    -0.000 C 
BRANCH  15  16
ATOM     16  C   UNL     1      -6.343  -8.026   2.253  1.00  0.00    -0.000 C 
BRANCH  16  17
ATOM     17  C   UNL     1      -6.085  -8.434   3.714  1.00  0.00    -0.000 C 
BRANCH  17  18
ATOM     18  C   UNL     1      -6.581  -7.427   4.772  1.00  0.00    -0.000 C 
BRANCH  18  19
ATOM     19  C   UNL     1      -6.016  -6.002   4.628  1.00  0.00    -0.003 C 
ATOM     20  C   UNL     1      -7.093  -4.965   4.313  1.00  0.00     0.004 C 
ENDBRANCH  18  19
ENDBRANCH  17  18
ENDBRANCH  16  17
ENDBRANCH  15  16
ENDBRANCH  14  15
ENDBRANCH  13  14
ENDBRANCH  12  13
ENDBRANCH   1  12
TORSDOF 16
ENDMDL
MODEL 3
REMARK VINA RESULT:    -2.078      1.313      3.148
REMARK INTER + INTRA:          -4.749
REMARK INTER:                  -3.586
REMARK INTRA:                  -1.163
REMARK UNBOUND:                -0.728
REMARK SMILES CCCCCCCCCCCCCCCCCC(=O)[O-]
REMARK SMILES IDX 10 1 11 2 12 3 13 4 14 5 15 6 16 7 17 8 18 9 19 10 20 11
REMARK SMILES IDX 9 12 8 13 7 14 6 15 5 16 4 17 3 18 2 19 1 20
REMARK H PARENT
REMARK Flexibility Score: inf
ROOT
ATOM      1  C   UNL     1      -3.550  -9.830   2.843  1.00  0.00     0.000 C 
ENDROOT
BRANCH   1   2
ATOM      2  C   UNL     1      -4.187 -10.228   1.501  1.00  0.00     0.000 C 
BRANCH   2   3
ATOM      3  C   UNL     1      -5.449 -11.090   1.674  1.00  0.00     0.000 C 
BRANCH   3   4
ATOM      4  C   UNL     1      -6.743 -10.263   1.612  1.00  0.00     0.000 C 
BRANCH   4   5
ATOM      5  C   UNL     1      -6.492  -8.756   1.802  1.00  0.00     0.000 C 
BRANCH   5   6
ATOM      6  C   UNL     1      -7.125  -8.221   3.104  1.00  0.00     0.000 C 
BRANCH   6   7
ATOM      7  C   UNL     1      -6.093  -7.702   4.121  1.00  0.00     0.006 C 
BRANCH   7   8
ATOM      8  C   UNL     1      -6.426  -6.302   4.649  1.00  0.00     0.053 C 
BRANCH   8   9
ATOM      9  C   UNL     1      -5.603  -5.269   3.946  1.00  0.00     0.041 C 
ATOM     10  O   UNL     1      -4.532  -5.595   3.370  1.00  0.00    -0.550 OA
ATOM     11  O   UNL     1      -5.997  -3.937   3.964  1.00  0.00    -0.550 OA
ENDBRANCH   8   9
ENDBRANCH   7   8
ENDBRANCH   6   7
ENDBRANCH   5   6
ENDBRANCH   4   5
ENDBRANCH   3   4
ENDBRANCH   2   3
ENDBRANCH   1   2
BRANCH   1  12
ATOM     12  C   UNL     1      -2.929 -10.995   3.640  1.00  0.00     0.000 C 
BRANCH  12  13
ATOM     13  C   UNL     1      -1.705 -10.621   4.497  1.00  0.00    -0.000 C 
BRANCH  13  14
ATOM     14  C   UNL     1      -0.519 -10.125   3.659  1.00  0.00    -0.000 C 
BRANCH  14  15
ATOM     15  C   UNL     1       0.736  -9.962   4.526  1.00  0.00    -0.000 C 
BRANCH  15  16
ATOM     16  C   UNL     1       0.815  -8.548   5.120  1.00  0.00    -0.000 C 
BRANCH  16  17
ATOM     17  C   UNL     1       0.099  -7.495   4.254  1.00  0.00    -0.000 C 
BRANCH  17  18
ATOM     18  C   UNL     1      -0.782  -6.498   5.034  1.00  0.00    -0.000 C 
BRANCH  18  19
ATOM     19  C   UNL     1      -0.876  -5.092   4.415  1.00  0.00    -0.003 C 
ATOM     20  C   UNL     1       0.016  -4.071   5.119  1.00  0.00     0.004 C 
ENDBRANCH  18  19
ENDBRANCH  17  18
ENDBRANCH  16  17
ENDBRANCH  15  16
ENDBRANCH  14  15
ENDBRANCH  13  14
ENDBRANCH  12  13
ENDBRANCH   1  12
TORSDOF 16
ENDMDL
MODEL 4
REMARK VINA RESULT:    -1.942      1.420      5.330
REMARK INTER + INTRA:          -4.486
REMARK INTER:                  -2.963
REMARK INTRA:                  -1.523
REMARK UNBOUND:                -0.728
REMARK SMILES CCCCCCCCCCCCCCCCCC(=O)[O-]
REMARK SMILES IDX 10 1 11 2 12 3 13 4 14 5 15 6 16 7 17 8 18 9 19 10 20 11
REMARK SMILES IDX 9 12 8 13 7 14 6 15 5 16 4 17 3 18 2 19 1 20
REMARK H PARENT
REMARK Flexibility Score: inf
ROOT
ATOM      1  C   UNL     1      -0.887 -10.186   2.849  1.00  0.00     0.000 C 
ENDROOT
BRANCH   1   2
ATOM      2  C   UNL     1       0.250 -10.230   3.883  1.00  0.00     0.000 C 
BRANCH   2   3
ATOM      3  C   UNL     1       0.003  -9.296   5.080  1.00  0.00     0.000 C 
BRANCH   3   4
ATOM      4  C   UNL     1       0.325  -7.828   4.758  1.00  0.00     0.000 C 
BRANCH   4   5
ATOM      5  C   UNL     1      -0.826  -6.875   5.125  1.00  0.00     0.000 C 
BRANCH   5   6
ATOM      6  C   UNL     1      -2.185  -7.370   4.587  1.00  0.00     0.000 C 
BRANCH   6   7
ATOM      7  C   UNL     1      -3.219  -6.245   4.402  1.00  0.00     0.006 C 
BRANCH   7   8
ATOM      8  C   UNL     1      -4.480  -6.708   3.665  1.00  0.00     0.053 C 
BRANCH   8   9
ATOM      9  C   UNL     1      -5.526  -5.640   3.698  1.00  0.00     0.041 C 
ATOM     10  O   UNL     1      -5.264  -4.481   3.280  1.00  0.00    -0.550 OA
ATOM     11  O   UNL     1      -6.779  -5.911   4.234  1.00  0.00    -0.550 OA
ENDBRANCH   8   9
ENDBRANCH   7   8
ENDBRANCH   6   7
ENDBRANCH   5   6
ENDBRANCH   4   5
ENDBRANCH   3   4
ENDBRANCH   2   3
ENDBRANCH   1   2
BRANCH   1  12
ATOM     12  C   UNL     1      -2.136 -11.013   3.217  1.00  0.00     0.000 C 
BRANCH  12  13
ATOM     13  C   UNL     1      -3.370 -10.188   3.626  1.00  0.00    -0.000 C 
BRANCH  13  14
ATOM     14  C   UNL     1      -4.511 -11.054   4.177  1.00  0.00    -0.000 C 
BRANCH  14  15
ATOM     15  C   UNL     1      -5.804 -10.239   4.307  1.00  0.00    -0.000 C 
BRANCH  15  16
ATOM     16  C   UNL     1      -6.984 -10.972   3.652  1.00  0.00    -0.000 C 
BRANCH  16  17
ATOM     17  C   UNL     1      -7.116 -10.669   2.149  1.00  0.00    -0.000 C 
BRANCH  17  18
ATOM     18  C   UNL     1      -6.533  -9.312   1.702  1.00  0.00    -0.000 C 
BRANCH  18  19
ATOM     19  C   UNL     1      -6.569  -9.057   0.184  1.00  0.00    -0.003 C 
ATOM     20  C   UNL     1      -6.017 -10.227  -0.629  1.00  0.00     0.004 C 
ENDBRANCH  18  19
ENDBRANCH  17  18
ENDBRANCH  16  17
ENDBRANCH  15  16
ENDBRANCH  14  15
ENDBRANCH  13  14
ENDBRANCH  12  13
ENDBRANCH   1  12
TORSDOF 16
ENDMDL
MODEL 5
REMARK VINA RESULT:    -1.936      2.295      4.909
REMARK INTER + INTRA:          -4.475
REMARK INTER:                  -3.197
REMARK INTRA:                  -1.278
REMARK UNBOUND:                -0.728
REMARK SMILES CCCCCCCCCCCCCCCCCC(=O)[O-]
REMARK SMILES IDX 10 1 11 2 12 3 13 4 14 5 15 6 16 7 17 8 18 9 19 10 20 11
REMARK SMILES IDX 9 12 8 13 7 14 6 15 5 16 4 17 3 18 2 19 1 20
REMARK H PARENT
REMARK Flexibility Score: inf
ROOT
ATOM      1  C   UNL     1      -0.397  -9.201   3.152  1.00  0.00     0.000 C 
ENDROOT
BRANCH   1   2
ATOM      2  C   UNL     1      -0.648 -10.608   2.581  1.00  0.00     0.000 C 
BRANCH   2   3
ATOM      3  C   UNL     1      -2.066 -11.125   2.878  1.00  0.00     0.000 C 
BRANCH   3   4
ATOM      4  C   UNL     1      -3.155 -10.105   2.510  1.00  0.00     0.000 C 
BRANCH   4   5
ATOM      5  C   UNL     1      -4.235  -9.974   3.599  1.00  0.00     0.000 C 
BRANCH   5   6
ATOM      6  C   UNL     1      -5.356 -11.023   3.436  1.00  0.00     0.000 C 
BRANCH   6   7
ATOM      7  C   UNL     1      -5.906 -11.117   2.002  1.00  0.00     0.006 C 
BRANCH   7   8
ATOM      8  C   UNL     1      -6.697  -9.873   1.582  1.00  0.00     0.053 C 
BRANCH   8   9
ATOM      9  C   UNL     1      -6.177  -9.336   0.287  1.00  0.00     0.041 C 
ATOM     10  O   UNL     1      -5.277  -8.456   0.281  1.00  0.00    -0.550 OA
ATOM     11  O   UNL     1      -6.719  -9.775  -0.915  1.00  0.00    -0.550 OA
ENDBRANCH   8   9
ENDBRANCH   7   8
ENDBRANCH   6   7
ENDBRANCH   5   6
ENDBRANCH   4   5
ENDBRANCH   3   4
ENDBRANCH   2   3
ENDBRANCH   1   2
BRANCH   1  12
ATOM     12  C   UNL     1       0.354  -9.169   4.499  1.00  0.00     0.000 C 
BRANCH  12  13
ATOM     13  C   UNL     1       0.787  -7.769   4.972  1.00  0.00    -0.000 C 
BRANCH  13  14
ATOM     14  C   UNL     1      -0.065  -6.645   4.368  1.00  0.00    -0.000 C 
BRANCH  14  15
ATOM     15  C   UNL     1      -1.395  -6.501   5.119  1.00  0.00    -0.000 C 
BRANCH  15  16
ATOM     16  C   UNL     1      -2.557  -7.077   4.296  1.00  0.00    -0.000 C 
BRANCH  16  17
ATOM     17  C   UNL     1      -3.664  -6.044   4.021  1.00  0.00    -0.000 C 
BRANCH  17  18
ATOM     18  C   UNL     1      -4.985  -6.630   3.480  1.00  0.00    -0.000 C 
BRANCH  18  19
ATOM     19  C   UNL     1      -6.217  -6.386   4.369  1.00  0.00    -0.003 C 
ATOM     20  C   UNL     1      -6.675  -4.929   4.366  1.00  0.00     0.004 C 
ENDBRANCH  18  19
ENDBRANCH  17  18
ENDBRANCH  16  17
ENDBRANCH  15  16
ENDBRANCH  14  15
ENDBRANCH  13  14
ENDBRANCH  12  13
ENDBRANCH   1  12
TORSDOF 16
ENDMDL
MODEL 6
REMARK VINA RESULT:    -1.570      2.738      6.505
REMARK INTER + INTRA:          -3.767
REMARK INTER:                  -2.791
REMARK INTRA:                  -0.976
REMARK UNBOUND:                -0.728
REMARK SMILES CCCCCCCCCCCCCCCCCC(=O)[O-]
REMARK SMILES IDX 10 1 11 2 12 3 13 4 14 5 15 6 16 7 17 8 18 9 19 10 20 11
REMARK SMILES IDX 9 12 8 13 7 14 6 15 5 16 4 17 3 18 2 19 1 20
REMARK H PARENT
REMARK Flexibility Score: inf
ROOT
ATOM      1  C   UNL     1      -3.411  -7.322   3.820  1.00  0.00     0.000 C 
ENDROOT
BRANCH   1   2
ATOM      2  C   UNL     1      -2.293  -7.027   4.834  1.00  0.00     0.000 C 
BRANCH   2   3
ATOM      3  C   UNL     1      -1.305  -5.958   4.337  1.00  0.00     0.000 C 
BRANCH   3   4
ATOM      4  C   UNL     1       0.014  -5.962   5.125  1.00  0.00     0.000 C 
BRANCH   4   5
ATOM      5  C   UNL     1       0.760  -7.304   5.025  1.00  0.00     0.000 C 
BRANCH   5   6
ATOM      6  C   UNL     1       0.174  -8.215   3.926  1.00  0.00     0.000 C 
BRANCH   6   7
ATOM      7  C   UNL     1       0.262  -9.715   4.258  1.00  0.00     0.006 C 
BRANCH   7   8
ATOM      8  C   UNL     1      -0.331 -10.606   3.162  1.00  0.00     0.053 C 
BRANCH   8   9
ATOM      9  C   UNL     1      -1.756 -10.938   3.473  1.00  0.00     0.041 C 
ATOM     10  O   UNL     1      -2.582 -11.125   2.541  1.00  0.00    -0.550 OA
ATOM     11  O   UNL     1      -2.184 -10.995   4.794  1.00  0.00    -0.550 OA
ENDBRANCH   8   9
ENDBRANCH   7   8
ENDBRANCH   6   7
ENDBRANCH   5   6
ENDBRANCH   4   5
ENDBRANCH   3   4
ENDBRANCH   2   3
ENDBRANCH   1   2
BRANCH   1  12
ATOM     12  C   UNL     1      -4.509  -6.243   3.728  1.00  0.00     0.000 C 
BRANCH  12  13
ATOM     13  C   UNL     1      -5.903  -6.686   4.210  1.00  0.00    -0.000 C 
BRANCH  13  14
ATOM     14  C   UNL     1      -5.856  -7.934   5.102  1.00  0.00    -0.000 C 
BRANCH  14  15
ATOM     15  C   UNL     1      -7.104  -8.802   4.897  1.00  0.00    -0.000 C 
BRANCH  15  16
ATOM     16  C   UNL     1      -6.724 -10.199   4.383  1.00  0.00    -0.000 C 
BRANCH  16  17
ATOM     17  C   UNL     1      -7.114 -10.421   2.911  1.00  0.00    -0.000 C 
BRANCH  17  18
ATOM     18  C   UNL     1      -5.929 -10.521   1.928  1.00  0.00    -0.000 C 
BRANCH  18  19
ATOM     19  C   UNL     1      -5.857  -9.396   0.880  1.00  0.00    -0.003 C 
ATOM     20  C   UNL     1      -6.347  -9.836  -0.499  1.00  0.00     0.004 C 
ENDBRANCH  18  19
ENDBRANCH  17  18
ENDBRANCH  16  17
ENDBRANCH  15  16
ENDBRANCH  14  15
ENDBRANCH  13  14
ENDBRANCH  12  13
ENDBRANCH   1  12
TORSDOF 16
ENDMDL
MODEL 7
REMARK VINA RESULT:    -1.438      3.317      7.076
REMARK INTER + INTRA:          -3.511
REMARK INTER:                  -1.796
REMARK INTRA:                  -1.714
REMARK UNBOUND:                -0.728
REMARK SMILES CCCCCCCCCCCCCCCCCC(=O)[O-]
REMARK SMILES IDX 10 1 11 2 12 3 13 4 14 5 15 6 16 7 17 8 18 9 19 10 20 11
REMARK SMILES IDX 9 12 8 13 7 14 6 15 5 16 4 17 3 18 2 19 1 20
REMARK H PARENT
REMARK Flexibility Score: inf
ROOT
ATOM      1  C   UNL     1      -3.100 -10.267   3.687  1.00  0.00     0.000 C 
ENDROOT
BRANCH   1   2
ATOM      2  C   UNL     1      -3.125  -8.735   3.543  1.00  0.00     0.000 C 
BRANCH   2   3
ATOM      3  C   UNL     1      -2.800  -8.009   4.858  1.00  0.00     0.000 C 
BRANCH   3   4
ATOM      4  C   UNL     1      -1.884  -6.792   4.650  1.00  0.00     0.000 C 
BRANCH   4   5
ATOM      5  C   UNL     1      -0.428  -7.069   5.064  1.00  0.00     0.000 C 
BRANCH   5   6
ATOM      6  C   UNL     1       0.117  -8.370   4.438  1.00  0.00     0.000 C 
BRANCH   6   7
ATOM      7  C   UNL     1       0.438  -8.244   2.939  1.00  0.00     0.006 C 
BRANCH   7   8
ATOM      8  C   UNL     1      -0.214  -9.343   2.093  1.00  0.00     0.053 C 
BRANCH   8   9
ATOM      9  C   UNL     1       0.682 -10.538   2.008  1.00  0.00     0.041 C 
ATOM     10  O   UNL     1       1.070 -11.115   3.058  1.00  0.00    -0.550 OA
ATOM     11  O   UNL     1       1.126 -10.987   0.770  1.00  0.00    -0.550 OA
ENDBRANCH   8   9
ENDBRANCH   7   8
ENDBRANCH   6   7
ENDBRANCH   5   6
ENDBRANCH   4   5
ENDBRANCH   3   4
ENDBRANCH   2   3
ENDBRANCH   1   2
BRANCH   1  12
ATOM     12  C   UNL     1      -3.664 -11.045   2.480  1.00  0.00     0.000 C 
BRANCH  12  13
ATOM     13  C   UNL     1      -5.201 -11.124   2.414  1.00  0.00    -0.000 C 
BRANCH  13  14
ATOM     14  C   UNL     1      -5.858 -11.115   3.801  1.00  0.00    -0.000 C 
BRANCH  14  15
ATOM     15  C   UNL     1      -6.879  -9.977   3.917  1.00  0.00    -0.000 C 
BRANCH  15  16
ATOM     16  C   UNL     1      -7.124  -9.316   2.552  1.00  0.00    -0.000 C 
BRANCH  16  17
ATOM     17  C   UNL     1      -6.962  -7.786   2.590  1.00  0.00    -0.000 C 
BRANCH  17  18
ATOM     18  C   UNL     1      -6.192  -7.241   3.811  1.00  0.00    -0.000 C 
BRANCH  18  19
ATOM     19  C   UNL     1      -6.337  -5.727   4.048  1.00  0.00    -0.003 C 
ATOM     20  C   UNL     1      -5.092  -4.940   3.640  1.00  0.00     0.004 C 
ENDBRANCH  18  19
ENDBRANCH  17  18
ENDBRANCH  16  17
ENDBRANCH  15  16
ENDBRANCH  14  15
ENDBRANCH  13  14
ENDBRANCH  12  13
ENDBRANCH   1  12
TORSDOF 16
ENDMDL
