MODEL 1
REMARK VINA RESULT:    -4.790      0.000      0.000
REMARK INTER + INTRA:          -6.053
REMARK INTER:                  -5.911
REMARK INTRA:                  -0.142
REMARK UNBOUND:                -0.142
REMARK SMILES CCCCC=CC(C)=O
REMARK SMILES IDX 4 1 3 2 2 3 1 4 5 5 6 6 7 7 9 8 8 9
REMARK H PARENT
REMARK Flexibility Score: inf
ROOT
ATOM      1  C   UNL     1      15.865 -25.768  24.692  1.00  0.00     0.027 C 
ENDROOT
BRANCH   1   2
ATOM      2  C   UNL     1      14.894 -25.809  25.880  1.00  0.00     0.004 C 
BRANCH   2   3
ATOM      3  C   UNL     1      14.548 -24.393  26.353  1.00  0.00    -0.003 C 
ATOM      4  C   UNL     1      13.086 -24.297  26.783  1.00  0.00     0.004 C 
ENDBRANCH   2   3
ENDBRANCH   1   2
BRANCH   1   5
ATOM      5  C   UNL     1      17.295 -25.875  25.151  1.00  0.00    -0.023 C 
ATOM      6  C   UNL     1      18.360 -25.319  24.549  1.00  0.00     0.042 C 
BRANCH   6   7
ATOM      7  C   UNL     1      18.341 -24.458  23.345  1.00  0.00     0.152 C 
ATOM      8  O   UNL     1      17.750 -23.345  23.335  1.00  0.00    -0.295 OA
ATOM      9  C   UNL     1      19.100 -24.885  22.130  1.00  0.00     0.093 C 
ENDBRANCH   6   7
ENDBRANCH   1   5
TORSDOF 4
ENDMDL
MODEL 2
REMARK VINA RESULT:    -4.177      9.596     10.381
REMARK INTER + INTRA:          -5.296
REMARK INTER:                  -4.859
REMARK INTRA:                  -0.437
REMARK UNBOUND:                -0.142
REMARK SMILES CCCCC=CC(C)=O
REMARK SMILES IDX 4 1 3 2 2 3 1 4 5 5 6 6 7 7 9 8 8 9
REMARK H PARENT
REMARK Flexibility Score: inf
ROOT
ATOM      1  C   UNL     1      10.147 -17.746  19.343  1.00  0.00     0.027 C 
ENDROOT
BRANCH   1   2
ATOM      2  C   UNL     1       9.509 -18.130  18.002  1.00  0.00     0.004 C 
BRANCH   2   3
ATOM      3  C   UNL     1       9.970 -19.521  17.554  1.00  0.00    -0.003 C 
ATOM      4  C   UNL     1      10.473 -19.499  16.113  1.00  0.00     0.004 C 
ENDBRANCH   2   3
ENDBRANCH   1   2
BRANCH   1   5
ATOM      5  C   UNL     1      11.648 -17.836  19.281  1.00  0.00    -0.023 C 
ATOM      6  C   UNL     1      12.425 -18.612  20.056  1.00  0.00     0.042 C 
BRANCH   6   7
ATOM      7  C   UNL     1      11.963 -19.564  21.092  1.00  0.00     0.152 C 
ATOM      8  O   UNL     1      11.848 -19.224  22.300  1.00  0.00    -0.295 OA
ATOM      9  C   UNL     1      11.559 -20.944  20.687  1.00  0.00     0.093 C 
ENDBRANCH   6   7
ENDBRANCH   1   5
TORSDOF 4
ENDMDL
MODEL 3
REMARK VINA RESULT:    -4.057     13.826     14.992
REMARK INTER + INTRA:          -5.147
REMARK INTER:                  -4.581
REMARK INTRA:                  -0.567
REMARK UNBOUND:                -0.142
REMARK SMILES CCCCC=CC(C)=O
REMARK SMILES IDX 4 1 3 2 2 3 1 4 5 5 6 6 7 7 9 8 8 9
REMARK H PARENT
REMARK Flexibility Score: inf
ROOT
ATOM      1  C   UNL     1      20.241  -9.643  25.836  1.00  0.00     0.027 C 
ENDROOT
BRANCH   1   2
ATOM      2  C   UNL     1      21.333  -9.500  24.767  1.00  0.00     0.004 C 
BRANCH   2   3
ATOM      3  C   UNL     1      22.715  -9.815  25.350  1.00  0.00    -0.003 C 
ATOM      4  C   UNL     1      22.640 -10.034  26.859  1.00  0.00     0.004 C 
ENDBRANCH   2   3
ENDBRANCH   1   2
BRANCH   1   5
ATOM      5  C   UNL     1      19.121 -10.528  25.358  1.00  0.00    -0.023 C 
ATOM      6  C   UNL     1      19.065 -11.864  25.478  1.00  0.00     0.042 C 
BRANCH   6   7
ATOM      7  C   UNL     1      20.066 -12.732  26.141  1.00  0.00     0.152 C 
ATOM      8  O   UNL     1      21.146 -13.050  25.576  1.00  0.00    -0.295 OA
ATOM      9  C   UNL     1      19.821 -13.188  27.544  1.00  0.00     0.093 C 
ENDBRANCH   6   7
ENDBRANCH   1   5
TORSDOF 4
ENDMDL
MODEL 4
REMARK VINA RESULT:    -4.008      9.576     10.224
REMARK INTER + INTRA:          -5.088
REMARK INTER:                  -4.764
REMARK INTRA:                  -0.324
REMARK UNBOUND:                -0.142
REMARK SMILES CCCCC=CC(C)=O
REMARK SMILES IDX 4 1 3 2 2 3 1 4 5 5 6 6 7 7 9 8 8 9
REMARK H PARENT
REMARK Flexibility Score: inf
ROOT
ATOM      1  C   UNL     1      10.252 -17.875  19.629  1.00  0.00     0.027 C 
ENDROOT
BRANCH   1   2
ATOM      2  C   UNL     1       9.835 -17.876  18.153  1.00  0.00     0.004 C 
BRANCH   2   3
ATOM      3  C   UNL     1       9.728 -19.307  17.614  1.00  0.00    -0.003 C 
ATOM      4  C   UNL     1      10.491 -19.461  16.301  1.00  0.00     0.004 C 
ENDBRANCH   2   3
ENDBRANCH   1   2
BRANCH   1   5
ATOM      5  C   UNL     1      10.797 -19.216  20.044  1.00  0.00    -0.023 C 
ATOM      6  C   UNL     1      12.087 -19.504  20.282  1.00  0.00     0.042 C 
BRANCH   6   7
ATOM      7  C   UNL     1      13.225 -18.558  20.230  1.00  0.00     0.152 C 
ATOM      8  O   UNL     1      13.905 -18.282  21.253  1.00  0.00    -0.295 OA
ATOM      9  C   UNL     1      13.621 -17.966  18.916  1.00  0.00     0.093 C 
ENDBRANCH   6   7
ENDBRANCH   1   5
TORSDOF 4
ENDMDL
MODEL 5
REMARK VINA RESULT:    -3.918      9.480     10.261
REMARK INTER + INTRA:          -4.976
REMARK INTER:                  -4.425
REMARK INTRA:                  -0.552
REMARK UNBOUND:                -0.142
REMARK SMILES CCCCC=CC(C)=O
REMARK SMILES IDX 4 1 3 2 2 3 1 4 5 5 6 6 7 7 9 8 8 9
REMARK H PARENT
REMARK Flexibility Score: inf
ROOT
ATOM      1  C   UNL     1      10.855 -18.495  21.179  1.00  0.00     0.027 C 
ENDROOT
BRANCH   1   2
ATOM      2  C   UNL     1      11.661 -19.719  21.634  1.00  0.00     0.004 C 
BRANCH   2   3
ATOM      3  C   UNL     1      11.345 -20.938  20.760  1.00  0.00    -0.003 C 
ATOM      4  C   UNL     1       9.844 -21.213  20.720  1.00  0.00     0.004 C 
ENDBRANCH   2   3
ENDBRANCH   1   2
BRANCH   1   5
ATOM      5  C   UNL     1      11.538 -17.781  20.044  1.00  0.00    -0.023 C 
ATOM      6  C   UNL     1      11.088 -17.694  18.782  1.00  0.00     0.042 C 
BRANCH   6   7
ATOM      7  C   UNL     1       9.813 -18.239  18.262  1.00  0.00     0.152 C 
ATOM      8  O   UNL     1       8.705 -17.697  18.520  1.00  0.00    -0.295 OA
ATOM      9  C   UNL     1       9.843 -19.425  17.352  1.00  0.00     0.093 C 
ENDBRANCH   6   7
ENDBRANCH   1   5
TORSDOF 4
ENDMDL
MODEL 6
REMARK VINA RESULT:    -3.873     13.936     14.673
REMARK INTER + INTRA:          -4.921
REMARK INTER:                  -4.447
REMARK INTRA:                  -0.474
REMARK UNBOUND:                -0.142
REMARK SMILES CCCCC=CC(C)=O
REMARK SMILES IDX 4 1 3 2 2 3 1 4 5 5 6 6 7 7 9 8 8 9
REMARK H PARENT
REMARK Flexibility Score: inf
ROOT
ATOM      1  C   UNL     1      20.024 -12.349  26.431  1.00  0.00     0.027 C 
ENDROOT
BRANCH   1   2
ATOM      2  C   UNL     1      18.837 -11.972  25.534  1.00  0.00     0.004 C 
BRANCH   2   3
ATOM      3  C   UNL     1      18.250 -10.616  25.943  1.00  0.00    -0.003 C 
ATOM      4  C   UNL     1      18.152  -9.674  24.746  1.00  0.00     0.004 C 
ENDBRANCH   2   3
ENDBRANCH   1   2
BRANCH   1   5
ATOM      5  C   UNL     1      21.254 -12.641  25.615  1.00  0.00    -0.023 C 
ATOM      6  C   UNL     1      22.166 -11.740  25.211  1.00  0.00     0.042 C 
BRANCH   6   7
ATOM      7  C   UNL     1      22.170 -10.293  25.522  1.00  0.00     0.152 C 
ATOM      8  O   UNL     1      21.680  -9.443  24.732  1.00  0.00    -0.295 OA
ATOM      9  C   UNL     1      22.709  -9.830  26.838  1.00  0.00     0.093 C 
ENDBRANCH   6   7
ENDBRANCH   1   5
TORSDOF 4
ENDMDL
MODEL 7
REMARK VINA RESULT:    -3.820     13.750     14.592
REMARK INTER + INTRA:          -4.855
REMARK INTER:                  -4.401
REMARK INTRA:                  -0.455
REMARK UNBOUND:                -0.142
REMARK SMILES CCCCC=CC(C)=O
REMARK SMILES IDX 4 1 3 2 2 3 1 4 5 5 6 6 7 7 9 8 8 9
REMARK H PARENT
REMARK Flexibility Score: inf
ROOT
ATOM      1  C   UNL     1      19.261 -11.016  25.931  1.00  0.00     0.027 C 
ENDROOT
BRANCH   1   2
ATOM      2  C   UNL     1      19.428 -12.444  25.396  1.00  0.00     0.004 C 
BRANCH   2   3
ATOM      3  C   UNL     1      20.170 -13.325  26.407  1.00  0.00    -0.003 C 
ATOM      4  C   UNL     1      19.788 -12.961  27.840  1.00  0.00     0.004 C 
ENDBRANCH   2   3
ENDBRANCH   1   2
BRANCH   1   5
ATOM      5  C   UNL     1      19.867 -10.006  24.994  1.00  0.00    -0.023 C 
ATOM      6  C   UNL     1      21.178  -9.751  24.850  1.00  0.00     0.042 C 
BRANCH   6   7
ATOM      7  C   UNL     1      22.291 -10.437  25.546  1.00  0.00     0.152 C 
ATOM      8  O   UNL     1      22.896 -11.412  25.028  1.00  0.00    -0.295 OA
ATOM      9  C   UNL     1      22.754  -9.918  26.869  1.00  0.00     0.093 C 
ENDBRANCH   6   7
ENDBRANCH   1   5
TORSDOF 4
ENDMDL
MODEL 8
REMARK VINA RESULT:    -3.780      8.445     10.623
REMARK INTER + INTRA:          -4.806
REMARK INTER:                  -4.307
REMARK INTRA:                  -0.499
REMARK UNBOUND:                -0.142
REMARK SMILES CCCCC=CC(C)=O
REMARK SMILES IDX 4 1 3 2 2 3 1 4 5 5 6 6 7 7 9 8 8 9
REMARK H PARENT
REMARK Flexibility Score: inf
ROOT
ATOM      1  C   UNL     1       6.913 -25.459  22.566  1.00  0.00     0.027 C 
ENDROOT
BRANCH   1   2
ATOM      2  C   UNL     1       8.362 -25.129  22.947  1.00  0.00     0.004 C 
BRANCH   2   3
ATOM      3  C   UNL     1       8.638 -23.628  22.806  1.00  0.00    -0.003 C 
ATOM      4  C   UNL     1       9.547 -23.127  23.925  1.00  0.00     0.004 C 
ENDBRANCH   2   3
ENDBRANCH   1   2
BRANCH   1   5
ATOM      5  C   UNL     1       6.186 -26.125  23.703  1.00  0.00    -0.023 C 
ATOM      6  C   UNL     1       5.591 -25.500  24.733  1.00  0.00     0.042 C 
BRANCH   6   7
ATOM      7  C   UNL     1       5.490 -24.037  24.935  1.00  0.00     0.152 C 
ATOM      8  O   UNL     1       4.696 -23.328  24.262  1.00  0.00    -0.295 OA
ATOM      9  C   UNL     1       6.301 -23.391  26.012  1.00  0.00     0.093 C 
ENDBRANCH   6   7
ENDBRANCH   1   5
TORSDOF 4
ENDMDL
MODEL 9
REMARK VINA RESULT:    -3.769      9.863     11.011
REMARK INTER + INTRA:          -4.792
REMARK INTER:                  -4.391
REMARK INTRA:                  -0.401
REMARK UNBOUND:                -0.142
REMARK SMILES CCCCC=CC(C)=O
REMARK SMILES IDX 4 1 3 2 2 3 1 4 5 5 6 6 7 7 9 8 8 9
REMARK H PARENT
REMARK Flexibility Score: inf
ROOT
ATOM      1  C   UNL     1      11.331 -17.966  18.927  1.00  0.00     0.027 C 
ENDROOT
BRANCH   1   2
ATOM      2  C   UNL     1       9.953 -17.877  18.257  1.00  0.00     0.004 C 
BRANCH   2   3
ATOM      3  C   UNL     1       9.581 -19.206  17.589  1.00  0.00    -0.003 C 
ATOM      4  C   UNL     1      10.456 -19.473  16.367  1.00  0.00     0.004 C 
ENDBRANCH   2   3
ENDBRANCH   1   2
BRANCH   1   5
ATOM      5  C   UNL     1      11.350 -19.021  20.000  1.00  0.00    -0.023 C 
ATOM      6  C   UNL     1      11.074 -18.828  21.300  1.00  0.00     0.042 C 
BRANCH   6   7
ATOM      7  C   UNL     1      10.655 -17.557  21.933  1.00  0.00     0.152 C 
ATOM      8  O   UNL     1      11.490 -16.755  22.429  1.00  0.00    -0.295 OA
ATOM      9  C   UNL     1       9.208 -17.180  21.924  1.00  0.00     0.093 C 
ENDBRANCH   6   7
ENDBRANCH   1   5
TORSDOF 4
ENDMDL
