MODEL 1
REMARK VINA RESULT:    -3.912      0.000      0.000
REMARK INTER + INTRA:         -11.837
REMARK INTER:                  -8.486
REMARK INTRA:                  -3.351
REMARK UNBOUND:                -3.351
REMARK SMILES CCCCCCCCCCCCCCCCCCCCCC(=O)[O-]
REMARK SMILES IDX 12 1 11 2 10 3 9 4 8 5 7 6 6 7 5 8 4 9 3 10 2 11 1 12 13 13
REMARK SMILES IDX 14 14 15 15 16 16 17 17 18 18 19 19 20 20 21 21 22 22 23 23
REMARK SMILES IDX 24 24
REMARK H PARENT
REMARK Flexibility Score: inf
ROOT
ATOM      1  C   UNL     1      97.964 -66.883   3.138  1.00  0.00     0.000 C 
ENDROOT
BRANCH   1   2
ATOM      2  C   UNL     1      98.091 -67.911   4.278  1.00  0.00     0.000 C 
BRANCH   2   3
ATOM      3  C   UNL     1      99.191 -68.968   4.078  1.00  0.00     0.000 C 
BRANCH   3   4
ATOM      4  C   UNL     1      99.825 -69.429   5.400  1.00  0.00    -0.000 C 
BRANCH   4   5
ATOM      5  C   UNL     1     101.357 -69.342   5.332  1.00  0.00    -0.000 C 
BRANCH   5   6
ATOM      6  C   UNL     1     101.961 -68.498   6.468  1.00  0.00    -0.000 C 
BRANCH   6   7
ATOM      7  C   UNL     1     101.007 -68.205   7.644  1.00  0.00    -0.000 C 
BRANCH   7   8
ATOM      8  C   UNL     1     101.404 -68.854   8.981  1.00  0.00    -0.000 C 
BRANCH   8   9
ATOM      9  C   UNL     1     100.378 -68.596  10.096  1.00  0.00    -0.000 C 
BRANCH   9  10
ATOM     10  C   UNL     1     100.891 -67.533  11.075  1.00  0.00    -0.000 C 
BRANCH  10  11
ATOM     11  C   UNL     1      99.940 -66.331  11.131  1.00  0.00    -0.003 C 
ATOM     12  C   UNL     1     100.110 -65.437   9.906  1.00  0.00     0.004 C 
ENDBRANCH  10  11
ENDBRANCH   9  10
ENDBRANCH   8   9
ENDBRANCH   7   8
ENDBRANCH   6   7
ENDBRANCH   5   6
ENDBRANCH   4   5
ENDBRANCH   3   4
ENDBRANCH   2   3
ENDBRANCH   1   2
BRANCH   1  13
ATOM     13  C   UNL     1      98.636 -65.526   3.440  1.00  0.00     0.000 C 
BRANCH  13  14
ATOM     14  C   UNL     1      99.299 -65.497   4.830  1.00  0.00     0.000 C 
BRANCH  14  15
ATOM     15  C   UNL     1     100.836 -65.485   4.761  1.00  0.00     0.000 C 
BRANCH  15  16
ATOM     16  C   UNL     1     101.419 -65.451   3.337  1.00  0.00     0.000 C 
BRANCH  16  17
ATOM     17  C   UNL     1     102.125 -66.762   2.949  1.00  0.00     0.000 C 
BRANCH  17  18
ATOM     18  C   UNL     1     101.494 -67.432   1.718  1.00  0.00     0.000 C 
BRANCH  18  19
ATOM     19  C   UNL     1     101.067 -66.414   0.647  1.00  0.00     0.000 C 
BRANCH  19  20
ATOM     20  C   UNL     1      99.732 -66.785  -0.017  1.00  0.00     0.006 C 
BRANCH  20  21
ATOM     21  C   UNL     1      99.865 -67.951  -1.006  1.00  0.00     0.053 C 
BRANCH  21  22
ATOM     22  C   UNL     1      98.891 -69.034  -0.669  1.00  0.00     0.041 C 
ATOM     23  O   UNL     1      98.011 -69.376  -1.503  1.00  0.00    -0.550 OA
ATOM     24  O   UNL     1      98.925 -69.634   0.583  1.00  0.00    -0.550 OA
ENDBRANCH  21  22
ENDBRANCH  20  21
ENDBRANCH  19  20
ENDBRANCH  18  19
ENDBRANCH  17  18
ENDBRANCH  16  17
ENDBRANCH  15  16
ENDBRANCH  14  15
ENDBRANCH  13  14
ENDBRANCH   1  13
TORSDOF 20
ENDMDL
MODEL 2
REMARK VINA RESULT:    -3.838      0.948      2.184
REMARK INTER + INTRA:         -11.676
REMARK INTER:                  -8.190
REMARK INTRA:                  -3.486
REMARK UNBOUND:                -3.351
REMARK SMILES CCCCCCCCCCCCCCCCCCCCCC(=O)[O-]
REMARK SMILES IDX 12 1 11 2 10 3 9 4 8 5 7 6 6 7 5 8 4 9 3 10 2 11 1 12 13 13
REMARK SMILES IDX 14 14 15 15 16 16 17 17 18 18 19 19 20 20 21 21 22 22 23 23
REMARK SMILES IDX 24 24
REMARK H PARENT
REMARK Flexibility Score: inf
ROOT
ATOM      1  C   UNL     1      99.251 -68.719   3.922  1.00  0.00     0.000 C 
ENDROOT
BRANCH   1   2
ATOM      2  C   UNL     1      99.769 -69.303   5.251  1.00  0.00     0.000 C 
BRANCH   2   3
ATOM      3  C   UNL     1     101.282 -69.570   5.297  1.00  0.00     0.000 C 
BRANCH   3   4
ATOM      4  C   UNL     1     101.990 -68.813   6.431  1.00  0.00    -0.000 C 
BRANCH   4   5
ATOM      5  C   UNL     1     100.984 -68.000   7.260  1.00  0.00    -0.000 C 
BRANCH   5   6
ATOM      6  C   UNL     1     101.372 -66.517   7.389  1.00  0.00    -0.000 C 
BRANCH   6   7
ATOM      7  C   UNL     1     100.673 -65.756   8.534  1.00  0.00    -0.000 C 
BRANCH   7   8
ATOM      8  C   UNL     1     101.574 -65.411   9.732  1.00  0.00    -0.000 C 
BRANCH   8   9
ATOM      9  C   UNL     1     101.496 -66.456  10.856  1.00  0.00    -0.000 C 
BRANCH   9  10
ATOM     10  C   UNL     1     100.090 -67.062  10.943  1.00  0.00    -0.000 C 
BRANCH  10  11
ATOM     11  C   UNL     1     100.148 -68.594  10.916  1.00  0.00    -0.003 C 
ATOM     12  C   UNL     1     101.582 -69.088  10.755  1.00  0.00     0.004 C 
ENDBRANCH  10  11
ENDBRANCH   9  10
ENDBRANCH   8   9
ENDBRANCH   7   8
ENDBRANCH   6   7
ENDBRANCH   5   6
ENDBRANCH   4   5
ENDBRANCH   3   4
ENDBRANCH   2   3
ENDBRANCH   1   2
BRANCH   1  13
ATOM     13  C   UNL     1      97.929 -67.933   4.057  1.00  0.00     0.000 C 
BRANCH  13  14
ATOM     14  C   UNL     1      98.103 -66.435   3.744  1.00  0.00     0.000 C 
BRANCH  14  15
ATOM     15  C   UNL     1      99.149 -65.752   4.643  1.00  0.00     0.000 C 
BRANCH  15  16
ATOM     16  C   UNL     1     100.243 -64.977   3.887  1.00  0.00     0.000 C 
BRANCH  16  17
ATOM     17  C   UNL     1     101.506 -65.819   3.637  1.00  0.00     0.000 C 
BRANCH  17  18
ATOM     18  C   UNL     1     101.559 -66.398   2.215  1.00  0.00     0.000 C 
BRANCH  18  19
ATOM     19  C   UNL     1     100.630 -65.654   1.240  1.00  0.00     0.000 C 
BRANCH  19  20
ATOM     20  C   UNL     1      99.994 -66.591   0.202  1.00  0.00     0.006 C 
BRANCH  20  21
ATOM     21  C   UNL     1     100.161 -68.073   0.561  1.00  0.00     0.053 C 
BRANCH  21  22
ATOM     22  C   UNL     1      99.073 -68.887  -0.064  1.00  0.00     0.041 C 
ATOM     23  O   UNL     1      98.704 -69.967   0.468  1.00  0.00    -0.550 OA
ATOM     24  O   UNL     1      98.499 -68.477  -1.260  1.00  0.00    -0.550 OA
ENDBRANCH  21  22
ENDBRANCH  20  21
ENDBRANCH  19  20
ENDBRANCH  18  19
ENDBRANCH  17  18
ENDBRANCH  16  17
ENDBRANCH  15  16
ENDBRANCH  14  15
ENDBRANCH  13  14
ENDBRANCH   1  13
TORSDOF 20
ENDMDL
MODEL 3
REMARK VINA RESULT:    -3.641      1.393      2.775
REMARK INTER + INTRA:         -11.249
REMARK INTER:                  -9.167
REMARK INTRA:                  -2.082
REMARK UNBOUND:                -3.351
REMARK SMILES CCCCCCCCCCCCCCCCCCCCCC(=O)[O-]
REMARK SMILES IDX 12 1 11 2 10 3 9 4 8 5 7 6 6 7 5 8 4 9 3 10 2 11 1 12 13 13
REMARK SMILES IDX 14 14 15 15 16 16 17 17 18 18 19 19 20 20 21 21 22 22 23 23
REMARK SMILES IDX 24 24
REMARK H PARENT
REMARK Flexibility Score: inf
ROOT
ATOM      1  C   UNL     1      98.508 -65.978   1.819  1.00  0.00     0.000 C 
ENDROOT
BRANCH   1   2
ATOM      2  C   UNL     1      98.058 -65.962   3.292  1.00  0.00     0.000 C 
BRANCH   2   3
ATOM      3  C   UNL     1      97.533 -67.306   3.824  1.00  0.00     0.000 C 
BRANCH   3   4
ATOM      4  C   UNL     1      98.499 -68.472   3.567  1.00  0.00    -0.000 C 
BRANCH   4   5
ATOM      5  C   UNL     1      99.758 -68.343   4.437  1.00  0.00    -0.000 C 
BRANCH   5   6
ATOM      6  C   UNL     1      99.950 -69.533   5.395  1.00  0.00    -0.000 C 
BRANCH   6   7
ATOM      7  C   UNL     1     101.417 -69.887   5.711  1.00  0.00    -0.000 C 
BRANCH   7   8
ATOM      8  C   UNL     1     101.991 -69.218   6.971  1.00  0.00    -0.000 C 
BRANCH   8   9
ATOM      9  C   UNL     1     100.900 -68.756   7.950  1.00  0.00    -0.000 C 
BRANCH   9  10
ATOM     10  C   UNL     1     101.486 -68.511   9.346  1.00  0.00    -0.000 C 
BRANCH  10  11
ATOM     11  C   UNL     1     100.412 -68.664  10.429  1.00  0.00    -0.003 C 
ATOM     12  C   UNL     1     100.141 -67.335  11.127  1.00  0.00     0.004 C 
ENDBRANCH  10  11
ENDBRANCH   9  10
ENDBRANCH   8   9
ENDBRANCH   7   8
ENDBRANCH   6   7
ENDBRANCH   5   6
ENDBRANCH   4   5
ENDBRANCH   3   4
ENDBRANCH   2   3
ENDBRANCH   1   2
BRANCH   1  13
ATOM     13  C   UNL     1      99.861 -65.277   1.570  1.00  0.00     0.000 C 
BRANCH  13  14
ATOM     14  C   UNL     1     101.059 -66.220   1.785  1.00  0.00     0.000 C 
BRANCH  14  15
ATOM     15  C   UNL     1     101.945 -66.361   0.535  1.00  0.00     0.000 C 
BRANCH  15  16
ATOM     16  C   UNL     1     101.681 -65.316  -0.565  1.00  0.00     0.000 C 
BRANCH  16  17
ATOM     17  C   UNL     1     101.750 -65.911  -1.982  1.00  0.00     0.000 C 
BRANCH  17  18
ATOM     18  C   UNL     1     101.549 -67.435  -1.994  1.00  0.00     0.000 C 
BRANCH  18  19
ATOM     19  C   UNL     1     100.228 -67.850  -2.664  1.00  0.00     0.000 C 
BRANCH  19  20
ATOM     20  C   UNL     1      99.020 -67.702  -1.725  1.00  0.00     0.006 C 
BRANCH  20  21
ATOM     21  C   UNL     1      98.338 -69.043  -1.422  1.00  0.00     0.053 C 
BRANCH  21  22
ATOM     22  C   UNL     1      98.726 -69.529  -0.062  1.00  0.00     0.041 C 
ATOM     23  O   UNL     1      99.749 -69.065   0.509  1.00  0.00    -0.550 OA
ATOM     24  O   UNL     1      97.985 -70.527   0.556  1.00  0.00    -0.550 OA
ENDBRANCH  21  22
ENDBRANCH  20  21
ENDBRANCH  19  20
ENDBRANCH  18  19
ENDBRANCH  17  18
ENDBRANCH  16  17
ENDBRANCH  15  16
ENDBRANCH  14  15
ENDBRANCH  13  14
ENDBRANCH   1  13
TORSDOF 20
ENDMDL
MODEL 4
REMARK VINA RESULT:    -3.506      3.072      7.834
REMARK INTER + INTRA:         -10.956
REMARK INTER:                  -7.516
REMARK INTRA:                  -3.440
REMARK UNBOUND:                -3.351
REMARK SMILES CCCCCCCCCCCCCCCCCCCCCC(=O)[O-]
REMARK SMILES IDX 12 1 11 2 10 3 9 4 8 5 7 6 6 7 5 8 4 9 3 10 2 11 1 12 13 13
REMARK SMILES IDX 14 14 15 15 16 16 17 17 18 18 19 19 20 20 21 21 22 22 23 23
REMARK SMILES IDX 24 24
REMARK H PARENT
REMARK Flexibility Score: inf
ROOT
ATOM      1  C   UNL     1      97.665 -67.775   3.836  1.00  0.00     0.000 C 
ENDROOT
BRANCH   1   2
ATOM      2  C   UNL     1      97.698 -66.314   3.348  1.00  0.00     0.000 C 
BRANCH   2   3
ATOM      3  C   UNL     1      98.758 -65.428   4.023  1.00  0.00     0.000 C 
BRANCH   3   4
ATOM      4  C   UNL     1      99.850 -64.953   3.052  1.00  0.00    -0.000 C 
BRANCH   4   5
ATOM      5  C   UNL     1     101.197 -65.619   3.372  1.00  0.00    -0.000 C 
BRANCH   5   6
ATOM      6  C   UNL     1     101.998 -65.991   2.112  1.00  0.00    -0.000 C 
BRANCH   6   7
ATOM      7  C   UNL     1     101.820 -67.445   1.630  1.00  0.00    -0.000 C 
BRANCH   7   8
ATOM      8  C   UNL     1     101.478 -67.599   0.138  1.00  0.00    -0.000 C 
BRANCH   8   9
ATOM      9  C   UNL     1     100.241 -66.786  -0.276  1.00  0.00    -0.000 C 
BRANCH   9  10
ATOM     10  C   UNL     1      98.952 -67.541   0.069  1.00  0.00    -0.000 C 
BRANCH  10  11
ATOM     11  C   UNL     1      98.861 -68.861  -0.706  1.00  0.00    -0.003 C 
ATOM     12  C   UNL     1      98.227 -69.957   0.145  1.00  0.00     0.004 C 
ENDBRANCH  10  11
ENDBRANCH   9  10
ENDBRANCH   8   9
ENDBRANCH   7   8
ENDBRANCH   6   7
ENDBRANCH   5   6
ENDBRANCH   4   5
ENDBRANCH   3   4
ENDBRANCH   2   3
ENDBRANCH   1   2
BRANCH   1  13
ATOM     13  C   UNL     1      98.995 -68.534   3.634  1.00  0.00     0.000 C 
BRANCH  13  14
ATOM     14  C   UNL     1      99.560 -69.089   4.954  1.00  0.00     0.000 C 
BRANCH  14  15
ATOM     15  C   UNL     1     101.098 -69.106   4.989  1.00  0.00     0.000 C 
BRANCH  15  16
ATOM     16  C   UNL     1     101.733 -68.114   5.980  1.00  0.00     0.000 C 
BRANCH  16  17
ATOM     17  C   UNL     1     100.703 -67.162   6.612  1.00  0.00     0.000 C 
BRANCH  17  18
ATOM     18  C   UNL     1     101.354 -65.922   7.246  1.00  0.00     0.000 C 
BRANCH  18  19
ATOM     19  C   UNL     1     100.669 -65.503   8.559  1.00  0.00     0.000 C 
BRANCH  19  20
ATOM     20  C   UNL     1     101.270 -66.207   9.786  1.00  0.00     0.006 C 
BRANCH  20  21
ATOM     21  C   UNL     1     100.244 -67.068  10.536  1.00  0.00     0.053 C 
BRANCH  21  22
ATOM     22  C   UNL     1     100.584 -68.518  10.401  1.00  0.00     0.041 C 
ATOM     23  O   UNL     1     100.668 -69.045   9.260  1.00  0.00    -0.550 OA
ATOM     24  O   UNL     1     100.761 -69.298  11.536  1.00  0.00    -0.550 OA
ENDBRANCH  21  22
ENDBRANCH  20  21
ENDBRANCH  19  20
ENDBRANCH  18  19
ENDBRANCH  17  18
ENDBRANCH  16  17
ENDBRANCH  15  16
ENDBRANCH  14  15
ENDBRANCH  13  14
ENDBRANCH   1  13
TORSDOF 20
ENDMDL
MODEL 5
REMARK VINA RESULT:    -3.446      1.846      3.081
REMARK INTER + INTRA:         -10.827
REMARK INTER:                  -9.008
REMARK INTRA:                  -1.819
REMARK UNBOUND:                -3.351
REMARK SMILES CCCCCCCCCCCCCCCCCCCCCC(=O)[O-]
REMARK SMILES IDX 12 1 11 2 10 3 9 4 8 5 7 6 6 7 5 8 4 9 3 10 2 11 1 12 13 13
REMARK SMILES IDX 14 14 15 15 16 16 17 17 18 18 19 19 20 20 21 21 22 22 23 23
REMARK SMILES IDX 24 24
REMARK H PARENT
REMARK Flexibility Score: inf
ROOT
ATOM      1  C   UNL     1      98.192 -65.534   2.628  1.00  0.00     0.000 C 
ENDROOT
BRANCH   1   2
ATOM      2  C   UNL     1      97.892 -66.222   3.973  1.00  0.00     0.000 C 
BRANCH   2   3
ATOM      3  C   UNL     1      97.528 -67.713   3.872  1.00  0.00     0.000 C 
BRANCH   3   4
ATOM      4  C   UNL     1      98.760 -68.622   3.743  1.00  0.00    -0.000 C 
BRANCH   4   5
ATOM      5  C   UNL     1      99.819 -68.264   4.796  1.00  0.00    -0.000 C 
BRANCH   5   6
ATOM      6  C   UNL     1     100.177 -69.446   5.714  1.00  0.00    -0.000 C 
BRANCH   6   7
ATOM      7  C   UNL     1     101.469 -69.267   6.537  1.00  0.00    -0.000 C 
BRANCH   7   8
ATOM      8  C   UNL     1     101.544 -67.968   7.356  1.00  0.00    -0.000 C 
BRANCH   8   9
ATOM      9  C   UNL     1     100.732 -68.037   8.660  1.00  0.00    -0.000 C 
BRANCH   9  10
ATOM     10  C   UNL     1     100.523 -66.637   9.248  1.00  0.00    -0.000 C 
BRANCH  10  11
ATOM     11  C   UNL     1     100.226 -66.709  10.751  1.00  0.00    -0.003 C 
ATOM     12  C   UNL     1     100.148 -68.157  11.227  1.00  0.00     0.004 C 
ENDBRANCH  10  11
ENDBRANCH   9  10
ENDBRANCH   8   9
ENDBRANCH   7   8
ENDBRANCH   6   7
ENDBRANCH   5   6
ENDBRANCH   4   5
ENDBRANCH   3   4
ENDBRANCH   2   3
ENDBRANCH   1   2
BRANCH   1  13
ATOM     13  C   UNL     1      99.625 -64.969   2.520  1.00  0.00     0.000 C 
BRANCH  13  14
ATOM     14  C   UNL     1     100.572 -65.912   1.755  1.00  0.00     0.000 C 
BRANCH  14  15
ATOM     15  C   UNL     1      99.844 -66.769   0.704  1.00  0.00     0.000 C 
BRANCH  15  16
ATOM     16  C   UNL     1     100.759 -67.687  -0.126  1.00  0.00     0.000 C 
BRANCH  16  17
ATOM     17  C   UNL     1     101.246 -67.025  -1.427  1.00  0.00     0.000 C 
BRANCH  17  18
ATOM     18  C   UNL     1     101.991 -68.004  -2.347  1.00  0.00     0.000 C 
BRANCH  18  19
ATOM     19  C   UNL     1     101.233 -68.273  -3.659  1.00  0.00     0.000 C 
BRANCH  19  20
ATOM     20  C   UNL     1      99.974 -67.403  -3.800  1.00  0.00     0.006 C 
BRANCH  20  21
ATOM     21  C   UNL     1      98.685 -68.170  -3.477  1.00  0.00     0.053 C 
BRANCH  21  22
ATOM     22  C   UNL     1      97.603 -67.223  -3.066  1.00  0.00     0.041 C 
ATOM     23  O   UNL     1      97.437 -66.939  -1.850  1.00  0.00    -0.550 OA
ATOM     24  O   UNL     1      96.748 -66.689  -4.021  1.00  0.00    -0.550 OA
ENDBRANCH  21  22
ENDBRANCH  20  21
ENDBRANCH  19  20
ENDBRANCH  18  19
ENDBRANCH  17  18
ENDBRANCH  16  17
ENDBRANCH  15  16
ENDBRANCH  14  15
ENDBRANCH  13  14
ENDBRANCH   1  13
TORSDOF 20
ENDMDL
MODEL 6
REMARK VINA RESULT:    -3.394      1.111      1.668
REMARK INTER + INTRA:         -10.714
REMARK INTER:                  -8.301
REMARK INTRA:                  -2.413
REMARK UNBOUND:                -3.351
REMARK SMILES CCCCCCCCCCCCCCCCCCCCCC(=O)[O-]
REMARK SMILES IDX 12 1 11 2 10 3 9 4 8 5 7 6 6 7 5 8 4 9 3 10 2 11 1 12 13 13
REMARK SMILES IDX 14 14 15 15 16 16 17 17 18 18 19 19 20 20 21 21 22 22 23 23
REMARK SMILES IDX 24 24
REMARK H PARENT
REMARK Flexibility Score: inf
ROOT
ATOM      1  C   UNL     1      97.825 -67.882   3.874  1.00  0.00     0.000 C 
ENDROOT
BRANCH   1   2
ATOM      2  C   UNL     1      99.242 -68.478   3.980  1.00  0.00     0.000 C 
BRANCH   2   3
ATOM      3  C   UNL     1      99.516 -69.276   5.266  1.00  0.00     0.000 C 
BRANCH   3   4
ATOM      4  C   UNL     1     100.973 -69.749   5.379  1.00  0.00    -0.000 C 
BRANCH   4   5
ATOM      5  C   UNL     1     101.716 -68.978   6.481  1.00  0.00    -0.000 C 
BRANCH   5   6
ATOM      6  C   UNL     1     101.558 -67.453   6.358  1.00  0.00    -0.000 C 
BRANCH   6   7
ATOM      7  C   UNL     1     101.008 -66.749   7.615  1.00  0.00    -0.000 C 
BRANCH   7   8
ATOM      8  C   UNL     1     101.615 -67.225   8.945  1.00  0.00    -0.000 C 
BRANCH   8   9
ATOM      9  C   UNL     1     100.613 -67.171  10.110  1.00  0.00    -0.000 C 
BRANCH   9  10
ATOM     10  C   UNL     1     100.286 -68.582  10.615  1.00  0.00    -0.000 C 
BRANCH  10  11
ATOM     11  C   UNL     1     101.375 -69.093  11.564  1.00  0.00    -0.003 C 
ATOM     12  C   UNL     1     101.851 -67.988  12.503  1.00  0.00     0.004 C 
ENDBRANCH  10  11
ENDBRANCH   9  10
ENDBRANCH   8   9
ENDBRANCH   7   8
ENDBRANCH   6   7
ENDBRANCH   5   6
ENDBRANCH   4   5
ENDBRANCH   3   4
ENDBRANCH   2   3
ENDBRANCH   1   2
BRANCH   1  13
ATOM     13  C   UNL     1      97.800 -66.341   3.768  1.00  0.00     0.000 C 
BRANCH  13  14
ATOM     14  C   UNL     1      99.132 -65.702   4.204  1.00  0.00     0.000 C 
BRANCH  14  15
ATOM     15  C   UNL     1      99.927 -65.110   3.028  1.00  0.00     0.000 C 
BRANCH  15  16
ATOM     16  C   UNL     1     101.444 -65.364   3.081  1.00  0.00     0.000 C 
BRANCH  16  17
ATOM     17  C   UNL     1     102.109 -65.297   1.695  1.00  0.00     0.000 C 
BRANCH  17  18
ATOM     18  C   UNL     1     101.089 -65.137   0.556  1.00  0.00     0.000 C 
BRANCH  18  19
ATOM     19  C   UNL     1     101.201 -66.253  -0.496  1.00  0.00     0.000 C 
BRANCH  19  20
ATOM     20  C   UNL     1     100.836 -67.634   0.070  1.00  0.00     0.006 C 
BRANCH  20  21
ATOM     21  C   UNL     1      99.340 -67.770   0.383  1.00  0.00     0.053 C 
BRANCH  21  22
ATOM     22  C   UNL     1      98.787 -69.010  -0.244  1.00  0.00     0.041 C 
ATOM     23  O   UNL     1      98.413 -68.999  -1.447  1.00  0.00    -0.550 OA
ATOM     24  O   UNL     1      98.641 -70.165   0.513  1.00  0.00    -0.550 OA
ENDBRANCH  21  22
ENDBRANCH  20  21
ENDBRANCH  19  20
ENDBRANCH  18  19
ENDBRANCH  17  18
ENDBRANCH  16  17
ENDBRANCH  15  16
ENDBRANCH  14  15
ENDBRANCH  13  14
ENDBRANCH   1  13
TORSDOF 20
ENDMDL
MODEL 7
REMARK VINA RESULT:    -3.371      1.375      2.669
REMARK INTER + INTRA:         -10.664
REMARK INTER:                  -7.594
REMARK INTRA:                  -3.070
REMARK UNBOUND:                -3.351
REMARK SMILES CCCCCCCCCCCCCCCCCCCCCC(=O)[O-]
REMARK SMILES IDX 12 1 11 2 10 3 9 4 8 5 7 6 6 7 5 8 4 9 3 10 2 11 1 12 13 13
REMARK SMILES IDX 14 14 15 15 16 16 17 17 18 18 19 19 20 20 21 21 22 22 23 23
REMARK SMILES IDX 24 24
REMARK H PARENT
REMARK Flexibility Score: inf
ROOT
ATOM      1  C   UNL     1      97.392 -67.339   3.647  1.00  0.00     0.000 C 
ENDROOT
BRANCH   1   2
ATOM      2  C   UNL     1      97.909 -65.895   3.506  1.00  0.00     0.000 C 
BRANCH   2   3
ATOM      3  C   UNL     1      98.856 -65.431   4.626  1.00  0.00     0.000 C 
BRANCH   3   4
ATOM      4  C   UNL     1     100.289 -65.178   4.133  1.00  0.00    -0.000 C 
BRANCH   4   5
ATOM      5  C   UNL     1     101.303 -65.984   4.957  1.00  0.00    -0.000 C 
BRANCH   5   6
ATOM      6  C   UNL     1     100.662 -66.715   6.150  1.00  0.00    -0.000 C 
BRANCH   6   7
ATOM      7  C   UNL     1     100.721 -68.255   6.082  1.00  0.00    -0.000 C 
BRANCH   7   8
ATOM      8  C   UNL     1     101.566 -68.922   7.180  1.00  0.00    -0.000 C 
BRANCH   8   9
ATOM      9  C   UNL     1     101.676 -68.065   8.451  1.00  0.00    -0.000 C 
BRANCH   9  10
ATOM     10  C   UNL     1     100.687 -68.543   9.520  1.00  0.00    -0.000 C 
BRANCH  10  11
ATOM     11  C   UNL     1     100.432 -67.449  10.564  1.00  0.00    -0.003 C 
ATOM     12  C   UNL     1     100.231 -66.090   9.899  1.00  0.00     0.004 C 
ENDBRANCH  10  11
ENDBRANCH   9  10
ENDBRANCH   8   9
ENDBRANCH   7   8
ENDBRANCH   6   7
ENDBRANCH   5   6
ENDBRANCH   4   5
ENDBRANCH   3   4
ENDBRANCH   2   3
ENDBRANCH   1   2
BRANCH   1  13
ATOM     13  C   UNL     1      98.451 -68.417   3.327  1.00  0.00     0.000 C 
BRANCH  13  14
ATOM     14  C   UNL     1      99.018 -68.277   1.902  1.00  0.00     0.000 C 
BRANCH  14  15
ATOM     15  C   UNL     1     100.515 -67.922   1.884  1.00  0.00     0.000 C 
BRANCH  15  16
ATOM     16  C   UNL     1     101.065 -67.511   0.507  1.00  0.00     0.000 C 
BRANCH  16  17
ATOM     17  C   UNL     1     101.327 -65.999   0.397  1.00  0.00     0.000 C 
BRANCH  17  18
ATOM     18  C   UNL     1     100.032 -65.171   0.409  1.00  0.00     0.000 C 
BRANCH  18  19
ATOM     19  C   UNL     1      99.315 -65.178  -0.953  1.00  0.00     0.000 C 
BRANCH  19  20
ATOM     20  C   UNL     1      98.131 -66.156  -0.988  1.00  0.00     0.006 C 
BRANCH  20  21
ATOM     21  C   UNL     1      98.021 -66.905  -2.323  1.00  0.00     0.053 C 
BRANCH  21  22
ATOM     22  C   UNL     1      98.719 -68.225  -2.239  1.00  0.00     0.041 C 
ATOM     23  O   UNL     1      99.841 -68.383  -2.788  1.00  0.00    -0.550 OA
ATOM     24  O   UNL     1      98.110 -69.293  -1.595  1.00  0.00    -0.550 OA
ENDBRANCH  21  22
ENDBRANCH  20  21
ENDBRANCH  19  20
ENDBRANCH  18  19
ENDBRANCH  17  18
ENDBRANCH  16  17
ENDBRANCH  15  16
ENDBRANCH  14  15
ENDBRANCH  13  14
ENDBRANCH   1  13
TORSDOF 20
ENDMDL
MODEL 8
REMARK VINA RESULT:    -3.346      1.574      2.793
REMARK INTER + INTRA:         -10.609
REMARK INTER:                  -8.743
REMARK INTRA:                  -1.866
REMARK UNBOUND:                -3.351
REMARK SMILES CCCCCCCCCCCCCCCCCCCCCC(=O)[O-]
REMARK SMILES IDX 12 1 11 2 10 3 9 4 8 5 7 6 6 7 5 8 4 9 3 10 2 11 1 12 13 13
REMARK SMILES IDX 14 14 15 15 16 16 17 17 18 18 19 19 20 20 21 21 22 22 23 23
REMARK SMILES IDX 24 24
REMARK H PARENT
REMARK Flexibility Score: inf
ROOT
ATOM      1  C   UNL     1      97.254 -67.435   3.887  1.00  0.00     0.000 C 
ENDROOT
BRANCH   1   2
ATOM      2  C   UNL     1      98.403 -68.398   3.534  1.00  0.00     0.000 C 
BRANCH   2   3
ATOM      3  C   UNL     1      99.333 -68.755   4.706  1.00  0.00     0.000 C 
BRANCH   3   4
ATOM      4  C   UNL     1     100.818 -68.773   4.308  1.00  0.00    -0.000 C 
BRANCH   4   5
ATOM      5  C   UNL     1     101.395 -67.350   4.280  1.00  0.00    -0.000 C 
BRANCH   5   6
ATOM      6  C   UNL     1     101.265 -66.622   5.630  1.00  0.00    -0.000 C 
BRANCH   6   7
ATOM      7  C   UNL     1     101.895 -67.356   6.831  1.00  0.00    -0.000 C 
BRANCH   7   8
ATOM      8  C   UNL     1     100.992 -67.469   8.071  1.00  0.00    -0.000 C 
BRANCH   8   9
ATOM      9  C   UNL     1     101.609 -68.336   9.180  1.00  0.00    -0.000 C 
BRANCH   9  10
ATOM     10  C   UNL     1     100.524 -68.871  10.122  1.00  0.00    -0.000 C 
BRANCH  10  11
ATOM     11  C   UNL     1     100.401 -67.995  11.375  1.00  0.00    -0.003 C 
ATOM     12  C   UNL     1     101.587 -68.203  12.311  1.00  0.00     0.004 C 
ENDBRANCH  10  11
ENDBRANCH   9  10
ENDBRANCH   8   9
ENDBRANCH   7   8
ENDBRANCH   6   7
ENDBRANCH   5   6
ENDBRANCH   4   5
ENDBRANCH   3   4
ENDBRANCH   2   3
ENDBRANCH   1   2
BRANCH   1  13
ATOM     13  C   UNL     1      97.654 -65.944   3.856  1.00  0.00     0.000 C 
BRANCH  13  14
ATOM     14  C   UNL     1      98.657 -65.629   2.731  1.00  0.00     0.000 C 
BRANCH  14  15
ATOM     15  C   UNL     1      97.979 -65.115   1.449  1.00  0.00     0.000 C 
BRANCH  15  16
ATOM     16  C   UNL     1      98.825 -65.253   0.171  1.00  0.00     0.000 C 
BRANCH  16  17
ATOM     17  C   UNL     1      97.979 -65.583  -1.071  1.00  0.00     0.000 C 
BRANCH  17  18
ATOM     18  C   UNL     1      98.828 -65.740  -2.342  1.00  0.00     0.000 C 
BRANCH  18  19
ATOM     19  C   UNL     1      98.647 -67.116  -3.006  1.00  0.00     0.000 C 
BRANCH  19  20
ATOM     20  C   UNL     1      99.285 -68.251  -2.189  1.00  0.00     0.006 C 
BRANCH  20  21
ATOM     21  C   UNL     1      98.245 -69.121  -1.471  1.00  0.00     0.053 C 
BRANCH  21  22
ATOM     22  C   UNL     1      98.741 -69.515  -0.117  1.00  0.00     0.041 C 
ATOM     23  O   UNL     1      99.755 -68.953   0.375  1.00  0.00    -0.550 OA
ATOM     24  O   UNL     1      98.112 -70.537   0.583  1.00  0.00    -0.550 OA
ENDBRANCH  21  22
ENDBRANCH  20  21
ENDBRANCH  19  20
ENDBRANCH  18  19
ENDBRANCH  17  18
ENDBRANCH  16  17
ENDBRANCH  15  16
ENDBRANCH  14  15
ENDBRANCH  13  14
ENDBRANCH   1  13
TORSDOF 20
ENDMDL
MODEL 9
REMARK VINA RESULT:    -3.325      1.315      2.123
REMARK INTER + INTRA:         -10.563
REMARK INTER:                  -8.388
REMARK INTRA:                  -2.175
REMARK UNBOUND:                -3.351
REMARK SMILES CCCCCCCCCCCCCCCCCCCCCC(=O)[O-]
REMARK SMILES IDX 12 1 11 2 10 3 9 4 8 5 7 6 6 7 5 8 4 9 3 10 2 11 1 12 13 13
REMARK SMILES IDX 14 14 15 15 16 16 17 17 18 18 19 19 20 20 21 21 22 22 23 23
REMARK SMILES IDX 24 24
REMARK H PARENT
REMARK Flexibility Score: inf
ROOT
ATOM      1  C   UNL     1      98.551 -67.731   4.222  1.00  0.00     0.000 C 
ENDROOT
BRANCH   1   2
ATOM      2  C   UNL     1      99.390 -69.023   4.241  1.00  0.00     0.000 C 
BRANCH   2   3
ATOM      3  C   UNL     1      99.859 -69.473   5.635  1.00  0.00     0.000 C 
BRANCH   3   4
ATOM      4  C   UNL     1     101.372 -69.732   5.704  1.00  0.00    -0.000 C 
BRANCH   4   5
ATOM      5  C   UNL     1     102.077 -68.644   6.527  1.00  0.00    -0.000 C 
BRANCH   5   6
ATOM      6  C   UNL     1     101.141 -67.950   7.532  1.00  0.00    -0.000 C 
BRANCH   6   7
ATOM      7  C   UNL     1     101.564 -68.070   9.011  1.00  0.00    -0.000 C 
BRANCH   7   8
ATOM      8  C   UNL     1     100.652 -68.953   9.879  1.00  0.00    -0.000 C 
BRANCH   8   9
ATOM      9  C   UNL     1     100.012 -68.182  11.045  1.00  0.00    -0.000 C 
BRANCH   9  10
ATOM     10  C   UNL     1     100.782 -66.887  11.332  1.00  0.00    -0.000 C 
BRANCH  10  11
ATOM     11  C   UNL     1      99.848 -65.671  11.296  1.00  0.00    -0.003 C 
ATOM     12  C   UNL     1      99.992 -64.904   9.986  1.00  0.00     0.004 C 
ENDBRANCH  10  11
ENDBRANCH   9  10
ENDBRANCH   8   9
ENDBRANCH   7   8
ENDBRANCH   6   7
ENDBRANCH   5   6
ENDBRANCH   4   5
ENDBRANCH   3   4
ENDBRANCH   2   3
ENDBRANCH   1   2
BRANCH   1  13
ATOM     13  C   UNL     1      99.370 -66.448   4.482  1.00  0.00     0.000 C 
BRANCH  13  14
ATOM     14  C   UNL     1     100.739 -66.474   3.776  1.00  0.00     0.000 C 
BRANCH  14  15
ATOM     15  C   UNL     1     100.637 -66.224   2.261  1.00  0.00     0.000 C 
BRANCH  15  16
ATOM     16  C   UNL     1     101.186 -67.361   1.380  1.00  0.00     0.000 C 
BRANCH  16  17
ATOM     17  C   UNL     1     100.557 -67.383  -0.024  1.00  0.00     0.000 C 
BRANCH  17  18
ATOM     18  C   UNL     1      99.949 -66.029  -0.422  1.00  0.00     0.000 C 
BRANCH  18  19
ATOM     19  C   UNL     1      99.789 -65.880  -1.945  1.00  0.00     0.000 C 
BRANCH  19  20
ATOM     20  C   UNL     1     100.348 -67.086  -2.716  1.00  0.00     0.006 C 
BRANCH  20  21
ATOM     21  C   UNL     1      99.294 -67.767  -3.598  1.00  0.00     0.053 C 
BRANCH  21  22
ATOM     22  C   UNL     1      98.030 -67.981  -2.828  1.00  0.00     0.041 C 
ATOM     23  O   UNL     1      97.028 -67.247  -3.038  1.00  0.00    -0.550 OA
ATOM     24  O   UNL     1      97.973 -68.961  -1.846  1.00  0.00    -0.550 OA
ENDBRANCH  21  22
ENDBRANCH  20  21
ENDBRANCH  19  20
ENDBRANCH  18  19
ENDBRANCH  17  18
ENDBRANCH  16  17
ENDBRANCH  15  16
ENDBRANCH  14  15
ENDBRANCH  13  14
ENDBRANCH   1  13
TORSDOF 20
ENDMDL
