MODEL 1
REMARK VINA RESULT:    -3.890      0.000      0.000
REMARK INTER + INTRA:          -6.322
REMARK INTER:                  -5.709
REMARK INTRA:                  -0.613
REMARK UNBOUND:                -0.613
REMARK SMILES O=C([O-])CCCCCCCC(=O)[O-]
REMARK SMILES IDX 7 1 6 2 5 3 4 4 2 5 1 6 3 7 8 8 9 9 10 10 11 11 12 12 13 13
REMARK H PARENT
REMARK Flexibility Score: inf
ROOT
ATOM      1  C   UNL     1      26.080  -3.001  52.925  1.00  0.00     0.000 C 
ENDROOT
BRANCH   1   2
ATOM      2  C   UNL     1      26.428  -3.629  51.567  1.00  0.00     0.000 C 
BRANCH   2   3
ATOM      3  C   UNL     1      26.614  -5.149  51.698  1.00  0.00     0.006 C 
BRANCH   3   4
ATOM      4  C   UNL     1      27.871  -5.514  52.498  1.00  0.00     0.053 C 
BRANCH   4   5
ATOM      5  C   UNL     1      29.125  -5.178  51.750  1.00  0.00     0.041 C 
ATOM      6  O   UNL     1      29.501  -5.901  50.789  1.00  0.00    -0.550 OA
ATOM      7  O   UNL     1      29.896  -4.089  52.133  1.00  0.00    -0.550 OA
ENDBRANCH   4   5
ENDBRANCH   3   4
ENDBRANCH   2   3
ENDBRANCH   1   2
BRANCH   1   8
ATOM      8  C   UNL     1      24.665  -3.368  53.404  1.00  0.00     0.000 C 
BRANCH   8   9
ATOM      9  C   UNL     1      24.608  -3.659  54.913  1.00  0.00     0.006 C 
BRANCH   9  10
ATOM     10  C   UNL     1      25.501  -4.842  55.309  1.00  0.00     0.053 C 
BRANCH  10  11
ATOM     11  C   UNL     1      25.464  -5.100  56.785  1.00  0.00     0.041 C 
ATOM     12  O   UNL     1      24.375  -5.030  57.412  1.00  0.00    -0.550 OA
ATOM     13  O   UNL     1      26.637  -5.388  57.472  1.00  0.00    -0.550 OA
ENDBRANCH  10  11
ENDBRANCH   9  10
ENDBRANCH   8   9
ENDBRANCH   1   8
TORSDOF 8
ENDMDL
MODEL 2
REMARK VINA RESULT:    -3.854      0.710      5.053
REMARK INTER + INTRA:          -6.269
REMARK INTER:                  -5.567
REMARK INTRA:                  -0.701
REMARK UNBOUND:                -0.613
REMARK SMILES O=C([O-])CCCCCCCC(=O)[O-]
REMARK SMILES IDX 7 1 6 2 5 3 4 4 2 5 1 6 3 7 8 8 9 9 10 10 11 11 12 12 13 13
REMARK H PARENT
REMARK Flexibility Score: inf
ROOT
ATOM      1  C   UNL     1      25.970  -2.819  52.912  1.00  0.00     0.000 C 
ENDROOT
BRANCH   1   2
ATOM      2  C   UNL     1      24.581  -3.387  53.238  1.00  0.00     0.000 C 
BRANCH   2   3
ATOM      3  C   UNL     1      24.509  -3.856  54.699  1.00  0.00     0.006 C 
BRANCH   3   4
ATOM      4  C   UNL     1      25.895  -3.943  55.351  1.00  0.00     0.053 C 
BRANCH   4   5
ATOM      5  C   UNL     1      26.008  -5.127  56.262  1.00  0.00     0.041 C 
ATOM      6  O   UNL     1      26.315  -6.257  55.795  1.00  0.00    -0.550 OA
ATOM      7  O   UNL     1      25.743  -4.993  57.618  1.00  0.00    -0.550 OA
ENDBRANCH   4   5
ENDBRANCH   3   4
ENDBRANCH   2   3
ENDBRANCH   1   2
BRANCH   1   8
ATOM      8  C   UNL     1      26.606  -3.478  51.677  1.00  0.00     0.000 C 
BRANCH   8   9
ATOM      9  C   UNL     1      26.630  -5.013  51.772  1.00  0.00     0.006 C 
BRANCH   9  10
ATOM     10  C   UNL     1      27.845  -5.527  52.557  1.00  0.00     0.053 C 
BRANCH  10  11
ATOM     11  C   UNL     1      29.134  -5.211  51.859  1.00  0.00     0.041 C 
ATOM     12  O   UNL     1      29.473  -5.858  50.834  1.00  0.00    -0.550 OA
ATOM     13  O   UNL     1      29.972  -4.223  52.360  1.00  0.00    -0.550 OA
ENDBRANCH  10  11
ENDBRANCH   9  10
ENDBRANCH   8   9
ENDBRANCH   1   8
TORSDOF 8
ENDMDL
MODEL 3
REMARK VINA RESULT:    -3.769      1.582      4.501
REMARK INTER + INTRA:          -6.144
REMARK INTER:                  -5.306
REMARK INTRA:                  -0.838
REMARK UNBOUND:                -0.613
REMARK SMILES O=C([O-])CCCCCCCC(=O)[O-]
REMARK SMILES IDX 7 1 6 2 5 3 4 4 2 5 1 6 3 7 8 8 9 9 10 10 11 11 12 12 13 13
REMARK H PARENT
REMARK Flexibility Score: inf
ROOT
ATOM      1  C   UNL     1      25.400  -1.917  53.421  1.00  0.00     0.000 C 
ENDROOT
BRANCH   1   2
ATOM      2  C   UNL     1      24.714  -3.283  53.276  1.00  0.00     0.000 C 
BRANCH   2   3
ATOM      3  C   UNL     1      24.467  -3.922  54.651  1.00  0.00     0.006 C 
BRANCH   3   4
ATOM      4  C   UNL     1      25.628  -3.679  55.623  1.00  0.00     0.053 C 
BRANCH   4   5
ATOM      5  C   UNL     1      26.724  -4.685  55.444  1.00  0.00     0.041 C 
ATOM      6  O   UNL     1      26.486  -5.913  55.594  1.00  0.00    -0.550 OA
ATOM      7  O   UNL     1      28.014  -4.266  55.146  1.00  0.00    -0.550 OA
ENDBRANCH   4   5
ENDBRANCH   3   4
ENDBRANCH   2   3
ENDBRANCH   1   2
BRANCH   1   8
ATOM      8  C   UNL     1      26.556  -1.724  52.426  1.00  0.00     0.000 C 
BRANCH   8   9
ATOM      9  C   UNL     1      26.737  -2.930  51.488  1.00  0.00     0.006 C 
BRANCH   9  10
ATOM     10  C   UNL     1      28.112  -3.592  51.655  1.00  0.00     0.053 C 
BRANCH  10  11
ATOM     11  C   UNL     1      28.010  -5.087  51.685  1.00  0.00     0.041 C 
ATOM     12  O   UNL     1      26.953  -5.642  52.083  1.00  0.00    -0.550 OA
ATOM     13  O   UNL     1      29.095  -5.866  51.301  1.00  0.00    -0.550 OA
ENDBRANCH  10  11
ENDBRANCH   9  10
ENDBRANCH   8   9
ENDBRANCH   1   8
TORSDOF 8
ENDMDL
MODEL 4
REMARK VINA RESULT:    -3.757      1.744      5.080
REMARK INTER + INTRA:          -6.126
REMARK INTER:                  -5.516
REMARK INTRA:                  -0.610
REMARK UNBOUND:                -0.613
REMARK SMILES O=C([O-])CCCCCCCC(=O)[O-]
REMARK SMILES IDX 7 1 6 2 5 3 4 4 2 5 1 6 3 7 8 8 9 9 10 10 11 11 12 12 13 13
REMARK H PARENT
REMARK Flexibility Score: inf
ROOT
ATOM      1  C   UNL     1      27.059  -1.897  52.129  1.00  0.00     0.000 C 
ENDROOT
BRANCH   1   2
ATOM      2  C   UNL     1      26.553  -3.067  51.271  1.00  0.00     0.000 C 
BRANCH   2   3
ATOM      3  C   UNL     1      25.742  -4.059  52.120  1.00  0.00     0.006 C 
BRANCH   3   4
ATOM      4  C   UNL     1      24.890  -3.354  53.183  1.00  0.00     0.053 C 
BRANCH   4   5
ATOM      5  C   UNL     1      25.113  -3.931  54.547  1.00  0.00     0.041 C 
ATOM      6  O   UNL     1      25.755  -5.007  54.682  1.00  0.00    -0.550 OA
ATOM      7  O   UNL     1      24.585  -3.301  55.666  1.00  0.00    -0.550 OA
ENDBRANCH   4   5
ENDBRANCH   3   4
ENDBRANCH   2   3
ENDBRANCH   1   2
BRANCH   1   8
ATOM      8  C   UNL     1      28.582  -1.928  52.334  1.00  0.00     0.000 C 
BRANCH   8   9
ATOM      9  C   UNL     1      29.281  -2.963  51.436  1.00  0.00     0.006 C 
BRANCH   9  10
ATOM     10  C   UNL     1      29.920  -4.097  52.247  1.00  0.00     0.053 C 
BRANCH  10  11
ATOM     11  C   UNL     1      29.342  -5.433  51.890  1.00  0.00     0.041 C 
ATOM     12  O   UNL     1      29.536  -5.922  50.747  1.00  0.00    -0.550 OA
ATOM     13  O   UNL     1      28.564  -6.123  52.811  1.00  0.00    -0.550 OA
ENDBRANCH  10  11
ENDBRANCH   9  10
ENDBRANCH   8   9
ENDBRANCH   1   8
TORSDOF 8
ENDMDL
MODEL 5
REMARK VINA RESULT:    -3.708      0.992      1.726
REMARK INTER + INTRA:          -6.054
REMARK INTER:                  -5.503
REMARK INTRA:                  -0.552
REMARK UNBOUND:                -0.613
REMARK SMILES O=C([O-])CCCCCCCC(=O)[O-]
REMARK SMILES IDX 7 1 6 2 5 3 4 4 2 5 1 6 3 7 8 8 9 9 10 10 11 11 12 12 13 13
REMARK H PARENT
REMARK Flexibility Score: inf
ROOT
ATOM      1  C   UNL     1      24.532  -3.596  53.424  1.00  0.00     0.000 C 
ENDROOT
BRANCH   1   2
ATOM      2  C   UNL     1      25.837  -3.033  52.842  1.00  0.00     0.000 C 
BRANCH   2   3
ATOM      3  C   UNL     1      26.171  -3.699  51.498  1.00  0.00     0.006 C 
BRANCH   3   4
ATOM      4  C   UNL     1      26.571  -5.171  51.662  1.00  0.00     0.053 C 
BRANCH   4   5
ATOM      5  C   UNL     1      28.029  -5.321  51.969  1.00  0.00     0.041 C 
ATOM      6  O   UNL     1      28.422  -6.238  52.739  1.00  0.00    -0.550 OA
ATOM      7  O   UNL     1      28.950  -4.430  51.435  1.00  0.00    -0.550 OA
ENDBRANCH   4   5
ENDBRANCH   3   4
ENDBRANCH   2   3
ENDBRANCH   1   2
BRANCH   1   8
ATOM      8  C   UNL     1      24.646  -3.935  54.919  1.00  0.00     0.000 C 
BRANCH   8   9
ATOM      9  C   UNL     1      25.918  -4.735  55.250  1.00  0.00     0.006 C 
BRANCH   9  10
ATOM     10  C   UNL     1      25.755  -5.585  56.517  1.00  0.00     0.053 C 
BRANCH  10  11
ATOM     11  C   UNL     1      25.219  -4.781  57.663  1.00  0.00     0.041 C 
ATOM     12  O   UNL     1      25.918  -3.872  58.181  1.00  0.00    -0.550 OA
ATOM     13  O   UNL     1      23.958  -5.058  58.177  1.00  0.00    -0.550 OA
ENDBRANCH  10  11
ENDBRANCH   9  10
ENDBRANCH   8   9
ENDBRANCH   1   8
TORSDOF 8
ENDMDL
MODEL 6
REMARK VINA RESULT:    -3.682      1.534      4.641
REMARK INTER + INTRA:          -6.016
REMARK INTER:                  -5.174
REMARK INTRA:                  -0.842
REMARK UNBOUND:                -0.613
REMARK SMILES O=C([O-])CCCCCCCC(=O)[O-]
REMARK SMILES IDX 7 1 6 2 5 3 4 4 2 5 1 6 3 7 8 8 9 9 10 10 11 11 12 12 13 13
REMARK H PARENT
REMARK Flexibility Score: inf
ROOT
ATOM      1  C   UNL     1      25.937  -2.053  53.567  1.00  0.00     0.000 C 
ENDROOT
BRANCH   1   2
ATOM      2  C   UNL     1      24.680  -2.928  53.458  1.00  0.00     0.000 C 
BRANCH   2   3
ATOM      3  C   UNL     1      24.709  -4.063  54.494  1.00  0.00     0.006 C 
BRANCH   3   4
ATOM      4  C   UNL     1      25.972  -4.023  55.364  1.00  0.00     0.053 C 
BRANCH   4   5
ATOM      5  C   UNL     1      26.083  -5.233  56.240  1.00  0.00     0.041 C 
ATOM      6  O   UNL     1      26.490  -6.326  55.762  1.00  0.00    -0.550 OA
ATOM      7  O   UNL     1      25.704  -5.166  57.574  1.00  0.00    -0.550 OA
ENDBRANCH   4   5
ENDBRANCH   3   4
ENDBRANCH   2   3
ENDBRANCH   1   2
BRANCH   1   8
ATOM      8  C   UNL     1      26.491  -1.637  52.194  1.00  0.00     0.000 C 
BRANCH   8   9
ATOM      9  C   UNL     1      26.861  -2.843  51.314  1.00  0.00     0.006 C 
BRANCH   9  10
ATOM     10  C   UNL     1      27.963  -3.704  51.946  1.00  0.00     0.053 C 
BRANCH  10  11
ATOM     11  C   UNL     1      27.522  -5.125  52.131  1.00  0.00     0.041 C 
ATOM     12  O   UNL     1      26.401  -5.501  51.701  1.00  0.00    -0.550 OA
ATOM     13  O   UNL     1      28.339  -6.025  52.804  1.00  0.00    -0.550 OA
ENDBRANCH  10  11
ENDBRANCH   9  10
ENDBRANCH   8   9
ENDBRANCH   1   8
TORSDOF 8
ENDMDL
MODEL 7
REMARK VINA RESULT:    -3.675      1.324      5.192
REMARK INTER + INTRA:          -6.006
REMARK INTER:                  -5.360
REMARK INTRA:                  -0.646
REMARK UNBOUND:                -0.613
REMARK SMILES O=C([O-])CCCCCCCC(=O)[O-]
REMARK SMILES IDX 7 1 6 2 5 3 4 4 2 5 1 6 3 7 8 8 9 9 10 10 11 11 12 12 13 13
REMARK H PARENT
REMARK Flexibility Score: inf
ROOT
ATOM      1  C   UNL     1      26.110  -3.661  51.498  1.00  0.00     0.000 C 
ENDROOT
BRANCH   1   2
ATOM      2  C   UNL     1      25.810  -2.992  52.847  1.00  0.00     0.000 C 
BRANCH   2   3
ATOM      3  C   UNL     1      24.554  -3.599  53.492  1.00  0.00     0.006 C 
BRANCH   3   4
ATOM      4  C   UNL     1      24.602  -3.542  55.025  1.00  0.00     0.053 C 
BRANCH   4   5
ATOM      5  C   UNL     1      25.779  -4.288  55.573  1.00  0.00     0.041 C 
ATOM      6  O   UNL     1      26.702  -3.667  56.166  1.00  0.00    -0.550 OA
ATOM      7  O   UNL     1      25.875  -5.663  55.402  1.00  0.00    -0.550 OA
ENDBRANCH   4   5
ENDBRANCH   3   4
ENDBRANCH   2   3
ENDBRANCH   1   2
BRANCH   1   8
ATOM      8  C   UNL     1      26.382  -5.169  51.630  1.00  0.00     0.000 C 
BRANCH   8   9
ATOM      9  C   UNL     1      27.665  -5.472  52.423  1.00  0.00     0.006 C 
BRANCH   9  10
ATOM     10  C   UNL     1      28.911  -5.483  51.527  1.00  0.00     0.053 C 
BRANCH  10  11
ATOM     11  C   UNL     1      29.787  -4.292  51.776  1.00  0.00     0.041 C 
ATOM     12  O   UNL     1      30.732  -4.363  52.604  1.00  0.00    -0.550 OA
ATOM     13  O   UNL     1      29.540  -3.096  51.114  1.00  0.00    -0.550 OA
ENDBRANCH  10  11
ENDBRANCH   9  10
ENDBRANCH   8   9
ENDBRANCH   1   8
TORSDOF 8
ENDMDL
MODEL 8
REMARK VINA RESULT:    -3.642      1.620      2.188
REMARK INTER + INTRA:          -5.958
REMARK INTER:                  -5.120
REMARK INTRA:                  -0.839
REMARK UNBOUND:                -0.613
REMARK SMILES O=C([O-])CCCCCCCC(=O)[O-]
REMARK SMILES IDX 7 1 6 2 5 3 4 4 2 5 1 6 3 7 8 8 9 9 10 10 11 11 12 12 13 13
REMARK H PARENT
REMARK Flexibility Score: inf
ROOT
ATOM      1  C   UNL     1      25.477  -3.262  54.137  1.00  0.00     0.000 C 
ENDROOT
BRANCH   1   2
ATOM      2  C   UNL     1      24.903  -3.687  52.778  1.00  0.00     0.000 C 
BRANCH   2   3
ATOM      3  C   UNL     1      26.018  -3.825  51.730  1.00  0.00     0.006 C 
BRANCH   3   4
ATOM      4  C   UNL     1      26.754  -5.167  51.838  1.00  0.00     0.053 C 
BRANCH   4   5
ATOM      5  C   UNL     1      28.235  -4.981  51.969  1.00  0.00     0.041 C 
ATOM      6  O   UNL     1      29.022  -5.893  51.601  1.00  0.00    -0.550 OA
ATOM      7  O   UNL     1      28.745  -3.817  52.529  1.00  0.00    -0.550 OA
ENDBRANCH   4   5
ENDBRANCH   3   4
ENDBRANCH   2   3
ENDBRANCH   1   2
BRANCH   1   8
ATOM      8  C   UNL     1      24.761  -3.933  55.321  1.00  0.00     0.000 C 
BRANCH   8   9
ATOM      9  C   UNL     1      25.726  -4.707  56.235  1.00  0.00     0.006 C 
BRANCH   9  10
ATOM     10  C   UNL     1      26.377  -5.896  55.516  1.00  0.00     0.053 C 
BRANCH  10  11
ATOM     11  C   UNL     1      27.869  -5.762  55.455  1.00  0.00     0.041 C 
ATOM     12  O   UNL     1      28.421  -4.679  55.785  1.00  0.00    -0.550 OA
ATOM     13  O   UNL     1      28.646  -6.822  55.006  1.00  0.00    -0.550 OA
ENDBRANCH  10  11
ENDBRANCH   9  10
ENDBRANCH   8   9
ENDBRANCH   1   8
TORSDOF 8
ENDMDL
MODEL 9
REMARK VINA RESULT:    -3.617      1.694      5.270
REMARK INTER + INTRA:          -5.922
REMARK INTER:                  -5.219
REMARK INTRA:                  -0.702
REMARK UNBOUND:                -0.613
REMARK SMILES O=C([O-])CCCCCCCC(=O)[O-]
REMARK SMILES IDX 7 1 6 2 5 3 4 4 2 5 1 6 3 7 8 8 9 9 10 10 11 11 12 12 13 13
REMARK H PARENT
REMARK Flexibility Score: inf
ROOT
ATOM      1  C   UNL     1      26.287  -4.822  51.450  1.00  0.00     0.000 C 
ENDROOT
BRANCH   1   2
ATOM      2  C   UNL     1      26.408  -3.291  51.429  1.00  0.00     0.000 C 
BRANCH   2   3
ATOM      3  C   UNL     1      26.038  -2.692  52.795  1.00  0.00     0.006 C 
BRANCH   3   4
ATOM      4  C   UNL     1      24.711  -3.245  53.332  1.00  0.00     0.053 C 
BRANCH   4   5
ATOM      5  C   UNL     1      24.822  -3.660  54.767  1.00  0.00     0.041 C 
ATOM      6  O   UNL     1      25.342  -4.769  55.067  1.00  0.00    -0.550 OA
ATOM      7  O   UNL     1      24.322  -2.842  55.771  1.00  0.00    -0.550 OA
ENDBRANCH   4   5
ENDBRANCH   3   4
ENDBRANCH   2   3
ENDBRANCH   1   2
BRANCH   1   8
ATOM      8  C   UNL     1      27.422  -5.495  52.239  1.00  0.00     0.000 C 
BRANCH   8   9
ATOM      9  C   UNL     1      28.727  -5.594  51.432  1.00  0.00     0.006 C 
BRANCH   9  10
ATOM     10  C   UNL     1      29.938  -5.081  52.223  1.00  0.00     0.053 C 
BRANCH  10  11
ATOM     11  C   UNL     1      29.883  -3.597  52.425  1.00  0.00     0.041 C 
ATOM     12  O   UNL     1      29.749  -3.120  53.582  1.00  0.00    -0.550 OA
ATOM     13  O   UNL     1      29.951  -2.742  51.332  1.00  0.00    -0.550 OA
ENDBRANCH  10  11
ENDBRANCH   9  10
ENDBRANCH   8   9
ENDBRANCH   1   8
TORSDOF 8
ENDMDL
