MODEL 1
REMARK VINA RESULT:    -5.273      0.000      0.000
REMARK INTER + INTRA:         -17.716
REMARK INTER:                 -13.288
REMARK INTRA:                  -4.427
REMARK UNBOUND:                -4.427
REMARK SMILES CCCCCCCCCCCCCCCCCCCCCCCCCCCC(=O)[O-]
REMARK SMILES IDX 15 1 16 2 17 3 18 4 19 5 20 6 21 7 22 8 23 9 24 10 25 11
REMARK SMILES IDX 26 12 27 13 28 14 29 15 30 16 14 17 13 18 12 19 11 20 10 21
REMARK SMILES IDX 9 22 8 23 7 24 6 25 5 26 4 27 3 28 2 29 1 30
REMARK H PARENT
REMARK Flexibility Score: inf
ROOT
ATOM      1  C   UNL     1      16.845 -34.513  23.595  1.00  0.00     0.000 C 
ENDROOT
BRANCH   1   2
ATOM      2  C   UNL     1      16.539 -33.110  24.151  1.00  0.00     0.000 C 
BRANCH   2   3
ATOM      3  C   UNL     1      17.522 -32.045  23.632  1.00  0.00     0.000 C 
BRANCH   3   4
ATOM      4  C   UNL     1      16.876 -31.062  22.638  1.00  0.00     0.000 C 
BRANCH   4   5
ATOM      5  C   UNL     1      17.688 -30.795  21.357  1.00  0.00     0.000 C 
BRANCH   5   6
ATOM      6  C   UNL     1      18.600 -31.967  20.964  1.00  0.00     0.000 C 
BRANCH   6   7
ATOM      7  C   UNL     1      20.032 -31.481  20.698  1.00  0.00     0.000 C 
BRANCH   7   8
ATOM      8  C   UNL     1      20.866 -31.344  21.984  1.00  0.00     0.000 C 
BRANCH   8   9
ATOM      9  C   UNL     1      21.084 -29.897  22.467  1.00  0.00     0.000 C 
BRANCH   9  10
ATOM     10  C   UNL     1      21.351 -28.871  21.353  1.00  0.00     0.000 C 
BRANCH  10  11
ATOM     11  C   UNL     1      20.151 -27.946  21.095  1.00  0.00     0.000 C 
BRANCH  11  12
ATOM     12  C   UNL     1      20.561 -26.746  20.228  1.00  0.00     0.006 C 
BRANCH  12  13
ATOM     13  C   UNL     1      21.737 -25.965  20.831  1.00  0.00     0.053 C 
BRANCH  13  14
ATOM     14  C   UNL     1      22.879 -25.839  19.870  1.00  0.00     0.041 C 
ATOM     15  O   UNL     1      23.375 -26.866  19.335  1.00  0.00    -0.550 OA
ATOM     16  O   UNL     1      23.383 -24.585  19.549  1.00  0.00    -0.550 OA
ENDBRANCH  13  14
ENDBRANCH  12  13
ENDBRANCH  11  12
ENDBRANCH  10  11
ENDBRANCH   9  10
ENDBRANCH   8   9
ENDBRANCH   7   8
ENDBRANCH   6   7
ENDBRANCH   5   6
ENDBRANCH   4   5
ENDBRANCH   3   4
ENDBRANCH   2   3
ENDBRANCH   1   2
BRANCH   1  17
ATOM     17  C   UNL     1      18.337 -34.782  23.307  1.00  0.00     0.000 C 
BRANCH  17  18
ATOM     18  C   UNL     1      18.633 -35.432  21.941  1.00  0.00     0.000 C 
BRANCH  18  19
ATOM     19  C   UNL     1      18.001 -36.822  21.724  1.00  0.00     0.000 C 
BRANCH  19  20
ATOM     20  C   UNL     1      17.334 -37.022  20.352  1.00  0.00     0.000 C 
BRANCH  20  21
ATOM     21  C   UNL     1      17.031 -35.693  19.640  1.00  0.00     0.000 C 
BRANCH  21  22
ATOM     22  C   UNL     1      15.602 -35.185  19.930  1.00  0.00    -0.000 C 
BRANCH  22  23
ATOM     23  C   UNL     1      15.531 -33.683  20.263  1.00  0.00    -0.000 C 
BRANCH  23  24
ATOM     24  C   UNL     1      14.328 -33.263  21.125  1.00  0.00    -0.000 C 
BRANCH  24  25
ATOM     25  C   UNL     1      13.497 -32.141  20.479  1.00  0.00    -0.000 C 
BRANCH  25  26
ATOM     26  C   UNL     1      12.835 -31.222  21.517  1.00  0.00    -0.000 C 
BRANCH  26  27
ATOM     27  C   UNL     1      13.287 -31.528  22.956  1.00  0.00    -0.000 C 
BRANCH  27  28
ATOM     28  C   UNL     1      13.314 -30.275  23.845  1.00  0.00    -0.000 C 
BRANCH  28  29
ATOM     29  C   UNL     1      13.574 -28.990  23.045  1.00  0.00    -0.003 C 
ATOM     30  C   UNL     1      13.156 -27.755  23.840  1.00  0.00     0.004 C 
ENDBRANCH  28  29
ENDBRANCH  27  28
ENDBRANCH  26  27
ENDBRANCH  25  26
ENDBRANCH  24  25
ENDBRANCH  23  24
ENDBRANCH  22  23
ENDBRANCH  21  22
ENDBRANCH  20  21
ENDBRANCH  19  20
ENDBRANCH  18  19
ENDBRANCH  17  18
ENDBRANCH   1  17
TORSDOF 26
ENDMDL
MODEL 2
REMARK VINA RESULT:    -5.217      1.211      4.255
REMARK INTER + INTRA:         -17.575
REMARK INTER:                 -13.151
REMARK INTRA:                  -4.424
REMARK UNBOUND:                -4.427
REMARK SMILES CCCCCCCCCCCCCCCCCCCCCCCCCCCC(=O)[O-]
REMARK SMILES IDX 15 1 16 2 17 3 18 4 19 5 20 6 21 7 22 8 23 9 24 10 25 11
REMARK SMILES IDX 26 12 27 13 28 14 29 15 30 16 14 17 13 18 12 19 11 20 10 21
REMARK SMILES IDX 9 22 8 23 7 24 6 25 5 26 4 27 3 28 2 29 1 30
REMARK H PARENT
REMARK Flexibility Score: inf
ROOT
ATOM      1  C   UNL     1      15.308 -29.434  22.134  1.00  0.00     0.000 C 
ENDROOT
BRANCH   1   2
ATOM      2  C   UNL     1      16.673 -30.089  22.412  1.00  0.00     0.000 C 
BRANCH   2   3
ATOM      3  C   UNL     1      17.394 -30.515  21.122  1.00  0.00     0.000 C 
BRANCH   3   4
ATOM      4  C   UNL     1      17.857 -31.984  21.146  1.00  0.00     0.000 C 
BRANCH   4   5
ATOM      5  C   UNL     1      19.332 -32.214  20.769  1.00  0.00     0.000 C 
BRANCH   5   6
ATOM      6  C   UNL     1      20.272 -32.234  21.984  1.00  0.00     0.000 C 
BRANCH   6   7
ATOM      7  C   UNL     1      21.345 -31.142  21.863  1.00  0.00     0.000 C 
BRANCH   7   8
ATOM      8  C   UNL     1      20.975 -30.049  20.845  1.00  0.00     0.000 C 
BRANCH   8   9
ATOM      9  C   UNL     1      20.695 -28.661  21.454  1.00  0.00     0.000 C 
BRANCH   9  10
ATOM     10  C   UNL     1      19.948 -27.683  20.530  1.00  0.00     0.000 C 
BRANCH  10  11
ATOM     11  C   UNL     1      20.619 -26.304  20.454  1.00  0.00     0.000 C 
BRANCH  11  12
ATOM     12  C   UNL     1      22.149 -26.439  20.436  1.00  0.00     0.006 C 
BRANCH  12  13
ATOM     13  C   UNL     1      22.818 -25.394  19.534  1.00  0.00     0.053 C 
BRANCH  13  14
ATOM     14  C   UNL     1      23.486 -24.313  20.327  1.00  0.00     0.041 C 
ATOM     15  O   UNL     1      24.312 -23.538  19.776  1.00  0.00    -0.550 OA
ATOM     16  O   UNL     1      23.183 -24.149  21.673  1.00  0.00    -0.550 OA
ENDBRANCH  13  14
ENDBRANCH  12  13
ENDBRANCH  11  12
ENDBRANCH  10  11
ENDBRANCH   9  10
ENDBRANCH   8   9
ENDBRANCH   7   8
ENDBRANCH   6   7
ENDBRANCH   5   6
ENDBRANCH   4   5
ENDBRANCH   3   4
ENDBRANCH   2   3
ENDBRANCH   1   2
BRANCH   1  17
ATOM     17  C   UNL     1      14.104 -30.152  22.782  1.00  0.00     0.000 C 
BRANCH  17  18
ATOM     18  C   UNL     1      13.365 -31.146  21.864  1.00  0.00     0.000 C 
BRANCH  18  19
ATOM     19  C   UNL     1      13.874 -32.600  21.925  1.00  0.00     0.000 C 
BRANCH  19  20
ATOM     20  C   UNL     1      14.348 -33.176  20.579  1.00  0.00     0.000 C 
BRANCH  20  21
ATOM     21  C   UNL     1      14.880 -34.613  20.702  1.00  0.00     0.000 C 
BRANCH  21  22
ATOM     22  C   UNL     1      16.143 -34.845  19.845  1.00  0.00    -0.000 C 
BRANCH  22  23
ATOM     23  C   UNL     1      16.517 -36.331  19.678  1.00  0.00    -0.000 C 
BRANCH  23  24
ATOM     24  C   UNL     1      17.511 -36.873  20.720  1.00  0.00    -0.000 C 
BRANCH  24  25
ATOM     25  C   UNL     1      18.275 -35.755  21.449  1.00  0.00    -0.000 C 
BRANCH  25  26
ATOM     26  C   UNL     1      18.830 -36.209  22.809  1.00  0.00    -0.000 C 
BRANCH  26  27
ATOM     27  C   UNL     1      18.415 -35.277  23.961  1.00  0.00    -0.000 C 
BRANCH  27  28
ATOM     28  C   UNL     1      16.905 -34.996  23.978  1.00  0.00    -0.000 C 
BRANCH  28  29
ATOM     29  C   UNL     1      16.584 -33.504  24.153  1.00  0.00    -0.003 C 
ATOM     30  C   UNL     1      17.759 -32.760  24.783  1.00  0.00     0.004 C 
ENDBRANCH  28  29
ENDBRANCH  27  28
ENDBRANCH  26  27
ENDBRANCH  25  26
ENDBRANCH  24  25
ENDBRANCH  23  24
ENDBRANCH  22  23
ENDBRANCH  21  22
ENDBRANCH  20  21
ENDBRANCH  19  20
ENDBRANCH  18  19
ENDBRANCH  17  18
ENDBRANCH   1  17
TORSDOF 26
ENDMDL
MODEL 3
REMARK VINA RESULT:    -5.167      1.013      4.327
REMARK INTER + INTRA:         -17.447
REMARK INTER:                 -13.026
REMARK INTRA:                  -4.421
REMARK UNBOUND:                -4.427
REMARK SMILES CCCCCCCCCCCCCCCCCCCCCCCCCCCC(=O)[O-]
REMARK SMILES IDX 15 1 16 2 17 3 18 4 19 5 20 6 21 7 22 8 23 9 24 10 25 11
REMARK SMILES IDX 26 12 27 13 28 14 29 15 30 16 14 17 13 18 12 19 11 20 10 21
REMARK SMILES IDX 9 22 8 23 7 24 6 25 5 26 4 27 3 28 2 29 1 30
REMARK H PARENT
REMARK Flexibility Score: inf
ROOT
ATOM      1  C   UNL     1      15.163 -29.596  22.768  1.00  0.00     0.000 C 
ENDROOT
BRANCH   1   2
ATOM      2  C   UNL     1      16.503 -30.350  22.860  1.00  0.00     0.000 C 
BRANCH   2   3
ATOM      3  C   UNL     1      17.330 -30.239  21.568  1.00  0.00     0.000 C 
BRANCH   3   4
ATOM      4  C   UNL     1      17.556 -31.597  20.877  1.00  0.00     0.000 C 
BRANCH   4   5
ATOM      5  C   UNL     1      19.022 -32.062  20.806  1.00  0.00     0.000 C 
BRANCH   5   6
ATOM      6  C   UNL     1      19.754 -31.961  22.153  1.00  0.00     0.000 C 
BRANCH   6   7
ATOM      7  C   UNL     1      21.275 -31.903  21.945  1.00  0.00     0.000 C 
BRANCH   7   8
ATOM      8  C   UNL     1      21.928 -30.693  22.638  1.00  0.00     0.000 C 
BRANCH   8   9
ATOM      9  C   UNL     1      21.304 -29.328  22.288  1.00  0.00     0.000 C 
BRANCH   9  10
ATOM     10  C   UNL     1      21.009 -29.109  20.795  1.00  0.00     0.000 C 
BRANCH  10  11
ATOM     11  C   UNL     1      20.048 -27.938  20.542  1.00  0.00     0.000 C 
BRANCH  11  12
ATOM     12  C   UNL     1      20.528 -26.670  21.264  1.00  0.00     0.006 C 
BRANCH  12  13
ATOM     13  C   UNL     1      21.082 -25.618  20.294  1.00  0.00     0.053 C 
BRANCH  13  14
ATOM     14  C   UNL     1      22.575 -25.681  20.191  1.00  0.00     0.041 C 
ATOM     15  O   UNL     1      23.243 -26.333  21.036  1.00  0.00    -0.550 OA
ATOM     16  O   UNL     1      23.228 -25.034  19.149  1.00  0.00    -0.550 OA
ENDBRANCH  13  14
ENDBRANCH  12  13
ENDBRANCH  11  12
ENDBRANCH  10  11
ENDBRANCH   9  10
ENDBRANCH   8   9
ENDBRANCH   7   8
ENDBRANCH   6   7
ENDBRANCH   5   6
ENDBRANCH   4   5
ENDBRANCH   3   4
ENDBRANCH   2   3
ENDBRANCH   1   2
BRANCH   1  17
ATOM     17  C   UNL     1      13.952 -30.359  23.346  1.00  0.00     0.000 C 
BRANCH  17  18
ATOM     18  C   UNL     1      12.964 -30.908  22.298  1.00  0.00     0.000 C 
BRANCH  18  19
ATOM     19  C   UNL     1      13.546 -31.102  20.883  1.00  0.00     0.000 C 
BRANCH  19  20
ATOM     20  C   UNL     1      13.561 -32.557  20.384  1.00  0.00     0.000 C 
BRANCH  20  21
ATOM     21  C   UNL     1      14.627 -33.415  21.086  1.00  0.00     0.000 C 
BRANCH  21  22
ATOM     22  C   UNL     1      14.982 -34.683  20.280  1.00  0.00    -0.000 C 
BRANCH  22  23
ATOM     23  C   UNL     1      16.144 -34.483  19.288  1.00  0.00    -0.000 C 
BRANCH  23  24
ATOM     24  C   UNL     1      17.461 -35.176  19.679  1.00  0.00    -0.000 C 
BRANCH  24  25
ATOM     25  C   UNL     1      17.240 -36.576  20.275  1.00  0.00    -0.000 C 
BRANCH  25  26
ATOM     26  C   UNL     1      17.919 -36.750  21.643  1.00  0.00    -0.000 C 
BRANCH  26  27
ATOM     27  C   UNL     1      18.855 -35.581  21.996  1.00  0.00    -0.000 C 
BRANCH  27  28
ATOM     28  C   UNL     1      18.516 -34.943  23.352  1.00  0.00    -0.000 C 
BRANCH  28  29
ATOM     29  C   UNL     1      17.038 -35.117  23.733  1.00  0.00    -0.003 C 
ATOM     30  C   UNL     1      16.406 -33.779  24.106  1.00  0.00     0.004 C 
ENDBRANCH  28  29
ENDBRANCH  27  28
ENDBRANCH  26  27
ENDBRANCH  25  26
ENDBRANCH  24  25
ENDBRANCH  23  24
ENDBRANCH  22  23
ENDBRANCH  21  22
ENDBRANCH  20  21
ENDBRANCH  19  20
ENDBRANCH  18  19
ENDBRANCH  17  18
ENDBRANCH   1  17
TORSDOF 26
ENDMDL
MODEL 4
REMARK VINA RESULT:    -5.147      1.093      4.072
REMARK INTER + INTRA:         -17.398
REMARK INTER:                 -13.624
REMARK INTRA:                  -3.775
REMARK UNBOUND:                -4.427
REMARK SMILES CCCCCCCCCCCCCCCCCCCCCCCCCCCC(=O)[O-]
REMARK SMILES IDX 15 1 16 2 17 3 18 4 19 5 20 6 21 7 22 8 23 9 24 10 25 11
REMARK SMILES IDX 26 12 27 13 28 14 29 15 30 16 14 17 13 18 12 19 11 20 10 21
REMARK SMILES IDX 9 22 8 23 7 24 6 25 5 26 4 27 3 28 2 29 1 30
REMARK H PARENT
REMARK Flexibility Score: inf
ROOT
ATOM      1  C   UNL     1      13.887 -30.120  23.028  1.00  0.00     0.000 C 
ENDROOT
BRANCH   1   2
ATOM      2  C   UNL     1      15.165 -29.618  22.332  1.00  0.00     0.000 C 
BRANCH   2   3
ATOM      3  C   UNL     1      16.442 -30.219  22.943  1.00  0.00     0.000 C 
BRANCH   3   4
ATOM      4  C   UNL     1      16.896 -31.514  22.242  1.00  0.00     0.000 C 
BRANCH   4   5
ATOM      5  C   UNL     1      17.538 -31.320  20.856  1.00  0.00     0.000 C 
BRANCH   5   6
ATOM      6  C   UNL     1      18.695 -32.293  20.584  1.00  0.00     0.000 C 
BRANCH   6   7
ATOM      7  C   UNL     1      19.525 -32.526  21.855  1.00  0.00     0.000 C 
BRANCH   7   8
ATOM      8  C   UNL     1      20.945 -31.940  21.759  1.00  0.00     0.000 C 
BRANCH   8   9
ATOM      9  C   UNL     1      21.056 -30.628  20.958  1.00  0.00     0.000 C 
BRANCH   9  10
ATOM     10  C   UNL     1      21.044 -29.344  21.805  1.00  0.00     0.000 C 
BRANCH  10  11
ATOM     11  C   UNL     1      20.711 -28.091  20.983  1.00  0.00     0.000 C 
BRANCH  11  12
ATOM     12  C   UNL     1      21.899 -27.118  20.961  1.00  0.00     0.006 C 
BRANCH  12  13
ATOM     13  C   UNL     1      21.611 -25.861  20.129  1.00  0.00     0.053 C 
BRANCH  13  14
ATOM     14  C   UNL     1      22.820 -24.987  19.995  1.00  0.00     0.041 C 
ATOM     15  O   UNL     1      23.242 -24.331  20.984  1.00  0.00    -0.550 OA
ATOM     16  O   UNL     1      23.494 -24.912  18.783  1.00  0.00    -0.550 OA
ENDBRANCH  13  14
ENDBRANCH  12  13
ENDBRANCH  11  12
ENDBRANCH  10  11
ENDBRANCH   9  10
ENDBRANCH   8   9
ENDBRANCH   7   8
ENDBRANCH   6   7
ENDBRANCH   5   6
ENDBRANCH   4   5
ENDBRANCH   3   4
ENDBRANCH   2   3
ENDBRANCH   1   2
BRANCH   1  17
ATOM     17  C   UNL     1      13.262 -31.382  22.397  1.00  0.00     0.000 C 
BRANCH  17  18
ATOM     18  C   UNL     1      13.152 -31.358  20.860  1.00  0.00     0.000 C 
BRANCH  18  19
ATOM     19  C   UNL     1      13.530 -32.675  20.152  1.00  0.00     0.000 C 
BRANCH  19  20
ATOM     20  C   UNL     1      14.567 -33.534  20.896  1.00  0.00     0.000 C 
BRANCH  20  21
ATOM     21  C   UNL     1      15.012 -34.763  20.086  1.00  0.00     0.000 C 
BRANCH  21  22
ATOM     22  C   UNL     1      16.262 -34.478  19.227  1.00  0.00    -0.000 C 
BRANCH  22  23
ATOM     23  C   UNL     1      17.303 -35.613  19.247  1.00  0.00    -0.000 C 
BRANCH  23  24
ATOM     24  C   UNL     1      17.069 -36.692  20.319  1.00  0.00    -0.000 C 
BRANCH  24  25
ATOM     25  C   UNL     1      18.029 -36.560  21.513  1.00  0.00    -0.000 C 
BRANCH  25  26
ATOM     26  C   UNL     1      17.532 -35.552  22.562  1.00  0.00    -0.000 C 
BRANCH  26  27
ATOM     27  C   UNL     1      17.988 -35.905  23.989  1.00  0.00    -0.000 C 
BRANCH  27  28
ATOM     28  C   UNL     1      16.987 -35.443  25.059  1.00  0.00    -0.000 C 
BRANCH  28  29
ATOM     29  C   UNL     1      16.698 -33.936  24.986  1.00  0.00    -0.003 C 
ATOM     30  C   UNL     1      15.281 -33.673  24.484  1.00  0.00     0.004 C 
ENDBRANCH  28  29
ENDBRANCH  27  28
ENDBRANCH  26  27
ENDBRANCH  25  26
ENDBRANCH  24  25
ENDBRANCH  23  24
ENDBRANCH  22  23
ENDBRANCH  21  22
ENDBRANCH  20  21
ENDBRANCH  19  20
ENDBRANCH  18  19
ENDBRANCH  17  18
ENDBRANCH   1  17
TORSDOF 26
ENDMDL
MODEL 5
REMARK VINA RESULT:    -5.107      1.420      3.368
REMARK INTER + INTRA:         -17.296
REMARK INTER:                 -11.968
REMARK INTRA:                  -5.329
REMARK UNBOUND:                -4.427
REMARK SMILES CCCCCCCCCCCCCCCCCCCCCCCCCCCC(=O)[O-]
REMARK SMILES IDX 15 1 16 2 17 3 18 4 19 5 20 6 21 7 22 8 23 9 24 10 25 11
REMARK SMILES IDX 26 12 27 13 28 14 29 15 30 16 14 17 13 18 12 19 11 20 10 21
REMARK SMILES IDX 9 22 8 23 7 24 6 25 5 26 4 27 3 28 2 29 1 30
REMARK H PARENT
REMARK Flexibility Score: inf
ROOT
ATOM      1  C   UNL     1      16.965 -31.744  24.035  1.00  0.00     0.000 C 
ENDROOT
BRANCH   1   2
ATOM      2  C   UNL     1      17.323 -33.046  24.775  1.00  0.00     0.000 C 
BRANCH   2   3
ATOM      3  C   UNL     1      16.477 -34.241  24.304  1.00  0.00     0.000 C 
BRANCH   3   4
ATOM      4  C   UNL     1      17.281 -35.551  24.209  1.00  0.00     0.000 C 
BRANCH   4   5
ATOM      5  C   UNL     1      17.865 -35.865  22.820  1.00  0.00     0.000 C 
BRANCH   5   6
ATOM      6  C   UNL     1      19.396 -35.991  22.820  1.00  0.00     0.000 C 
BRANCH   6   7
ATOM      7  C   UNL     1      19.979 -35.563  24.175  1.00  0.00     0.000 C 
BRANCH   7   8
ATOM      8  C   UNL     1      20.929 -34.356  24.064  1.00  0.00     0.000 C 
BRANCH   8   9
ATOM      9  C   UNL     1      20.953 -33.671  22.684  1.00  0.00     0.000 C 
BRANCH   9  10
ATOM     10  C   UNL     1      21.877 -32.446  22.581  1.00  0.00     0.000 C 
BRANCH  10  11
ATOM     11  C   UNL     1      21.452 -31.470  21.474  1.00  0.00     0.000 C 
BRANCH  11  12
ATOM     12  C   UNL     1      21.292 -30.047  22.029  1.00  0.00     0.006 C 
BRANCH  12  13
ATOM     13  C   UNL     1      21.064 -29.009  20.921  1.00  0.00     0.053 C 
BRANCH  13  14
ATOM     14  C   UNL     1      21.905 -27.785  21.118  1.00  0.00     0.041 C 
ATOM     15  O   UNL     1      21.940 -27.212  22.239  1.00  0.00    -0.550 OA
ATOM     16  O   UNL     1      22.667 -27.288  20.068  1.00  0.00    -0.550 OA
ENDBRANCH  13  14
ENDBRANCH  12  13
ENDBRANCH  11  12
ENDBRANCH  10  11
ENDBRANCH   9  10
ENDBRANCH   8   9
ENDBRANCH   7   8
ENDBRANCH   6   7
ENDBRANCH   5   6
ENDBRANCH   4   5
ENDBRANCH   3   4
ENDBRANCH   2   3
ENDBRANCH   1   2
BRANCH   1  17
ATOM     17  C   UNL     1      18.067 -31.212  23.094  1.00  0.00     0.000 C 
BRANCH  17  18
ATOM     18  C   UNL     1      17.560 -30.621  21.763  1.00  0.00     0.000 C 
BRANCH  18  19
ATOM     19  C   UNL     1      17.719 -31.537  20.533  1.00  0.00     0.000 C 
BRANCH  19  20
ATOM     20  C   UNL     1      18.151 -32.979  20.853  1.00  0.00     0.000 C 
BRANCH  20  21
ATOM     21  C   UNL     1      18.319 -33.842  19.591  1.00  0.00     0.000 C 
BRANCH  21  22
ATOM     22  C   UNL     1      16.964 -34.214  18.952  1.00  0.00    -0.000 C 
BRANCH  22  23
ATOM     23  C   UNL     1      16.276 -35.424  19.611  1.00  0.00    -0.000 C 
BRANCH  23  24
ATOM     24  C   UNL     1      15.055 -35.084  20.483  1.00  0.00    -0.000 C 
BRANCH  24  25
ATOM     25  C   UNL     1      14.572 -33.637  20.289  1.00  0.00    -0.000 C 
BRANCH  25  26
ATOM     26  C   UNL     1      14.437 -32.876  21.617  1.00  0.00    -0.000 C 
BRANCH  26  27
ATOM     27  C   UNL     1      13.482 -31.673  21.519  1.00  0.00    -0.000 C 
BRANCH  27  28
ATOM     28  C   UNL     1      13.970 -30.465  22.334  1.00  0.00    -0.000 C 
BRANCH  28  29
ATOM     29  C   UNL     1      13.317 -30.387  23.722  1.00  0.00    -0.003 C 
ATOM     30  C   UNL     1      12.440 -29.144  23.847  1.00  0.00     0.004 C 
ENDBRANCH  28  29
ENDBRANCH  27  28
ENDBRANCH  26  27
ENDBRANCH  25  26
ENDBRANCH  24  25
ENDBRANCH  23  24
ENDBRANCH  22  23
ENDBRANCH  21  22
ENDBRANCH  20  21
ENDBRANCH  19  20
ENDBRANCH  18  19
ENDBRANCH  17  18
ENDBRANCH   1  17
TORSDOF 26
ENDMDL
MODEL 6
REMARK VINA RESULT:    -5.063      3.000      7.870
REMARK INTER + INTRA:         -17.186
REMARK INTER:                 -13.210
REMARK INTRA:                  -3.976
REMARK UNBOUND:                -4.427
REMARK SMILES CCCCCCCCCCCCCCCCCCCCCCCCCCCC(=O)[O-]
REMARK SMILES IDX 15 1 16 2 17 3 18 4 19 5 20 6 21 7 22 8 23 9 24 10 25 11
REMARK SMILES IDX 26 12 27 13 28 14 29 15 30 16 14 17 13 18 12 19 11 20 10 21
REMARK SMILES IDX 9 22 8 23 7 24 6 25 5 26 4 27 3 28 2 29 1 30
REMARK H PARENT
REMARK Flexibility Score: inf
ROOT
ATOM      1  C   UNL     1      16.183 -30.282  22.824  1.00  0.00     0.000 C 
ENDROOT
BRANCH   1   2
ATOM      2  C   UNL     1      15.331 -29.641  21.712  1.00  0.00     0.000 C 
BRANCH   2   3
ATOM      3  C   UNL     1      13.983 -30.358  21.518  1.00  0.00     0.000 C 
BRANCH   3   4
ATOM      4  C   UNL     1      14.008 -31.827  21.979  1.00  0.00     0.000 C 
BRANCH   4   5
ATOM      5  C   UNL     1      14.131 -32.867  20.851  1.00  0.00     0.000 C 
BRANCH   5   6
ATOM      6  C   UNL     1      15.056 -34.041  21.207  1.00  0.00     0.000 C 
BRANCH   6   7
ATOM      7  C   UNL     1      15.214 -34.995  20.014  1.00  0.00     0.000 C 
BRANCH   7   8
ATOM      8  C   UNL     1      16.685 -35.291  19.674  1.00  0.00     0.000 C 
BRANCH   8   9
ATOM      9  C   UNL     1      17.117 -36.757  19.871  1.00  0.00     0.000 C 
BRANCH   9  10
ATOM     10  C   UNL     1      17.862 -37.046  21.186  1.00  0.00     0.000 C 
BRANCH  10  11
ATOM     11  C   UNL     1      18.209 -35.771  21.968  1.00  0.00     0.000 C 
BRANCH  11  12
ATOM     12  C   UNL     1      17.812 -35.908  23.445  1.00  0.00     0.006 C 
BRANCH  12  13
ATOM     13  C   UNL     1      17.224 -34.610  24.015  1.00  0.00     0.053 C 
BRANCH  13  14
ATOM     14  C   UNL     1      18.213 -33.873  24.865  1.00  0.00     0.041 C 
ATOM     15  O   UNL     1      18.007 -32.672  25.183  1.00  0.00    -0.550 OA
ATOM     16  O   UNL     1      19.355 -34.519  25.324  1.00  0.00    -0.550 OA
ENDBRANCH  13  14
ENDBRANCH  12  13
ENDBRANCH  11  12
ENDBRANCH  10  11
ENDBRANCH   9  10
ENDBRANCH   8   9
ENDBRANCH   7   8
ENDBRANCH   6   7
ENDBRANCH   5   6
ENDBRANCH   4   5
ENDBRANCH   3   4
ENDBRANCH   2   3
ENDBRANCH   1   2
BRANCH   1  17
ATOM     17  C   UNL     1      17.587 -30.741  22.377  1.00  0.00     0.000 C 
BRANCH  17  18
ATOM     18  C   UNL     1      17.665 -31.304  20.943  1.00  0.00     0.000 C 
BRANCH  18  19
ATOM     19  C   UNL     1      18.848 -32.256  20.674  1.00  0.00     0.000 C 
BRANCH  19  20
ATOM     20  C   UNL     1      19.822 -32.426  21.853  1.00  0.00     0.000 C 
BRANCH  20  21
ATOM     21  C   UNL     1      21.131 -31.644  21.660  1.00  0.00     0.000 C 
BRANCH  21  22
ATOM     22  C   UNL     1      20.990 -30.515  20.616  1.00  0.00    -0.000 C 
BRANCH  22  23
ATOM     23  C   UNL     1      21.065 -29.099  21.218  1.00  0.00    -0.000 C 
BRANCH  23  24
ATOM     24  C   UNL     1      19.841 -28.209  20.942  1.00  0.00    -0.000 C 
BRANCH  24  25
ATOM     25  C   UNL     1      20.225 -26.755  20.618  1.00  0.00    -0.000 C 
BRANCH  25  26
ATOM     26  C   UNL     1      19.916 -25.790  21.774  1.00  0.00    -0.000 C 
BRANCH  26  27
ATOM     27  C   UNL     1      21.107 -24.881  22.125  1.00  0.00    -0.000 C 
BRANCH  27  28
ATOM     28  C   UNL     1      22.456 -25.493  21.716  1.00  0.00    -0.000 C 
BRANCH  28  29
ATOM     29  C   UNL     1      23.244 -24.594  20.751  1.00  0.00    -0.003 C 
ATOM     30  C   UNL     1      23.282 -25.196  19.348  1.00  0.00     0.004 C 
ENDBRANCH  28  29
ENDBRANCH  27  28
ENDBRANCH  26  27
ENDBRANCH  25  26
ENDBRANCH  24  25
ENDBRANCH  23  24
ENDBRANCH  22  23
ENDBRANCH  21  22
ENDBRANCH  20  21
ENDBRANCH  19  20
ENDBRANCH  18  19
ENDBRANCH  17  18
ENDBRANCH   1  17
TORSDOF 26
ENDMDL
MODEL 7
REMARK VINA RESULT:    -5.050      2.012      4.817
REMARK INTER + INTRA:         -17.153
REMARK INTER:                 -13.034
REMARK INTRA:                  -4.119
REMARK UNBOUND:                -4.427
REMARK SMILES CCCCCCCCCCCCCCCCCCCCCCCCCCCC(=O)[O-]
REMARK SMILES IDX 15 1 16 2 17 3 18 4 19 5 20 6 21 7 22 8 23 9 24 10 25 11
REMARK SMILES IDX 26 12 27 13 28 14 29 15 30 16 14 17 13 18 12 19 11 20 10 21
REMARK SMILES IDX 9 22 8 23 7 24 6 25 5 26 4 27 3 28 2 29 1 30
REMARK H PARENT
REMARK Flexibility Score: inf
ROOT
ATOM      1  C   UNL     1      14.096 -30.060  23.297  1.00  0.00     0.000 C 
ENDROOT
BRANCH   1   2
ATOM      2  C   UNL     1      14.587 -29.485  21.956  1.00  0.00     0.000 C 
BRANCH   2   3
ATOM      3  C   UNL     1      16.029 -29.910  21.627  1.00  0.00     0.000 C 
BRANCH   3   4
ATOM      4  C   UNL     1      16.834 -30.327  22.872  1.00  0.00     0.000 C 
BRANCH   4   5
ATOM      5  C   UNL     1      17.833 -31.478  22.653  1.00  0.00     0.000 C 
BRANCH   5   6
ATOM      6  C   UNL     1      18.448 -31.486  21.246  1.00  0.00     0.000 C 
BRANCH   6   7
ATOM      7  C   UNL     1      19.948 -31.810  21.307  1.00  0.00     0.000 C 
BRANCH   7   8
ATOM      8  C   UNL     1      20.828 -30.684  20.737  1.00  0.00     0.000 C 
BRANCH   8   9
ATOM      9  C   UNL     1      20.806 -29.370  21.542  1.00  0.00     0.000 C 
BRANCH   9  10
ATOM     10  C   UNL     1      19.993 -28.229  20.906  1.00  0.00     0.000 C 
BRANCH  10  11
ATOM     11  C   UNL     1      20.860 -27.019  20.527  1.00  0.00     0.000 C 
BRANCH  11  12
ATOM     12  C   UNL     1      22.183 -27.026  21.307  1.00  0.00     0.006 C 
BRANCH  12  13
ATOM     13  C   UNL     1      22.166 -26.055  22.495  1.00  0.00     0.053 C 
BRANCH  13  14
ATOM     14  C   UNL     1      22.285 -24.628  22.054  1.00  0.00     0.041 C 
ATOM     15  O   UNL     1      23.267 -24.258  21.358  1.00  0.00    -0.550 OA
ATOM     16  O   UNL     1      21.300 -23.710  22.396  1.00  0.00    -0.550 OA
ENDBRANCH  13  14
ENDBRANCH  12  13
ENDBRANCH  11  12
ENDBRANCH  10  11
ENDBRANCH   9  10
ENDBRANCH   8   9
ENDBRANCH   7   8
ENDBRANCH   6   7
ENDBRANCH   5   6
ENDBRANCH   4   5
ENDBRANCH   3   4
ENDBRANCH   2   3
ENDBRANCH   1   2
BRANCH   1  17
ATOM     17  C   UNL     1      13.327 -31.393  23.185  1.00  0.00     0.000 C 
BRANCH  17  18
ATOM     18  C   UNL     1      14.008 -32.600  23.860  1.00  0.00     0.000 C 
BRANCH  18  19
ATOM     19  C   UNL     1      14.760 -33.549  22.906  1.00  0.00     0.000 C 
BRANCH  19  20
ATOM     20  C   UNL     1      14.561 -33.253  21.410  1.00  0.00     0.000 C 
BRANCH  20  21
ATOM     21  C   UNL     1      15.731 -33.752  20.544  1.00  0.00     0.000 C 
BRANCH  21  22
ATOM     22  C   UNL     1      16.221 -35.151  20.974  1.00  0.00    -0.000 C 
BRANCH  22  23
ATOM     23  C   UNL     1      17.685 -35.177  21.455  1.00  0.00    -0.000 C 
BRANCH  23  24
ATOM     24  C   UNL     1      17.911 -35.859  22.815  1.00  0.00    -0.000 C 
BRANCH  24  25
ATOM     25  C   UNL     1      18.512 -34.908  23.863  1.00  0.00    -0.000 C 
BRANCH  25  26
ATOM     26  C   UNL     1      17.547 -34.623  25.025  1.00  0.00    -0.000 C 
BRANCH  26  27
ATOM     27  C   UNL     1      16.873 -35.897  25.564  1.00  0.00    -0.000 C 
BRANCH  27  28
ATOM     28  C   UNL     1      17.847 -36.797  26.340  1.00  0.00    -0.000 C 
BRANCH  28  29
ATOM     29  C   UNL     1      17.183 -38.085  26.850  1.00  0.00    -0.003 C 
ATOM     30  C   UNL     1      16.090 -37.773  27.868  1.00  0.00     0.004 C 
ENDBRANCH  28  29
ENDBRANCH  27  28
ENDBRANCH  26  27
ENDBRANCH  25  26
ENDBRANCH  24  25
ENDBRANCH  23  24
ENDBRANCH  22  23
ENDBRANCH  21  22
ENDBRANCH  20  21
ENDBRANCH  19  20
ENDBRANCH  18  19
ENDBRANCH  17  18
ENDBRANCH   1  17
TORSDOF 26
ENDMDL
MODEL 8
REMARK VINA RESULT:    -5.027      2.759      7.091
REMARK INTER + INTRA:         -17.094
REMARK INTER:                 -12.868
REMARK INTRA:                  -4.226
REMARK UNBOUND:                -4.427
REMARK SMILES CCCCCCCCCCCCCCCCCCCCCCCCCCCC(=O)[O-]
REMARK SMILES IDX 15 1 16 2 17 3 18 4 19 5 20 6 21 7 22 8 23 9 24 10 25 11
REMARK SMILES IDX 26 12 27 13 28 14 29 15 30 16 14 17 13 18 12 19 11 20 10 21
REMARK SMILES IDX 9 22 8 23 7 24 6 25 5 26 4 27 3 28 2 29 1 30
REMARK H PARENT
REMARK Flexibility Score: inf
ROOT
ATOM      1  C   UNL     1      13.204 -31.347  23.117  1.00  0.00     0.000 C 
ENDROOT
BRANCH   1   2
ATOM      2  C   UNL     1      14.108 -32.452  23.694  1.00  0.00     0.000 C 
BRANCH   2   3
ATOM      3  C   UNL     1      14.722 -33.340  22.598  1.00  0.00     0.000 C 
BRANCH   3   4
ATOM      4  C   UNL     1      14.272 -32.946  21.178  1.00  0.00     0.000 C 
BRANCH   4   5
ATOM      5  C   UNL     1      14.546 -33.997  20.087  1.00  0.00     0.000 C 
BRANCH   5   6
ATOM      6  C   UNL     1      16.041 -34.292  19.894  1.00  0.00     0.000 C 
BRANCH   6   7
ATOM      7  C   UNL     1      16.367 -35.742  20.284  1.00  0.00     0.000 C 
BRANCH   7   8
ATOM      8  C   UNL     1      17.871 -35.978  20.510  1.00  0.00     0.000 C 
BRANCH   8   9
ATOM      9  C   UNL     1      18.410 -35.490  21.869  1.00  0.00     0.000 C 
BRANCH   9  10
ATOM     10  C   UNL     1      17.380 -35.477  23.011  1.00  0.00     0.000 C 
BRANCH  10  11
ATOM     11  C   UNL     1      17.955 -34.931  24.327  1.00  0.00     0.000 C 
BRANCH  11  12
ATOM     12  C   UNL     1      19.162 -34.020  24.060  1.00  0.00     0.006 C 
BRANCH  12  13
ATOM     13  C   UNL     1      19.687 -33.355  25.340  1.00  0.00     0.053 C 
BRANCH  13  14
ATOM     14  C   UNL     1      19.003 -32.052  25.617  1.00  0.00     0.041 C 
ATOM     15  O   UNL     1      17.963 -31.733  24.982  1.00  0.00    -0.550 OA
ATOM     16  O   UNL     1      19.504 -31.196  26.590  1.00  0.00    -0.550 OA
ENDBRANCH  13  14
ENDBRANCH  12  13
ENDBRANCH  11  12
ENDBRANCH  10  11
ENDBRANCH   9  10
ENDBRANCH   8   9
ENDBRANCH   7   8
ENDBRANCH   6   7
ENDBRANCH   5   6
ENDBRANCH   4   5
ENDBRANCH   3   4
ENDBRANCH   2   3
ENDBRANCH   1   2
BRANCH   1  17
ATOM     17  C   UNL     1      13.427 -29.947  23.727  1.00  0.00     0.000 C 
BRANCH  17  18
ATOM     18  C   UNL     1      13.941 -28.879  22.741  1.00  0.00     0.000 C 
BRANCH  18  19
ATOM     19  C   UNL     1      14.888 -29.400  21.642  1.00  0.00     0.000 C 
BRANCH  19  20
ATOM     20  C   UNL     1      16.288 -29.807  22.133  1.00  0.00     0.000 C 
BRANCH  20  21
ATOM     21  C   UNL     1      17.078 -30.606  21.083  1.00  0.00     0.000 C 
BRANCH  21  22
ATOM     22  C   UNL     1      17.911 -31.741  21.717  1.00  0.00    -0.000 C 
BRANCH  22  23
ATOM     23  C   UNL     1      19.117 -32.177  20.864  1.00  0.00    -0.000 C 
BRANCH  23  24
ATOM     24  C   UNL     1      20.486 -31.699  21.379  1.00  0.00    -0.000 C 
BRANCH  24  25
ATOM     25  C   UNL     1      21.008 -30.467  20.620  1.00  0.00    -0.000 C 
BRANCH  25  26
ATOM     26  C   UNL     1      20.925 -29.180  21.454  1.00  0.00    -0.000 C 
BRANCH  26  27
ATOM     27  C   UNL     1      19.941 -28.152  20.868  1.00  0.00    -0.000 C 
BRANCH  27  28
ATOM     28  C   UNL     1      20.262 -26.713  21.301  1.00  0.00    -0.000 C 
BRANCH  28  29
ATOM     29  C   UNL     1      20.634 -25.809  20.116  1.00  0.00    -0.003 C 
ATOM     30  C   UNL     1      22.105 -25.406  20.174  1.00  0.00     0.004 C 
ENDBRANCH  28  29
ENDBRANCH  27  28
ENDBRANCH  26  27
ENDBRANCH  25  26
ENDBRANCH  24  25
ENDBRANCH  23  24
ENDBRANCH  22  23
ENDBRANCH  21  22
ENDBRANCH  20  21
ENDBRANCH  19  20
ENDBRANCH  18  19
ENDBRANCH  17  18
ENDBRANCH   1  17
TORSDOF 26
ENDMDL
MODEL 9
REMARK VINA RESULT:    -4.947      2.984      8.299
REMARK INTER + INTRA:         -16.894
REMARK INTER:                 -12.409
REMARK INTRA:                  -4.485
REMARK UNBOUND:                -4.427
REMARK SMILES CCCCCCCCCCCCCCCCCCCCCCCCCCCC(=O)[O-]
REMARK SMILES IDX 15 1 16 2 17 3 18 4 19 5 20 6 21 7 22 8 23 9 24 10 25 11
REMARK SMILES IDX 26 12 27 13 28 14 29 15 30 16 14 17 13 18 12 19 11 20 10 21
REMARK SMILES IDX 9 22 8 23 7 24 6 25 5 26 4 27 3 28 2 29 1 30
REMARK H PARENT
REMARK Flexibility Score: inf
ROOT
ATOM      1  C   UNL     1      18.542 -31.333  21.373  1.00  0.00     0.000 C 
ENDROOT
BRANCH   1   2
ATOM      2  C   UNL     1      17.241 -31.947  20.825  1.00  0.00     0.000 C 
BRANCH   2   3
ATOM      3  C   UNL     1      17.491 -33.241  20.031  1.00  0.00     0.000 C 
BRANCH   3   4
ATOM      4  C   UNL     1      16.308 -34.225  20.091  1.00  0.00     0.000 C 
BRANCH   4   5
ATOM      5  C   UNL     1      16.567 -35.515  20.889  1.00  0.00     0.000 C 
BRANCH   5   6
ATOM      6  C   UNL     1      17.911 -35.507  21.634  1.00  0.00     0.000 C 
BRANCH   6   7
ATOM      7  C   UNL     1      17.694 -35.442  23.152  1.00  0.00     0.000 C 
BRANCH   7   8
ATOM      8  C   UNL     1      18.150 -34.106  23.766  1.00  0.00     0.000 C 
BRANCH   8   9
ATOM      9  C   UNL     1      17.011 -33.193  24.260  1.00  0.00     0.000 C 
BRANCH   9  10
ATOM     10  C   UNL     1      15.617 -33.843  24.281  1.00  0.00     0.000 C 
BRANCH  10  11
ATOM     11  C   UNL     1      14.665 -33.246  23.234  1.00  0.00     0.000 C 
BRANCH  11  12
ATOM     12  C   UNL     1      14.185 -31.851  23.663  1.00  0.00     0.006 C 
BRANCH  12  13
ATOM     13  C   UNL     1      13.043 -31.329  22.780  1.00  0.00     0.053 C 
BRANCH  13  14
ATOM     14  C   UNL     1      13.496 -31.067  21.376  1.00  0.00     0.041 C 
ATOM     15  O   UNL     1      13.096 -31.800  20.432  1.00  0.00    -0.550 OA
ATOM     16  O   UNL     1      14.344 -30.000  21.106  1.00  0.00    -0.550 OA
ENDBRANCH  13  14
ENDBRANCH  12  13
ENDBRANCH  11  12
ENDBRANCH  10  11
ENDBRANCH   9  10
ENDBRANCH   8   9
ENDBRANCH   7   8
ENDBRANCH   6   7
ENDBRANCH   5   6
ENDBRANCH   4   5
ENDBRANCH   3   4
ENDBRANCH   2   3
ENDBRANCH   1   2
BRANCH   1  17
ATOM     17  C   UNL     1      19.823 -32.121  21.028  1.00  0.00     0.000 C 
BRANCH  17  18
ATOM     18  C   UNL     1      21.055 -31.776  21.888  1.00  0.00     0.000 C 
BRANCH  18  19
ATOM     19  C   UNL     1      20.916 -30.510  22.758  1.00  0.00     0.000 C 
BRANCH  19  20
ATOM     20  C   UNL     1      21.697 -29.286  22.248  1.00  0.00     0.000 C 
BRANCH  20  21
ATOM     21  C   UNL     1      21.191 -28.784  20.885  1.00  0.00     0.000 C 
BRANCH  21  22
ATOM     22  C   UNL     1      19.898 -27.951  21.012  1.00  0.00    -0.000 C 
BRANCH  22  23
ATOM     23  C   UNL     1      19.895 -26.672  20.152  1.00  0.00    -0.000 C 
BRANCH  23  24
ATOM     24  C   UNL     1      20.010 -25.356  20.941  1.00  0.00    -0.000 C 
BRANCH  24  25
ATOM     25  C   UNL     1      20.476 -25.573  22.391  1.00  0.00    -0.000 C 
BRANCH  25  26
ATOM     26  C   UNL     1      21.796 -24.848  22.702  1.00  0.00    -0.000 C 
BRANCH  26  27
ATOM     27  C   UNL     1      22.976 -25.376  21.867  1.00  0.00    -0.000 C 
BRANCH  27  28
ATOM     28  C   UNL     1      23.305 -24.470  20.670  1.00  0.00    -0.000 C 
BRANCH  28  29
ATOM     29  C   UNL     1      23.281 -25.226  19.333  1.00  0.00    -0.003 C 
ATOM     30  C   UNL     1      23.618 -26.701  19.531  1.00  0.00     0.004 C 
ENDBRANCH  28  29
ENDBRANCH  27  28
ENDBRANCH  26  27
ENDBRANCH  25  26
ENDBRANCH  24  25
ENDBRANCH  23  24
ENDBRANCH  22  23
ENDBRANCH  21  22
ENDBRANCH  20  21
ENDBRANCH  19  20
ENDBRANCH  18  19
ENDBRANCH  17  18
ENDBRANCH   1  17
TORSDOF 26
ENDMDL
