MODEL 1
REMARK VINA RESULT:    -4.194      0.000      0.000
REMARK INTER + INTRA:          -4.958
REMARK INTER:                  -4.929
REMARK INTRA:                  -0.029
REMARK UNBOUND:                -0.029
REMARK SMILES CCCCC(=O)[O-]
REMARK SMILES IDX 4 1 5 2 6 3 7 4 3 5 2 6 1 7
REMARK H PARENT
REMARK Flexibility Score: inf
ROOT
ATOM      1  C   UNL     1      10.125  -0.783  -9.771  1.00  0.00     0.053 C 
ENDROOT
BRANCH   1   2
ATOM      2  C   UNL     1       9.992  -0.434 -11.219  1.00  0.00     0.041 C 
ATOM      3  O   UNL     1       9.808  -1.339 -12.074  1.00  0.00    -0.550 OA
ATOM      4  O   UNL     1      10.122   0.887 -11.632  1.00  0.00    -0.550 OA
ENDBRANCH   1   2
BRANCH   1   5
ATOM      5  C   UNL     1       8.777  -0.643  -9.059  1.00  0.00     0.006 C 
BRANCH   5   6
ATOM      6  C   UNL     1       8.502   0.817  -8.680  1.00  0.00    -0.003 C 
ATOM      7  C   UNL     1       9.377   1.258  -7.511  1.00  0.00     0.004 C 
ENDBRANCH   5   6
ENDBRANCH   1   5
TORSDOF 3
ENDMDL
MODEL 2
REMARK VINA RESULT:    -3.850      2.520      3.613
REMARK INTER + INTRA:          -4.554
REMARK INTER:                  -4.534
REMARK INTRA:                  -0.019
REMARK UNBOUND:                -0.029
REMARK SMILES CCCCC(=O)[O-]
REMARK SMILES IDX 4 1 5 2 6 3 7 4 3 5 2 6 1 7
REMARK H PARENT
REMARK Flexibility Score: inf
ROOT
ATOM      1  C   UNL     1       8.508  -0.531  -8.877  1.00  0.00     0.053 C 
ENDROOT
BRANCH   1   2
ATOM      2  C   UNL     1       8.590   0.879  -8.387  1.00  0.00     0.041 C 
ATOM      3  O   UNL     1       9.565   1.249  -7.682  1.00  0.00    -0.550 OA
ATOM      4  O   UNL     1       7.565   1.774  -8.668  1.00  0.00    -0.550 OA
ENDBRANCH   1   2
BRANCH   1   5
ATOM      5  C   UNL     1       9.788  -0.917  -9.624  1.00  0.00     0.006 C 
BRANCH   5   6
ATOM      6  C   UNL     1      10.085   0.075 -10.755  1.00  0.00    -0.003 C 
ATOM      7  C   UNL     1      10.125  -0.627 -12.108  1.00  0.00     0.004 C 
ENDBRANCH   5   6
ENDBRANCH   1   5
TORSDOF 3
ENDMDL
MODEL 3
REMARK VINA RESULT:    -3.788      1.606      2.399
REMARK INTER + INTRA:          -4.481
REMARK INTER:                  -4.420
REMARK INTRA:                  -0.062
REMARK UNBOUND:                -0.029
REMARK SMILES CCCCC(=O)[O-]
REMARK SMILES IDX 4 1 5 2 6 3 7 4 3 5 2 6 1 7
REMARK H PARENT
REMARK Flexibility Score: inf
ROOT
ATOM      1  C   UNL     1       9.337   1.239  -9.529  1.00  0.00     0.053 C 
ENDROOT
BRANCH   1   2
ATOM      2  C   UNL     1       9.385   1.961 -10.838  1.00  0.00     0.041 C 
ATOM      3  O   UNL     1      10.125   1.542 -11.766  1.00  0.00    -0.550 OA
ATOM      4  O   UNL     1       8.650   3.127 -11.018  1.00  0.00    -0.550 OA
ENDBRANCH   1   2
BRANCH   1   5
ATOM      5  C   UNL     1       9.962  -0.152  -9.660  1.00  0.00     0.006 C 
BRANCH   5   6
ATOM      6  C   UNL     1       9.048  -1.226  -9.059  1.00  0.00    -0.003 C 
ATOM      7  C   UNL     1       7.832  -0.600  -8.384  1.00  0.00     0.004 C 
ENDBRANCH   5   6
ENDBRANCH   1   5
TORSDOF 3
ENDMDL
MODEL 4
REMARK VINA RESULT:    -3.776     10.769     11.499
REMARK INTER + INTRA:          -4.467
REMARK INTER:                  -4.451
REMARK INTRA:                  -0.016
REMARK UNBOUND:                -0.029
REMARK SMILES CCCCC(=O)[O-]
REMARK SMILES IDX 4 1 5 2 6 3 7 4 3 5 2 6 1 7
REMARK H PARENT
REMARK Flexibility Score: inf
ROOT
ATOM      1  C   UNL     1       1.805  -1.740  -2.678  1.00  0.00     0.053 C 
ENDROOT
BRANCH   1   2
ATOM      2  C   UNL     1       0.518  -1.953  -1.945  1.00  0.00     0.041 C 
ATOM      3  O   UNL     1      -0.432  -1.139  -2.085  1.00  0.00    -0.550 OA
ATOM      4  O   UNL     1       0.385  -3.022  -1.068  1.00  0.00    -0.550 OA
ENDBRANCH   1   2
BRANCH   1   5
ATOM      5  C   UNL     1       2.776  -0.913  -1.830  1.00  0.00     0.006 C 
BRANCH   5   6
ATOM      6  C   UNL     1       4.048  -0.580  -2.618  1.00  0.00    -0.003 C 
ATOM      7  C   UNL     1       5.266  -0.528  -1.702  1.00  0.00     0.004 C 
ENDBRANCH   5   6
ENDBRANCH   1   5
TORSDOF 3
ENDMDL
MODEL 5
REMARK VINA RESULT:    -3.501      9.675     10.484
REMARK INTER + INTRA:          -4.144
REMARK INTER:                  -4.098
REMARK INTRA:                  -0.045
REMARK UNBOUND:                -0.029
REMARK SMILES CCCCC(=O)[O-]
REMARK SMILES IDX 4 1 5 2 6 3 7 4 3 5 2 6 1 7
REMARK H PARENT
REMARK Flexibility Score: inf
ROOT
ATOM      1  C   UNL     1       3.475  -0.606  -1.494  1.00  0.00     0.053 C 
ENDROOT
BRANCH   1   2
ATOM      2  C   UNL     1       4.906  -0.363  -1.132  1.00  0.00     0.041 C 
ATOM      3  O   UNL     1       5.825  -0.686  -1.929  1.00  0.00    -0.550 OA
ATOM      4  O   UNL     1       5.228   0.175   0.109  1.00  0.00    -0.550 OA
ENDBRANCH   1   2
BRANCH   1   5
ATOM      5  C   UNL     1       3.336  -0.851  -2.999  1.00  0.00     0.006 C 
BRANCH   5   6
ATOM      6  C   UNL     1       2.194  -1.830  -3.294  1.00  0.00    -0.003 C 
ATOM      7  C   UNL     1       1.104  -1.743  -2.231  1.00  0.00     0.004 C 
ENDBRANCH   5   6
ENDBRANCH   1   5
TORSDOF 3
ENDMDL
MODEL 6
REMARK VINA RESULT:    -3.499     22.023     22.838
REMARK INTER + INTRA:          -4.142
REMARK INTER:                  -4.108
REMARK INTRA:                  -0.034
REMARK UNBOUND:                -0.029
REMARK SMILES CCCCC(=O)[O-]
REMARK SMILES IDX 4 1 5 2 6 3 7 4 3 5 2 6 1 7
REMARK H PARENT
REMARK Flexibility Score: inf
ROOT
ATOM      1  C   UNL     1      -5.646  -0.255   6.257  1.00  0.00     0.053 C 
ENDROOT
BRANCH   1   2
ATOM      2  C   UNL     1      -6.885   0.158   6.986  1.00  0.00     0.041 C 
ATOM      3  O   UNL     1      -7.869  -0.624   7.055  1.00  0.00    -0.550 OA
ATOM      4  O   UNL     1      -6.972   1.426   7.547  1.00  0.00    -0.550 OA
ENDBRANCH   1   2
BRANCH   1   5
ATOM      5  C   UNL     1      -5.865  -1.589   5.537  1.00  0.00     0.006 C 
BRANCH   5   6
ATOM      6  C   UNL     1      -4.645  -2.504   5.690  1.00  0.00    -0.003 C 
ATOM      7  C   UNL     1      -4.689  -3.654   4.689  1.00  0.00     0.004 C 
ENDBRANCH   5   6
ENDBRANCH   1   5
TORSDOF 3
ENDMDL
MODEL 7
REMARK VINA RESULT:    -3.459     21.662     22.560
REMARK INTER + INTRA:          -4.094
REMARK INTER:                  -4.071
REMARK INTRA:                  -0.024
REMARK UNBOUND:                -0.029
REMARK SMILES CCCCC(=O)[O-]
REMARK SMILES IDX 4 1 5 2 6 3 7 4 3 5 2 6 1 7
REMARK H PARENT
REMARK Flexibility Score: inf
ROOT
ATOM      1  C   UNL     1      -5.520  -0.684   7.317  1.00  0.00     0.053 C 
ENDROOT
BRANCH   1   2
ATOM      2  C   UNL     1      -5.787   0.788   7.298  1.00  0.00     0.041 C 
ATOM      3  O   UNL     1      -4.846   1.600   7.101  1.00  0.00    -0.550 OA
ATOM      4  O   UNL     1      -7.068   1.265   7.547  1.00  0.00    -0.550 OA
ENDBRANCH   1   2
BRANCH   1   5
ATOM      5  C   UNL     1      -5.284  -1.205   5.897  1.00  0.00     0.006 C 
BRANCH   5   6
ATOM      6  C   UNL     1      -4.288  -2.371   5.896  1.00  0.00    -0.003 C 
ATOM      7  C   UNL     1      -4.639  -3.397   4.824  1.00  0.00     0.004 C 
ENDBRANCH   5   6
ENDBRANCH   1   5
TORSDOF 3
ENDMDL
MODEL 8
REMARK VINA RESULT:    -3.421     21.605     22.487
REMARK INTER + INTRA:          -4.049
REMARK INTER:                  -4.027
REMARK INTRA:                  -0.022
REMARK UNBOUND:                -0.029
REMARK SMILES CCCCC(=O)[O-]
REMARK SMILES IDX 4 1 5 2 6 3 7 4 3 5 2 6 1 7
REMARK H PARENT
REMARK Flexibility Score: inf
ROOT
ATOM      1  C   UNL     1      -5.623  -0.399   6.171  1.00  0.00     0.053 C 
ENDROOT
BRANCH   1   2
ATOM      2  C   UNL     1      -5.750   0.794   7.063  1.00  0.00     0.041 C 
ATOM      3  O   UNL     1      -6.882   1.162   7.472  1.00  0.00    -0.550 OA
ATOM      4  O   UNL     1      -4.622   1.532   7.404  1.00  0.00    -0.550 OA
ENDBRANCH   1   2
BRANCH   1   5
ATOM      5  C   UNL     1      -4.832  -1.510   6.868  1.00  0.00     0.006 C 
BRANCH   5   6
ATOM      6  C   UNL     1      -4.098  -2.387   5.848  1.00  0.00    -0.003 C 
ATOM      7  C   UNL     1      -5.076  -3.251   5.057  1.00  0.00     0.004 C 
ENDBRANCH   5   6
ENDBRANCH   1   5
TORSDOF 3
ENDMDL
