MODEL 1
REMARK VINA RESULT:    -3.047      0.000      0.000
REMARK INTER + INTRA:          -3.010
REMARK INTER:                  -3.759
REMARK INTRA:                   0.749
REMARK UNBOUND:                 0.749
REMARK SMILES CC1=CC=CC(C)(C)CC1=O
REMARK SMILES IDX 1 1 2 2 3 3 10 4 11 5 9 6 4 8 5 9 6 10 7 11 8 12
REMARK H PARENT
REMARK Flexibility Score: 80.00
ROOT
ATOM      1  C   UNL     1      16.413  33.262  29.342  1.00  0.00     0.048 C 
ATOM      2  C   UNL     1      17.838  32.766  29.409  1.00  0.00    -0.008 C 
ATOM      3  C   UNL     1      18.057  31.456  29.167  1.00  0.00     0.007 C 
ENDROOT
BRANCH   2   4
ATOM      4  C   UNL     1      18.875  33.748  29.812  1.00  0.00     0.159 C 
ATOM      5  O   UNL     1      18.512  34.875  30.247  1.00  0.00    -0.295 OA
BRANCH   4   6
ATOM      6  C   UNL     1      20.346  33.479  29.720  1.00  0.00     0.091 CG0
ATOM      7  G   UNL     1      20.793  32.244  30.533  1.00  0.00     0.000 G0
ENDBRANCH   4   6
ENDBRANCH   2   4
BRANCH   3   8
ATOM      8  C   UNL     1      19.321  30.683  29.185  1.00  0.00    -0.003 C 
ATOM      9  C   UNL     1      20.490  30.991  29.763  1.00  0.00    -0.020 C 
BRANCH   9  10
ATOM     10  C   UNL     1      20.807  32.252  30.532  1.00  0.00    -0.010 CG0
ATOM     11  C   UNL     1      22.341  32.350  30.688  1.00  0.00     0.016 C 
ATOM     12  C   UNL     1      20.187  32.178  31.946  1.00  0.00     0.016 C 
ATOM     13  G   UNL     1      20.324  33.483  29.733  1.00  0.00     0.000 G0
ENDBRANCH   9  10
ENDBRANCH   3   8
TORSDOF 0
ENDMDL
MODEL 2
REMARK VINA RESULT:    -2.991      4.502      5.859
REMARK INTER + INTRA:          -2.941
REMARK INTER:                  -3.705
REMARK INTRA:                   0.764
REMARK UNBOUND:                 0.749
REMARK SMILES CC1=CC=CC(C)(C)CC1=O
REMARK SMILES IDX 1 1 2 2 3 3 10 4 11 5 9 6 4 8 5 9 6 10 7 11 8 12
REMARK H PARENT
REMARK Flexibility Score: 80.00
ROOT
ATOM      1  C   UNL     1      19.307  25.049  27.571  1.00  0.00     0.048 C 
ATOM      2  C   UNL     1      19.610  26.356  28.266  1.00  0.00    -0.008 C 
ATOM      3  C   UNL     1      18.956  27.457  27.840  1.00  0.00     0.007 C 
ENDROOT
BRANCH   2   4
ATOM      4  C   UNL     1      20.662  26.335  29.312  1.00  0.00     0.159 C 
ATOM      5  O   UNL     1      21.383  25.307  29.432  1.00  0.00    -0.295 OA
BRANCH   4   6
ATOM      6  C   UNL     1      20.911  27.473  30.255  1.00  0.00     0.091 CG0
ATOM      7  G   UNL     1      21.293  28.786  29.537  1.00  0.00     0.000 G0
ENDBRANCH   4   6
ENDBRANCH   2   4
BRANCH   3   8
ATOM      8  C   UNL     1      19.058  28.862  28.300  1.00  0.00    -0.003 C 
ATOM      9  C   UNL     1      20.033  29.450  29.005  1.00  0.00    -0.020 C 
BRANCH   9  10
ATOM     10  C   UNL     1      21.282  28.787  29.536  1.00  0.00    -0.010 CG0
ATOM     11  C   UNL     1      21.928  29.732  30.574  1.00  0.00     0.016 C 
ATOM     12  C   UNL     1      22.296  28.575  28.388  1.00  0.00     0.016 C 
ATOM     13  G   UNL     1      20.908  27.470  30.251  1.00  0.00     0.000 G0
ENDBRANCH   9  10
ENDBRANCH   3   8
TORSDOF 0
ENDMDL
MODEL 3
REMARK VINA RESULT:    -2.988      1.790      2.481
REMARK INTER + INTRA:          -2.937
REMARK INTER:                  -3.677
REMARK INTRA:                   0.740
REMARK UNBOUND:                 0.749
REMARK SMILES CC1=CC=CC(C)(C)CC1=O
REMARK SMILES IDX 1 1 2 2 3 3 10 4 11 5 9 6 4 8 5 9 6 10 7 11 8 12
REMARK H PARENT
REMARK Flexibility Score: 80.00
ROOT
ATOM      1  C   UNL     1      15.768  30.081  29.752  1.00  0.00     0.048 C 
ATOM      2  C   UNL     1      16.946  31.019  29.630  1.00  0.00    -0.008 C 
ATOM      3  C   UNL     1      18.176  30.470  29.534  1.00  0.00     0.007 C 
ENDROOT
BRANCH   2   4
ATOM      4  C   UNL     1      16.661  32.474  29.703  1.00  0.00     0.159 C 
ATOM      5  O   UNL     1      15.514  32.853  30.066  1.00  0.00    -0.295 OA
BRANCH   4   6
ATOM      6  C   UNL     1      17.664  33.530  29.353  1.00  0.00     0.091 CG0
ATOM      7  G   UNL     1      18.938  33.473  30.224  1.00  0.00     0.000 G0
ENDBRANCH   4   6
ENDBRANCH   2   4
BRANCH   3   8
ATOM      8  C   UNL     1      19.503  31.120  29.430  1.00  0.00    -0.003 C 
ATOM      9  C   UNL     1      19.851  32.379  29.727  1.00  0.00    -0.020 C 
BRANCH   9  10
ATOM     10  C   UNL     1      18.934  33.471  30.226  1.00  0.00    -0.010 CG0
ATOM     11  C   UNL     1      19.662  34.824  30.069  1.00  0.00     0.016 C 
ATOM     12  C   UNL     1      18.632  33.262  31.728  1.00  0.00     0.016 C 
ATOM     13  G   UNL     1      17.654  33.510  29.361  1.00  0.00     0.000 G0
ENDBRANCH   9  10
ENDBRANCH   3   8
TORSDOF 0
ENDMDL
MODEL 4
REMARK VINA RESULT:    -2.940      2.413      3.246
REMARK INTER + INTRA:          -2.879
REMARK INTER:                  -3.630
REMARK INTRA:                   0.751
REMARK UNBOUND:                 0.749
REMARK SMILES CC1=CC=CC(C)(C)CC1=O
REMARK SMILES IDX 1 1 2 2 3 3 10 4 11 5 9 6 4 8 5 9 6 10 7 11 8 12
REMARK H PARENT
REMARK Flexibility Score: 80.00
ROOT
ATOM      1  C   UNL     1      15.076  30.313  29.448  1.00  0.00     0.048 C 
ATOM      2  C   UNL     1      16.077  31.349  29.905  1.00  0.00    -0.008 C 
ATOM      3  C   UNL     1      16.137  32.508  29.214  1.00  0.00     0.007 C 
ENDROOT
BRANCH   2   4
ATOM      4  C   UNL     1      16.967  30.977  31.031  1.00  0.00     0.159 C 
ATOM      5  O   UNL     1      17.002  29.773  31.409  1.00  0.00    -0.295 OA
BRANCH   4   6
ATOM      6  C   UNL     1      17.828  31.960  31.764  1.00  0.00     0.091 CG0
ATOM      7  G   UNL     1      18.859  32.663  30.854  1.00  0.00     0.000 G0
ENDBRANCH   4   6
ENDBRANCH   2   4
BRANCH   3   8
ATOM      8  C   UNL     1      17.019  33.683  29.403  1.00  0.00    -0.003 C 
ATOM      9  C   UNL     1      18.175  33.772  30.074  1.00  0.00    -0.020 C 
BRANCH   9  10
ATOM     10  C   UNL     1      18.854  32.663  30.842  1.00  0.00    -0.010 CG0
ATOM     11  C   UNL     1      19.940  33.293  31.743  1.00  0.00     0.016 C 
ATOM     12  C   UNL     1      19.552  31.692  29.861  1.00  0.00     0.016 C 
ATOM     13  G   UNL     1      17.826  31.954  31.751  1.00  0.00     0.000 G0
ENDBRANCH   9  10
ENDBRANCH   3   8
TORSDOF 0
ENDMDL
MODEL 5
REMARK VINA RESULT:    -2.919      2.390      3.804
REMARK INTER + INTRA:          -2.853
REMARK INTER:                  -3.620
REMARK INTRA:                   0.767
REMARK UNBOUND:                 0.749
REMARK SMILES CC1=CC=CC(C)(C)CC1=O
REMARK SMILES IDX 1 1 2 2 3 3 10 4 11 5 9 6 4 8 5 9 6 10 7 11 8 12
REMARK H PARENT
REMARK Flexibility Score: 80.00
ROOT
ATOM      1  C   UNL     1      19.045  34.388  29.477  1.00  0.00     0.048 C 
ATOM      2  C   UNL     1      18.166  33.159  29.491  1.00  0.00    -0.008 C 
ATOM      3  C   UNL     1      16.833  33.342  29.377  1.00  0.00     0.007 C 
ENDROOT
BRANCH   2   4
ATOM      4  C   UNL     1      18.836  31.853  29.707  1.00  0.00     0.159 C 
ATOM      5  O   UNL     1      20.048  31.840  30.059  1.00  0.00    -0.295 OA
BRANCH   4   6
ATOM      6  C   UNL     1      18.153  30.533  29.516  1.00  0.00     0.091 CG0
ATOM      7  G   UNL     1      16.920  30.347  30.428  1.00  0.00     0.000 G0
ENDBRANCH   4   6
ENDBRANCH   2   4
BRANCH   3   8
ATOM      8  C   UNL     1      15.733  32.350  29.384  1.00  0.00    -0.003 C 
ATOM      9  C   UNL     1      15.738  31.087  29.830  1.00  0.00    -0.020 C 
BRANCH   9  10
ATOM     10  C   UNL     1      16.916  30.349  30.421  1.00  0.00    -0.010 CG0
ATOM     11  C   UNL     1      16.570  28.843  30.465  1.00  0.00     0.016 C 
ATOM     12  C   UNL     1      17.163  30.824  31.872  1.00  0.00     0.016 C 
ATOM     13  G   UNL     1      18.153  30.533  29.515  1.00  0.00     0.000 G0
ENDBRANCH   9  10
ENDBRANCH   3   8
TORSDOF 0
ENDMDL
MODEL 6
REMARK VINA RESULT:    -2.916      4.961      6.573
REMARK INTER + INTRA:          -2.849
REMARK INTER:                  -3.599
REMARK INTRA:                   0.750
REMARK UNBOUND:                 0.749
REMARK SMILES CC1=CC=CC(C)(C)CC1=O
REMARK SMILES IDX 1 1 2 2 3 3 10 4 11 5 9 6 4 8 5 9 6 10 7 11 8 12
REMARK H PARENT
REMARK Flexibility Score: 80.00
ROOT
ATOM      1  C   UNL     1      20.607  24.629  27.054  1.00  0.00     0.048 C 
ATOM      2  C   UNL     1      19.709  25.507  27.895  1.00  0.00    -0.008 C 
ATOM      3  C   UNL     1      18.379  25.282  27.833  1.00  0.00     0.007 C 
ENDROOT
BRANCH   2   4
ATOM      4  C   UNL     1      20.359  26.597  28.663  1.00  0.00     0.159 C 
ATOM      5  O   UNL     1      21.571  26.866  28.434  1.00  0.00    -0.295 OA
BRANCH   4   6
ATOM      6  C   UNL     1      19.656  27.398  29.715  1.00  0.00     0.091 CG0
ATOM      7  G   UNL     1      18.422  28.158  29.180  1.00  0.00     0.000 G0
ENDBRANCH   4   6
ENDBRANCH   2   4
BRANCH   3   8
ATOM      8  C   UNL     1      17.264  25.983  28.511  1.00  0.00    -0.003 C 
ATOM      9  C   UNL     1      17.250  27.196  29.078  1.00  0.00    -0.020 C 
BRANCH   9  10
ATOM     10  C   UNL     1      18.417  28.150  29.186  1.00  0.00    -0.010 CG0
ATOM     11  C   UNL     1      18.055  29.241  30.219  1.00  0.00     0.016 C 
ATOM     12  C   UNL     1      18.660  28.842  27.825  1.00  0.00     0.016 C 
ATOM     13  G   UNL     1      19.661  27.393  29.701  1.00  0.00     0.000 G0
ENDBRANCH   9  10
ENDBRANCH   3   8
TORSDOF 0
ENDMDL
MODEL 7
REMARK VINA RESULT:    -2.910      3.336      5.057
REMARK INTER + INTRA:          -2.842
REMARK INTER:                  -3.609
REMARK INTRA:                   0.767
REMARK UNBOUND:                 0.749
REMARK SMILES CC1=CC=CC(C)(C)CC1=O
REMARK SMILES IDX 1 1 2 2 3 3 10 4 11 5 9 6 4 8 5 9 6 10 7 11 8 12
REMARK H PARENT
REMARK Flexibility Score: 80.00
ROOT
ATOM      1  C   UNL     1      19.714  30.572  29.000  1.00  0.00     0.048 C 
ATOM      2  C   UNL     1      18.267  30.940  29.233  1.00  0.00    -0.008 C 
ATOM      3  C   UNL     1      17.917  32.234  29.077  1.00  0.00     0.007 C 
ENDROOT
BRANCH   2   4
ATOM      4  C   UNL     1      17.362  29.857  29.691  1.00  0.00     0.159 C 
ATOM      5  O   UNL     1      17.861  28.752  30.042  1.00  0.00    -0.295 OA
BRANCH   4   6
ATOM      6  C   UNL     1      15.871  29.996  29.748  1.00  0.00     0.091 CG0
ATOM      7  G   UNL     1      15.402  31.151  30.660  1.00  0.00     0.000 G0
ENDBRANCH   4   6
ENDBRANCH   2   4
BRANCH   3   8
ATOM      8  C   UNL     1      16.602  32.893  29.258  1.00  0.00    -0.003 C 
ATOM      9  C   UNL     1      15.527  32.460  29.929  1.00  0.00    -0.020 C 
BRANCH   9  10
ATOM     10  C   UNL     1      15.393  31.143  30.657  1.00  0.00    -0.010 CG0
ATOM     11  C   UNL     1      13.898  30.917  30.976  1.00  0.00     0.016 C 
ATOM     12  C   UNL     1      16.164  31.199  31.996  1.00  0.00     0.016 C 
ATOM     13  G   UNL     1      15.870  29.993  29.743  1.00  0.00     0.000 G0
ENDBRANCH   9  10
ENDBRANCH   3   8
TORSDOF 0
ENDMDL
MODEL 8
REMARK VINA RESULT:    -2.806      3.984      5.590
REMARK INTER + INTRA:          -2.713
REMARK INTER:                  -3.477
REMARK INTRA:                   0.763
REMARK UNBOUND:                 0.749
REMARK SMILES CC1=CC=CC(C)(C)CC1=O
REMARK SMILES IDX 1 1 2 2 3 3 10 4 11 5 9 6 4 8 5 9 6 10 7 11 8 12
REMARK H PARENT
REMARK Flexibility Score: 80.00
ROOT
ATOM      1  C   UNL     1      21.272  25.396  28.854  1.00  0.00     0.048 C 
ATOM      2  C   UNL     1      20.860  26.849  28.828  1.00  0.00    -0.008 C 
ATOM      3  C   UNL     1      21.802  27.771  29.121  1.00  0.00     0.007 C 
ENDROOT
BRANCH   2   4
ATOM      4  C   UNL     1      19.431  27.140  28.556  1.00  0.00     0.159 C 
ATOM      5  O   UNL     1      18.603  26.187  28.559  1.00  0.00    -0.295 OA
BRANCH   4   6
ATOM      6  C   UNL     1      18.909  28.513  28.263  1.00  0.00     0.091 CG0
ATOM      7  G   UNL     1      19.169  29.520  29.406  1.00  0.00     0.000 G0
ENDBRANCH   4   6
ENDBRANCH   2   4
BRANCH   3   8
ATOM      8  C   UNL     1      21.695  29.247  29.201  1.00  0.00    -0.003 C 
ATOM      9  C   UNL     1      20.600  30.008  29.331  1.00  0.00    -0.020 C 
BRANCH   9  10
ATOM     10  C   UNL     1      19.172  29.522  29.399  1.00  0.00    -0.010 CG0
ATOM     11  C   UNL     1      18.238  30.735  29.187  1.00  0.00     0.016 C 
ATOM     12  C   UNL     1      18.880  28.934  30.799  1.00  0.00     0.016 C 
ATOM     13  G   UNL     1      18.912  28.509  28.262  1.00  0.00     0.000 G0
ENDBRANCH   9  10
ENDBRANCH   3   8
TORSDOF 0
ENDMDL
MODEL 9
REMARK VINA RESULT:    -2.771      3.803      5.431
REMARK INTER + INTRA:          -2.670
REMARK INTER:                  -3.425
REMARK INTRA:                   0.755
REMARK UNBOUND:                 0.749
REMARK SMILES CC1=CC=CC(C)(C)CC1=O
REMARK SMILES IDX 1 1 2 2 3 3 10 4 11 5 9 6 4 8 5 9 6 10 7 11 8 12
REMARK H PARENT
REMARK Flexibility Score: 80.00
ROOT
ATOM      1  C   UNL     1      24.498  28.426  27.792  1.00  0.00     0.048 C 
ATOM      2  C   UNL     1      23.299  28.334  28.706  1.00  0.00    -0.008 C 
ATOM      3  C   UNL     1      22.328  27.455  28.377  1.00  0.00     0.007 C 
ENDROOT
BRANCH   2   4
ATOM      4  C   UNL     1      23.250  29.275  29.852  1.00  0.00     0.159 C 
ATOM      5  O   UNL     1      24.086  30.220  29.901  1.00  0.00    -0.295 OA
BRANCH   4   6
ATOM      6  C   UNL     1      22.264  29.159  30.973  1.00  0.00     0.091 CG0
ATOM      7  G   UNL     1      20.795  29.245  30.505  1.00  0.00     0.000 G0
ENDBRANCH   4   6
ENDBRANCH   2   4
BRANCH   3   8
ATOM      8  C   UNL     1      21.041  27.163  29.051  1.00  0.00    -0.003 C 
ATOM      9  C   UNL     1      20.368  27.902  29.943  1.00  0.00    -0.020 C 
BRANCH   9  10
ATOM     10  C   UNL     1      20.795  29.237  30.506  1.00  0.00    -0.010 CG0
ATOM     11  C   UNL     1      19.922  29.541  31.744  1.00  0.00     0.016 C 
ATOM     12  C   UNL     1      20.551  30.353  29.464  1.00  0.00     0.016 C 
ATOM     13  G   UNL     1      22.269  29.162  30.963  1.00  0.00     0.000 G0
ENDBRANCH   9  10
ENDBRANCH   3   8
TORSDOF 0
ENDMDL
