MODEL 1
REMARK VINA RESULT:    -5.898      0.000      0.000
REMARK INTER + INTRA:          -6.582
REMARK INTER:                  -6.415
REMARK INTRA:                  -0.167
REMARK UNBOUND:                -0.167
REMARK SMILES C=C(C)[C@H]1CC[C@@H](C)C[C@H]1O
REMARK SMILES IDX 8 1 7 2 6 3 5 4 4 5 10 6 9 7 11 8 2 10 1 11 3 12
REMARK H PARENT 11 9
REMARK Flexibility Score: inf
ROOT
ATOM      1  C   UNL     1     137.873 116.497 137.702  1.00  0.00     0.008 C 
ATOM      2  C   UNL     1     137.210 117.634 136.908  1.00  0.00    -0.012 C 
ATOM      3  C   UNL     1     137.887 118.995 137.171  1.00  0.00     0.004 C 
ATOM      4  C   UNL     1     137.494 119.610 138.523  1.00  0.00     0.011 C 
ATOM      5  C   UNL     1     135.958 119.733 138.651  1.00  0.00     0.043 C 
ATOM      6  C   UNL     1     135.285 118.332 138.481  1.00  0.00     0.121 C 
ATOM      7  C   UNL     1     135.681 117.708 137.130  1.00  0.00     0.035 C 
ENDROOT
BRANCH   6   8
ATOM      8  O   UNL     1     135.560 117.409 139.515  1.00  0.00    -0.392 OA
ATOM      9  H   UNL     1     135.021 117.624 140.317  1.00  0.00     0.210 HD
ENDBRANCH   6   8
BRANCH   5  10
ATOM     10  C   UNL     1     135.554 120.528 139.901  1.00  0.00    -0.075 C 
ATOM     11  C   UNL     1     136.438 121.099 140.741  1.00  0.00     0.008 C 
ATOM     12  C   UNL     1     134.094 120.598 140.280  1.00  0.00     0.039 C 
ENDBRANCH   5  10
TORSDOF 2
ENDMDL
MODEL 2
REMARK VINA RESULT:    -5.660      1.160      4.092
REMARK INTER + INTRA:          -6.323
REMARK INTER:                  -6.205
REMARK INTRA:                  -0.118
REMARK UNBOUND:                -0.167
REMARK SMILES C=C(C)[C@H]1CC[C@@H](C)C[C@H]1O
REMARK SMILES IDX 8 1 7 2 6 3 5 4 4 5 10 6 9 7 11 8 2 10 1 11 3 12
REMARK H PARENT 11 9
REMARK Flexibility Score: inf
ROOT
ATOM      1  C   UNL     1     134.597 120.696 140.045  1.00  0.00     0.008 C 
ATOM      2  C   UNL     1     136.096 120.354 140.030  1.00  0.00    -0.012 C 
ATOM      3  C   UNL     1     136.762 120.736 138.693  1.00  0.00     0.004 C 
ATOM      4  C   UNL     1     136.449 119.746 137.561  1.00  0.00     0.011 C 
ATOM      5  C   UNL     1     136.830 118.303 137.966  1.00  0.00     0.043 C 
ATOM      6  C   UNL     1     136.074 117.887 139.269  1.00  0.00     0.121 C 
ATOM      7  C   UNL     1     136.379 118.881 140.405  1.00  0.00     0.035 C 
ENDROOT
BRANCH   6   8
ATOM      8  O   UNL     1     134.674 117.758 139.131  1.00  0.00    -0.392 OA
ATOM      9  H   UNL     1     134.249 118.652 139.116  1.00  0.00     0.210 HD
ENDBRANCH   6   8
BRANCH   5  10
ATOM     10  C   UNL     1     136.717 117.332 136.781  1.00  0.00    -0.075 C 
ATOM     11  C   UNL     1     135.704 117.351 135.894  1.00  0.00     0.008 C 
ATOM     12  C   UNL     1     137.733 116.224 136.647  1.00  0.00     0.039 C 
ENDBRANCH   5  10
TORSDOF 2
ENDMDL
MODEL 3
REMARK VINA RESULT:    -5.458      2.239      3.204
REMARK INTER + INTRA:          -6.104
REMARK INTER:                  -5.947
REMARK INTRA:                  -0.157
REMARK UNBOUND:                -0.167
REMARK SMILES C=C(C)[C@H]1CC[C@@H](C)C[C@H]1O
REMARK SMILES IDX 8 1 7 2 6 3 5 4 4 5 10 6 9 7 11 8 2 10 1 11 3 12
REMARK H PARENT 11 9
REMARK Flexibility Score: inf
ROOT
ATOM      1  C   UNL     1     137.996 118.621 138.376  1.00  0.00     0.008 C 
ATOM      2  C   UNL     1     136.816 118.659 139.361  1.00  0.00    -0.012 C 
ATOM      3  C   UNL     1     135.596 119.397 138.773  1.00  0.00     0.004 C 
ATOM      4  C   UNL     1     135.754 120.925 138.786  1.00  0.00     0.011 C 
ATOM      5  C   UNL     1     136.064 121.438 140.211  1.00  0.00     0.043 C 
ATOM      6  C   UNL     1     137.360 120.759 140.763  1.00  0.00     0.121 C 
ATOM      7  C   UNL     1     137.209 119.226 140.746  1.00  0.00     0.035 C 
ENDROOT
BRANCH   6   8
ATOM      8  O   UNL     1     138.551 121.114 140.093  1.00  0.00    -0.392 OA
ATOM      9  H   UNL     1     138.827 120.388 139.479  1.00  0.00     0.210 HD
ENDBRANCH   6   8
BRANCH   5  10
ATOM     10  C   UNL     1     136.023 122.971 140.285  1.00  0.00    -0.075 C 
ATOM     11  C   UNL     1     136.387 123.677 141.372  1.00  0.00     0.008 C 
ATOM     12  C   UNL     1     135.450 123.742 139.120  1.00  0.00     0.039 C 
ENDBRANCH   5  10
TORSDOF 2
ENDMDL
MODEL 4
REMARK VINA RESULT:    -5.388      1.663      4.106
REMARK INTER + INTRA:          -6.027
REMARK INTER:                  -5.869
REMARK INTRA:                  -0.159
REMARK UNBOUND:                -0.167
REMARK SMILES C=C(C)[C@H]1CC[C@@H](C)C[C@H]1O
REMARK SMILES IDX 8 1 7 2 6 3 5 4 4 5 10 6 9 7 11 8 2 10 1 11 3 12
REMARK H PARENT 11 9
REMARK Flexibility Score: inf
ROOT
ATOM      1  C   UNL     1     137.715 121.687 140.503  1.00  0.00     0.008 C 
ATOM      2  C   UNL     1     137.468 120.214 140.867  1.00  0.00    -0.012 C 
ATOM      3  C   UNL     1     138.519 119.279 140.235  1.00  0.00     0.004 C 
ATOM      4  C   UNL     1     138.278 119.027 138.738  1.00  0.00     0.011 C 
ATOM      5  C   UNL     1     136.851 118.487 138.490  1.00  0.00     0.043 C 
ATOM      6  C   UNL     1     135.787 119.489 139.045  1.00  0.00     0.121 C 
ATOM      7  C   UNL     1     136.029 119.750 140.544  1.00  0.00     0.035 C 
ENDROOT
BRANCH   6   8
ATOM      8  O   UNL     1     135.720 120.725 138.366  1.00  0.00    -0.392 OA
ATOM      9  H   UNL     1     134.986 121.278 138.733  1.00  0.00     0.210 HD
ENDBRANCH   6   8
BRANCH   5  10
ATOM     10  C   UNL     1     136.659 118.038 137.034  1.00  0.00    -0.075 C 
ATOM     11  C   UNL     1     135.490 117.590 136.538  1.00  0.00     0.008 C 
ATOM     12  C   UNL     1     137.860 117.994 136.121  1.00  0.00     0.039 C 
ENDBRANCH   5  10
TORSDOF 2
ENDMDL
MODEL 5
REMARK VINA RESULT:    -5.233      1.478      2.483
REMARK INTER + INTRA:          -5.858
REMARK INTER:                  -5.688
REMARK INTRA:                  -0.171
REMARK UNBOUND:                -0.167
REMARK SMILES C=C(C)[C@H]1CC[C@@H](C)C[C@H]1O
REMARK SMILES IDX 8 1 7 2 6 3 5 4 4 5 10 6 9 7 11 8 2 10 1 11 3 12
REMARK H PARENT 11 9
REMARK Flexibility Score: inf
ROOT
ATOM      1  C   UNL     1     136.324 117.613 136.674  1.00  0.00     0.008 C 
ATOM      2  C   UNL     1     136.939 117.499 138.079  1.00  0.00    -0.012 C 
ATOM      3  C   UNL     1     135.867 117.246 139.159  1.00  0.00     0.004 C 
ATOM      4  C   UNL     1     135.074 118.509 139.527  1.00  0.00     0.011 C 
ATOM      5  C   UNL     1     136.021 119.652 139.959  1.00  0.00     0.043 C 
ATOM      6  C   UNL     1     137.043 119.971 138.819  1.00  0.00     0.121 C 
ATOM      7  C   UNL     1     137.836 118.706 138.441  1.00  0.00     0.035 C 
ENDROOT
BRANCH   6   8
ATOM      8  O   UNL     1     136.477 120.528 137.650  1.00  0.00    -0.392 OA
ATOM      9  H   UNL     1     135.508 120.330 137.612  1.00  0.00     0.210 HD
ENDBRANCH   6   8
BRANCH   5  10
ATOM     10  C   UNL     1     135.245 120.850 140.523  1.00  0.00    -0.075 C 
ATOM     11  C   UNL     1     133.908 120.983 140.435  1.00  0.00     0.008 C 
ATOM     12  C   UNL     1     136.016 122.001 141.123  1.00  0.00     0.039 C 
ENDBRANCH   5  10
TORSDOF 2
ENDMDL
MODEL 6
REMARK VINA RESULT:    -5.176      1.374      4.213
REMARK INTER + INTRA:          -5.797
REMARK INTER:                  -5.641
REMARK INTRA:                  -0.156
REMARK UNBOUND:                -0.167
REMARK SMILES C=C(C)[C@H]1CC[C@@H](C)C[C@H]1O
REMARK SMILES IDX 8 1 7 2 6 3 5 4 4 5 10 6 9 7 11 8 2 10 1 11 3 12
REMARK H PARENT 11 9
REMARK Flexibility Score: inf
ROOT
ATOM      1  C   UNL     1     135.713 121.534 141.508  1.00  0.00     0.008 C 
ATOM      2  C   UNL     1     136.695 121.857 140.371  1.00  0.00    -0.012 C 
ATOM      3  C   UNL     1     136.022 121.776 138.986  1.00  0.00     0.004 C 
ATOM      4  C   UNL     1     135.818 120.333 138.500  1.00  0.00     0.011 C 
ATOM      5  C   UNL     1     137.153 119.553 138.502  1.00  0.00     0.043 C 
ATOM      6  C   UNL     1     137.781 119.555 139.933  1.00  0.00     0.121 C 
ATOM      7  C   UNL     1     137.982 121.000 140.428  1.00  0.00     0.035 C 
ENDROOT
BRANCH   6   8
ATOM      8  O   UNL     1     137.054 118.831 140.904  1.00  0.00    -0.392 OA
ATOM      9  H   UNL     1     137.674 118.409 141.551  1.00  0.00     0.210 HD
ENDBRANCH   6   8
BRANCH   5  10
ATOM     10  C   UNL     1     137.010 118.180 137.830  1.00  0.00    -0.075 C 
ATOM     11  C   UNL     1     137.979 117.246 137.826  1.00  0.00     0.008 C 
ATOM     12  C   UNL     1     135.759 117.882 137.039  1.00  0.00     0.039 C 
ENDBRANCH   5  10
TORSDOF 2
ENDMDL
MODEL 7
REMARK VINA RESULT:    -5.150      1.449      4.297
REMARK INTER + INTRA:          -5.768
REMARK INTER:                  -5.602
REMARK INTRA:                  -0.166
REMARK UNBOUND:                -0.167
REMARK SMILES C=C(C)[C@H]1CC[C@@H](C)C[C@H]1O
REMARK SMILES IDX 8 1 7 2 6 3 5 4 4 5 10 6 9 7 11 8 2 10 1 11 3 12
REMARK H PARENT 11 9
REMARK Flexibility Score: inf
ROOT
ATOM      1  C   UNL     1     135.932 120.352 141.307  1.00  0.00     0.008 C 
ATOM      2  C   UNL     1     135.233 120.386 139.938  1.00  0.00    -0.012 C 
ATOM      3  C   UNL     1     134.667 119.007 139.544  1.00  0.00     0.004 C 
ATOM      4  C   UNL     1     135.747 118.032 139.051  1.00  0.00     0.011 C 
ATOM      5  C   UNL     1     136.554 118.643 137.882  1.00  0.00     0.043 C 
ATOM      6  C   UNL     1     137.208 119.993 138.321  1.00  0.00     0.121 C 
ATOM      7  C   UNL     1     136.129 120.972 138.822  1.00  0.00     0.035 C 
ENDROOT
BRANCH   6   8
ATOM      8  O   UNL     1     138.217 119.876 139.301  1.00  0.00    -0.392 OA
ATOM      9  H   UNL     1     137.820 119.911 140.207  1.00  0.00     0.210 HD
ENDBRANCH   6   8
BRANCH   5  10
ATOM     10  C   UNL     1     137.497 117.613 137.243  1.00  0.00    -0.075 C 
ATOM     11  C   UNL     1     137.915 116.495 137.867  1.00  0.00     0.008 C 
ATOM     12  C   UNL     1     138.078 117.903 135.881  1.00  0.00     0.039 C 
ENDBRANCH   5  10
TORSDOF 2
ENDMDL
MODEL 8
REMARK VINA RESULT:    -5.031     12.752     14.406
REMARK INTER + INTRA:          -5.639
REMARK INTER:                  -5.481
REMARK INTRA:                  -0.158
REMARK UNBOUND:                -0.167
REMARK SMILES C=C(C)[C@H]1CC[C@@H](C)C[C@H]1O
REMARK SMILES IDX 8 1 7 2 6 3 5 4 4 5 10 6 9 7 11 8 2 10 1 11 3 12
REMARK H PARENT 11 9
REMARK Flexibility Score: inf
ROOT
ATOM      1  C   UNL     1     133.662 134.739 138.016  1.00  0.00     0.008 C 
ATOM      2  C   UNL     1     133.749 134.375 136.525  1.00  0.00    -0.012 C 
ATOM      3  C   UNL     1     132.354 134.249 135.879  1.00  0.00     0.004 C 
ATOM      4  C   UNL     1     131.644 132.934 136.235  1.00  0.00     0.011 C 
ATOM      5  C   UNL     1     132.523 131.713 135.875  1.00  0.00     0.043 C 
ATOM      6  C   UNL     1     133.899 131.798 136.612  1.00  0.00     0.121 C 
ATOM      7  C   UNL     1     134.612 133.118 136.263  1.00  0.00     0.035 C 
ENDROOT
BRANCH   6   8
ATOM      8  O   UNL     1     133.831 131.666 138.017  1.00  0.00    -0.392 OA
ATOM      9  H   UNL     1     132.954 131.293 138.283  1.00  0.00     0.210 HD
ENDBRANCH   6   8
BRANCH   5  10
ATOM     10  C   UNL     1     131.754 130.394 136.032  1.00  0.00    -0.075 C 
ATOM     11  C   UNL     1     132.315 129.179 135.878  1.00  0.00     0.008 C 
ATOM     12  C   UNL     1     130.264 130.442 136.271  1.00  0.00     0.039 C 
ENDBRANCH   5  10
TORSDOF 2
ENDMDL
MODEL 9
REMARK VINA RESULT:    -4.886     13.353     15.127
REMARK INTER + INTRA:          -5.481
REMARK INTER:                  -5.311
REMARK INTRA:                  -0.170
REMARK UNBOUND:                -0.167
REMARK SMILES C=C(C)[C@H]1CC[C@@H](C)C[C@H]1O
REMARK SMILES IDX 8 1 7 2 6 3 5 4 4 5 10 6 9 7 11 8 2 10 1 11 3 12
REMARK H PARENT 11 9
REMARK Flexibility Score: inf
ROOT
ATOM      1  C   UNL     1     131.025 134.295 138.181  1.00  0.00     0.008 C 
ATOM      2  C   UNL     1     132.092 134.921 137.268  1.00  0.00    -0.012 C 
ATOM      3  C   UNL     1     132.121 134.259 135.875  1.00  0.00     0.004 C 
ATOM      4  C   UNL     1     132.818 132.890 135.875  1.00  0.00     0.011 C 
ATOM      5  C   UNL     1     134.247 132.996 136.457  1.00  0.00     0.043 C 
ATOM      6  C   UNL     1     134.201 133.576 137.908  1.00  0.00     0.121 C 
ATOM      7  C   UNL     1     133.496 134.946 137.915  1.00  0.00     0.035 C 
ENDROOT
BRANCH   6   8
ATOM      8  O   UNL     1     133.590 132.737 138.866  1.00  0.00    -0.392 OA
ATOM      9  H   UNL     1     133.038 133.274 139.489  1.00  0.00     0.210 HD
ENDBRANCH   6   8
BRANCH   5  10
ATOM     10  C   UNL     1     135.031 131.688 136.279  1.00  0.00    -0.075 C 
ATOM     11  C   UNL     1     134.467 130.524 135.905  1.00  0.00     0.008 C 
ATOM     12  C   UNL     1     136.498 131.663 136.635  1.00  0.00     0.039 C 
ENDBRANCH   5  10
TORSDOF 2
ENDMDL
