MODEL 1
REMARK VINA RESULT:    -6.117      0.000      0.000
REMARK INTER + INTRA:         -10.529
REMARK INTER:                  -9.513
REMARK INTRA:                  -1.016
REMARK UNBOUND:                -1.016
REMARK SMILES COc1cc(CNC(=O)CCCCC=CC(C)C)ccc1O
REMARK SMILES IDX 11 1 12 2 13 3 14 4 15 5 16 6 17 7 18 8 10 9 8 10 9 11 7 12
REMARK SMILES IDX 6 14 5 15 4 16 19 17 3 18 20 19 21 20 2 21 1 22 22 23
REMARK H PARENT 7 13 22 24
REMARK Flexibility Score: inf
ROOT
ATOM      1  C   UNL     1      33.712  52.814  77.027  1.00  0.00     0.010 C 
ENDROOT
BRANCH   1   2
ATOM      2  C   UNL     1      33.180  51.863  75.939  1.00  0.00     0.005 C 
BRANCH   2   3
ATOM      3  C   UNL     1      34.268  51.343  74.981  1.00  0.00     0.027 C 
BRANCH   3   4
ATOM      4  C   UNL     1      34.752  52.404  74.030  1.00  0.00    -0.031 C 
ATOM      5  C   UNL     1      36.013  52.416  73.571  1.00  0.00    -0.028 C 
BRANCH   5   6
ATOM      6  C   UNL     1      36.483  53.467  72.590  1.00  0.00     0.005 C 
ATOM      7  C   UNL     1      36.114  54.870  73.086  1.00  0.00     0.012 C 
ATOM      8  C   UNL     1      37.996  53.358  72.374  1.00  0.00     0.012 C 
ENDBRANCH   5   6
ENDBRANCH   3   4
ENDBRANCH   2   3
ENDBRANCH   1   2
BRANCH   1   9
ATOM      9  C   UNL     1      33.197  54.247  76.859  1.00  0.00     0.100 C 
BRANCH   9  10
ATOM     10  C   UNL     1      34.331  55.176  76.548  1.00  0.00     0.220 C 
ATOM     11  O   UNL     1      35.512  54.735  76.547  1.00  0.00    -0.275 OA
ATOM     12  N   UNL     1      34.074  56.564  76.300  1.00  0.00    -0.352 N 
ATOM     13  H   UNL     1      33.095  56.920  76.382  1.00  0.00     0.163 HD
BRANCH  12  14
ATOM     14  C   UNL     1      35.130  57.508  75.943  1.00  0.00     0.151 C 
BRANCH  14  15
ATOM     15  C   UNL     1      35.727  58.119  77.183  1.00  0.00    -0.025 A 
ATOM     16  C   UNL     1      35.070  59.163  77.852  1.00  0.00     0.056 A 
ATOM     17  C   UNL     1      36.936  57.625  77.693  1.00  0.00     0.009 A 
ATOM     18  C   UNL     1      35.620  59.717  79.027  1.00  0.00     0.160 A 
ATOM     19  C   UNL     1      37.485  58.169  78.856  1.00  0.00     0.050 A 
ATOM     20  C   UNL     1      36.831  59.213  79.523  1.00  0.00     0.157 A 
BRANCH  18  21
ATOM     21  O   UNL     1      34.994  60.761  79.726  1.00  0.00    -0.493 OA
ATOM     22  C   UNL     1      34.531  61.969  79.128  1.00  0.00     0.278 C 
ENDBRANCH  18  21
BRANCH  20  23
ATOM     23  O   UNL     1      37.379  59.756  80.684  1.00  0.00    -0.504 OA
ATOM     24  H   UNL     1      36.859  60.406  81.263  1.00  0.00     0.293 HD
ENDBRANCH  20  23
ENDBRANCH  14  15
ENDBRANCH  12  14
ENDBRANCH   9  10
ENDBRANCH   1   9
TORSDOF 10
ENDMDL
MODEL 2
REMARK VINA RESULT:    -6.112      2.484      8.385
REMARK INTER + INTRA:         -10.522
REMARK INTER:                  -9.801
REMARK INTRA:                  -0.722
REMARK UNBOUND:                -1.016
REMARK SMILES COc1cc(CNC(=O)CCCCC=CC(C)C)ccc1O
REMARK SMILES IDX 11 1 12 2 13 3 14 4 15 5 16 6 17 7 18 8 10 9 8 10 9 11 7 12
REMARK SMILES IDX 6 14 5 15 4 16 19 17 3 18 20 19 21 20 2 21 1 22 22 23
REMARK H PARENT 7 13 22 24
REMARK Flexibility Score: inf
ROOT
ATOM      1  C   UNL     1      35.957  57.181  76.191  1.00  0.00     0.010 C 
ENDROOT
BRANCH   1   2
ATOM      2  C   UNL     1      36.512  56.768  77.566  1.00  0.00     0.005 C 
BRANCH   2   3
ATOM      3  C   UNL     1      37.216  57.910  78.322  1.00  0.00     0.027 C 
BRANCH   3   4
ATOM      4  C   UNL     1      36.248  58.782  79.077  1.00  0.00    -0.031 C 
ATOM      5  C   UNL     1      36.343  60.121  79.057  1.00  0.00    -0.028 C 
BRANCH   5   6
ATOM      6  C   UNL     1      35.348  60.990  79.792  1.00  0.00     0.005 C 
ATOM      7  C   UNL     1      34.444  61.730  78.801  1.00  0.00     0.012 C 
ATOM      8  C   UNL     1      34.506  60.143  80.754  1.00  0.00     0.012 C 
ENDBRANCH   5   6
ENDBRANCH   3   4
ENDBRANCH   2   3
ENDBRANCH   1   2
BRANCH   1   9
ATOM      9  C   UNL     1      34.432  57.047  76.107  1.00  0.00     0.100 C 
BRANCH   9  10
ATOM     10  C   UNL     1      34.037  55.602  76.096  1.00  0.00     0.220 C 
ATOM     11  O   UNL     1      33.135  55.199  76.880  1.00  0.00    -0.275 OA
ATOM     12  N   UNL     1      34.712  54.680  75.231  1.00  0.00    -0.352 N 
ATOM     13  H   UNL     1      35.507  55.024  74.647  1.00  0.00     0.163 HD
BRANCH  12  14
ATOM     14  C   UNL     1      34.340  53.270  75.138  1.00  0.00     0.151 C 
BRANCH  14  15
ATOM     15  C   UNL     1      35.395  52.498  74.392  1.00  0.00    -0.025 A 
ATOM     16  C   UNL     1      36.125  53.102  73.357  1.00  0.00     0.056 A 
ATOM     17  C   UNL     1      35.674  51.171  74.750  1.00  0.00     0.009 A 
ATOM     18  C   UNL     1      37.130  52.384  72.676  1.00  0.00     0.160 A 
ATOM     19  C   UNL     1      36.668  50.455  74.079  1.00  0.00     0.050 A 
ATOM     20  C   UNL     1      37.396  51.057  73.045  1.00  0.00     0.157 A 
BRANCH  18  21
ATOM     21  O   UNL     1      37.882  52.953  71.637  1.00  0.00    -0.493 OA
ATOM     22  C   UNL     1      37.545  52.866  70.255  1.00  0.00     0.278 C 
ENDBRANCH  18  21
BRANCH  20  23
ATOM     23  O   UNL     1      38.388  50.342  72.376  1.00  0.00    -0.504 OA
ATOM     24  H   UNL     1      38.163  49.690  71.632  1.00  0.00     0.293 HD
ENDBRANCH  20  23
ENDBRANCH  14  15
ENDBRANCH  12  14
ENDBRANCH   9  10
ENDBRANCH   1   9
TORSDOF 10
ENDMDL
MODEL 3
REMARK VINA RESULT:    -6.057      2.654      8.506
REMARK INTER + INTRA:         -10.437
REMARK INTER:                  -9.735
REMARK INTRA:                  -0.701
REMARK UNBOUND:                -1.016
REMARK SMILES COc1cc(CNC(=O)CCCCC=CC(C)C)ccc1O
REMARK SMILES IDX 11 1 12 2 13 3 14 4 15 5 16 6 17 7 18 8 10 9 8 10 9 11 7 12
REMARK SMILES IDX 6 14 5 15 4 16 19 17 3 18 20 19 21 20 2 21 1 22 22 23
REMARK H PARENT 7 13 22 24
REMARK Flexibility Score: inf
ROOT
ATOM      1  C   UNL     1      36.494  58.232  77.525  1.00  0.00     0.010 C 
ENDROOT
BRANCH   1   2
ATOM      2  C   UNL     1      35.484  59.100  78.297  1.00  0.00     0.005 C 
BRANCH   2   3
ATOM      3  C   UNL     1      35.651  59.038  79.827  1.00  0.00     0.027 C 
BRANCH   3   4
ATOM      4  C   UNL     1      37.082  59.220  80.257  1.00  0.00    -0.031 C 
ATOM      5  C   UNL     1      37.664  58.392  81.138  1.00  0.00    -0.028 C 
BRANCH   5   6
ATOM      6  C   UNL     1      39.111  58.562  81.540  1.00  0.00     0.005 C 
ATOM      7  C   UNL     1      39.724  57.212  81.931  1.00  0.00     0.012 C 
ATOM      8  C   UNL     1      39.911  59.201  80.399  1.00  0.00     0.012 C 
ENDBRANCH   5   6
ENDBRANCH   3   4
ENDBRANCH   2   3
ENDBRANCH   1   2
BRANCH   1   9
ATOM      9  C   UNL     1      36.147  56.740  77.573  1.00  0.00     0.100 C 
BRANCH   9  10
ATOM     10  C   UNL     1      35.496  56.315  76.292  1.00  0.00     0.220 C 
ATOM     11  O   UNL     1      35.052  57.191  75.501  1.00  0.00    -0.275 OA
ATOM     12  N   UNL     1      35.340  54.922  75.994  1.00  0.00    -0.352 N 
ATOM     13  H   UNL     1      35.647  54.216  76.701  1.00  0.00     0.163 HD
BRANCH  12  14
ATOM     14  C   UNL     1      34.760  54.445  74.741  1.00  0.00     0.151 C 
BRANCH  14  15
ATOM     15  C   UNL     1      35.664  53.426  74.100  1.00  0.00    -0.025 A 
ATOM     16  C   UNL     1      36.403  53.749  72.951  1.00  0.00     0.056 A 
ATOM     17  C   UNL     1      35.794  52.151  74.669  1.00  0.00     0.009 A 
ATOM     18  C   UNL     1      37.268  52.800  72.367  1.00  0.00     0.160 A 
ATOM     19  C   UNL     1      36.648  51.207  74.094  1.00  0.00     0.050 A 
ATOM     20  C   UNL     1      37.385  51.528  72.946  1.00  0.00     0.157 A 
BRANCH  18  21
ATOM     21  O   UNL     1      38.024  53.084  71.219  1.00  0.00    -0.493 OA
ATOM     22  C   UNL     1      37.556  52.920  69.883  1.00  0.00     0.278 C 
ENDBRANCH  18  21
BRANCH  20  23
ATOM     23  O   UNL     1      38.238  50.586  72.373  1.00  0.00    -0.504 OA
ATOM     24  H   UNL     1      38.345  50.509  71.368  1.00  0.00     0.293 HD
ENDBRANCH  20  23
ENDBRANCH  14  15
ENDBRANCH  12  14
ENDBRANCH   9  10
ENDBRANCH   1   9
TORSDOF 10
ENDMDL
MODEL 4
REMARK VINA RESULT:    -6.009      1.330      2.140
REMARK INTER + INTRA:         -10.362
REMARK INTER:                  -9.522
REMARK INTRA:                  -0.840
REMARK UNBOUND:                -1.016
REMARK SMILES COc1cc(CNC(=O)CCCCC=CC(C)C)ccc1O
REMARK SMILES IDX 11 1 12 2 13 3 14 4 15 5 16 6 17 7 18 8 10 9 8 10 9 11 7 12
REMARK SMILES IDX 6 14 5 15 4 16 19 17 3 18 20 19 21 20 2 21 1 22 22 23
REMARK H PARENT 7 13 22 24
REMARK Flexibility Score: inf
ROOT
ATOM      1  C   UNL     1      33.896  53.202  75.762  1.00  0.00     0.010 C 
ENDROOT
BRANCH   1   2
ATOM      2  C   UNL     1      33.933  51.678  75.546  1.00  0.00     0.005 C 
BRANCH   2   3
ATOM      3  C   UNL     1      33.924  51.258  74.065  1.00  0.00     0.027 C 
BRANCH   3   4
ATOM      4  C   UNL     1      34.646  52.243  73.184  1.00  0.00    -0.031 C 
ATOM      5  C   UNL     1      35.893  52.012  72.745  1.00  0.00    -0.028 C 
BRANCH   5   6
ATOM      6  C   UNL     1      36.600  52.990  71.834  1.00  0.00     0.005 C 
ATOM      7  C   UNL     1      35.757  54.257  71.647  1.00  0.00     0.012 C 
ATOM      8  C   UNL     1      37.980  53.345  72.399  1.00  0.00     0.012 C 
ENDBRANCH   5   6
ENDBRANCH   3   4
ENDBRANCH   2   3
ENDBRANCH   1   2
BRANCH   1   9
ATOM      9  C   UNL     1      35.030  53.697  76.666  1.00  0.00     0.100 C 
BRANCH   9  10
ATOM     10  C   UNL     1      35.479  55.062  76.240  1.00  0.00     0.220 C 
ATOM     11  O   UNL     1      35.380  55.398  75.029  1.00  0.00    -0.275 OA
ATOM     12  N   UNL     1      36.057  55.958  77.197  1.00  0.00    -0.352 N 
ATOM     13  H   UNL     1      36.199  55.628  78.178  1.00  0.00     0.163 HD
BRANCH  12  14
ATOM     14  C   UNL     1      36.467  57.318  76.855  1.00  0.00     0.151 C 
BRANCH  14  15
ATOM     15  C   UNL     1      36.090  58.271  77.958  1.00  0.00    -0.025 A 
ATOM     16  C   UNL     1      36.459  58.009  79.286  1.00  0.00     0.056 A 
ATOM     17  C   UNL     1      35.389  59.447  77.656  1.00  0.00     0.009 A 
ATOM     18  C   UNL     1      36.126  58.916  80.314  1.00  0.00     0.160 A 
ATOM     19  C   UNL     1      35.055  60.348  78.669  1.00  0.00     0.050 A 
ATOM     20  C   UNL     1      35.422  60.086  79.996  1.00  0.00     0.157 A 
BRANCH  18  21
ATOM     21  O   UNL     1      36.477  58.690  81.654  1.00  0.00    -0.493 OA
ATOM     22  C   UNL     1      37.814  58.543  82.125  1.00  0.00     0.278 C 
ENDBRANCH  18  21
BRANCH  20  23
ATOM     23  O   UNL     1      35.089  60.986  81.007  1.00  0.00    -0.504 OA
ATOM     24  H   UNL     1      35.383  61.956  80.973  1.00  0.00     0.293 HD
ENDBRANCH  20  23
ENDBRANCH  14  15
ENDBRANCH  12  14
ENDBRANCH   9  10
ENDBRANCH   1   9
TORSDOF 10
ENDMDL
MODEL 5
REMARK VINA RESULT:    -5.943      3.518      7.936
REMARK INTER + INTRA:         -10.260
REMARK INTER:                  -9.495
REMARK INTRA:                  -0.765
REMARK UNBOUND:                -1.016
REMARK SMILES COc1cc(CNC(=O)CCCCC=CC(C)C)ccc1O
REMARK SMILES IDX 11 1 12 2 13 3 14 4 15 5 16 6 17 7 18 8 10 9 8 10 9 11 7 12
REMARK SMILES IDX 6 14 5 15 4 16 19 17 3 18 20 19 21 20 2 21 1 22 22 23
REMARK H PARENT 7 13 22 24
REMARK Flexibility Score: inf
ROOT
ATOM      1  C   UNL     1      33.926  54.803  77.294  1.00  0.00     0.010 C 
ENDROOT
BRANCH   1   2
ATOM      2  C   UNL     1      33.873  55.787  76.111  1.00  0.00     0.005 C 
BRANCH   2   3
ATOM      3  C   UNL     1      35.207  56.509  75.843  1.00  0.00     0.027 C 
BRANCH   3   4
ATOM      4  C   UNL     1      35.772  57.153  77.082  1.00  0.00    -0.031 C 
ATOM      5  C   UNL     1      35.401  58.384  77.467  1.00  0.00    -0.028 C 
BRANCH   5   6
ATOM      6  C   UNL     1      35.949  59.010  78.729  1.00  0.00     0.005 C 
ATOM      7  C   UNL     1      37.434  58.671  78.899  1.00  0.00     0.012 C 
ATOM      8  C   UNL     1      35.746  60.529  78.703  1.00  0.00     0.012 C 
ENDBRANCH   5   6
ENDBRANCH   3   4
ENDBRANCH   2   3
ENDBRANCH   1   2
BRANCH   1   9
ATOM      9  C   UNL     1      32.572  54.137  77.567  1.00  0.00     0.100 C 
BRANCH   9  10
ATOM     10  C   UNL     1      32.510  52.794  76.906  1.00  0.00     0.220 C 
ATOM     11  O   UNL     1      31.479  52.081  77.045  1.00  0.00    -0.275 OA
ATOM     12  N   UNL     1      33.634  52.308  76.161  1.00  0.00    -0.352 N 
ATOM     13  H   UNL     1      34.504  52.884  76.125  1.00  0.00     0.163 HD
BRANCH  12  14
ATOM     14  C   UNL     1      33.616  51.030  75.454  1.00  0.00     0.151 C 
BRANCH  14  15
ATOM     15  C   UNL     1      34.882  50.855  74.657  1.00  0.00    -0.025 A 
ATOM     16  C   UNL     1      35.421  51.927  73.929  1.00  0.00     0.056 A 
ATOM     17  C   UNL     1      35.546  49.621  74.662  1.00  0.00     0.009 A 
ATOM     18  C   UNL     1      36.620  51.767  73.203  1.00  0.00     0.160 A 
ATOM     19  C   UNL     1      36.734  49.456  73.945  1.00  0.00     0.050 A 
ATOM     20  C   UNL     1      37.272  50.525  73.217  1.00  0.00     0.157 A 
BRANCH  18  21
ATOM     21  O   UNL     1      37.192  52.814  72.463  1.00  0.00    -0.493 OA
ATOM     22  C   UNL     1      36.836  53.144  71.123  1.00  0.00     0.278 C 
ENDBRANCH  18  21
BRANCH  20  23
ATOM     23  O   UNL     1      38.456  50.361  72.501  1.00  0.00    -0.504 OA
ATOM     24  H   UNL     1      38.633  49.529  71.950  1.00  0.00     0.293 HD
ENDBRANCH  20  23
ENDBRANCH  14  15
ENDBRANCH  12  14
ENDBRANCH   9  10
ENDBRANCH   1   9
TORSDOF 10
ENDMDL
MODEL 6
REMARK VINA RESULT:    -5.884      2.661      8.622
REMARK INTER + INTRA:         -10.168
REMARK INTER:                  -9.445
REMARK INTRA:                  -0.723
REMARK UNBOUND:                -1.016
REMARK SMILES COc1cc(CNC(=O)CCCCC=CC(C)C)ccc1O
REMARK SMILES IDX 11 1 12 2 13 3 14 4 15 5 16 6 17 7 18 8 10 9 8 10 9 11 7 12
REMARK SMILES IDX 6 14 5 15 4 16 19 17 3 18 20 19 21 20 2 21 1 22 22 23
REMARK H PARENT 7 13 22 24
REMARK Flexibility Score: inf
ROOT
ATOM      1  C   UNL     1      35.304  58.374  77.157  1.00  0.00     0.010 C 
ENDROOT
BRANCH   1   2
ATOM      2  C   UNL     1      35.728  59.295  78.316  1.00  0.00     0.005 C 
BRANCH   2   3
ATOM      3  C   UNL     1      35.474  58.696  79.712  1.00  0.00     0.027 C 
BRANCH   3   4
ATOM      4  C   UNL     1      36.621  58.933  80.657  1.00  0.00    -0.031 C 
ATOM      5  C   UNL     1      37.722  58.165  80.636  1.00  0.00    -0.028 C 
BRANCH   5   6
ATOM      6  C   UNL     1      38.883  58.430  81.567  1.00  0.00     0.005 C 
ATOM      7  C   UNL     1      39.929  57.315  81.454  1.00  0.00     0.012 C 
ATOM      8  C   UNL     1      39.517  59.791  81.256  1.00  0.00     0.012 C 
ENDBRANCH   5   6
ENDBRANCH   3   4
ENDBRANCH   2   3
ENDBRANCH   1   2
BRANCH   1   9
ATOM      9  C   UNL     1      35.961  56.991  77.234  1.00  0.00     0.100 C 
BRANCH   9  10
ATOM     10  C   UNL     1      35.169  55.994  76.445  1.00  0.00     0.220 C 
ATOM     11  O   UNL     1      34.124  56.366  75.844  1.00  0.00    -0.275 OA
ATOM     12  N   UNL     1      35.574  54.619  76.413  1.00  0.00    -0.352 N 
ATOM     13  H   UNL     1      36.399  54.322  76.981  1.00  0.00     0.163 HD
BRANCH  12  14
ATOM     14  C   UNL     1      34.874  53.610  75.623  1.00  0.00     0.151 C 
BRANCH  14  15
ATOM     15  C   UNL     1      35.714  53.190  74.446  1.00  0.00    -0.025 A 
ATOM     16  C   UNL     1      36.284  51.908  74.396  1.00  0.00     0.056 A 
ATOM     17  C   UNL     1      35.910  54.074  73.376  1.00  0.00     0.009 A 
ATOM     18  C   UNL     1      37.051  51.509  73.282  1.00  0.00     0.160 A 
ATOM     19  C   UNL     1      36.669  53.685  72.270  1.00  0.00     0.050 A 
ATOM     20  C   UNL     1      37.239  52.406  72.221  1.00  0.00     0.157 A 
BRANCH  18  21
ATOM     21  O   UNL     1      37.636  50.236  73.194  1.00  0.00    -0.493 OA
ATOM     22  C   UNL     1      36.987  49.022  73.562  1.00  0.00     0.278 C 
ENDBRANCH  18  21
BRANCH  20  23
ATOM     23  O   UNL     1      37.996  52.017  71.117  1.00  0.00    -0.504 OA
ATOM     24  H   UNL     1      37.787  52.353  70.184  1.00  0.00     0.293 HD
ENDBRANCH  20  23
ENDBRANCH  14  15
ENDBRANCH  12  14
ENDBRANCH   9  10
ENDBRANCH   1   9
TORSDOF 10
ENDMDL
MODEL 7
REMARK VINA RESULT:    -5.803      2.362      8.105
REMARK INTER + INTRA:         -10.041
REMARK INTER:                  -9.225
REMARK INTRA:                  -0.816
REMARK UNBOUND:                -1.016
REMARK SMILES COc1cc(CNC(=O)CCCCC=CC(C)C)ccc1O
REMARK SMILES IDX 11 1 12 2 13 3 14 4 15 5 16 6 17 7 18 8 10 9 8 10 9 11 7 12
REMARK SMILES IDX 6 14 5 15 4 16 19 17 3 18 20 19 21 20 2 21 1 22 22 23
REMARK H PARENT 7 13 22 24
REMARK Flexibility Score: inf
ROOT
ATOM      1  C   UNL     1      35.373  59.118  77.697  1.00  0.00     0.010 C 
ENDROOT
BRANCH   1   2
ATOM      2  C   UNL     1      35.724  59.883  78.987  1.00  0.00     0.005 C 
BRANCH   2   3
ATOM      3  C   UNL     1      35.359  59.127  80.278  1.00  0.00     0.027 C 
BRANCH   3   4
ATOM      4  C   UNL     1      36.534  58.975  81.207  1.00  0.00    -0.031 C 
ATOM      5  C   UNL     1      37.592  58.213  80.886  1.00  0.00    -0.028 C 
BRANCH   5   6
ATOM      6  C   UNL     1      38.782  58.092  81.810  1.00  0.00     0.005 C 
ATOM      7  C   UNL     1      39.858  57.194  81.189  1.00  0.00     0.012 C 
ATOM      8  C   UNL     1      39.358  59.477  82.125  1.00  0.00     0.012 C 
ENDBRANCH   5   6
ENDBRANCH   3   4
ENDBRANCH   2   3
ENDBRANCH   1   2
BRANCH   1   9
ATOM      9  C   UNL     1      35.938  57.693  77.686  1.00  0.00     0.100 C 
BRANCH   9  10
ATOM     10  C   UNL     1      35.222  56.857  76.669  1.00  0.00     0.220 C 
ATOM     11  O   UNL     1      35.218  57.218  75.461  1.00  0.00    -0.275 OA
ATOM     12  N   UNL     1      34.511  55.682  77.079  1.00  0.00    -0.352 N 
ATOM     13  H   UNL     1      34.465  55.447  78.096  1.00  0.00     0.163 HD
BRANCH  12  14
ATOM     14  C   UNL     1      33.836  54.800  76.130  1.00  0.00     0.151 C 
BRANCH  14  15
ATOM     15  C   UNL     1      34.804  53.788  75.577  1.00  0.00    -0.025 A 
ATOM     16  C   UNL     1      34.957  53.628  74.191  1.00  0.00     0.056 A 
ATOM     17  C   UNL     1      35.582  53.015  76.451  1.00  0.00     0.009 A 
ATOM     18  C   UNL     1      35.882  52.696  73.676  1.00  0.00     0.160 A 
ATOM     19  C   UNL     1      36.499  52.090  75.947  1.00  0.00     0.050 A 
ATOM     20  C   UNL     1      36.651  51.929  74.563  1.00  0.00     0.157 A 
BRANCH  18  21
ATOM     21  O   UNL     1      36.064  52.507  72.297  1.00  0.00    -0.493 OA
ATOM     22  C   UNL     1      36.141  53.561  71.341  1.00  0.00     0.278 C 
ENDBRANCH  18  21
BRANCH  20  23
ATOM     23  O   UNL     1      37.566  51.006  74.060  1.00  0.00    -0.504 OA
ATOM     24  H   UNL     1      37.629  50.065  74.430  1.00  0.00     0.293 HD
ENDBRANCH  20  23
ENDBRANCH  14  15
ENDBRANCH  12  14
ENDBRANCH   9  10
ENDBRANCH   1   9
TORSDOF 10
ENDMDL
MODEL 8
REMARK VINA RESULT:    -5.736      1.247      3.198
REMARK INTER + INTRA:          -9.937
REMARK INTER:                  -9.108
REMARK INTRA:                  -0.829
REMARK UNBOUND:                -1.016
REMARK SMILES COc1cc(CNC(=O)CCCCC=CC(C)C)ccc1O
REMARK SMILES IDX 11 1 12 2 13 3 14 4 15 5 16 6 17 7 18 8 10 9 8 10 9 11 7 12
REMARK SMILES IDX 6 14 5 15 4 16 19 17 3 18 20 19 21 20 2 21 1 22 22 23
REMARK H PARENT 7 13 22 24
REMARK Flexibility Score: inf
ROOT
ATOM      1  C   UNL     1      35.427  53.662  73.457  1.00  0.00     0.010 C 
ENDROOT
BRANCH   1   2
ATOM      2  C   UNL     1      34.643  52.364  73.191  1.00  0.00     0.005 C 
BRANCH   2   3
ATOM      3  C   UNL     1      35.072  51.184  74.084  1.00  0.00     0.027 C 
BRANCH   3   4
ATOM      4  C   UNL     1      33.930  50.633  74.896  1.00  0.00    -0.031 C 
ATOM      5  C   UNL     1      33.383  51.329  75.905  1.00  0.00    -0.028 C 
BRANCH   5   6
ATOM      6  C   UNL     1      32.216  50.782  76.695  1.00  0.00     0.005 C 
ATOM      7  C   UNL     1      31.568  51.888  77.536  1.00  0.00     0.012 C 
ATOM      8  C   UNL     1      31.182  50.152  75.754  1.00  0.00     0.012 C 
ENDBRANCH   5   6
ENDBRANCH   3   4
ENDBRANCH   2   3
ENDBRANCH   1   2
BRANCH   1   9
ATOM      9  C   UNL     1      35.674  53.905  74.950  1.00  0.00     0.100 C 
BRANCH   9  10
ATOM     10  C   UNL     1      34.928  55.120  75.411  1.00  0.00     0.220 C 
ATOM     11  O   UNL     1      33.709  55.019  75.721  1.00  0.00    -0.275 OA
ATOM     12  N   UNL     1      35.585  56.392  75.454  1.00  0.00    -0.352 N 
ATOM     13  H   UNL     1      36.572  56.464  75.119  1.00  0.00     0.163 HD
BRANCH  12  14
ATOM     14  C   UNL     1      34.927  57.602  75.941  1.00  0.00     0.151 C 
BRANCH  14  15
ATOM     15  C   UNL     1      35.607  58.103  77.187  1.00  0.00    -0.025 A 
ATOM     16  C   UNL     1      35.149  59.261  77.835  1.00  0.00     0.056 A 
ATOM     17  C   UNL     1      36.691  57.395  77.724  1.00  0.00     0.009 A 
ATOM     18  C   UNL     1      35.773  59.714  79.016  1.00  0.00     0.160 A 
ATOM     19  C   UNL     1      37.314  57.839  78.893  1.00  0.00     0.050 A 
ATOM     20  C   UNL     1      36.858  58.995  79.540  1.00  0.00     0.157 A 
BRANCH  18  21
ATOM     21  O   UNL     1      35.345  60.866  79.694  1.00  0.00    -0.493 OA
ATOM     22  C   UNL     1      34.580  61.913  79.103  1.00  0.00     0.278 C 
ENDBRANCH  18  21
BRANCH  20  23
ATOM     23  O   UNL     1      37.479  59.438  80.706  1.00  0.00    -0.504 OA
ATOM     24  H   UNL     1      38.110  60.232  80.704  1.00  0.00     0.293 HD
ENDBRANCH  20  23
ENDBRANCH  14  15
ENDBRANCH  12  14
ENDBRANCH   9  10
ENDBRANCH   1   9
TORSDOF 10
ENDMDL
MODEL 9
REMARK VINA RESULT:    -5.693      1.722      2.973
REMARK INTER + INTRA:          -9.871
REMARK INTER:                  -9.106
REMARK INTRA:                  -0.764
REMARK UNBOUND:                -1.016
REMARK SMILES COc1cc(CNC(=O)CCCCC=CC(C)C)ccc1O
REMARK SMILES IDX 11 1 12 2 13 3 14 4 15 5 16 6 17 7 18 8 10 9 8 10 9 11 7 12
REMARK SMILES IDX 6 14 5 15 4 16 19 17 3 18 20 19 21 20 2 21 1 22 22 23
REMARK H PARENT 7 13 22 24
REMARK Flexibility Score: inf
ROOT
ATOM      1  C   UNL     1      36.132  55.223  73.760  1.00  0.00     0.010 C 
ENDROOT
BRANCH   1   2
ATOM      2  C   UNL     1      36.094  54.138  72.667  1.00  0.00     0.005 C 
BRANCH   2   3
ATOM      3  C   UNL     1      37.429  53.390  72.486  1.00  0.00     0.027 C 
BRANCH   3   4
ATOM      4  C   UNL     1      37.293  51.908  72.709  1.00  0.00    -0.031 C 
ATOM      5  C   UNL     1      36.435  51.407  73.612  1.00  0.00    -0.028 C 
BRANCH   5   6
ATOM      6  C   UNL     1      36.281  49.916  73.808  1.00  0.00     0.005 C 
ATOM      7  C   UNL     1      37.646  49.259  74.039  1.00  0.00     0.012 C 
ATOM      8  C   UNL     1      35.342  49.626  74.984  1.00  0.00     0.012 C 
ENDBRANCH   5   6
ENDBRANCH   3   4
ENDBRANCH   2   3
ENDBRANCH   1   2
BRANCH   1   9
ATOM      9  C   UNL     1      35.442  54.779  75.055  1.00  0.00     0.100 C 
BRANCH   9  10
ATOM     10  C   UNL     1      34.817  55.956  75.741  1.00  0.00     0.220 C 
ATOM     11  O   UNL     1      33.625  55.877  76.146  1.00  0.00    -0.275 OA
ATOM     12  N   UNL     1      35.557  57.174  75.892  1.00  0.00    -0.352 N 
ATOM     13  H   UNL     1      36.514  57.239  75.480  1.00  0.00     0.163 HD
BRANCH  12  14
ATOM     14  C   UNL     1      35.021  58.337  76.594  1.00  0.00     0.151 C 
BRANCH  14  15
ATOM     15  C   UNL     1      35.772  58.564  77.879  1.00  0.00    -0.025 A 
ATOM     16  C   UNL     1      35.149  59.190  78.971  1.00  0.00     0.056 A 
ATOM     17  C   UNL     1      37.098  58.124  78.001  1.00  0.00     0.009 A 
ATOM     18  C   UNL     1      35.847  59.379  80.181  1.00  0.00     0.160 A 
ATOM     19  C   UNL     1      37.794  58.309  79.198  1.00  0.00     0.050 A 
ATOM     20  C   UNL     1      37.173  58.935  80.286  1.00  0.00     0.157 A 
BRANCH  18  21
ATOM     21  O   UNL     1      35.260  59.999  81.295  1.00  0.00    -0.493 OA
ATOM     22  C   UNL     1      33.975  59.672  81.817  1.00  0.00     0.278 C 
ENDBRANCH  18  21
BRANCH  20  23
ATOM     23  O   UNL     1      37.869  59.120  81.480  1.00  0.00    -0.504 OA
ATOM     24  H   UNL     1      38.462  58.394  81.867  1.00  0.00     0.293 HD
ENDBRANCH  20  23
ENDBRANCH  14  15
ENDBRANCH  12  14
ENDBRANCH   9  10
ENDBRANCH   1   9
TORSDOF 10
ENDMDL
