MODEL 1
REMARK VINA RESULT:    -3.220      0.000      0.000
REMARK INTER + INTRA:          -4.237
REMARK INTER:                  -4.067
REMARK INTRA:                  -0.171
REMARK UNBOUND:                -0.171
REMARK SMILES CCCCC[C@@H](C)O
REMARK SMILES IDX 4 1 3 2 2 3 1 4 5 5 6 6 7 7 8 8
REMARK H PARENT 8 9
REMARK Flexibility Score: inf
ROOT
ATOM      1  C   UNL     1     104.354 106.239 104.729  1.00  0.00     0.003 C 
ENDROOT
BRANCH   1   2
ATOM      2  C   UNL     1     103.664 104.908 104.368  1.00  0.00    -0.000 C 
BRANCH   2   3
ATOM      3  C   UNL     1     103.850 104.457 102.909  1.00  0.00    -0.003 C 
ATOM      4  C   UNL     1     102.563 104.544 102.089  1.00  0.00     0.004 C 
ENDBRANCH   2   3
ENDBRANCH   1   2
BRANCH   1   5
ATOM      5  C   UNL     1     105.055 106.951 103.556  1.00  0.00     0.031 C 
BRANCH   5   6
ATOM      6  C   UNL     1     105.096 108.489 103.698  1.00  0.00     0.111 C 
ATOM      7  C   UNL     1     104.214 109.161 102.642  1.00  0.00     0.038 C 
BRANCH   6   8
ATOM      8  O   UNL     1     104.705 108.892 104.988  1.00  0.00    -0.393 OA
ATOM      9  H   UNL     1     105.427 109.467 105.353  1.00  0.00     0.210 HD
ENDBRANCH   6   8
ENDBRANCH   5   6
ENDBRANCH   1   5
TORSDOF 5
ENDMDL
MODEL 2
REMARK VINA RESULT:    -3.172      2.371      4.297
REMARK INTER + INTRA:          -4.177
REMARK INTER:                  -3.847
REMARK INTRA:                  -0.330
REMARK UNBOUND:                -0.171
REMARK SMILES CCCCC[C@@H](C)O
REMARK SMILES IDX 4 1 3 2 2 3 1 4 5 5 6 6 7 7 8 8
REMARK H PARENT 8 9
REMARK Flexibility Score: inf
ROOT
ATOM      1  C   UNL     1     105.410 106.245 101.875  1.00  0.00     0.003 C 
ENDROOT
BRANCH   1   2
ATOM      2  C   UNL     1     105.795 107.652 102.373  1.00  0.00    -0.000 C 
BRANCH   2   3
ATOM      3  C   UNL     1     104.697 108.384 103.163  1.00  0.00    -0.003 C 
ATOM      4  C   UNL     1     105.019 108.514 104.651  1.00  0.00     0.004 C 
ENDBRANCH   2   3
ENDBRANCH   1   2
BRANCH   1   5
ATOM      5  C   UNL     1     103.955 105.825 102.164  1.00  0.00     0.031 C 
BRANCH   5   6
ATOM      6  C   UNL     1     103.836 104.593 103.087  1.00  0.00     0.111 C 
ATOM      7  C   UNL     1     103.695 105.015 104.552  1.00  0.00     0.038 C 
BRANCH   6   8
ATOM      8  O   UNL     1     102.755 103.776 102.709  1.00  0.00    -0.393 OA
ATOM      9  H   UNL     1     102.764 102.976 103.297  1.00  0.00     0.210 HD
ENDBRANCH   6   8
ENDBRANCH   5   6
ENDBRANCH   1   5
TORSDOF 5
ENDMDL
MODEL 3
REMARK VINA RESULT:    -3.147      2.696      3.387
REMARK INTER + INTRA:          -4.146
REMARK INTER:                  -4.002
REMARK INTRA:                  -0.144
REMARK UNBOUND:                -0.171
REMARK SMILES CCCCC[C@@H](C)O
REMARK SMILES IDX 4 1 3 2 2 3 1 4 5 5 6 6 7 7 8 8
REMARK H PARENT 8 9
REMARK Flexibility Score: inf
ROOT
ATOM      1  C   UNL     1     107.298 106.983 102.889  1.00  0.00     0.003 C 
ENDROOT
BRANCH   1   2
ATOM      2  C   UNL     1     107.659 105.612 102.281  1.00  0.00    -0.000 C 
BRANCH   2   3
ATOM      3  C   UNL     1     107.284 104.398 103.149  1.00  0.00    -0.003 C 
ATOM      4  C   UNL     1     107.656 103.065 102.502  1.00  0.00     0.004 C 
ENDBRANCH   2   3
ENDBRANCH   1   2
BRANCH   1   5
ATOM      5  C   UNL     1     106.242 107.787 102.107  1.00  0.00     0.031 C 
BRANCH   5   6
ATOM      6  C   UNL     1     104.860 107.831 102.795  1.00  0.00     0.111 C 
ATOM      7  C   UNL     1     105.003 108.100 104.296  1.00  0.00     0.038 C 
BRANCH   6   8
ATOM      8  O   UNL     1     104.027 108.799 102.204  1.00  0.00    -0.393 OA
ATOM      9  H   UNL     1     103.522 108.354 101.475  1.00  0.00     0.210 HD
ENDBRANCH   6   8
ENDBRANCH   5   6
ENDBRANCH   1   5
TORSDOF 5
ENDMDL
MODEL 4
REMARK VINA RESULT:    -3.132      3.386      4.808
REMARK INTER + INTRA:          -4.127
REMARK INTER:                  -3.933
REMARK INTRA:                  -0.193
REMARK UNBOUND:                -0.171
REMARK SMILES CCCCC[C@@H](C)O
REMARK SMILES IDX 4 1 3 2 2 3 1 4 5 5 6 6 7 7 8 8
REMARK H PARENT 8 9
REMARK Flexibility Score: inf
ROOT
ATOM      1  C   UNL     1     107.353 106.903 102.908  1.00  0.00     0.003 C 
ENDROOT
BRANCH   1   2
ATOM      2  C   UNL     1     106.447 107.885 102.137  1.00  0.00    -0.000 C 
BRANCH   2   3
ATOM      3  C   UNL     1     104.944 107.756 102.441  1.00  0.00    -0.003 C 
ATOM      4  C   UNL     1     104.269 109.103 102.693  1.00  0.00     0.004 C 
ENDBRANCH   2   3
ENDBRANCH   1   2
BRANCH   1   5
ATOM      5  C   UNL     1     107.839 105.688 102.094  1.00  0.00     0.031 C 
BRANCH   5   6
ATOM      6  C   UNL     1     107.334 104.334 102.639  1.00  0.00     0.111 C 
ATOM      7  C   UNL     1     105.849 104.133 102.319  1.00  0.00     0.038 C 
BRANCH   6   8
ATOM      8  O   UNL     1     108.091 103.264 102.127  1.00  0.00    -0.393 OA
ATOM      9  H   UNL     1     107.812 103.123 101.185  1.00  0.00     0.210 HD
ENDBRANCH   6   8
ENDBRANCH   5   6
ENDBRANCH   1   5
TORSDOF 5
ENDMDL
MODEL 5
REMARK VINA RESULT:    -3.120      2.735      4.476
REMARK INTER + INTRA:          -4.111
REMARK INTER:                  -3.925
REMARK INTRA:                  -0.186
REMARK UNBOUND:                -0.171
REMARK SMILES CCCCC[C@@H](C)O
REMARK SMILES IDX 4 1 3 2 2 3 1 4 5 5 6 6 7 7 8 8
REMARK H PARENT 8 9
REMARK Flexibility Score: inf
ROOT
ATOM      1  C   UNL     1     104.754 107.369 103.021  1.00  0.00     0.003 C 
ENDROOT
BRANCH   1   2
ATOM      2  C   UNL     1     106.147 107.884 102.605  1.00  0.00    -0.000 C 
BRANCH   2   3
ATOM      3  C   UNL     1     107.331 107.143 103.251  1.00  0.00    -0.003 C 
ATOM      4  C   UNL     1     108.682 107.562 102.674  1.00  0.00     0.004 C 
ENDBRANCH   2   3
ENDBRANCH   1   2
BRANCH   1   5
ATOM      5  C   UNL     1     104.172 106.261 102.121  1.00  0.00     0.031 C 
BRANCH   5   6
ATOM      6  C   UNL     1     104.066 104.887 102.819  1.00  0.00     0.111 C 
ATOM      7  C   UNL     1     103.774 105.052 104.314  1.00  0.00     0.038 C 
BRANCH   6   8
ATOM      8  O   UNL     1     103.081 104.084 102.216  1.00  0.00    -0.393 OA
ATOM      9  H   UNL     1     102.512 104.676 101.658  1.00  0.00     0.210 HD
ENDBRANCH   6   8
ENDBRANCH   5   6
ENDBRANCH   1   5
TORSDOF 5
ENDMDL
MODEL 6
REMARK VINA RESULT:    -3.114      3.076      3.549
REMARK INTER + INTRA:          -4.103
REMARK INTER:                  -3.885
REMARK INTRA:                  -0.218
REMARK UNBOUND:                -0.171
REMARK SMILES CCCCC[C@@H](C)O
REMARK SMILES IDX 4 1 3 2 2 3 1 4 5 5 6 6 7 7 8 8
REMARK H PARENT 8 9
REMARK Flexibility Score: inf
ROOT
ATOM      1  C   UNL     1     107.400 104.586 102.730  1.00  0.00     0.003 C 
ENDROOT
BRANCH   1   2
ATOM      2  C   UNL     1     105.954 104.125 102.456  1.00  0.00    -0.000 C 
BRANCH   2   3
ATOM      3  C   UNL     1     104.879 104.814 103.315  1.00  0.00    -0.003 C 
ATOM      4  C   UNL     1     103.457 104.508 102.848  1.00  0.00     0.004 C 
ENDBRANCH   2   3
ENDBRANCH   1   2
BRANCH   1   5
ATOM      5  C   UNL     1     107.877 105.781 101.881  1.00  0.00     0.031 C 
BRANCH   5   6
ATOM      6  C   UNL     1     107.941 107.111 102.662  1.00  0.00     0.111 C 
ATOM      7  C   UNL     1     108.012 106.859 104.171  1.00  0.00     0.038 C 
BRANCH   6   8
ATOM      8  O   UNL     1     109.035 107.893 102.248  1.00  0.00    -0.393 OA
ATOM      9  H   UNL     1     109.757 107.777 102.918  1.00  0.00     0.210 HD
ENDBRANCH   6   8
ENDBRANCH   5   6
ENDBRANCH   1   5
TORSDOF 5
ENDMDL
MODEL 7
REMARK VINA RESULT:    -3.089      2.596      3.766
REMARK INTER + INTRA:          -4.073
REMARK INTER:                  -3.811
REMARK INTRA:                  -0.262
REMARK UNBOUND:                -0.171
REMARK SMILES CCCCC[C@@H](C)O
REMARK SMILES IDX 4 1 3 2 2 3 1 4 5 5 6 6 7 7 8 8
REMARK H PARENT 8 9
REMARK Flexibility Score: inf
ROOT
ATOM      1  C   UNL     1     105.903 106.111 103.312  1.00  0.00     0.003 C 
ENDROOT
BRANCH   1   2
ATOM      2  C   UNL     1     104.655 106.830 102.760  1.00  0.00    -0.000 C 
BRANCH   2   3
ATOM      3  C   UNL     1     104.936 108.169 102.055  1.00  0.00    -0.003 C 
ATOM      4  C   UNL     1     104.177 109.340 102.676  1.00  0.00     0.004 C 
ENDBRANCH   2   3
ENDBRANCH   1   2
BRANCH   1   5
ATOM      5  C   UNL     1     106.776 106.955 104.261  1.00  0.00     0.031 C 
BRANCH   5   6
ATOM      6  C   UNL     1     108.290 106.843 103.976  1.00  0.00     0.111 C 
ATOM      7  C   UNL     1     108.668 107.615 102.709  1.00  0.00     0.038 C 
BRANCH   6   8
ATOM      8  O   UNL     1     109.049 107.299 105.069  1.00  0.00    -0.393 OA
ATOM      9  H   UNL     1     108.757 106.790 105.870  1.00  0.00     0.210 HD
ENDBRANCH   6   8
ENDBRANCH   5   6
ENDBRANCH   1   5
TORSDOF 5
ENDMDL
MODEL 8
REMARK VINA RESULT:    -3.086      3.606      5.010
REMARK INTER + INTRA:          -4.069
REMARK INTER:                  -3.674
REMARK INTRA:                  -0.395
REMARK UNBOUND:                -0.171
REMARK SMILES CCCCC[C@@H](C)O
REMARK SMILES IDX 4 1 3 2 2 3 1 4 5 5 6 6 7 7 8 8
REMARK H PARENT 8 9
REMARK Flexibility Score: inf
ROOT
ATOM      1  C   UNL     1     106.924 105.918 104.169  1.00  0.00     0.003 C 
ENDROOT
BRANCH   1   2
ATOM      2  C   UNL     1     108.218 106.755 104.116  1.00  0.00    -0.000 C 
BRANCH   2   3
ATOM      3  C   UNL     1     108.452 107.506 102.794  1.00  0.00    -0.003 C 
ATOM      4  C   UNL     1     107.231 107.489 101.875  1.00  0.00     0.004 C 
ENDBRANCH   2   3
ENDBRANCH   1   2
BRANCH   1   5
ATOM      5  C   UNL     1     107.133 104.391 104.170  1.00  0.00     0.031 C 
BRANCH   5   6
ATOM      6  C   UNL     1     106.882 103.728 102.798  1.00  0.00     0.111 C 
ATOM      7  C   UNL     1     105.553 104.195 102.198  1.00  0.00     0.038 C 
BRANCH   6   8
ATOM      8  O   UNL     1     107.938 103.990 101.905  1.00  0.00    -0.393 OA
ATOM      9  H   UNL     1     107.649 104.728 101.308  1.00  0.00     0.210 HD
ENDBRANCH   6   8
ENDBRANCH   5   6
ENDBRANCH   1   5
TORSDOF 5
ENDMDL
MODEL 9
REMARK VINA RESULT:    -3.058      3.237      4.650
REMARK INTER + INTRA:          -4.033
REMARK INTER:                  -3.792
REMARK INTRA:                  -0.241
REMARK UNBOUND:                -0.171
REMARK SMILES CCCCC[C@@H](C)O
REMARK SMILES IDX 4 1 3 2 2 3 1 4 5 5 6 6 7 7 8 8
REMARK H PARENT 8 9
REMARK Flexibility Score: inf
ROOT
ATOM      1  C   UNL     1     106.973 104.603 102.785  1.00  0.00     0.003 C 
ENDROOT
BRANCH   1   2
ATOM      2  C   UNL     1     107.883 105.620 102.067  1.00  0.00    -0.000 C 
BRANCH   2   3
ATOM      3  C   UNL     1     107.905 107.025 102.693  1.00  0.00    -0.003 C 
ATOM      4  C   UNL     1     108.294 107.014 104.170  1.00  0.00     0.004 C 
ENDBRANCH   2   3
ENDBRANCH   1   2
BRANCH   1   5
ATOM      5  C   UNL     1     105.717 104.181 101.997  1.00  0.00     0.031 C 
BRANCH   5   6
ATOM      6  C   UNL     1     104.400 104.725 102.592  1.00  0.00     0.111 C 
ATOM      7  C   UNL     1     104.183 106.189 102.199  1.00  0.00     0.038 C 
BRANCH   6   8
ATOM      8  O   UNL     1     103.299 103.946 102.191  1.00  0.00    -0.393 OA
ATOM      9  H   UNL     1     103.627 103.284 101.528  1.00  0.00     0.210 HD
ENDBRANCH   6   8
ENDBRANCH   5   6
ENDBRANCH   1   5
TORSDOF 5
ENDMDL
