MODEL 1
REMARK VINA RESULT:    -2.527      0.000      0.000
REMARK INTER + INTRA:          -3.087
REMARK INTER:                  -2.970
REMARK INTRA:                  -0.117
REMARK UNBOUND:                -0.117
REMARK SMILES CCCCC(=O)[O-]
REMARK SMILES IDX 4 1 5 2 6 3 7 4 3 5 2 6 1 7
REMARK H PARENT
REMARK Flexibility Score: inf
ROOT
ATOM      1  C   UNL     1       9.084 -21.979  16.231  1.00  0.00     0.053 C 
ENDROOT
BRANCH   1   2
ATOM      2  C   UNL     1       8.481 -21.276  15.055  1.00  0.00     0.041 C 
ATOM      3  O   UNL     1       7.701 -21.891  14.282  1.00  0.00    -0.550 OA
ATOM      4  O   UNL     1       8.821 -19.957  14.785  1.00  0.00    -0.550 OA
ENDBRANCH   1   2
BRANCH   1   5
ATOM      5  C   UNL     1       7.987 -22.614  17.095  1.00  0.00     0.006 C 
BRANCH   5   6
ATOM      6  C   UNL     1       6.994 -21.578  17.643  1.00  0.00    -0.003 C 
ATOM      7  C   UNL     1       5.538 -21.954  17.369  1.00  0.00     0.004 C 
ENDBRANCH   5   6
ENDBRANCH   1   5
TORSDOF 3
ENDMDL
MODEL 2
REMARK VINA RESULT:    -2.473      1.082      1.632
REMARK INTER + INTRA:          -3.024
REMARK INTER:                  -3.001
REMARK INTRA:                  -0.023
REMARK UNBOUND:                -0.117
REMARK SMILES CCCCC(=O)[O-]
REMARK SMILES IDX 4 1 5 2 6 3 7 4 3 5 2 6 1 7
REMARK H PARENT
REMARK Flexibility Score: inf
ROOT
ATOM      1  C   UNL     1       7.965 -21.774  15.051  1.00  0.00     0.053 C 
ENDROOT
BRANCH   1   2
ATOM      2  C   UNL     1       8.628 -20.794  14.136  1.00  0.00     0.041 C 
ATOM      3  O   UNL     1       9.013 -19.678  14.576  1.00  0.00    -0.550 OA
ATOM      4  O   UNL     1       8.775 -21.090  12.788  1.00  0.00    -0.550 OA
ENDBRANCH   1   2
BRANCH   1   5
ATOM      5  C   UNL     1       8.044 -21.290  16.504  1.00  0.00     0.006 C 
BRANCH   5   6
ATOM      6  C   UNL     1       7.345 -22.245  17.484  1.00  0.00    -0.003 C 
ATOM      7  C   UNL     1       5.854 -21.945  17.639  1.00  0.00     0.004 C 
ENDBRANCH   5   6
ENDBRANCH   1   5
TORSDOF 3
ENDMDL
MODEL 3
REMARK VINA RESULT:    -2.429      1.128      1.686
REMARK INTER + INTRA:          -2.972
REMARK INTER:                  -2.864
REMARK INTRA:                  -0.108
REMARK UNBOUND:                -0.117
REMARK SMILES CCCCC(=O)[O-]
REMARK SMILES IDX 4 1 5 2 6 3 7 4 3 5 2 6 1 7
REMARK H PARENT
REMARK Flexibility Score: inf
ROOT
ATOM      1  C   UNL     1       8.381 -20.992  15.259  1.00  0.00     0.053 C 
ENDROOT
BRANCH   1   2
ATOM      2  C   UNL     1       7.864 -21.620  14.003  1.00  0.00     0.041 C 
ATOM      3  O   UNL     1       8.097 -21.088  12.887  1.00  0.00    -0.550 OA
ATOM      4  O   UNL     1       7.084 -22.767  14.070  1.00  0.00    -0.550 OA
ENDBRANCH   1   2
BRANCH   1   5
ATOM      5  C   UNL     1       8.412 -22.018  16.398  1.00  0.00     0.006 C 
BRANCH   5   6
ATOM      6  C   UNL     1       7.581 -21.577  17.613  1.00  0.00    -0.003 C 
ATOM      7  C   UNL     1       6.101 -21.936  17.476  1.00  0.00     0.004 C 
ENDBRANCH   5   6
ENDBRANCH   1   5
TORSDOF 3
ENDMDL
MODEL 4
REMARK VINA RESULT:    -2.347      2.162      3.639
REMARK INTER + INTRA:          -2.876
REMARK INTER:                  -2.854
REMARK INTRA:                  -0.023
REMARK UNBOUND:                -0.117
REMARK SMILES CCCCC(=O)[O-]
REMARK SMILES IDX 4 1 5 2 6 3 7 4 3 5 2 6 1 7
REMARK H PARENT
REMARK Flexibility Score: inf
ROOT
ATOM      1  C   UNL     1       7.962 -21.330  16.443  1.00  0.00     0.053 C 
ENDROOT
BRANCH   1   2
ATOM      2  C   UNL     1       6.734 -22.160  16.649  1.00  0.00     0.041 C 
ATOM      3  O   UNL     1       6.343 -22.947  15.748  1.00  0.00    -0.550 OA
ATOM      4  O   UNL     1       5.994 -22.028  17.817  1.00  0.00    -0.550 OA
ENDBRANCH   1   2
BRANCH   1   5
ATOM      5  C   UNL     1       8.324 -21.270  14.953  1.00  0.00     0.006 C 
BRANCH   5   6
ATOM      6  C   UNL     1       9.016 -19.954  14.567  1.00  0.00    -0.003 C 
ATOM      7  C   UNL     1       8.942 -19.666  13.067  1.00  0.00     0.004 C 
ENDBRANCH   5   6
ENDBRANCH   1   5
TORSDOF 3
ENDMDL
MODEL 5
REMARK VINA RESULT:    -2.253     17.265     18.136
REMARK INTER + INTRA:          -2.766
REMARK INTER:                  -2.660
REMARK INTRA:                  -0.106
REMARK UNBOUND:                -0.117
REMARK SMILES CCCCC(=O)[O-]
REMARK SMILES IDX 4 1 5 2 6 3 7 4 3 5 2 6 1 7
REMARK H PARENT
REMARK Flexibility Score: inf
ROOT
ATOM      1  C   UNL     1     -10.969 -21.347  17.324  1.00  0.00     0.053 C 
ENDROOT
BRANCH   1   2
ATOM      2  C   UNL     1      -9.676 -21.488  18.062  1.00  0.00     0.041 C 
ATOM      3  O   UNL     1      -8.749 -22.196  17.588  1.00  0.00    -0.550 OA
ATOM      4  O   UNL     1      -9.511 -20.878  19.299  1.00  0.00    -0.550 OA
ENDBRANCH   1   2
BRANCH   1   5
ATOM      5  C   UNL     1     -10.928 -20.125  16.398  1.00  0.00     0.006 C 
BRANCH   5   6
ATOM      6  C   UNL     1     -10.791 -20.511  14.917  1.00  0.00    -0.003 C 
ATOM      7  C   UNL     1      -9.335 -20.572  14.455  1.00  0.00     0.004 C 
ENDBRANCH   5   6
ENDBRANCH   1   5
TORSDOF 3
ENDMDL
MODEL 6
REMARK VINA RESULT:    -2.223     17.396     18.383
REMARK INTER + INTRA:          -2.730
REMARK INTER:                  -2.701
REMARK INTRA:                  -0.029
REMARK UNBOUND:                -0.117
REMARK SMILES CCCCC(=O)[O-]
REMARK SMILES IDX 4 1 5 2 6 3 7 4 3 5 2 6 1 7
REMARK H PARENT
REMARK Flexibility Score: inf
ROOT
ATOM      1  C   UNL     1     -10.403 -21.370  17.283  1.00  0.00     0.053 C 
ENDROOT
BRANCH   1   2
ATOM      2  C   UNL     1     -10.070 -20.880  18.657  1.00  0.00     0.041 C 
ATOM      3  O   UNL     1     -10.807 -20.030  19.222  1.00  0.00    -0.550 OA
ATOM      4  O   UNL     1      -8.918 -21.325  19.293  1.00  0.00    -0.550 OA
ENDBRANCH   1   2
BRANCH   1   5
ATOM      5  C   UNL     1     -10.937 -20.221  16.419  1.00  0.00     0.006 C 
BRANCH   5   6
ATOM      6  C   UNL     1     -10.777 -20.490  14.915  1.00  0.00    -0.003 C 
ATOM      7  C   UNL     1      -9.314 -20.523  14.474  1.00  0.00     0.004 C 
ENDBRANCH   5   6
ENDBRANCH   1   5
TORSDOF 3
ENDMDL
MODEL 7
REMARK VINA RESULT:    -2.215      2.142      3.585
REMARK INTER + INTRA:          -2.721
REMARK INTER:                  -2.650
REMARK INTRA:                  -0.071
REMARK UNBOUND:                -0.117
REMARK SMILES CCCCC(=O)[O-]
REMARK SMILES IDX 4 1 5 2 6 3 7 4 3 5 2 6 1 7
REMARK H PARENT
REMARK Flexibility Score: inf
ROOT
ATOM      1  C   UNL     1       6.037 -21.980  17.719  1.00  0.00     0.053 C 
ENDROOT
BRANCH   1   2
ATOM      2  C   UNL     1       5.098 -22.422  16.641  1.00  0.00     0.041 C 
ATOM      3  O   UNL     1       5.539 -23.012  15.620  1.00  0.00    -0.550 OA
ATOM      4  O   UNL     1       3.742 -22.138  16.740  1.00  0.00    -0.550 OA
ENDBRANCH   1   2
BRANCH   1   5
ATOM      5  C   UNL     1       7.242 -21.249  17.113  1.00  0.00     0.006 C 
BRANCH   5   6
ATOM      6  C   UNL     1       8.506 -22.121  17.082  1.00  0.00    -0.003 C 
ATOM      7  C   UNL     1       9.125 -22.214  15.687  1.00  0.00     0.004 C 
ENDBRANCH   5   6
ENDBRANCH   1   5
TORSDOF 3
ENDMDL
MODEL 8
REMARK VINA RESULT:    -2.005      2.705      3.498
REMARK INTER + INTRA:          -2.474
REMARK INTER:                  -2.437
REMARK INTRA:                  -0.036
REMARK UNBOUND:                -0.117
REMARK SMILES CCCCC(=O)[O-]
REMARK SMILES IDX 4 1 5 2 6 3 7 4 3 5 2 6 1 7
REMARK H PARENT
REMARK Flexibility Score: inf
ROOT
ATOM      1  C   UNL     1       6.696 -22.745  15.697  1.00  0.00     0.053 C 
ENDROOT
BRANCH   1   2
ATOM      2  C   UNL     1       6.807 -22.109  17.047  1.00  0.00     0.041 C 
ATOM      3  O   UNL     1       5.785 -21.977  17.770  1.00  0.00    -0.550 OA
ATOM      4  O   UNL     1       8.029 -21.616  17.485  1.00  0.00    -0.550 OA
ENDBRANCH   1   2
BRANCH   1   5
ATOM      5  C   UNL     1       7.640 -22.058  14.702  1.00  0.00     0.006 C 
BRANCH   5   6
ATOM      6  C   UNL     1       7.243 -22.312  13.240  1.00  0.00    -0.003 C 
ATOM      7  C   UNL     1       5.782 -22.739  13.091  1.00  0.00     0.004 C 
ENDBRANCH   5   6
ENDBRANCH   1   5
TORSDOF 3
ENDMDL
