MODEL 1
REMARK VINA RESULT:    -5.628      0.000      0.000
REMARK INTER + INTRA:          -7.755
REMARK INTER:                  -7.109
REMARK INTRA:                  -0.646
REMARK UNBOUND:                -0.646
REMARK SMILES O=C(C=Cc1ccc(O)cc1)c1ccc(O)cc1O
REMARK SMILES IDX 4 1 3 2 5 3 6 4 7 5 8 6 11 7 10 8 9 9 2 11 1 12 12 13 18 14
REMARK SMILES IDX 13 15 17 16 14 17 15 18 19 19 16 21
REMARK H PARENT 9 10 19 20 16 22
REMARK Flexibility Score: inf
ROOT
ATOM      1  C   UNL     1      45.490  16.417  -3.758  1.00  0.00     0.012 C 
ATOM      2  C   UNL     1      44.504  17.282  -4.035  1.00  0.00     0.053 C 
ENDROOT
BRANCH   1   3
ATOM      3  C   UNL     1      46.855  16.513  -4.333  1.00  0.00    -0.025 A 
ATOM      4  C   UNL     1      47.069  17.381  -5.417  1.00  0.00     0.012 A 
ATOM      5  C   UNL     1      48.335  17.497  -5.997  1.00  0.00     0.047 A 
ATOM      6  C   UNL     1      49.406  16.739  -5.507  1.00  0.00     0.115 A 
ATOM      7  C   UNL     1      47.935  15.743  -3.856  1.00  0.00     0.012 A 
ATOM      8  C   UNL     1      49.201  15.862  -4.439  1.00  0.00     0.047 A 
BRANCH   6   9
ATOM      9  O   UNL     1      50.672  16.847  -6.076  1.00  0.00    -0.508 OA
ATOM     10  H   UNL     1      51.510  16.853  -5.505  1.00  0.00     0.293 HD
ENDBRANCH   6   9
ENDBRANCH   1   3
BRANCH   2  11
ATOM     11  C   UNL     1      43.153  17.150  -3.447  1.00  0.00     0.189 C 
ATOM     12  O   UNL     1      42.447  16.137  -3.701  1.00  0.00    -0.289 OA
BRANCH  11  13
ATOM     13  C   UNL     1      42.608  18.217  -2.577  1.00  0.00     0.064 A 
ATOM     14  C   UNL     1      41.743  17.930  -1.493  1.00  0.00     0.130 A 
ATOM     15  C   UNL     1      42.927  19.558  -2.859  1.00  0.00     0.020 A 
ATOM     16  C   UNL     1      41.195  18.980  -0.746  1.00  0.00     0.093 A 
ATOM     17  C   UNL     1      42.386  20.594  -2.095  1.00  0.00     0.047 A 
ATOM     18  C   UNL     1      41.514  20.308  -1.040  1.00  0.00     0.119 A 
BRANCH  14  19
ATOM     19  O   UNL     1      41.430  16.623  -1.115  1.00  0.00    -0.507 OA
ATOM     20  H   UNL     1      40.978  15.959  -1.730  1.00  0.00     0.293 HD
ENDBRANCH  14  19
BRANCH  18  21
ATOM     21  O   UNL     1      40.962  21.333  -0.276  1.00  0.00    -0.508 OA
ATOM     22  H   UNL     1      40.388  22.055  -0.696  1.00  0.00     0.293 HD
ENDBRANCH  18  21
ENDBRANCH  11  13
ENDBRANCH   2  11
TORSDOF 6
ENDMDL
MODEL 2
REMARK VINA RESULT:    -5.605      1.181      1.793
REMARK INTER + INTRA:          -7.725
REMARK INTER:                  -7.136
REMARK INTRA:                  -0.588
REMARK UNBOUND:                -0.646
REMARK SMILES O=C(C=Cc1ccc(O)cc1)c1ccc(O)cc1O
REMARK SMILES IDX 4 1 3 2 5 3 6 4 7 5 8 6 11 7 10 8 9 9 2 11 1 12 12 13 18 14
REMARK SMILES IDX 13 15 17 16 14 17 15 18 19 19 16 21
REMARK H PARENT 9 10 19 20 16 22
REMARK Flexibility Score: inf
ROOT
ATOM      1  C   UNL     1      45.190  15.516  -3.630  1.00  0.00     0.012 C 
ATOM      2  C   UNL     1      44.682  16.735  -3.395  1.00  0.00     0.053 C 
ENDROOT
BRANCH   1   3
ATOM      3  C   UNL     1      46.643  15.233  -3.721  1.00  0.00    -0.025 A 
ATOM      4  C   UNL     1      47.120  14.002  -3.236  1.00  0.00     0.012 A 
ATOM      5  C   UNL     1      48.482  13.695  -3.292  1.00  0.00     0.047 A 
ATOM      6  C   UNL     1      49.391  14.618  -3.824  1.00  0.00     0.115 A 
ATOM      7  C   UNL     1      47.567  16.162  -4.241  1.00  0.00     0.012 A 
ATOM      8  C   UNL     1      48.929  15.851  -4.295  1.00  0.00     0.047 A 
BRANCH   6   9
ATOM      9  O   UNL     1      50.751  14.324  -3.886  1.00  0.00    -0.508 OA
ATOM     10  H   UNL     1      51.444  15.051  -4.019  1.00  0.00     0.293 HD
ENDBRANCH   6   9
ENDBRANCH   1   3
BRANCH   2  11
ATOM     11  C   UNL     1      43.226  16.980  -3.317  1.00  0.00     0.189 C 
ATOM     12  O   UNL     1      42.425  16.256  -3.968  1.00  0.00    -0.289 OA
BRANCH  11  13
ATOM     13  C   UNL     1      42.697  18.093  -2.497  1.00  0.00     0.064 A 
ATOM     14  C   UNL     1      41.754  17.877  -1.462  1.00  0.00     0.130 A 
ATOM     15  C   UNL     1      43.113  19.408  -2.779  1.00  0.00     0.020 A 
ATOM     16  C   UNL     1      41.228  18.972  -0.764  1.00  0.00     0.093 A 
ATOM     17  C   UNL     1      42.591  20.488  -2.063  1.00  0.00     0.047 A 
ATOM     18  C   UNL     1      41.644  20.273  -1.057  1.00  0.00     0.119 A 
BRANCH  14  19
ATOM     19  O   UNL     1      41.341  16.599  -1.085  1.00  0.00    -0.507 OA
ATOM     20  H   UNL     1      40.403  16.250  -1.234  1.00  0.00     0.293 HD
ENDBRANCH  14  19
BRANCH  18  21
ATOM     21  O   UNL     1      41.111  21.343  -0.343  1.00  0.00    -0.508 OA
ATOM     22  H   UNL     1      41.505  21.636   0.544  1.00  0.00     0.293 HD
ENDBRANCH  18  21
ENDBRANCH  11  13
ENDBRANCH   2  11
TORSDOF 6
ENDMDL
MODEL 3
REMARK VINA RESULT:    -5.375      2.134      7.741
REMARK INTER + INTRA:          -7.435
REMARK INTER:                  -6.835
REMARK INTRA:                  -0.600
REMARK UNBOUND:                -0.646
REMARK SMILES O=C(C=Cc1ccc(O)cc1)c1ccc(O)cc1O
REMARK SMILES IDX 4 1 3 2 5 3 6 4 7 5 8 6 11 7 10 8 9 9 2 11 1 12 12 13 18 14
REMARK SMILES IDX 13 15 17 16 14 17 15 18 19 19 16 21
REMARK H PARENT 9 10 19 20 16 22
REMARK Flexibility Score: inf
ROOT
ATOM      1  C   UNL     1      43.070  18.712  -3.270  1.00  0.00     0.012 C 
ATOM      2  C   UNL     1      43.711  17.558  -3.032  1.00  0.00     0.053 C 
ENDROOT
BRANCH   1   3
ATOM      3  C   UNL     1      42.097  19.323  -2.330  1.00  0.00    -0.025 A 
ATOM      4  C   UNL     1      40.741  18.969  -2.442  1.00  0.00     0.012 A 
ATOM      5  C   UNL     1      39.788  19.526  -1.586  1.00  0.00     0.047 A 
ATOM      6  C   UNL     1      40.174  20.453  -0.610  1.00  0.00     0.115 A 
ATOM      7  C   UNL     1      42.475  20.269  -1.355  1.00  0.00     0.012 A 
ATOM      8  C   UNL     1      41.517  20.823  -0.500  1.00  0.00     0.047 A 
BRANCH   6   9
ATOM      9  O   UNL     1      39.233  21.015   0.250  1.00  0.00    -0.508 OA
ATOM     10  H   UNL     1      39.167  22.018   0.379  1.00  0.00     0.293 HD
ENDBRANCH   6   9
ENDBRANCH   1   3
BRANCH   2  11
ATOM     11  C   UNL     1      44.670  16.978  -3.996  1.00  0.00     0.189 C 
ATOM     12  O   UNL     1      44.622  17.303  -5.213  1.00  0.00    -0.289 OA
BRANCH  11  13
ATOM     13  C   UNL     1      45.677  15.990  -3.547  1.00  0.00     0.064 A 
ATOM     14  C   UNL     1      47.043  16.097  -3.908  1.00  0.00     0.130 A 
ATOM     15  C   UNL     1      45.260  14.893  -2.771  1.00  0.00     0.020 A 
ATOM     16  C   UNL     1      47.944  15.097  -3.519  1.00  0.00     0.093 A 
ATOM     17  C   UNL     1      46.173  13.911  -2.378  1.00  0.00     0.047 A 
ATOM     18  C   UNL     1      47.516  14.009  -2.755  1.00  0.00     0.119 A 
BRANCH  14  19
ATOM     19  O   UNL     1      47.542  17.188  -4.622  1.00  0.00    -0.507 OA
ATOM     20  H   UNL     1      47.821  18.057  -4.187  1.00  0.00     0.293 HD
ENDBRANCH  14  19
BRANCH  18  21
ATOM     21  O   UNL     1      48.433  13.032  -2.375  1.00  0.00    -0.508 OA
ATOM     22  H   UNL     1      49.426  13.229  -2.324  1.00  0.00     0.293 HD
ENDBRANCH  18  21
ENDBRANCH  11  13
ENDBRANCH   2  11
TORSDOF 6
ENDMDL
MODEL 4
REMARK VINA RESULT:    -5.170      2.302      3.042
REMARK INTER + INTRA:          -7.176
REMARK INTER:                  -6.555
REMARK INTRA:                  -0.621
REMARK UNBOUND:                -0.646
REMARK SMILES O=C(C=Cc1ccc(O)cc1)c1ccc(O)cc1O
REMARK SMILES IDX 4 1 3 2 5 3 6 4 7 5 8 6 11 7 10 8 9 9 2 11 1 12 12 13 18 14
REMARK SMILES IDX 13 15 17 16 14 17 15 18 19 19 16 21
REMARK H PARENT 9 10 19 20 16 22
REMARK Flexibility Score: inf
ROOT
ATOM      1  C   UNL     1      45.717  16.522  -4.105  1.00  0.00     0.012 C 
ATOM      2  C   UNL     1      44.520  16.838  -3.589  1.00  0.00     0.053 C 
ENDROOT
BRANCH   1   3
ATOM      3  C   UNL     1      46.550  15.393  -3.623  1.00  0.00    -0.025 A 
ATOM      4  C   UNL     1      47.872  15.285  -4.089  1.00  0.00     0.012 A 
ATOM      5  C   UNL     1      48.690  14.233  -3.670  1.00  0.00     0.047 A 
ATOM      6  C   UNL     1      48.197  13.266  -2.785  1.00  0.00     0.115 A 
ATOM      7  C   UNL     1      46.057  14.407  -2.744  1.00  0.00     0.012 A 
ATOM      8  C   UNL     1      46.879  13.356  -2.327  1.00  0.00     0.047 A 
BRANCH   6   9
ATOM      9  O   UNL     1      49.003  12.213  -2.359  1.00  0.00    -0.508 OA
ATOM     10  H   UNL     1      48.674  11.536  -1.681  1.00  0.00     0.293 HD
ENDBRANCH   6   9
ENDBRANCH   1   3
BRANCH   2  11
ATOM     11  C   UNL     1      43.721  17.975  -4.093  1.00  0.00     0.189 C 
ATOM     12  O   UNL     1      43.708  18.246  -5.324  1.00  0.00    -0.289 OA
BRANCH  11  13
ATOM     13  C   UNL     1      42.951  18.822  -3.154  1.00  0.00     0.064 A 
ATOM     14  C   UNL     1      42.958  20.236  -3.243  1.00  0.00     0.130 A 
ATOM     15  C   UNL     1      42.221  18.207  -2.120  1.00  0.00     0.020 A 
ATOM     16  C   UNL     1      42.272  20.995  -2.286  1.00  0.00     0.093 A 
ATOM     17  C   UNL     1      41.529  18.977  -1.183  1.00  0.00     0.047 A 
ATOM     18  C   UNL     1      41.557  20.372  -1.260  1.00  0.00     0.119 A 
BRANCH  14  19
ATOM     19  O   UNL     1      43.608  20.915  -4.276  1.00  0.00    -0.507 OA
ATOM     20  H   UNL     1      43.234  20.992  -5.212  1.00  0.00     0.293 HD
ENDBRANCH  14  19
BRANCH  18  21
ATOM     21  O   UNL     1      40.877  21.150  -0.326  1.00  0.00    -0.508 OA
ATOM     22  H   UNL     1      40.080  20.788   0.184  1.00  0.00     0.293 HD
ENDBRANCH  18  21
ENDBRANCH  11  13
ENDBRANCH   2  11
TORSDOF 6
ENDMDL
MODEL 5
REMARK VINA RESULT:    -5.096      1.970      2.520
REMARK INTER + INTRA:          -7.082
REMARK INTER:                  -6.495
REMARK INTRA:                  -0.587
REMARK UNBOUND:                -0.646
REMARK SMILES O=C(C=Cc1ccc(O)cc1)c1ccc(O)cc1O
REMARK SMILES IDX 4 1 3 2 5 3 6 4 7 5 8 6 11 7 10 8 9 9 2 11 1 12 12 13 18 14
REMARK SMILES IDX 13 15 17 16 14 17 15 18 19 19 16 21
REMARK H PARENT 9 10 19 20 16 22
REMARK Flexibility Score: inf
ROOT
ATOM      1  C   UNL     1      44.933  17.234  -4.194  1.00  0.00     0.012 C 
ATOM      2  C   UNL     1      43.916  17.547  -3.378  1.00  0.00     0.053 C 
ENDROOT
BRANCH   1   3
ATOM      3  C   UNL     1      45.974  16.229  -3.866  1.00  0.00    -0.025 A 
ATOM      4  C   UNL     1      45.609  15.109  -3.099  1.00  0.00     0.012 A 
ATOM      5  C   UNL     1      46.558  14.141  -2.757  1.00  0.00     0.047 A 
ATOM      6  C   UNL     1      47.888  14.283  -3.170  1.00  0.00     0.115 A 
ATOM      7  C   UNL     1      47.319  16.371  -4.264  1.00  0.00     0.012 A 
ATOM      8  C   UNL     1      48.265  15.400  -3.921  1.00  0.00     0.047 A 
BRANCH   6   9
ATOM      9  O   UNL     1      48.842  13.325  -2.836  1.00  0.00    -0.508 OA
ATOM     10  H   UNL     1      49.120  13.167  -1.874  1.00  0.00     0.293 HD
ENDBRANCH   6   9
ENDBRANCH   1   3
BRANCH   2  11
ATOM     11  C   UNL     1      42.901  18.560  -3.737  1.00  0.00     0.189 C 
ATOM     12  O   UNL     1      42.775  18.935  -4.935  1.00  0.00    -0.289 OA
BRANCH  11  13
ATOM     13  C   UNL     1      42.040  19.160  -2.693  1.00  0.00     0.064 A 
ATOM     14  C   UNL     1      40.633  18.996  -2.696  1.00  0.00     0.130 A 
ATOM     15  C   UNL     1      42.634  19.950  -1.691  1.00  0.00     0.020 A 
ATOM     16  C   UNL     1      39.857  19.646  -1.728  1.00  0.00     0.093 A 
ATOM     17  C   UNL     1      41.848  20.580  -0.723  1.00  0.00     0.047 A 
ATOM     18  C   UNL     1      40.457  20.433  -0.742  1.00  0.00     0.119 A 
BRANCH  14  19
ATOM     19  O   UNL     1      39.980  18.178  -3.620  1.00  0.00    -0.507 OA
ATOM     20  H   UNL     1      40.098  18.266  -4.621  1.00  0.00     0.293 HD
ENDBRANCH  14  19
BRANCH  18  21
ATOM     21  O   UNL     1      39.663  21.062   0.213  1.00  0.00    -0.508 OA
ATOM     22  H   UNL     1      39.825  20.932   1.205  1.00  0.00     0.293 HD
ENDBRANCH  18  21
ENDBRANCH  11  13
ENDBRANCH   2  11
TORSDOF 6
ENDMDL
MODEL 6
REMARK VINA RESULT:    -4.981      3.496      4.059
REMARK INTER + INTRA:          -6.937
REMARK INTER:                  -6.258
REMARK INTRA:                  -0.679
REMARK UNBOUND:                -0.646
REMARK SMILES O=C(C=Cc1ccc(O)cc1)c1ccc(O)cc1O
REMARK SMILES IDX 4 1 3 2 5 3 6 4 7 5 8 6 11 7 10 8 9 9 2 11 1 12 12 13 18 14
REMARK SMILES IDX 13 15 17 16 14 17 15 18 19 19 16 21
REMARK H PARENT 9 10 19 20 16 22
REMARK Flexibility Score: inf
ROOT
ATOM      1  C   UNL     1      43.473  17.079  -2.684  1.00  0.00     0.012 C 
ATOM      2  C   UNL     1      43.517  17.976  -3.680  1.00  0.00     0.053 C 
ENDROOT
BRANCH   1   3
ATOM      3  C   UNL     1      43.913  15.669  -2.826  1.00  0.00    -0.025 A 
ATOM      4  C   UNL     1      42.957  14.698  -3.173  1.00  0.00     0.012 A 
ATOM      5  C   UNL     1      43.323  13.356  -3.308  1.00  0.00     0.047 A 
ATOM      6  C   UNL     1      44.649  12.962  -3.090  1.00  0.00     0.115 A 
ATOM      7  C   UNL     1      45.242  15.261  -2.593  1.00  0.00     0.012 A 
ATOM      8  C   UNL     1      45.604  13.917  -2.730  1.00  0.00     0.047 A 
BRANCH   6   9
ATOM      9  O   UNL     1      45.025  11.628  -3.222  1.00  0.00    -0.508 OA
ATOM     10  H   UNL     1      45.863  11.268  -2.779  1.00  0.00     0.293 HD
ENDBRANCH   6   9
ENDBRANCH   1   3
BRANCH   2  11
ATOM     11  C   UNL     1      43.064  19.372  -3.502  1.00  0.00     0.189 C 
ATOM     12  O   UNL     1      43.581  20.299  -4.183  1.00  0.00    -0.289 OA
BRANCH  11  13
ATOM     13  C   UNL     1      42.019  19.699  -2.505  1.00  0.00     0.064 A 
ATOM     14  C   UNL     1      42.336  20.266  -1.247  1.00  0.00     0.130 A 
ATOM     15  C   UNL     1      40.676  19.401  -2.802  1.00  0.00     0.020 A 
ATOM     16  C   UNL     1      41.319  20.488  -0.310  1.00  0.00     0.093 A 
ATOM     17  C   UNL     1      39.670  19.642  -1.863  1.00  0.00     0.047 A 
ATOM     18  C   UNL     1      39.990  20.181  -0.613  1.00  0.00     0.119 A 
BRANCH  14  19
ATOM     19  O   UNL     1      43.636  20.644  -0.905  1.00  0.00    -0.507 OA
ATOM     20  H   UNL     1      43.852  21.483  -0.383  1.00  0.00     0.293 HD
ENDBRANCH  14  19
BRANCH  18  21
ATOM     21  O   UNL     1      38.996  20.418   0.334  1.00  0.00    -0.508 OA
ATOM     22  H   UNL     1      39.166  20.286   1.324  1.00  0.00     0.293 HD
ENDBRANCH  18  21
ENDBRANCH  11  13
ENDBRANCH   2  11
TORSDOF 6
ENDMDL
MODEL 7
REMARK VINA RESULT:    -4.891      2.044      7.802
REMARK INTER + INTRA:          -6.823
REMARK INTER:                  -6.154
REMARK INTRA:                  -0.669
REMARK UNBOUND:                -0.646
REMARK SMILES O=C(C=Cc1ccc(O)cc1)c1ccc(O)cc1O
REMARK SMILES IDX 4 1 3 2 5 3 6 4 7 5 8 6 11 7 10 8 9 9 2 11 1 12 12 13 18 14
REMARK SMILES IDX 13 15 17 16 14 17 15 18 19 19 16 21
REMARK H PARENT 9 10 19 20 16 22
REMARK Flexibility Score: inf
ROOT
ATOM      1  C   UNL     1      45.178  16.589  -4.574  1.00  0.00     0.012 C 
ATOM      2  C   UNL     1      46.245  16.205  -3.858  1.00  0.00     0.053 C 
ENDROOT
BRANCH   1   3
ATOM      3  C   UNL     1      44.256  17.675  -4.160  1.00  0.00    -0.025 A 
ATOM      4  C   UNL     1      43.481  17.495  -3.001  1.00  0.00     0.012 A 
ATOM      5  C   UNL     1      42.593  18.487  -2.577  1.00  0.00     0.047 A 
ATOM      6  C   UNL     1      42.458  19.672  -3.312  1.00  0.00     0.115 A 
ATOM      7  C   UNL     1      44.103  18.865  -4.901  1.00  0.00     0.012 A 
ATOM      8  C   UNL     1      43.212  19.855  -4.474  1.00  0.00     0.047 A 
BRANCH   6   9
ATOM      9  O   UNL     1      41.576  20.668  -2.900  1.00  0.00    -0.508 OA
ATOM     10  H   UNL     1      40.576  20.578  -3.037  1.00  0.00     0.293 HD
ENDBRANCH   6   9
ENDBRANCH   1   3
BRANCH   2  11
ATOM     11  C   UNL     1      47.138  15.113  -4.301  1.00  0.00     0.189 C 
ATOM     12  O   UNL     1      46.724  13.921  -4.315  1.00  0.00    -0.289 OA
BRANCH  11  13
ATOM     13  C   UNL     1      48.532  15.403  -4.707  1.00  0.00     0.064 A 
ATOM     14  C   UNL     1      49.630  14.675  -4.186  1.00  0.00     0.130 A 
ATOM     15  C   UNL     1      48.776  16.458  -5.606  1.00  0.00     0.020 A 
ATOM     16  C   UNL     1      50.935  15.037  -4.544  1.00  0.00     0.093 A 
ATOM     17  C   UNL     1      50.082  16.797  -5.966  1.00  0.00     0.047 A 
ATOM     18  C   UNL     1      51.165  16.091  -5.433  1.00  0.00     0.119 A 
BRANCH  14  19
ATOM     19  O   UNL     1      49.463  13.578  -3.339  1.00  0.00    -0.507 OA
ATOM     20  H   UNL     1      50.203  12.921  -3.128  1.00  0.00     0.293 HD
ENDBRANCH  14  19
BRANCH  18  21
ATOM     21  O   UNL     1      52.471  16.426  -5.779  1.00  0.00    -0.508 OA
ATOM     22  H   UNL     1      53.226  15.753  -5.712  1.00  0.00     0.293 HD
ENDBRANCH  18  21
ENDBRANCH  11  13
ENDBRANCH   2  11
TORSDOF 6
ENDMDL
MODEL 8
REMARK VINA RESULT:    -4.808      2.000      2.476
REMARK INTER + INTRA:          -6.718
REMARK INTER:                  -6.089
REMARK INTRA:                  -0.629
REMARK UNBOUND:                -0.646
REMARK SMILES O=C(C=Cc1ccc(O)cc1)c1ccc(O)cc1O
REMARK SMILES IDX 4 1 3 2 5 3 6 4 7 5 8 6 11 7 10 8 9 9 2 11 1 12 12 13 18 14
REMARK SMILES IDX 13 15 17 16 14 17 15 18 19 19 16 21
REMARK H PARENT 9 10 19 20 16 22
REMARK Flexibility Score: inf
ROOT
ATOM      1  C   UNL     1      45.434  15.413  -3.215  1.00  0.00     0.012 C 
ATOM      2  C   UNL     1      45.008  16.684  -3.180  1.00  0.00     0.053 C 
ENDROOT
BRANCH   1   3
ATOM      3  C   UNL     1      46.852  15.026  -3.415  1.00  0.00    -0.025 A 
ATOM      4  C   UNL     1      47.726  15.953  -4.009  1.00  0.00     0.012 A 
ATOM      5  C   UNL     1      49.067  15.629  -4.226  1.00  0.00     0.047 A 
ATOM      6  C   UNL     1      49.555  14.368  -3.860  1.00  0.00     0.115 A 
ATOM      7  C   UNL     1      47.348  13.753  -3.064  1.00  0.00     0.012 A 
ATOM      8  C   UNL     1      48.692  13.433  -3.283  1.00  0.00     0.047 A 
BRANCH   6   9
ATOM      9  O   UNL     1      50.891  14.033  -4.071  1.00  0.00    -0.508 OA
ATOM     10  H   UNL     1      51.342  14.193  -4.964  1.00  0.00     0.293 HD
ENDBRANCH   6   9
ENDBRANCH   1   3
BRANCH   2  11
ATOM     11  C   UNL     1      43.583  17.031  -2.985  1.00  0.00     0.189 C 
ATOM     12  O   UNL     1      42.792  16.197  -2.467  1.00  0.00    -0.289 OA
BRANCH  11  13
ATOM     13  C   UNL     1      43.068  18.350  -3.418  1.00  0.00     0.064 A 
ATOM     14  C   UNL     1      42.339  19.193  -2.545  1.00  0.00     0.130 A 
ATOM     15  C   UNL     1      43.275  18.760  -4.749  1.00  0.00     0.020 A 
ATOM     16  C   UNL     1      41.810  20.398  -3.024  1.00  0.00     0.093 A 
ATOM     17  C   UNL     1      42.754  19.971  -5.209  1.00  0.00     0.047 A 
ATOM     18  C   UNL     1      42.016  20.791  -4.349  1.00  0.00     0.119 A 
BRANCH  14  19
ATOM     19  O   UNL     1      42.146  18.883  -1.197  1.00  0.00    -0.507 OA
ATOM     20  H   UNL     1      42.409  19.501  -0.441  1.00  0.00     0.293 HD
ENDBRANCH  14  19
BRANCH  18  21
ATOM     21  O   UNL     1      41.485  21.997  -4.799  1.00  0.00    -0.508 OA
ATOM     22  H   UNL     1      41.009  22.634  -4.170  1.00  0.00     0.293 HD
ENDBRANCH  18  21
ENDBRANCH  11  13
ENDBRANCH   2  11
TORSDOF 6
ENDMDL
MODEL 9
REMARK VINA RESULT:    -4.740      1.492      7.440
REMARK INTER + INTRA:          -6.633
REMARK INTER:                  -6.122
REMARK INTRA:                  -0.511
REMARK UNBOUND:                -0.646
REMARK SMILES O=C(C=Cc1ccc(O)cc1)c1ccc(O)cc1O
REMARK SMILES IDX 4 1 3 2 5 3 6 4 7 5 8 6 11 7 10 8 9 9 2 11 1 12 12 13 18 14
REMARK SMILES IDX 13 15 17 16 14 17 15 18 19 19 16 21
REMARK H PARENT 9 10 19 20 16 22
REMARK Flexibility Score: inf
ROOT
ATOM      1  C   UNL     1      43.469  17.925  -3.634  1.00  0.00     0.012 C 
ATOM      2  C   UNL     1      44.047  16.778  -3.246  1.00  0.00     0.053 C 
ENDROOT
BRANCH   1   3
ATOM      3  C   UNL     1      42.727  18.824  -2.717  1.00  0.00    -0.025 A 
ATOM      4  C   UNL     1      42.922  20.211  -2.831  1.00  0.00     0.012 A 
ATOM      5  C   UNL     1      42.252  21.097  -1.982  1.00  0.00     0.047 A 
ATOM      6  C   UNL     1      41.383  20.608  -1.000  1.00  0.00     0.115 A 
ATOM      7  C   UNL     1      41.861  18.340  -1.714  1.00  0.00     0.012 A 
ATOM      8  C   UNL     1      41.192  19.230  -0.868  1.00  0.00     0.047 A 
BRANCH   6   9
ATOM      9  O   UNL     1      40.708  21.480  -0.149  1.00  0.00    -0.508 OA
ATOM     10  H   UNL     1      40.620  22.467  -0.364  1.00  0.00     0.293 HD
ENDBRANCH   6   9
ENDBRANCH   1   3
BRANCH   2  11
ATOM     11  C   UNL     1      44.774  15.904  -4.191  1.00  0.00     0.189 C 
ATOM     12  O   UNL     1      44.139  15.114  -4.941  1.00  0.00    -0.289 OA
BRANCH  11  13
ATOM     13  C   UNL     1      46.253  15.929  -4.248  1.00  0.00     0.064 A 
ATOM     14  C   UNL     1      46.956  16.869  -5.041  1.00  0.00     0.130 A 
ATOM     15  C   UNL     1      46.981  14.967  -3.524  1.00  0.00     0.020 A 
ATOM     16  C   UNL     1      48.353  16.805  -5.119  1.00  0.00     0.093 A 
ATOM     17  C   UNL     1      48.375  14.925  -3.599  1.00  0.00     0.047 A 
ATOM     18  C   UNL     1      49.064  15.840  -4.400  1.00  0.00     0.119 A 
BRANCH  14  19
ATOM     19  O   UNL     1      46.307  17.890  -5.738  1.00  0.00    -0.507 OA
ATOM     20  H   UNL     1      45.960  17.786  -6.682  1.00  0.00     0.293 HD
ENDBRANCH  14  19
BRANCH  18  21
ATOM     21  O   UNL     1      50.454  15.802  -4.489  1.00  0.00    -0.508 OA
ATOM     22  H   UNL     1      50.970  14.943  -4.340  1.00  0.00     0.293 HD
ENDBRANCH  18  21
ENDBRANCH  11  13
ENDBRANCH   2  11
TORSDOF 6
ENDMDL
