MODEL 1
REMARK VINA RESULT:    -3.971      0.000      0.000
REMARK INTER + INTRA:          -4.400
REMARK INTER:                  -4.319
REMARK INTRA:                  -0.081
REMARK UNBOUND:                -0.081
REMARK SMILES CC(=O)[C@H]1CC[C@H]2[C@@H]3CC=C4C[C@H](O)CC[C@]4(C)[C@@H]3CC[C@@]12C
REMARK SMILES IDX 4 1 5 2 6 3 7 4 22 5 21 6 20 7 19 8 8 9 9 10 10 11 11 12
REMARK SMILES IDX 17 13 16 14 15 15 13 16 12 17 18 18 23 19 2 20 1 21 3 22
REMARK SMILES IDX 14 23
REMARK H PARENT 14 24
REMARK Flexibility Score: inf
ROOT
ATOM      1  C   UNL     1     207.948 207.901 186.294  1.00  0.00     0.062 C 
ATOM      2  C   UNL     1     207.389 208.069 187.706  1.00  0.00     0.012 C 
ATOM      3  C   UNL     1     207.469 206.689 188.356  1.00  0.00     0.005 C 
ATOM      4  C   UNL     1     207.971 205.706 187.281  1.00  0.00    -0.001 C 
ATOM      5  C   UNL     1     207.720 206.412 185.917  1.00  0.00    -0.020 C 
ATOM      6  C   UNL     1     206.273 206.152 185.409  1.00  0.00     0.008 C 
ATOM      7  C   UNL     1     205.846 204.680 185.475  1.00  0.00     0.005 C 
ATOM      8  C   UNL     1     205.917 204.150 186.926  1.00  0.00     0.003 C 
ATOM      9  C   UNL     1     207.367 204.279 187.462  1.00  0.00     0.000 C 
ATOM     10  C   UNL     1     208.288 203.201 186.862  1.00  0.00     0.031 C 
ATOM     11  C   UNL     1     207.694 201.828 186.909  1.00  0.00    -0.027 C 
ATOM     12  C   UNL     1     206.367 201.587 186.912  1.00  0.00    -0.065 C 
ATOM     13  C   UNL     1     205.335 202.691 187.169  1.00  0.00    -0.008 C 
ATOM     14  C   UNL     1     204.086 202.413 186.271  1.00  0.00     0.014 C 
ATOM     15  C   UNL     1     203.562 200.970 186.362  1.00  0.00     0.033 C 
ATOM     16  C   UNL     1     204.663 199.956 186.005  1.00  0.00     0.118 C 
ATOM     17  C   UNL     1     205.896 200.142 186.897  1.00  0.00     0.063 C 
ATOM     18  C   UNL     1     204.900 202.601 188.660  1.00  0.00     0.016 C 
ATOM     19  C   UNL     1     208.745 206.009 184.826  1.00  0.00     0.012 C 
ENDROOT
BRANCH   1  20
ATOM     20  C   UNL     1     207.406 208.931 185.317  1.00  0.00     0.133 C 
ATOM     21  C   UNL     1     208.159 209.242 184.059  1.00  0.00     0.088 C 
ATOM     22  O   UNL     1     206.385 209.554 185.570  1.00  0.00    -0.300 OA
ENDBRANCH   1  20
BRANCH  16  23
ATOM     23  O   UNL     1     205.039 200.092 184.658  1.00  0.00    -0.393 OA
ATOM     24  H   UNL     1     204.330 199.655 184.117  1.00  0.00     0.210 HD
ENDBRANCH  16  23
TORSDOF 2
ENDMDL
MODEL 2
REMARK VINA RESULT:    -3.955      3.657      8.900
REMARK INTER + INTRA:          -4.384
REMARK INTER:                  -4.304
REMARK INTRA:                  -0.079
REMARK UNBOUND:                -0.081
REMARK SMILES CC(=O)[C@H]1CC[C@H]2[C@@H]3CC=C4C[C@H](O)CC[C@]4(C)[C@@H]3CC[C@@]12C
REMARK SMILES IDX 4 1 5 2 6 3 7 4 22 5 21 6 20 7 19 8 8 9 9 10 10 11 11 12
REMARK SMILES IDX 17 13 16 14 15 15 13 16 12 17 18 18 23 19 2 20 1 21 3 22
REMARK SMILES IDX 14 23
REMARK H PARENT 14 24
REMARK Flexibility Score: inf
ROOT
ATOM      1  C   UNL     1     206.793 206.762 186.213  1.00  0.00     0.062 C 
ATOM      2  C   UNL     1     207.325 206.596 187.636  1.00  0.00     0.012 C 
ATOM      3  C   UNL     1     207.220 207.974 188.287  1.00  0.00     0.005 C 
ATOM      4  C   UNL     1     206.730 208.955 187.204  1.00  0.00    -0.001 C 
ATOM      5  C   UNL     1     207.015 208.254 185.844  1.00  0.00    -0.020 C 
ATOM      6  C   UNL     1     208.469 208.528 185.366  1.00  0.00     0.008 C 
ATOM      7  C   UNL     1     208.881 210.004 185.443  1.00  0.00     0.005 C 
ATOM      8  C   UNL     1     208.776 210.531 186.893  1.00  0.00     0.003 C 
ATOM      9  C   UNL     1     207.316 210.387 187.400  1.00  0.00     0.000 C 
ATOM     10  C   UNL     1     206.398 211.457 186.785  1.00  0.00     0.031 C 
ATOM     11  C   UNL     1     206.978 212.836 186.846  1.00  0.00    -0.027 C 
ATOM     12  C   UNL     1     208.302 213.089 186.876  1.00  0.00    -0.065 C 
ATOM     13  C   UNL     1     209.339 211.994 187.151  1.00  0.00    -0.008 C 
ATOM     14  C   UNL     1     210.603 212.285 186.279  1.00  0.00     0.014 C 
ATOM     15  C   UNL     1     211.111 213.734 186.384  1.00  0.00     0.033 C 
ATOM     16  C   UNL     1     210.009 214.738 186.007  1.00  0.00     0.118 C 
ATOM     17  C   UNL     1     208.760 214.538 186.874  1.00  0.00     0.063 C 
ATOM     18  C   UNL     1     209.743 212.085 188.651  1.00  0.00     0.016 C 
ATOM     19  C   UNL     1     206.009 208.650 184.733  1.00  0.00     0.012 C 
ENDROOT
BRANCH   1  20
ATOM     20  C   UNL     1     207.365 205.739 185.245  1.00  0.00     0.133 C 
ATOM     21  C   UNL     1     206.642 205.428 183.970  1.00  0.00     0.088 C 
ATOM     22  O   UNL     1     208.384 205.123 185.519  1.00  0.00    -0.300 OA
ENDBRANCH   1  20
BRANCH  16  23
ATOM     23  O   UNL     1     209.661 214.602 184.652  1.00  0.00    -0.393 OA
ATOM     24  H   UNL     1     209.536 213.631 184.484  1.00  0.00     0.210 HD
ENDBRANCH  16  23
TORSDOF 2
ENDMDL
MODEL 3
REMARK VINA RESULT:    -3.951      3.675      6.591
REMARK INTER + INTRA:          -4.379
REMARK INTER:                  -4.229
REMARK INTRA:                  -0.150
REMARK UNBOUND:                -0.081
REMARK SMILES CC(=O)[C@H]1CC[C@H]2[C@@H]3CC=C4C[C@H](O)CC[C@]4(C)[C@@H]3CC[C@@]12C
REMARK SMILES IDX 4 1 5 2 6 3 7 4 22 5 21 6 20 7 19 8 8 9 9 10 10 11 11 12
REMARK SMILES IDX 17 13 16 14 15 15 13 16 12 17 18 18 23 19 2 20 1 21 3 22
REMARK SMILES IDX 14 23
REMARK H PARENT 14 24
REMARK Flexibility Score: inf
ROOT
ATOM      1  C   UNL     1     205.126 202.140 187.531  1.00  0.00     0.062 C 
ATOM      2  C   UNL     1     204.440 202.487 188.851  1.00  0.00     0.012 C 
ATOM      3  C   UNL     1     203.604 201.264 189.224  1.00  0.00     0.005 C 
ATOM      4  C   UNL     1     203.724 200.257 188.064  1.00  0.00    -0.001 C 
ATOM      5  C   UNL     1     204.220 201.083 186.842  1.00  0.00    -0.020 C 
ATOM      6  C   UNL     1     203.029 201.738 186.086  1.00  0.00     0.008 C 
ATOM      7  C   UNL     1     201.870 200.774 185.800  1.00  0.00     0.005 C 
ATOM      8  C   UNL     1     201.303 200.188 187.114  1.00  0.00     0.003 C 
ATOM      9  C   UNL     1     202.420 199.423 187.872  1.00  0.00     0.000 C 
ATOM     10  C   UNL     1     202.717 198.062 187.217  1.00  0.00     0.031 C 
ATOM     11  C   UNL     1     201.480 197.277 186.907  1.00  0.00    -0.027 C 
ATOM     12  C   UNL     1     200.278 197.839 186.668  1.00  0.00    -0.065 C 
ATOM     13  C   UNL     1     199.985 199.311 186.980  1.00  0.00    -0.008 C 
ATOM     14  C   UNL     1     199.034 199.868 185.872  1.00  0.00     0.014 C 
ATOM     15  C   UNL     1     197.806 198.981 185.602  1.00  0.00     0.033 C 
ATOM     16  C   UNL     1     198.227 197.551 185.220  1.00  0.00     0.118 C 
ATOM     17  C   UNL     1     199.116 196.929 186.303  1.00  0.00     0.063 C 
ATOM     18  C   UNL     1     199.241 199.370 188.345  1.00  0.00     0.016 C 
ATOM     19  C   UNL     1     205.081 200.253 185.856  1.00  0.00     0.012 C 
ENDROOT
BRANCH   1  20
ATOM     20  C   UNL     1     205.474 203.366 186.704  1.00  0.00     0.133 C 
ATOM     21  C   UNL     1     204.821 204.682 187.003  1.00  0.00     0.088 C 
ATOM     22  O   UNL     1     206.244 203.284 185.758  1.00  0.00    -0.300 OA
ENDBRANCH   1  20
BRANCH  16  23
ATOM     23  O   UNL     1     198.916 197.551 183.996  1.00  0.00    -0.393 OA
ATOM     24  H   UNL     1     198.934 196.611 183.677  1.00  0.00     0.210 HD
ENDBRANCH  16  23
TORSDOF 2
ENDMDL
MODEL 4
REMARK VINA RESULT:    -3.949      4.095      6.302
REMARK INTER + INTRA:          -4.377
REMARK INTER:                  -4.301
REMARK INTRA:                  -0.076
REMARK UNBOUND:                -0.081
REMARK SMILES CC(=O)[C@H]1CC[C@H]2[C@@H]3CC=C4C[C@H](O)CC[C@]4(C)[C@@H]3CC[C@@]12C
REMARK SMILES IDX 4 1 5 2 6 3 7 4 22 5 21 6 20 7 19 8 8 9 9 10 10 11 11 12
REMARK SMILES IDX 17 13 16 14 15 15 13 16 12 17 18 18 23 19 2 20 1 21 3 22
REMARK SMILES IDX 14 23
REMARK H PARENT 14 24
REMARK Flexibility Score: inf
ROOT
ATOM      1  C   UNL     1     206.778 207.938 186.185  1.00  0.00     0.062 C 
ATOM      2  C   UNL     1     206.595 207.396 187.601  1.00  0.00     0.012 C 
ATOM      3  C   UNL     1     207.966 207.490 188.268  1.00  0.00     0.005 C 
ATOM      4  C   UNL     1     208.960 207.983 187.198  1.00  0.00    -0.001 C 
ATOM      5  C   UNL     1     208.273 207.712 185.829  1.00  0.00    -0.020 C 
ATOM      6  C   UNL     1     208.544 206.260 185.343  1.00  0.00     0.008 C 
ATOM      7  C   UNL     1     210.017 205.840 185.432  1.00  0.00     0.005 C 
ATOM      8  C   UNL     1     210.529 205.931 186.888  1.00  0.00     0.003 C 
ATOM      9  C   UNL     1     210.388 207.387 187.404  1.00  0.00     0.000 C 
ATOM     10  C   UNL     1     211.469 208.305 186.807  1.00  0.00     0.031 C 
ATOM     11  C   UNL     1     212.844 207.717 186.878  1.00  0.00    -0.027 C 
ATOM     12  C   UNL     1     213.090 206.391 186.900  1.00  0.00    -0.065 C 
ATOM     13  C   UNL     1     211.987 205.358 187.156  1.00  0.00    -0.008 C 
ATOM     14  C   UNL     1     212.281 204.099 186.277  1.00  0.00     0.014 C 
ATOM     15  C   UNL     1     213.725 203.583 186.393  1.00  0.00     0.033 C 
ATOM     16  C   UNL     1     214.739 204.683 186.034  1.00  0.00     0.118 C 
ATOM     17  C   UNL     1     214.537 205.926 186.909  1.00  0.00     0.063 C 
ATOM     18  C   UNL     1     212.060 204.942 188.653  1.00  0.00     0.016 C 
ATOM     19  C   UNL     1     208.684 208.725 184.730  1.00  0.00     0.012 C 
ENDROOT
BRANCH   1  20
ATOM     20  C   UNL     1     205.762 207.380 185.202  1.00  0.00     0.133 C 
ATOM     21  C   UNL     1     205.492 208.096 183.913  1.00  0.00     0.088 C 
ATOM     22  O   UNL     1     205.117 206.377 185.473  1.00  0.00    -0.300 OA
ENDBRANCH   1  20
BRANCH  16  23
ATOM     23  O   UNL     1     214.618 205.042 184.681  1.00  0.00    -0.393 OA
ATOM     24  H   UNL     1     215.123 204.365 184.159  1.00  0.00     0.210 HD
ENDBRANCH  16  23
TORSDOF 2
ENDMDL
MODEL 5
REMARK VINA RESULT:    -3.933      7.498     12.549
REMARK INTER + INTRA:          -4.359
REMARK INTER:                  -4.313
REMARK INTRA:                  -0.046
REMARK UNBOUND:                -0.081
REMARK SMILES CC(=O)[C@H]1CC[C@H]2[C@@H]3CC=C4C[C@H](O)CC[C@]4(C)[C@@H]3CC[C@@]12C
REMARK SMILES IDX 4 1 5 2 6 3 7 4 22 5 21 6 20 7 19 8 8 9 9 10 10 11 11 12
REMARK SMILES IDX 17 13 16 14 15 15 13 16 12 17 18 18 23 19 2 20 1 21 3 22
REMARK SMILES IDX 14 23
REMARK H PARENT 14 24
REMARK Flexibility Score: inf
ROOT
ATOM      1  C   UNL     1     209.043 212.391 187.696  1.00  0.00     0.062 C 
ATOM      2  C   UNL     1     209.891 211.331 188.396  1.00  0.00     0.012 C 
ATOM      3  C   UNL     1     211.177 212.036 188.824  1.00  0.00     0.005 C 
ATOM      4  C   UNL     1     211.113 213.474 188.274  1.00  0.00    -0.001 C 
ATOM      5  C   UNL     1     210.042 213.445 187.146  1.00  0.00    -0.020 C 
ATOM      6  C   UNL     1     210.666 213.006 185.791  1.00  0.00     0.008 C 
ATOM      7  C   UNL     1     211.968 213.737 185.441  1.00  0.00     0.005 C 
ATOM      8  C   UNL     1     213.043 213.504 186.528  1.00  0.00     0.003 C 
ATOM      9  C   UNL     1     212.525 214.022 187.897  1.00  0.00     0.000 C 
ATOM     10  C   UNL     1     212.568 215.558 187.971  1.00  0.00     0.031 C 
ATOM     11  C   UNL     1     213.869 216.133 187.504  1.00  0.00    -0.027 C 
ATOM     12  C   UNL     1     214.677 215.526 186.611  1.00  0.00    -0.065 C 
ATOM     13  C   UNL     1     214.497 214.058 186.210  1.00  0.00    -0.008 C 
ATOM     14  C   UNL     1     214.846 213.918 184.693  1.00  0.00     0.014 C 
ATOM     15  C   UNL     1     216.186 214.563 184.300  1.00  0.00     0.033 C 
ATOM     16  C   UNL     1     216.218 216.053 184.679  1.00  0.00     0.118 C 
ATOM     17  C   UNL     1     215.940 216.249 186.174  1.00  0.00     0.063 C 
ATOM     18  C   UNL     1     215.513 213.211 187.030  1.00  0.00     0.016 C 
ATOM     19  C   UNL     1     209.301 214.796 186.975  1.00  0.00     0.012 C 
ENDROOT
BRANCH   1  20
ATOM     20  C   UNL     1     208.068 211.801 186.691  1.00  0.00     0.133 C 
ATOM     21  C   UNL     1     208.465 210.610 185.871  1.00  0.00     0.088 C 
ATOM     22  O   UNL     1     206.978 212.320 186.500  1.00  0.00    -0.300 OA
ENDBRANCH   1  20
BRANCH  16  23
ATOM     23  O   UNL     1     215.269 216.771 183.932  1.00  0.00    -0.393 OA
ATOM     24  H   UNL     1     215.777 217.371 183.325  1.00  0.00     0.210 HD
ENDBRANCH  16  23
TORSDOF 2
ENDMDL
MODEL 6
REMARK VINA RESULT:    -3.928      4.089      6.299
REMARK INTER + INTRA:          -4.353
REMARK INTER:                  -4.272
REMARK INTRA:                  -0.081
REMARK UNBOUND:                -0.081
REMARK SMILES CC(=O)[C@H]1CC[C@H]2[C@@H]3CC=C4C[C@H](O)CC[C@]4(C)[C@@H]3CC[C@@]12C
REMARK SMILES IDX 4 1 5 2 6 3 7 4 22 5 21 6 20 7 19 8 8 9 9 10 10 11 11 12
REMARK SMILES IDX 17 13 16 14 15 15 13 16 12 17 18 18 23 19 2 20 1 21 3 22
REMARK SMILES IDX 14 23
REMARK H PARENT 14 24
REMARK Flexibility Score: inf
ROOT
ATOM      1  C   UNL     1     207.935 206.835 186.195  1.00  0.00     0.062 C 
ATOM      2  C   UNL     1     208.115 207.392 187.606  1.00  0.00     0.012 C 
ATOM      3  C   UNL     1     206.746 207.294 188.275  1.00  0.00     0.005 C 
ATOM      4  C   UNL     1     205.754 206.783 187.212  1.00  0.00    -0.001 C 
ATOM      5  C   UNL     1     206.437 207.046 185.840  1.00  0.00    -0.020 C 
ATOM      6  C   UNL     1     206.154 208.491 185.340  1.00  0.00     0.008 C 
ATOM      7  C   UNL     1     204.678 208.900 185.427  1.00  0.00     0.005 C 
ATOM      8  C   UNL     1     204.168 208.819 186.885  1.00  0.00     0.003 C 
ATOM      9  C   UNL     1     204.322 207.369 187.415  1.00  0.00     0.000 C 
ATOM     10  C   UNL     1     203.248 206.437 186.828  1.00  0.00     0.031 C 
ATOM     11  C   UNL     1     201.868 207.015 186.895  1.00  0.00    -0.027 C 
ATOM     12  C   UNL     1     201.612 208.338 186.906  1.00  0.00    -0.065 C 
ATOM     13  C   UNL     1     202.707 209.383 187.150  1.00  0.00    -0.008 C 
ATOM     14  C   UNL     1     202.401 210.631 186.261  1.00  0.00     0.014 C 
ATOM     15  C   UNL     1     200.953 211.137 186.373  1.00  0.00     0.033 C 
ATOM     16  C   UNL     1     199.948 210.025 186.027  1.00  0.00     0.118 C 
ATOM     17  C   UNL     1     200.161 208.792 186.913  1.00  0.00     0.063 C 
ATOM     18  C   UNL     1     202.632 209.812 188.644  1.00  0.00     0.016 C 
ATOM     19  C   UNL     1     206.032 206.020 184.751  1.00  0.00     0.012 C 
ENDROOT
BRANCH   1  20
ATOM     20  C   UNL     1     208.944 207.393 185.205  1.00  0.00     0.133 C 
ATOM     21  C   UNL     1     209.248 206.646 183.942  1.00  0.00     0.088 C 
ATOM     22  O   UNL     1     209.557 208.421 185.452  1.00  0.00    -0.300 OA
ENDBRANCH   1  20
BRANCH  16  23
ATOM     23  O   UNL     1     200.069 209.655 184.677  1.00  0.00    -0.393 OA
ATOM     24  H   UNL     1     199.505 208.847 184.550  1.00  0.00     0.210 HD
ENDBRANCH  16  23
TORSDOF 2
ENDMDL
MODEL 7
REMARK VINA RESULT:    -3.854      8.076     11.418
REMARK INTER + INTRA:          -4.273
REMARK INTER:                  -4.215
REMARK INTRA:                  -0.058
REMARK UNBOUND:                -0.081
REMARK SMILES CC(=O)[C@H]1CC[C@H]2[C@@H]3CC=C4C[C@H](O)CC[C@]4(C)[C@@H]3CC[C@@]12C
REMARK SMILES IDX 4 1 5 2 6 3 7 4 22 5 21 6 20 7 19 8 8 9 9 10 10 11 11 12
REMARK SMILES IDX 17 13 16 14 15 15 13 16 12 17 18 18 23 19 2 20 1 21 3 22
REMARK SMILES IDX 14 23
REMARK H PARENT 14 24
REMARK Flexibility Score: inf
ROOT
ATOM      1  C   UNL     1     202.337 209.070 187.699  1.00  0.00     0.062 C 
ATOM      2  C   UNL     1     203.394 209.937 188.381  1.00  0.00     0.012 C 
ATOM      3  C   UNL     1     202.676 211.215 188.810  1.00  0.00     0.005 C 
ATOM      4  C   UNL     1     201.233 211.129 188.277  1.00  0.00    -0.001 C 
ATOM      5  C   UNL     1     201.264 210.051 187.154  1.00  0.00    -0.020 C 
ATOM      6  C   UNL     1     201.679 210.673 185.791  1.00  0.00     0.008 C 
ATOM      7  C   UNL     1     200.925 211.963 185.442  1.00  0.00     0.005 C 
ATOM      8  C   UNL     1     201.157 213.047 186.520  1.00  0.00     0.003 C 
ATOM      9  C   UNL     1     200.662 212.530 187.897  1.00  0.00     0.000 C 
ATOM     10  C   UNL     1     199.126 212.552 187.989  1.00  0.00     0.031 C 
ATOM     11  C   UNL     1     198.527 213.843 187.521  1.00  0.00    -0.027 C 
ATOM     12  C   UNL     1     199.113 214.653 186.617  1.00  0.00    -0.065 C 
ATOM     13  C   UNL     1     200.579 214.491 186.199  1.00  0.00    -0.008 C 
ATOM     14  C   UNL     1     200.697 214.833 184.679  1.00  0.00     0.014 C 
ATOM     15  C   UNL     1     200.029 216.162 184.286  1.00  0.00     0.033 C 
ATOM     16  C   UNL     1     198.543 216.176 184.681  1.00  0.00     0.118 C 
ATOM     17  C   UNL     1     198.368 215.904 186.181  1.00  0.00     0.063 C 
ATOM     18  C   UNL     1     201.421 215.523 187.004  1.00  0.00     0.016 C 
ATOM     19  C   UNL     1     199.921 209.291 187.003  1.00  0.00     0.012 C 
ENDROOT
BRANCH   1  20
ATOM     20  C   UNL     1     202.929 208.097 186.692  1.00  0.00     0.133 C 
ATOM     21  C   UNL     1     204.122 208.495 185.877  1.00  0.00     0.088 C 
ATOM     22  O   UNL     1     202.411 207.007 186.498  1.00  0.00    -0.300 OA
ENDBRANCH   1  20
BRANCH  16  23
ATOM     23  O   UNL     1     197.829 215.212 183.949  1.00  0.00    -0.393 OA
ATOM     24  H   UNL     1     196.898 215.547 183.866  1.00  0.00     0.210 HD
ENDBRANCH  16  23
TORSDOF 2
ENDMDL
MODEL 8
REMARK VINA RESULT:    -3.623      3.587      6.044
REMARK INTER + INTRA:          -4.022
REMARK INTER:                  -3.873
REMARK INTRA:                  -0.149
REMARK UNBOUND:                -0.081
REMARK SMILES CC(=O)[C@H]1CC[C@H]2[C@@H]3CC=C4C[C@H](O)CC[C@]4(C)[C@@H]3CC[C@@]12C
REMARK SMILES IDX 4 1 5 2 6 3 7 4 22 5 21 6 20 7 19 8 8 9 9 10 10 11 11 12
REMARK SMILES IDX 17 13 16 14 15 15 13 16 12 17 18 18 23 19 2 20 1 21 3 22
REMARK SMILES IDX 14 23
REMARK H PARENT 14 24
REMARK Flexibility Score: inf
ROOT
ATOM      1  C   UNL     1     213.090 206.325 187.807  1.00  0.00     0.062 C 
ATOM      2  C   UNL     1     212.936 204.828 187.543  1.00  0.00     0.012 C 
ATOM      3  C   UNL     1     212.040 204.708 186.313  1.00  0.00     0.005 C 
ATOM      4  C   UNL     1     211.589 206.133 185.935  1.00  0.00    -0.001 C 
ATOM      5  C   UNL     1     211.825 206.998 187.206  1.00  0.00    -0.020 C 
ATOM      6  C   UNL     1     210.608 206.921 188.171  1.00  0.00     0.008 C 
ATOM      7  C   UNL     1     209.254 207.126 187.480  1.00  0.00     0.005 C 
ATOM      8  C   UNL     1     209.028 206.059 186.383  1.00  0.00     0.003 C 
ATOM      9  C   UNL     1     210.155 206.152 185.321  1.00  0.00     0.000 C 
ATOM     10  C   UNL     1     209.959 207.365 184.394  1.00  0.00     0.031 C 
ATOM     11  C   UNL     1     208.560 207.488 183.875  1.00  0.00    -0.027 C 
ATOM     12  C   UNL     1     207.477 207.014 184.524  1.00  0.00    -0.065 C 
ATOM     13  C   UNL     1     207.591 206.043 185.706  1.00  0.00    -0.008 C 
ATOM     14  C   UNL     1     206.466 206.389 186.734  1.00  0.00     0.014 C 
ATOM     15  C   UNL     1     205.068 206.524 186.106  1.00  0.00     0.033 C 
ATOM     16  C   UNL     1     205.060 207.583 184.990  1.00  0.00     0.118 C 
ATOM     17  C   UNL     1     206.107 207.262 183.917  1.00  0.00     0.063 C 
ATOM     18  C   UNL     1     207.341 204.605 185.167  1.00  0.00     0.016 C 
ATOM     19  C   UNL     1     212.152 208.478 186.882  1.00  0.00     0.012 C 
ENDROOT
BRANCH   1  20
ATOM     20  C   UNL     1     213.391 206.642 189.262  1.00  0.00     0.133 C 
ATOM     21  C   UNL     1     213.157 205.605 190.320  1.00  0.00     0.088 C 
ATOM     22  O   UNL     1     213.773 207.755 189.593  1.00  0.00    -0.300 OA
ENDBRANCH   1  20
BRANCH  16  23
ATOM     23  O   UNL     1     205.313 208.859 185.520  1.00  0.00    -0.393 OA
ATOM     24  H   UNL     1     204.731 208.959 186.318  1.00  0.00     0.210 HD
ENDBRANCH  16  23
TORSDOF 2
ENDMDL
MODEL 9
REMARK VINA RESULT:    -3.591      1.846      6.604
REMARK INTER + INTRA:          -3.987
REMARK INTER:                  -3.839
REMARK INTRA:                  -0.148
REMARK UNBOUND:                -0.081
REMARK SMILES CC(=O)[C@H]1CC[C@H]2[C@@H]3CC=C4C[C@H](O)CC[C@]4(C)[C@@H]3CC[C@@]12C
REMARK SMILES IDX 4 1 5 2 6 3 7 4 22 5 21 6 20 7 19 8 8 9 9 10 10 11 11 12
REMARK SMILES IDX 17 13 16 14 15 15 13 16 12 17 18 18 23 19 2 20 1 21 3 22
REMARK SMILES IDX 14 23
REMARK H PARENT 14 24
REMARK Flexibility Score: inf
ROOT
ATOM      1  C   UNL     1     206.101 201.702 187.934  1.00  0.00     0.062 C 
ATOM      2  C   UNL     1     204.601 201.916 187.745  1.00  0.00     0.012 C 
ATOM      3  C   UNL     1     204.454 202.799 186.508  1.00  0.00     0.005 C 
ATOM      4  C   UNL     1     205.875 203.182 186.050  1.00  0.00    -0.001 C 
ATOM      5  C   UNL     1     206.795 202.927 187.279  1.00  0.00    -0.020 C 
ATOM      6  C   UNL     1     206.819 204.160 188.227  1.00  0.00     0.008 C 
ATOM      7  C   UNL     1     207.045 205.494 187.505  1.00  0.00     0.005 C 
ATOM      8  C   UNL     1     205.933 205.751 186.460  1.00  0.00     0.003 C 
ATOM      9  C   UNL     1     205.923 204.606 185.413  1.00  0.00     0.000 C 
ATOM     10  C   UNL     1     207.094 204.737 184.423  1.00  0.00     0.031 C 
ATOM     11  C   UNL     1     207.249 206.122 183.875  1.00  0.00    -0.027 C 
ATOM     12  C   UNL     1     206.855 207.233 184.530  1.00  0.00    -0.065 C 
ATOM     13  C   UNL     1     205.943 207.178 185.761  1.00  0.00    -0.008 C 
ATOM     14  C   UNL     1     206.388 208.301 186.753  1.00  0.00     0.014 C 
ATOM     15  C   UNL     1     206.549 209.683 186.096  1.00  0.00     0.033 C 
ATOM     16  C   UNL     1     207.548 209.630 184.928  1.00  0.00     0.118 C 
ATOM     17  C   UNL     1     207.128 208.583 183.889  1.00  0.00     0.063 C 
ATOM     18  C   UNL     1     204.491 207.481 185.293  1.00  0.00     0.016 C 
ATOM     19  C   UNL     1     208.241 202.533 186.886  1.00  0.00     0.012 C 
ENDROOT
BRANCH   1  20
ATOM     20  C   UNL     1     206.480 201.407 189.376  1.00  0.00     0.133 C 
ATOM     21  C   UNL     1     205.516 201.714 190.483  1.00  0.00     0.088 C 
ATOM     22  O   UNL     1     207.588 200.972 189.654  1.00  0.00    -0.300 OA
ENDBRANCH   1  20
BRANCH  16  23
ATOM     23  O   UNL     1     208.838 209.330 185.395  1.00  0.00    -0.393 OA
ATOM     24  H   UNL     1     209.307 208.855 184.659  1.00  0.00     0.210 HD
ENDBRANCH  16  23
TORSDOF 2
ENDMDL
