MODEL 1
REMARK VINA RESULT:    84.028      0.000      0.000
REMARK INTER + INTRA:         136.477
REMARK INTER:                 138.064
REMARK INTRA:                  -1.586
REMARK UNBOUND:                -1.586
REMARK SMILES C[C@@H]1O[C@@H](OC[C@@H]2O[C@H](Oc3c(-c4ccc(O)c(O)c4)oc4cc(O)cc(O)c4c3=O)[C@@H](O)[C@@H](O)[C@H]2O)[C@H](O)[C@@H](O)[C@@H]1O
REMARK SMILES IDX 7 1 36 2 34 3 32 4 9 5 8 6 6 7 5 8 4 9 1 10 2 11 42 12 3 13
REMARK SMILES IDX 40 14 38 15 43 16 41 18 39 20 37 22 35 24 10 26 11 27 12 28
REMARK SMILES IDX 30 29 21 30 29 31 31 32 22 33 27 34 23 35 26 36 24 37 13 38
REMARK SMILES IDX 20 39 14 40 18 41 15 42 16 43 19 44 17 46 28 48 25 50 33 52
REMARK H PARENT 43 17 41 19 39 21 37 23 35 25 19 45 17 47 28 49 25 51 33 53
REMARK Flexibility Score: inf
ROOT
ATOM      1  C   UNL     1      15.649  48.184  59.069  1.00  0.00     0.180 C 
ATOM      2  C   UNL     1      14.857  47.806  57.767  1.00  0.00     0.177 C 
ATOM      3  C   UNL     1      15.853  47.888  56.524  1.00  0.00     0.180 C 
ATOM      4  C   UNL     1      17.365  47.915  56.924  1.00  0.00     0.214 C 
ATOM      5  C   UNL     1      17.411  46.921  58.113  1.00  0.00     0.339 C 
ATOM      6  O   UNL     1      16.819  47.422  59.291  1.00  0.00    -0.332 OA
ENDROOT
BRANCH   1   7
ATOM      7  C   UNL     1      15.984  49.691  59.260  1.00  0.00     0.198 C 
BRANCH   7   8
ATOM      8  O   UNL     1      15.126  50.241  60.242  1.00  0.00    -0.347 OA
BRANCH   8   9
ATOM      9  C   UNL     1      15.823  50.776  61.366  1.00  0.00     0.281 C 
ATOM     10  C   UNL     1      14.670  54.198  62.328  1.00  0.00     0.041 C 
ATOM     11  C   UNL     1      14.651  52.948  61.401  1.00  0.00     0.150 C 
ATOM     12  C   UNL     1      15.416  53.161  60.024  1.00  0.00     0.174 C 
ATOM     13  O   UNL     1      15.020  51.728  62.108  1.00  0.00    -0.344 OA
ATOM     14  C   UNL     1      16.873  52.820  60.097  1.00  0.00     0.179 C 
ATOM     15  C   UNL     1      17.129  51.428  60.849  1.00  0.00     0.202 C 
BRANCH  12  16
ATOM     16  O   UNL     1      15.203  54.534  59.552  1.00  0.00    -0.388 OA
ATOM     17  H   UNL     1      15.309  55.156  60.357  1.00  0.00     0.211 HD
ENDBRANCH  12  16
BRANCH  14  18
ATOM     18  O   UNL     1      17.398  52.800  58.798  1.00  0.00    -0.387 OA
ATOM     19  H   UNL     1      18.396  52.658  58.935  1.00  0.00     0.211 HD
ENDBRANCH  14  18
BRANCH  15  20
ATOM     20  O   UNL     1      18.010  51.644  61.967  1.00  0.00    -0.385 OA
ATOM     21  H   UNL     1      18.215  52.682  61.912  1.00  0.00     0.211 HD
ENDBRANCH  15  20
ENDBRANCH   8   9
ENDBRANCH   7   8
ENDBRANCH   1   7
BRANCH   2  22
ATOM     22  O   UNL     1      14.208  46.545  57.891  1.00  0.00    -0.387 OA
ATOM     23  H   UNL     1      13.981  46.230  56.941  1.00  0.00     0.211 HD
ENDBRANCH   2  22
BRANCH   3  24
ATOM     24  O   UNL     1      15.631  46.792  55.694  1.00  0.00    -0.387 OA
ATOM     25  H   UNL     1      15.519  47.176  54.740  1.00  0.00     0.211 HD
ENDBRANCH   3  24
BRANCH   5  26
ATOM     26  O   UNL     1      18.666  46.252  58.357  1.00  0.00    -0.454 OA
BRANCH  26  27
ATOM     27  C   UNL     1      18.998  44.977  57.702  1.00  0.00     0.214 A 
ATOM     28  C   UNL     1      18.112  44.325  56.837  1.00  0.00     0.180 A 
ATOM     29  C   UNL     1      20.322  44.636  57.489  1.00  0.00     0.239 A 
ATOM     30  O   UNL     1      18.452  44.171  55.587  1.00  0.00    -0.452 OA
ATOM     31  C   UNL     1      20.699  44.279  56.187  1.00  0.00     0.111 A 
ATOM     32  O   UNL     1      21.142  44.772  58.465  1.00  0.00    -0.285 OA
ATOM     33  C   UNL     1      19.704  44.438  55.234  1.00  0.00     0.146 A 
ATOM     34  C   UNL     1      22.054  44.326  55.803  1.00  0.00     0.134 A 
ATOM     35  C   UNL     1      20.018  45.013  53.995  1.00  0.00     0.094 A 
ATOM     36  C   UNL     1      22.369  44.995  54.616  1.00  0.00     0.093 A 
ATOM     37  C   UNL     1      21.310  45.533  53.843  1.00  0.00     0.123 A 
BRANCH  28  38
ATOM     38  C   UNL     1      17.046  43.453  57.403  1.00  0.00     0.025 A 
ATOM     39  C   UNL     1      17.379  42.417  58.299  1.00  0.00     0.062 A 
ATOM     40  C   UNL     1      15.763  43.550  56.895  1.00  0.00     0.016 A 
ATOM     41  C   UNL     1      16.330  41.517  58.756  1.00  0.00     0.158 A 
ATOM     42  C   UNL     1      14.757  42.678  57.308  1.00  0.00     0.051 A 
ATOM     43  C   UNL     1      15.036  41.652  58.201  1.00  0.00     0.157 A 
BRANCH  41  44
ATOM     44  O   UNL     1      16.626  40.451  59.653  1.00  0.00    -0.504 OA
ATOM     45  H   UNL     1      16.993  39.557  59.297  1.00  0.00     0.293 HD
ENDBRANCH  41  44
BRANCH  43  46
ATOM     46  O   UNL     1      14.005  40.791  58.585  1.00  0.00    -0.504 OA
ATOM     47  H   UNL     1      13.874  39.901  58.133  1.00  0.00     0.293 HD
ENDBRANCH  43  46
ENDBRANCH  28  38
BRANCH  34  48
ATOM     48  O   UNL     1      23.072  43.666  56.554  1.00  0.00    -0.507 OA
ATOM     49  H   UNL     1      23.385  42.717  56.225  1.00  0.00     0.293 HD
ENDBRANCH  34  48
BRANCH  37  50
ATOM     50  O   UNL     1      21.544  46.539  52.919  1.00  0.00    -0.508 OA
ATOM     51  H   UNL     1      21.433  46.397  51.912  1.00  0.00     0.293 HD
ENDBRANCH  37  50
ENDBRANCH  26  27
ENDBRANCH   5  26
BRANCH   4  52
ATOM     52  O   UNL     1      18.107  47.342  55.876  1.00  0.00    -0.384 OA
ATOM     53  H   UNL     1      17.600  47.551  55.059  1.00  0.00     0.211 HD
ENDBRANCH   4  52
TORSDOF 16
ENDMDL
MODEL 2
REMARK VINA RESULT:    85.385      2.784     11.031
REMARK INTER + INTRA:         138.707
REMARK INTER:                 137.319
REMARK INTRA:                   1.388
REMARK UNBOUND:                -1.586
REMARK SMILES C[C@@H]1O[C@@H](OC[C@@H]2O[C@H](Oc3c(-c4ccc(O)c(O)c4)oc4cc(O)cc(O)c4c3=O)[C@@H](O)[C@@H](O)[C@H]2O)[C@H](O)[C@@H](O)[C@@H]1O
REMARK SMILES IDX 7 1 36 2 34 3 32 4 9 5 8 6 6 7 5 8 4 9 1 10 2 11 42 12 3 13
REMARK SMILES IDX 40 14 38 15 43 16 41 18 39 20 37 22 35 24 10 26 11 27 12 28
REMARK SMILES IDX 30 29 21 30 29 31 31 32 22 33 27 34 23 35 26 36 24 37 13 38
REMARK SMILES IDX 20 39 14 40 18 41 15 42 16 43 19 44 17 46 28 48 25 50 33 52
REMARK H PARENT 43 17 41 19 39 21 37 23 35 25 19 45 17 47 28 49 25 51 33 53
REMARK Flexibility Score: inf
ROOT
ATOM      1  C   UNL     1      16.364  49.139  59.816  1.00  0.00     0.180 C 
ATOM      2  C   UNL     1      17.434  50.265  59.588  1.00  0.00     0.177 C 
ATOM      3  C   UNL     1      16.740  51.481  58.825  1.00  0.00     0.180 C 
ATOM      4  C   UNL     1      15.177  51.439  58.857  1.00  0.00     0.214 C 
ATOM      5  C   UNL     1      14.888  50.930  60.293  1.00  0.00     0.339 C 
ATOM      6  O   UNL     1      15.191  49.566  60.479  1.00  0.00    -0.332 OA
ENDROOT
BRANCH   1   7
ATOM      7  C   UNL     1      15.962  48.306  58.564  1.00  0.00     0.198 C 
BRANCH   7   8
ATOM      8  O   UNL     1      16.515  47.008  58.669  1.00  0.00    -0.347 OA
BRANCH   8   9
ATOM      9  C   UNL     1      17.821  46.902  58.105  1.00  0.00     0.281 C 
ATOM     10  C   UNL     1      17.850  47.175  54.379  1.00  0.00     0.041 C 
ATOM     11  C   UNL     1      17.116  47.103  55.749  1.00  0.00     0.150 C 
ATOM     12  C   UNL     1      16.436  45.695  56.037  1.00  0.00     0.174 C 
ATOM     13  O   UNL     1      17.935  47.607  56.845  1.00  0.00    -0.344 OA
ATOM     14  C   UNL     1      17.351  44.723  56.718  1.00  0.00     0.179 C 
ATOM     15  C   UNL     1      18.146  45.397  57.937  1.00  0.00     0.202 C 
BRANCH  12  16
ATOM     16  O   UNL     1      15.895  45.146  54.788  1.00  0.00    -0.388 OA
ATOM     17  H   UNL     1      16.689  44.869  54.205  1.00  0.00     0.211 HD
ENDBRANCH  12  16
BRANCH  14  18
ATOM     18  O   UNL     1      16.601  43.621  57.148  1.00  0.00    -0.387 OA
ATOM     19  H   UNL     1      16.116  43.957  57.976  1.00  0.00     0.211 HD
ENDBRANCH  14  18
BRANCH  15  20
ATOM     20  O   UNL     1      19.561  45.251  57.722  1.00  0.00    -0.385 OA
ATOM     21  H   UNL     1      19.938  46.214  57.951  1.00  0.00     0.211 HD
ENDBRANCH  15  20
ENDBRANCH   8   9
ENDBRANCH   7   8
ENDBRANCH   1   7
BRANCH   2  22
ATOM     22  O   UNL     1      18.067  50.646  60.806  1.00  0.00    -0.387 OA
ATOM     23  H   UNL     1      18.305  51.641  60.721  1.00  0.00     0.211 HD
ENDBRANCH   2  22
BRANCH   3  24
ATOM     24  O   UNL     1      17.166  52.677  59.400  1.00  0.00    -0.387 OA
ATOM     25  H   UNL     1      17.543  53.246  58.623  1.00  0.00     0.211 HD
ENDBRANCH   3  24
BRANCH   5  26
ATOM     26  O   UNL     1      13.625  51.310  60.878  1.00  0.00    -0.454 OA
BRANCH  26  27
ATOM     27  C   UNL     1      13.557  52.060  62.142  1.00  0.00     0.214 A 
ATOM     28  C   UNL     1      13.938  53.403  62.237  1.00  0.00     0.180 A 
ATOM     29  C   UNL     1      12.666  51.673  63.127  1.00  0.00     0.239 A 
ATOM     30  O   UNL     1      13.037  54.293  62.552  1.00  0.00    -0.452 OA
ATOM     31  C   UNL     1      11.796  52.646  63.634  1.00  0.00     0.111 A 
ATOM     32  O   UNL     1      12.616  50.430  63.435  1.00  0.00    -0.285 OA
ATOM     33  C   UNL     1      11.854  53.869  62.983  1.00  0.00     0.146 A 
ATOM     34  C   UNL     1      10.618  52.263  64.307  1.00  0.00     0.134 A 
ATOM     35  C   UNL     1      10.666  54.541  62.664  1.00  0.00     0.094 A 
ATOM     36  C   UNL     1       9.419  52.864  63.907  1.00  0.00     0.093 A 
ATOM     37  C   UNL     1       9.465  53.858  62.899  1.00  0.00     0.123 A 
BRANCH  28  38
ATOM     38  C   UNL     1      15.376  53.745  62.419  1.00  0.00     0.025 A 
ATOM     39  C   UNL     1      16.377  52.866  61.958  1.00  0.00     0.062 A 
ATOM     40  C   UNL     1      15.710  54.831  63.207  1.00  0.00     0.016 A 
ATOM     41  C   UNL     1      17.771  53.177  62.240  1.00  0.00     0.158 A 
ATOM     42  C   UNL     1      17.041  55.125  63.502  1.00  0.00     0.051 A 
ATOM     43  C   UNL     1      18.061  54.296  63.056  1.00  0.00     0.157 A 
BRANCH  41  44
ATOM     44  O   UNL     1      18.813  52.310  61.802  1.00  0.00    -0.504 OA
ATOM     45  H   UNL     1      18.635  51.304  61.674  1.00  0.00     0.293 HD
ENDBRANCH  41  44
BRANCH  43  46
ATOM     46  O   UNL     1      19.383  54.615  63.380  1.00  0.00    -0.504 OA
ATOM     47  H   UNL     1      20.152  54.076  63.018  1.00  0.00     0.293 HD
ENDBRANCH  43  46
ENDBRANCH  28  38
BRANCH  34  48
ATOM     48  O   UNL     1      10.638  51.346  65.398  1.00  0.00    -0.507 OA
ATOM     49  H   UNL     1       9.759  50.807  65.602  1.00  0.00     0.293 HD
ENDBRANCH  34  48
BRANCH  37  50
ATOM     50  O   UNL     1       8.333  54.184  62.168  1.00  0.00    -0.508 OA
ATOM     51  H   UNL     1       8.113  55.144  61.895  1.00  0.00     0.293 HD
ENDBRANCH  37  50
ENDBRANCH  26  27
ENDBRANCH   5  26
BRANCH   4  52
ATOM     52  O   UNL     1      14.700  52.760  58.782  1.00  0.00    -0.384 OA
ATOM     53  H   UNL     1      14.011  52.743  58.079  1.00  0.00     0.211 HD
ENDBRANCH   4  52
TORSDOF 16
ENDMDL
MODEL 3
REMARK VINA RESULT:    85.851      2.388      9.566
REMARK INTER + INTRA:         139.472
REMARK INTER:                 140.030
REMARK INTRA:                  -0.559
REMARK UNBOUND:                -1.586
REMARK SMILES C[C@@H]1O[C@@H](OC[C@@H]2O[C@H](Oc3c(-c4ccc(O)c(O)c4)oc4cc(O)cc(O)c4c3=O)[C@@H](O)[C@@H](O)[C@H]2O)[C@H](O)[C@@H](O)[C@@H]1O
REMARK SMILES IDX 7 1 36 2 34 3 32 4 9 5 8 6 6 7 5 8 4 9 1 10 2 11 42 12 3 13
REMARK SMILES IDX 40 14 38 15 43 16 41 18 39 20 37 22 35 24 10 26 11 27 12 28
REMARK SMILES IDX 30 29 21 30 29 31 31 32 22 33 27 34 23 35 26 36 24 37 13 38
REMARK SMILES IDX 20 39 14 40 18 41 15 42 16 43 19 44 17 46 28 48 25 50 33 52
REMARK H PARENT 43 17 41 19 39 21 37 23 35 25 19 45 17 47 28 49 25 51 33 53
REMARK Flexibility Score: inf
ROOT
ATOM      1  C   UNL     1      16.862  47.933  58.032  1.00  0.00     0.180 C 
ATOM      2  C   UNL     1      15.652  46.946  57.873  1.00  0.00     0.177 C 
ATOM      3  C   UNL     1      15.186  46.475  59.324  1.00  0.00     0.180 C 
ATOM      4  C   UNL     1      15.733  47.367  60.486  1.00  0.00     0.214 C 
ATOM      5  C   UNL     1      15.649  48.791  59.878  1.00  0.00     0.339 C 
ATOM      6  O   UNL     1      16.616  49.036  58.881  1.00  0.00    -0.332 OA
ENDROOT
BRANCH   1   7
ATOM      7  C   UNL     1      18.228  47.295  58.415  1.00  0.00     0.198 C 
BRANCH   7   8
ATOM      8  O   UNL     1      18.317  46.003  57.845  1.00  0.00    -0.347 OA
BRANCH   8   9
ATOM      9  C   UNL     1      18.805  46.009  56.504  1.00  0.00     0.281 C 
ATOM     10  C   UNL     1      16.096  45.747  53.944  1.00  0.00     0.041 C 
ATOM     11  C   UNL     1      16.604  45.766  55.415  1.00  0.00     0.150 C 
ATOM     12  C   UNL     1      16.645  44.329  56.096  1.00  0.00     0.174 C 
ATOM     13  O   UNL     1      17.832  46.535  55.568  1.00  0.00    -0.344 OA
ATOM     14  C   UNL     1      17.942  43.609  55.881  1.00  0.00     0.179 C 
ATOM     15  C   UNL     1      19.207  44.559  56.138  1.00  0.00     0.202 C 
BRANCH  12  16
ATOM     16  O   UNL     1      15.501  43.535  55.634  1.00  0.00    -0.388 OA
ATOM     17  H   UNL     1      14.690  43.810  56.193  1.00  0.00     0.211 HD
ENDBRANCH  12  16
BRANCH  14  18
ATOM     18  O   UNL     1      17.975  42.483  56.713  1.00  0.00    -0.387 OA
ATOM     19  H   UNL     1      17.124  41.976  56.482  1.00  0.00     0.211 HD
ENDBRANCH  14  18
BRANCH  15  20
ATOM     20  O   UNL     1      20.027  44.592  54.956  1.00  0.00    -0.385 OA
ATOM     21  H   UNL     1      20.656  43.749  55.077  1.00  0.00     0.211 HD
ENDBRANCH  15  20
ENDBRANCH   8   9
ENDBRANCH   7   8
ENDBRANCH   1   7
BRANCH   2  22
ATOM     22  O   UNL     1      14.603  47.516  57.098  1.00  0.00    -0.387 OA
ATOM     23  H   UNL     1      15.023  48.256  56.523  1.00  0.00     0.211 HD
ENDBRANCH   2  22
BRANCH   3  24
ATOM     24  O   UNL     1      13.794  46.480  59.375  1.00  0.00    -0.387 OA
ATOM     25  H   UNL     1      13.519  47.465  59.533  1.00  0.00     0.211 HD
ENDBRANCH   3  24
BRANCH   5  26
ATOM     26  O   UNL     1      15.506  49.888  60.804  1.00  0.00    -0.454 OA
BRANCH  26  27
ATOM     27  C   UNL     1      15.783  51.276  60.401  1.00  0.00     0.214 A 
ATOM     28  C   UNL     1      14.784  52.132  59.927  1.00  0.00     0.180 A 
ATOM     29  C   UNL     1      16.869  51.945  60.937  1.00  0.00     0.239 A 
ATOM     30  O   UNL     1      14.493  53.202  60.615  1.00  0.00    -0.452 OA
ATOM     31  C   UNL     1      16.635  53.195  61.527  1.00  0.00     0.111 A 
ATOM     32  O   UNL     1      17.998  51.338  60.960  1.00  0.00    -0.285 OA
ATOM     33  C   UNL     1      15.298  53.551  61.612  1.00  0.00     0.146 A 
ATOM     34  C   UNL     1      17.567  53.735  62.436  1.00  0.00     0.134 A 
ATOM     35  C   UNL     1      14.808  54.124  62.794  1.00  0.00     0.094 A 
ATOM     36  C   UNL     1      17.079  54.208  63.660  1.00  0.00     0.093 A 
ATOM     37  C   UNL     1      15.681  54.170  63.889  1.00  0.00     0.123 A 
BRANCH  28  38
ATOM     38  C   UNL     1      14.391  52.074  58.492  1.00  0.00     0.025 A 
ATOM     39  C   UNL     1      14.617  53.182  57.650  1.00  0.00     0.062 A 
ATOM     40  C   UNL     1      13.637  51.004  58.048  1.00  0.00     0.016 A 
ATOM     41  C   UNL     1      14.132  53.135  56.278  1.00  0.00     0.158 A 
ATOM     42  C   UNL     1      13.147  50.959  56.744  1.00  0.00     0.051 A 
ATOM     43  C   UNL     1      13.359  52.021  55.874  1.00  0.00     0.157 A 
BRANCH  41  44
ATOM     44  O   UNL     1      14.330  54.236  55.398  1.00  0.00    -0.504 OA
ATOM     45  H   UNL     1      13.568  54.555  54.783  1.00  0.00     0.293 HD
ENDBRANCH  41  44
BRANCH  43  46
ATOM     46  O   UNL     1      12.844  51.946  54.577  1.00  0.00    -0.504 OA
ATOM     47  H   UNL     1      13.220  52.512  53.835  1.00  0.00     0.293 HD
ENDBRANCH  43  46
ENDBRANCH  28  38
BRANCH  34  48
ATOM     48  O   UNL     1      18.950  53.861  62.112  1.00  0.00    -0.507 OA
ATOM     49  H   UNL     1      19.507  54.592  62.622  1.00  0.00     0.293 HD
ENDBRANCH  34  48
BRANCH  37  50
ATOM     50  O   UNL     1      15.170  54.213  65.176  1.00  0.00    -0.508 OA
ATOM     51  H   UNL     1      14.210  54.500  65.377  1.00  0.00     0.293 HD
ENDBRANCH  37  50
ENDBRANCH  26  27
ENDBRANCH   5  26
BRANCH   4  52
ATOM     52  O   UNL     1      14.814  47.315  61.550  1.00  0.00    -0.384 OA
ATOM     53  H   UNL     1      14.467  48.233  61.632  1.00  0.00     0.211 HD
ENDBRANCH   4  52
TORSDOF 16
ENDMDL
MODEL 4
REMARK VINA RESULT:    85.875      2.458      9.754
REMARK INTER + INTRA:         139.511
REMARK INTER:                 136.846
REMARK INTRA:                   2.665
REMARK UNBOUND:                -1.586
REMARK SMILES C[C@@H]1O[C@@H](OC[C@@H]2O[C@H](Oc3c(-c4ccc(O)c(O)c4)oc4cc(O)cc(O)c4c3=O)[C@@H](O)[C@@H](O)[C@H]2O)[C@H](O)[C@@H](O)[C@@H]1O
REMARK SMILES IDX 7 1 36 2 34 3 32 4 9 5 8 6 6 7 5 8 4 9 1 10 2 11 42 12 3 13
REMARK SMILES IDX 40 14 38 15 43 16 41 18 39 20 37 22 35 24 10 26 11 27 12 28
REMARK SMILES IDX 30 29 21 30 29 31 31 32 22 33 27 34 23 35 26 36 24 37 13 38
REMARK SMILES IDX 20 39 14 40 18 41 15 42 16 43 19 44 17 46 28 48 25 50 33 52
REMARK H PARENT 43 17 41 19 39 21 37 23 35 25 19 45 17 47 28 49 25 51 33 53
REMARK Flexibility Score: inf
ROOT
ATOM      1  C   UNL     1      15.890  47.001  59.438  1.00  0.00     0.180 C 
ATOM      2  C   UNL     1      17.409  47.067  59.048  1.00  0.00     0.177 C 
ATOM      3  C   UNL     1      17.722  48.519  58.466  1.00  0.00     0.180 C 
ATOM      4  C   UNL     1      16.621  49.581  58.788  1.00  0.00     0.214 C 
ATOM      5  C   UNL     1      16.214  49.208  60.237  1.00  0.00     0.339 C 
ATOM      6  O   UNL     1      15.463  48.018  60.322  1.00  0.00    -0.332 OA
ENDROOT
BRANCH   1   7
ATOM      7  C   UNL     1      14.879  46.898  58.260  1.00  0.00     0.198 C 
BRANCH   7   8
ATOM      8  O   UNL     1      15.188  45.760  57.477  1.00  0.00    -0.347 OA
BRANCH   8   9
ATOM      9  C   UNL     1      15.761  46.083  56.211  1.00  0.00     0.281 C 
ATOM     10  C   UNL     1      16.986  43.092  54.336  1.00  0.00     0.041 C 
ATOM     11  C   UNL     1      16.368  43.772  55.592  1.00  0.00     0.150 C 
ATOM     12  C   UNL     1      17.387  43.924  56.804  1.00  0.00     0.174 C 
ATOM     13  O   UNL     1      15.646  44.995  55.261  1.00  0.00    -0.344 OA
ATOM     14  C   UNL     1      18.171  45.200  56.762  1.00  0.00     0.179 C 
ATOM     15  C   UNL     1      17.243  46.468  56.445  1.00  0.00     0.202 C 
BRANCH  12  16
ATOM     16  O   UNL     1      18.264  42.749  56.857  1.00  0.00    -0.388 OA
ATOM     17  H   UNL     1      17.765  41.972  56.416  1.00  0.00     0.211 HD
ENDBRANCH  12  16
BRANCH  14  18
ATOM     18  O   UNL     1      18.845  45.356  57.980  1.00  0.00    -0.387 OA
ATOM     19  H   UNL     1      18.102  45.376  58.675  1.00  0.00     0.211 HD
ENDBRANCH  14  18
BRANCH  15  20
ATOM     20  O   UNL     1      17.736  47.139  55.271  1.00  0.00    -0.385 OA
ATOM     21  H   UNL     1      18.535  47.723  55.648  1.00  0.00     0.211 HD
ENDBRANCH  15  20
ENDBRANCH   8   9
ENDBRANCH   7   8
ENDBRANCH   1   7
BRANCH   2  22
ATOM     22  O   UNL     1      18.251  46.700  60.137  1.00  0.00    -0.387 OA
ATOM     23  H   UNL     1      19.007  47.393  60.178  1.00  0.00     0.211 HD
ENDBRANCH   2  22
BRANCH   3  24
ATOM     24  O   UNL     1      18.936  48.962  58.986  1.00  0.00    -0.387 OA
ATOM     25  H   UNL     1      19.510  48.113  59.129  1.00  0.00     0.211 HD
ENDBRANCH   3  24
BRANCH   5  26
ATOM     26  O   UNL     1      15.683  50.268  61.059  1.00  0.00    -0.454 OA
BRANCH  26  27
ATOM     27  C   UNL     1      15.770  51.678  60.648  1.00  0.00     0.214 A 
ATOM     28  C   UNL     1      14.676  52.375  60.124  1.00  0.00     0.180 A 
ATOM     29  C   UNL     1      16.724  52.504  61.216  1.00  0.00     0.239 A 
ATOM     30  O   UNL     1      14.204  53.396  60.785  1.00  0.00    -0.452 OA
ATOM     31  C   UNL     1      16.286  53.710  61.779  1.00  0.00     0.111 A 
ATOM     32  O   UNL     1      17.927  52.068  61.292  1.00  0.00    -0.285 OA
ATOM     33  C   UNL     1      14.909  53.868  61.808  1.00  0.00     0.146 A 
ATOM     34  C   UNL     1      17.091  54.388  62.717  1.00  0.00     0.134 A 
ATOM     35  C   UNL     1      14.292  54.371  62.962  1.00  0.00     0.094 A 
ATOM     36  C   UNL     1      16.490  54.794  63.914  1.00  0.00     0.093 A 
ATOM     37  C   UNL     1      15.105  54.554  64.089  1.00  0.00     0.123 A 
BRANCH  28  38
ATOM     38  C   UNL     1      14.354  52.249  58.675  1.00  0.00     0.025 A 
ATOM     39  C   UNL     1      14.577  53.333  57.803  1.00  0.00     0.062 A 
ATOM     40  C   UNL     1      13.664  51.133  58.239  1.00  0.00     0.016 A 
ATOM     41  C   UNL     1      14.159  53.217  56.413  1.00  0.00     0.158 A 
ATOM     42  C   UNL     1      13.238  51.021  56.916  1.00  0.00     0.051 A 
ATOM     43  C   UNL     1      13.450  52.058  56.017  1.00  0.00     0.157 A 
BRANCH  41  44
ATOM     44  O   UNL     1      14.356  54.292  55.501  1.00  0.00    -0.504 OA
ATOM     45  H   UNL     1      14.570  55.238  55.849  1.00  0.00     0.293 HD
ENDBRANCH  41  44
BRANCH  43  46
ATOM     46  O   UNL     1      13.000  51.915  54.702  1.00  0.00    -0.504 OA
ATOM     47  H   UNL     1      13.589  51.515  53.991  1.00  0.00     0.293 HD
ENDBRANCH  43  46
ENDBRANCH  28  38
BRANCH  34  48
ATOM     48  O   UNL     1      18.453  54.713  62.445  1.00  0.00    -0.507 OA
ATOM     49  H   UNL     1      19.141  54.637  63.235  1.00  0.00     0.293 HD
ENDBRANCH  34  48
BRANCH  37  50
ATOM     50  O   UNL     1      14.541  54.531  65.355  1.00  0.00    -0.508 OA
ATOM     51  H   UNL     1      13.602  54.167  65.532  1.00  0.00     0.293 HD
ENDBRANCH  37  50
ENDBRANCH  26  27
ENDBRANCH   5  26
BRANCH   4  52
ATOM     52  O   UNL     1      17.234  50.846  58.842  1.00  0.00    -0.384 OA
ATOM     53  H   UNL     1      16.930  51.313  58.031  1.00  0.00     0.211 HD
ENDBRANCH   4  52
TORSDOF 16
ENDMDL
