MODEL 1
REMARK VINA RESULT:    -3.820      0.000      0.000
REMARK INTER + INTRA:          -4.431
REMARK INTER:                  -4.378
REMARK INTRA:                  -0.053
REMARK UNBOUND:                -0.053
REMARK SMILES CC(C)[C@@H]([NH3+])C(=O)[O-]
REMARK SMILES IDX 4 1 5 2 6 6 7 7 8 8 2 9 1 10 3 11
REMARK H PARENT 5 3 5 4 5 5
REMARK Flexibility Score: inf
ROOT
ATOM      1  C   UNL     1       5.287   1.699 -26.204  1.00  0.00     0.230 C 
ENDROOT
BRANCH   1   2
ATOM      2  N   UNL     1       6.470   2.422 -25.708  1.00  0.00    -0.350 N 
ATOM      3  H   UNL     1       7.226   1.764 -25.414  1.00  0.00     0.345 HD
ATOM      4  H   UNL     1       6.843   3.037 -26.468  1.00  0.00     0.345 HD
ATOM      5  H   UNL     1       6.212   3.038 -24.905  1.00  0.00     0.345 HD
ENDBRANCH   1   2
BRANCH   1   6
ATOM      6  C   UNL     1       5.690   0.555 -27.100  1.00  0.00     0.099 C 
ATOM      7  O   UNL     1       6.844   0.504 -27.606  1.00  0.00    -0.544 OA
ATOM      8  O   UNL     1       4.797  -0.484 -27.335  1.00  0.00    -0.544 OA
ENDBRANCH   1   6
BRANCH   1   9
ATOM      9  C   UNL     1       4.350   1.205 -25.059  1.00  0.00     0.047 C 
ATOM     10  C   UNL     1       4.922   1.436 -23.651  1.00  0.00     0.014 C 
ATOM     11  C   UNL     1       2.945   1.818 -25.166  1.00  0.00     0.014 C 
ENDBRANCH   1   9
TORSDOF 3
ENDMDL
MODEL 2
REMARK VINA RESULT:    -3.811      1.648      2.233
REMARK INTER + INTRA:          -4.421
REMARK INTER:                  -4.359
REMARK INTRA:                  -0.062
REMARK UNBOUND:                -0.053
REMARK SMILES CC(C)[C@@H]([NH3+])C(=O)[O-]
REMARK SMILES IDX 4 1 5 2 6 6 7 7 8 8 2 9 1 10 3 11
REMARK H PARENT 5 3 5 4 5 5
REMARK Flexibility Score: inf
ROOT
ATOM      1  C   UNL     1       5.067   0.537 -25.887  1.00  0.00     0.230 C 
ENDROOT
BRANCH   1   2
ATOM      2  N   UNL     1       4.057  -0.397 -26.412  1.00  0.00    -0.350 N 
ATOM      3  H   UNL     1       3.319  -0.604 -25.701  1.00  0.00     0.345 HD
ATOM      4  H   UNL     1       3.598   0.025 -27.252  1.00  0.00     0.345 HD
ATOM      5  H   UNL     1       4.507  -1.289 -26.716  1.00  0.00     0.345 HD
ENDBRANCH   1   2
BRANCH   1   6
ATOM      6  C   UNL     1       5.877   1.140 -27.008  1.00  0.00     0.099 C 
ATOM      7  O   UNL     1       6.398   0.413 -27.895  1.00  0.00    -0.544 OA
ATOM      8  O   UNL     1       6.013   2.521 -27.093  1.00  0.00    -0.544 OA
ENDBRANCH   1   6
BRANCH   1   9
ATOM      9  C   UNL     1       4.457   1.649 -24.981  1.00  0.00     0.047 C 
ATOM     10  C   UNL     1       2.946   1.845 -25.177  1.00  0.00     0.014 C 
ATOM     11  C   UNL     1       4.771   1.410 -23.495  1.00  0.00     0.014 C 
ENDBRANCH   1   9
TORSDOF 3
ENDMDL
MODEL 3
REMARK VINA RESULT:    -3.670     12.828     13.462
REMARK INTER + INTRA:          -4.259
REMARK INTER:                  -4.245
REMARK INTRA:                  -0.013
REMARK UNBOUND:                -0.053
REMARK SMILES CC(C)[C@@H]([NH3+])C(=O)[O-]
REMARK SMILES IDX 4 1 5 2 6 6 7 7 8 8 2 9 1 10 3 11
REMARK H PARENT 5 3 5 4 5 5
REMARK Flexibility Score: inf
ROOT
ATOM      1  C   UNL     1       0.996  -9.100 -19.851  1.00  0.00     0.230 C 
ENDROOT
BRANCH   1   2
ATOM      2  N   UNL     1       1.863  -8.720 -20.978  1.00  0.00    -0.350 N 
ATOM      3  H   UNL     1       1.312  -8.307 -21.764  1.00  0.00     0.345 HD
ATOM      4  H   UNL     1       2.562  -8.011 -20.654  1.00  0.00     0.345 HD
ATOM      5  H   UNL     1       2.396  -9.549 -21.325  1.00  0.00     0.345 HD
ENDBRANCH   1   2
BRANCH   1   6
ATOM      6  C   UNL     1      -0.425  -9.312 -20.311  1.00  0.00     0.099 C 
ATOM      7  O   UNL     1      -1.082  -8.374 -20.837  1.00  0.00    -0.544 OA
ATOM      8  O   UNL     1      -1.004 -10.570 -20.200  1.00  0.00    -0.544 OA
ENDBRANCH   1   6
BRANCH   1   9
ATOM      9  C   UNL     1       1.519 -10.344 -19.071  1.00  0.00     0.047 C 
ATOM     10  C   UNL     1       3.031 -10.578 -19.223  1.00  0.00     0.014 C 
ATOM     11  C   UNL     1       1.141 -10.286 -17.582  1.00  0.00     0.014 C 
ENDBRANCH   1   9
TORSDOF 3
ENDMDL
MODEL 4
REMARK VINA RESULT:    -3.652      8.162      9.343
REMARK INTER + INTRA:          -4.238
REMARK INTER:                  -4.177
REMARK INTRA:                  -0.062
REMARK UNBOUND:                -0.053
REMARK SMILES CC(C)[C@@H]([NH3+])C(=O)[O-]
REMARK SMILES IDX 4 1 5 2 6 6 7 7 8 8 2 9 1 10 3 11
REMARK H PARENT 5 3 5 4 5 5
REMARK Flexibility Score: inf
ROOT
ATOM      1  C   UNL     1      10.163  -1.639 -32.022  1.00  0.00     0.230 C 
ENDROOT
BRANCH   1   2
ATOM      2  N   UNL     1      10.704  -0.912 -30.862  1.00  0.00    -0.350 N 
ATOM      3  H   UNL     1      10.921   0.082 -31.099  1.00  0.00     0.345 HD
ATOM      4  H   UNL     1      10.001  -0.922 -30.087  1.00  0.00     0.345 HD
ATOM      5  H   UNL     1      11.568  -1.382 -30.507  1.00  0.00     0.345 HD
ENDBRANCH   1   2
BRANCH   1   6
ATOM      6  C   UNL     1       9.273  -0.746 -32.851  1.00  0.00     0.099 C 
ATOM      7  O   UNL     1       8.330  -0.099 -32.320  1.00  0.00    -0.544 OA
ATOM      8  O   UNL     1       9.523  -0.594 -34.209  1.00  0.00    -0.544 OA
ENDBRANCH   1   6
BRANCH   1   9
ATOM      9  C   UNL     1      11.270  -2.293 -32.903  1.00  0.00     0.047 C 
ATOM     10  C   UNL     1      12.666  -1.688 -32.690  1.00  0.00     0.014 C 
ATOM     11  C   UNL     1      11.320  -3.818 -32.719  1.00  0.00     0.014 C 
ENDBRANCH   1   9
TORSDOF 3
ENDMDL
MODEL 5
REMARK VINA RESULT:    -3.641     13.683     14.383
REMARK INTER + INTRA:          -4.226
REMARK INTER:                  -4.156
REMARK INTRA:                  -0.070
REMARK UNBOUND:                -0.053
REMARK SMILES CC(C)[C@@H]([NH3+])C(=O)[O-]
REMARK SMILES IDX 4 1 5 2 6 6 7 7 8 8 2 9 1 10 3 11
REMARK H PARENT 5 3 5 4 5 5
REMARK Flexibility Score: inf
ROOT
ATOM      1  C   UNL     1       0.466 -10.302 -18.246  1.00  0.00     0.230 C 
ENDROOT
BRANCH   1   2
ATOM      2  N   UNL     1       0.772 -10.954 -16.962  1.00  0.00    -0.350 N 
ATOM      3  H   UNL     1       1.689 -10.634 -16.577  1.00  0.00     0.345 HD
ATOM      4  H   UNL     1       0.023 -10.723 -16.268  1.00  0.00     0.345 HD
ATOM      5  H   UNL     1       0.785 -11.993 -17.074  1.00  0.00     0.345 HD
ENDBRANCH   1   2
BRANCH   1   6
ATOM      6  C   UNL     1      -0.609  -9.257 -18.077  1.00  0.00     0.099 C 
ATOM      7  O   UNL     1      -1.780  -9.458 -18.499  1.00  0.00    -0.544 OA
ATOM      8  O   UNL     1      -0.321  -8.075 -17.405  1.00  0.00    -0.544 OA
ENDBRANCH   1   6
BRANCH   1   9
ATOM      9  C   UNL     1       1.725  -9.698 -18.938  1.00  0.00     0.047 C 
ATOM     10  C   UNL     1       2.888 -10.692 -19.082  1.00  0.00     0.014 C 
ATOM     11  C   UNL     1       1.385  -9.081 -20.304  1.00  0.00     0.014 C 
ENDBRANCH   1   9
TORSDOF 3
ENDMDL
MODEL 6
REMARK VINA RESULT:    -3.624      2.397      3.110
REMARK INTER + INTRA:          -4.206
REMARK INTER:                  -4.159
REMARK INTRA:                  -0.047
REMARK UNBOUND:                -0.053
REMARK SMILES CC(C)[C@@H]([NH3+])C(=O)[O-]
REMARK SMILES IDX 4 1 5 2 6 6 7 7 8 8 2 9 1 10 3 11
REMARK H PARENT 5 3 5 4 5 5
REMARK Flexibility Score: inf
ROOT
ATOM      1  C   UNL     1       6.333   2.320 -27.521  1.00  0.00     0.230 C 
ENDROOT
BRANCH   1   2
ATOM      2  N   UNL     1       5.395   3.445 -27.370  1.00  0.00    -0.350 N 
ATOM      3  H   UNL     1       4.791   3.330 -26.526  1.00  0.00     0.345 HD
ATOM      4  H   UNL     1       5.936   4.335 -27.272  1.00  0.00     0.345 HD
ATOM      5  H   UNL     1       4.794   3.535 -28.219  1.00  0.00     0.345 HD
ENDBRANCH   1   2
BRANCH   1   6
ATOM      6  C   UNL     1       7.755   2.769 -27.295  1.00  0.00     0.099 C 
ATOM      7  O   UNL     1       8.675   2.429 -28.088  1.00  0.00    -0.544 OA
ATOM      8  O   UNL     1       8.051   3.608 -26.228  1.00  0.00    -0.544 OA
ENDBRANCH   1   6
BRANCH   1   9
ATOM      9  C   UNL     1       5.981   1.107 -26.607  1.00  0.00     0.047 C 
ATOM     10  C   UNL     1       4.937   1.430 -25.527  1.00  0.00     0.014 C 
ATOM     11  C   UNL     1       5.535  -0.115 -27.425  1.00  0.00     0.014 C 
ENDBRANCH   1   9
TORSDOF 3
ENDMDL
MODEL 7
REMARK VINA RESULT:    -3.578      2.500      3.990
REMARK INTER + INTRA:          -4.153
REMARK INTER:                  -4.108
REMARK INTRA:                  -0.045
REMARK UNBOUND:                -0.053
REMARK SMILES CC(C)[C@@H]([NH3+])C(=O)[O-]
REMARK SMILES IDX 4 1 5 2 6 6 7 7 8 8 2 9 1 10 3 11
REMARK H PARENT 5 3 5 4 5 5
REMARK Flexibility Score: inf
ROOT
ATOM      1  C   UNL     1       6.653   2.126 -27.354  1.00  0.00     0.230 C 
ENDROOT
BRANCH   1   2
ATOM      2  N   UNL     1       5.762   3.290 -27.484  1.00  0.00    -0.350 N 
ATOM      3  H   UNL     1       6.260   4.111 -27.896  1.00  0.00     0.345 HD
ATOM      4  H   UNL     1       4.959   3.043 -28.108  1.00  0.00     0.345 HD
ATOM      5  H   UNL     1       5.366   3.553 -26.554  1.00  0.00     0.345 HD
ENDBRANCH   1   2
BRANCH   1   6
ATOM      6  C   UNL     1       5.871   0.883 -27.009  1.00  0.00     0.099 C 
ATOM      7  O   UNL     1       5.846  -0.105 -27.793  1.00  0.00    -0.544 OA
ATOM      8  O   UNL     1       5.209   0.802 -25.790  1.00  0.00    -0.544 OA
ENDBRANCH   1   6
BRANCH   1   9
ATOM      9  C   UNL     1       7.540   1.893 -28.615  1.00  0.00     0.047 C 
ATOM     10  C   UNL     1       7.621   3.112 -29.547  1.00  0.00     0.014 C 
ATOM     11  C   UNL     1       8.953   1.420 -28.240  1.00  0.00     0.014 C 
ENDBRANCH   1   9
TORSDOF 3
ENDMDL
MODEL 8
REMARK VINA RESULT:    -3.563     13.768     14.372
REMARK INTER + INTRA:          -4.137
REMARK INTER:                  -4.074
REMARK INTRA:                  -0.063
REMARK UNBOUND:                -0.053
REMARK SMILES CC(C)[C@@H]([NH3+])C(=O)[O-]
REMARK SMILES IDX 4 1 5 2 6 6 7 7 8 8 2 9 1 10 3 11
REMARK H PARENT 5 3 5 4 5 5
REMARK Flexibility Score: inf
ROOT
ATOM      1  C   UNL     1       0.139 -10.046 -19.111  1.00  0.00     0.230 C 
ENDROOT
BRANCH   1   2
ATOM      2  N   UNL     1      -0.362 -11.045 -20.068  1.00  0.00    -0.350 N 
ATOM      3  H   UNL     1       0.301 -11.181 -20.864  1.00  0.00     0.345 HD
ATOM      4  H   UNL     1      -0.485 -11.962 -19.579  1.00  0.00     0.345 HD
ATOM      5  H   UNL     1      -1.296 -10.760 -20.438  1.00  0.00     0.345 HD
ENDBRANCH   1   2
BRANCH   1   6
ATOM      6  C   UNL     1       0.508 -10.692 -17.798  1.00  0.00     0.099 C 
ATOM      7  O   UNL     1       0.713  -9.996 -16.768  1.00  0.00    -0.544 OA
ATOM      8  O   UNL     1       0.577 -12.077 -17.709  1.00  0.00    -0.544 OA
ENDBRANCH   1   6
BRANCH   1   9
ATOM      9  C   UNL     1       1.329  -9.208 -19.671  1.00  0.00     0.047 C 
ATOM     10  C   UNL     1       2.672  -9.954 -19.651  1.00  0.00     0.014 C 
ATOM     11  C   UNL     1       1.039  -8.679 -21.085  1.00  0.00     0.014 C 
ENDBRANCH   1   9
TORSDOF 3
ENDMDL
MODEL 9
REMARK VINA RESULT:    -3.418     13.052     13.643
REMARK INTER + INTRA:          -3.970
REMARK INTER:                  -3.925
REMARK INTRA:                  -0.045
REMARK UNBOUND:                -0.053
REMARK SMILES CC(C)[C@@H]([NH3+])C(=O)[O-]
REMARK SMILES IDX 4 1 5 2 6 6 7 7 8 8 2 9 1 10 3 11
REMARK H PARENT 5 3 5 4 5 5
REMARK Flexibility Score: inf
ROOT
ATOM      1  C   UNL     1       0.491 -10.221 -19.980  1.00  0.00     0.230 C 
ENDROOT
BRANCH   1   2
ATOM      2  N   UNL     1      -0.682 -10.982 -19.519  1.00  0.00    -0.350 N 
ATOM      3  H   UNL     1      -1.534 -10.380 -19.470  1.00  0.00     0.345 HD
ATOM      4  H   UNL     1      -0.869 -11.768 -20.184  1.00  0.00     0.345 HD
ATOM      5  H   UNL     1      -0.499 -11.402 -18.581  1.00  0.00     0.345 HD
ENDBRANCH   1   2
BRANCH   1   6
ATOM      6  C   UNL     1       0.071  -8.943 -20.664  1.00  0.00     0.099 C 
ATOM      7  O   UNL     1       0.817  -8.388 -21.515  1.00  0.00    -0.544 OA
ATOM      8  O   UNL     1      -1.176  -8.394 -20.389  1.00  0.00    -0.544 OA
ENDBRANCH   1   6
BRANCH   1   9
ATOM      9  C   UNL     1       1.517  -9.932 -18.843  1.00  0.00     0.047 C 
ATOM     10  C   UNL     1       0.991 -10.268 -17.438  1.00  0.00     0.014 C 
ATOM     11  C   UNL     1       2.858 -10.640 -19.089  1.00  0.00     0.014 C 
ENDBRANCH   1   9
TORSDOF 3
ENDMDL
