MODEL 1
REMARK VINA RESULT:    -7.370      0.000      0.000
REMARK INTER + INTRA:          -9.125
REMARK INTER:                  -8.663
REMARK INTRA:                  -0.462
REMARK UNBOUND:                -0.462
REMARK SMILES C=C(C)[C@@H]1CC[C@@]2(CO)CC[C@@]3(C)[C@H](CC[C@@H]4[C@]5(C)CC[C@@H](O)C(C)(C)[C@@H]5CC[C@]43C)[C@@H]12
REMARK SMILES IDX 4 1 5 2 6 3 7 4 32 5 14 6 15 7 16 8 17 9 18 10 20 11 21 12
REMARK SMILES IDX 22 13 24 14 27 15 28 16 29 17 30 18 12 19 11 20 10 21 13 22
REMARK SMILES IDX 31 23 25 24 26 25 19 26 2 27 3 28 1 29 8 30 9 31 23 33
REMARK H PARENT 9 32 23 34
REMARK Flexibility Score: inf
ROOT
ATOM      1  C   UNL     1      14.259 -30.241  18.551  1.00  0.00     0.018 C 
ATOM      2  C   UNL     1      15.774 -30.331  18.315  1.00  0.00     0.009 C 
ATOM      3  C   UNL     1      16.413 -30.471  19.690  1.00  0.00     0.010 C 
ATOM      4  C   UNL     1      15.483 -29.742  20.681  1.00  0.00    -0.003 C 
ATOM      5  C   UNL     1      14.066 -29.975  20.068  1.00  0.00     0.008 C 
ATOM      6  C   UNL     1      12.956 -28.910  20.401  1.00  0.00    -0.000 C 
ATOM      7  C   UNL     1      12.269 -29.326  21.723  1.00  0.00     0.005 C 
ATOM      8  C   UNL     1      11.143 -28.394  22.138  1.00  0.00     0.005 C 
ATOM      9  C   UNL     1      11.670 -26.956  22.330  1.00  0.00     0.002 C 
ATOM     10  C   UNL     1      10.682 -26.000  23.179  1.00  0.00    -0.026 C 
ATOM     11  C   UNL     1       9.180 -26.392  22.994  1.00  0.00     0.010 C 
ATOM     12  C   UNL     1       8.169 -25.541  23.796  1.00  0.00     0.033 C 
ATOM     13  C   UNL     1       8.568 -24.070  24.046  1.00  0.00     0.120 C 
ATOM     14  C   UNL     1       9.565 -23.521  22.988  1.00  0.00    -0.006 C 
ATOM     15  C   UNL     1      10.884 -24.423  22.924  1.00  0.00     0.003 C 
ATOM     16  C   UNL     1      11.773 -24.010  21.714  1.00  0.00     0.005 C 
ATOM     17  C   UNL     1      12.852 -25.015  21.348  1.00  0.00     0.008 C 
ATOM     18  C   UNL     1      12.270 -26.414  20.989  1.00  0.00    -0.024 C 
ATOM     19  C   UNL     1      13.430 -27.397  20.400  1.00  0.00    -0.024 C 
ATOM     20  C   UNL     1      14.756 -27.305  21.224  1.00  0.00     0.008 C 
ATOM     21  C   UNL     1      15.879 -28.237  20.736  1.00  0.00     0.010 C 
ATOM     22  C   UNL     1      13.751 -26.959  18.929  1.00  0.00     0.012 C 
ATOM     23  C   UNL     1      11.137 -26.254  19.924  1.00  0.00     0.012 C 
ATOM     24  C   UNL     1       9.946 -22.073  23.397  1.00  0.00     0.014 C 
ATOM     25  C   UNL     1       8.804 -23.403  21.631  1.00  0.00     0.014 C 
ATOM     26  C   UNL     1      11.032 -26.316  24.675  1.00  0.00     0.012 C 
ENDROOT
BRANCH   1  27
ATOM     27  C   UNL     1      13.489 -31.478  18.087  1.00  0.00    -0.077 C 
ATOM     28  C   UNL     1      14.239 -32.676  17.559  1.00  0.00     0.039 C 
ATOM     29  C   UNL     1      12.143 -31.501  18.052  1.00  0.00     0.008 C 
ENDBRANCH   1  27
BRANCH   4  30
ATOM     30  C   UNL     1      15.664 -30.355  22.104  1.00  0.00     0.163 C 
BRANCH  30  31
ATOM     31  O   UNL     1      15.997 -31.718  22.047  1.00  0.00    -0.396 OA
ATOM     32  H   UNL     1      15.477 -32.159  22.769  1.00  0.00     0.210 HD
ENDBRANCH  30  31
ENDBRANCH   4  30
BRANCH  13  33
ATOM     33  O   UNL     1       9.090 -23.905  25.342  1.00  0.00    -0.393 OA
ATOM     34  H   UNL     1       9.967 -24.373  25.366  1.00  0.00     0.210 HD
ENDBRANCH  13  33
TORSDOF 4
ENDMDL
MODEL 2
REMARK VINA RESULT:    -7.036      4.064      7.686
REMARK INTER + INTRA:          -8.732
REMARK INTER:                  -8.318
REMARK INTRA:                  -0.414
REMARK UNBOUND:                -0.462
REMARK SMILES C=C(C)[C@@H]1CC[C@@]2(CO)CC[C@@]3(C)[C@H](CC[C@@H]4[C@]5(C)CC[C@@H](O)C(C)(C)[C@@H]5CC[C@]43C)[C@@H]12
REMARK SMILES IDX 4 1 5 2 6 3 7 4 32 5 14 6 15 7 16 8 17 9 18 10 20 11 21 12
REMARK SMILES IDX 22 13 24 14 27 15 28 16 29 17 30 18 12 19 11 20 10 21 13 22
REMARK SMILES IDX 31 23 25 24 26 25 19 26 2 27 3 28 1 29 8 30 9 31 23 33
REMARK H PARENT 9 32 23 34
REMARK Flexibility Score: inf
ROOT
ATOM      1  C   UNL     1       8.777 -29.357  28.910  1.00  0.00     0.018 C 
ATOM      2  C   UNL     1       7.700 -30.448  28.992  1.00  0.00     0.009 C 
ATOM      3  C   UNL     1       8.027 -31.455  27.896  1.00  0.00     0.010 C 
ATOM      4  C   UNL     1       8.728 -30.666  26.772  1.00  0.00    -0.003 C 
ATOM      5  C   UNL     1       9.504 -29.558  27.553  1.00  0.00     0.008 C 
ATOM      6  C   UNL     1       9.814 -28.221  26.783  1.00  0.00    -0.000 C 
ATOM      7  C   UNL     1      11.156 -28.396  26.033  1.00  0.00     0.005 C 
ATOM      8  C   UNL     1      11.592 -27.153  25.277  1.00  0.00     0.005 C 
ATOM      9  C   UNL     1      10.532 -26.755  24.228  1.00  0.00     0.002 C 
ATOM     10  C   UNL     1      11.075 -25.743  23.092  1.00  0.00    -0.026 C 
ATOM     11  C   UNL     1      12.206 -24.807  23.629  1.00  0.00     0.010 C 
ATOM     12  C   UNL     1      12.802 -23.824  22.595  1.00  0.00     0.033 C 
ATOM     13  C   UNL     1      11.836 -23.331  21.494  1.00  0.00     0.120 C 
ATOM     14  C   UNL     1      10.344 -23.392  21.921  1.00  0.00    -0.006 C 
ATOM     15  C   UNL     1       9.935 -24.876  22.357  1.00  0.00     0.003 C 
ATOM     16  C   UNL     1       8.515 -24.888  22.998  1.00  0.00     0.005 C 
ATOM     17  C   UNL     1       8.176 -26.155  23.763  1.00  0.00     0.008 C 
ATOM     18  C   UNL     1       9.169 -26.435  24.928  1.00  0.00    -0.024 C 
ATOM     19  C   UNL     1       8.653 -27.676  25.852  1.00  0.00    -0.024 C 
ATOM     20  C   UNL     1       8.120 -28.869  24.993  1.00  0.00     0.008 C 
ATOM     21  C   UNL     1       7.651 -30.086  25.810  1.00  0.00     0.010 C 
ATOM     22  C   UNL     1       7.470 -27.169  26.748  1.00  0.00     0.012 C 
ATOM     23  C   UNL     1       9.313 -25.155  25.815  1.00  0.00     0.012 C 
ATOM     24  C   UNL     1       9.481 -22.952  20.708  1.00  0.00     0.014 C 
ATOM     25  C   UNL     1      10.119 -22.315  23.027  1.00  0.00     0.014 C 
ATOM     26  C   UNL     1      11.754 -26.680  22.033  1.00  0.00     0.012 C 
ENDROOT
BRANCH   1  27
ATOM     27  C   UNL     1       9.754 -29.368  30.087  1.00  0.00    -0.077 C 
ATOM     28  C   UNL     1       9.256 -29.690  31.474  1.00  0.00     0.039 C 
ATOM     29  C   UNL     1      11.044 -29.011  29.939  1.00  0.00     0.008 C 
ENDBRANCH   1  27
BRANCH   4  30
ATOM     30  C   UNL     1       9.650 -31.631  25.964  1.00  0.00     0.163 C 
BRANCH  30  31
ATOM     31  O   UNL     1       9.380 -32.977  26.254  1.00  0.00    -0.396 OA
ATOM     32  H   UNL     1       8.394 -33.077  26.208  1.00  0.00     0.210 HD
ENDBRANCH  30  31
ENDBRANCH   4  30
BRANCH  13  33
ATOM     33  O   UNL     1      12.034 -24.045  20.298  1.00  0.00    -0.393 OA
ATOM     34  H   UNL     1      11.650 -24.953  20.433  1.00  0.00     0.210 HD
ENDBRANCH  13  33
TORSDOF 4
ENDMDL
MODEL 3
REMARK VINA RESULT:    -6.645      2.175      7.764
REMARK INTER + INTRA:          -8.273
REMARK INTER:                  -7.724
REMARK INTRA:                  -0.549
REMARK UNBOUND:                -0.462
REMARK SMILES C=C(C)[C@@H]1CC[C@@]2(CO)CC[C@@]3(C)[C@H](CC[C@@H]4[C@]5(C)CC[C@@H](O)C(C)(C)[C@@H]5CC[C@]43C)[C@@H]12
REMARK SMILES IDX 4 1 5 2 6 3 7 4 32 5 14 6 15 7 16 8 17 9 18 10 20 11 21 12
REMARK SMILES IDX 22 13 24 14 27 15 28 16 29 17 30 18 12 19 11 20 10 21 13 22
REMARK SMILES IDX 31 23 25 24 26 25 19 26 2 27 3 28 1 29 8 30 9 31 23 33
REMARK H PARENT 9 32 23 34
REMARK Flexibility Score: inf
ROOT
ATOM      1  C   UNL     1       9.933 -27.300  25.912  1.00  0.00     0.018 C 
ATOM      2  C   UNL     1       9.609 -25.959  26.586  1.00  0.00     0.009 C 
ATOM      3  C   UNL     1       9.020 -25.067  25.501  1.00  0.00     0.010 C 
ATOM      4  C   UNL     1       9.656 -25.519  24.171  1.00  0.00    -0.003 C 
ATOM      5  C   UNL     1       9.858 -27.053  24.382  1.00  0.00     0.008 C 
ATOM      6  C   UNL     1      11.006 -27.745  23.559  1.00  0.00    -0.000 C 
ATOM      7  C   UNL     1      10.426 -28.181  22.192  1.00  0.00     0.005 C 
ATOM      8  C   UNL     1      11.431 -28.902  21.311  1.00  0.00     0.005 C 
ATOM      9  C   UNL     1      12.649 -27.999  21.023  1.00  0.00     0.002 C 
ATOM     10  C   UNL     1      13.546 -28.481  19.768  1.00  0.00    -0.026 C 
ATOM     11  C   UNL     1      13.510 -30.033  19.581  1.00  0.00     0.010 C 
ATOM     12  C   UNL     1      14.323 -30.575  18.383  1.00  0.00     0.033 C 
ATOM     13  C   UNL     1      15.584 -29.769  17.998  1.00  0.00     0.120 C 
ATOM     14  C   UNL     1      16.166 -28.949  19.181  1.00  0.00    -0.006 C 
ATOM     15  C   UNL     1      15.067 -27.955  19.782  1.00  0.00     0.003 C 
ATOM     16  C   UNL     1      15.578 -27.304  21.103  1.00  0.00     0.005 C 
ATOM     17  C   UNL     1      14.501 -26.634  21.938  1.00  0.00     0.008 C 
ATOM     18  C   UNL     1      13.371 -27.618  22.359  1.00  0.00    -0.024 C 
ATOM     19  C   UNL     1      12.352 -26.920  23.424  1.00  0.00    -0.024 C 
ATOM     20  C   UNL     1      11.983 -25.456  23.013  1.00  0.00     0.008 C 
ATOM     21  C   UNL     1      10.996 -24.755  23.963  1.00  0.00     0.010 C 
ATOM     22  C   UNL     1      13.061 -26.858  24.821  1.00  0.00     0.012 C 
ATOM     23  C   UNL     1      14.001 -28.895  23.007  1.00  0.00     0.012 C 
ATOM     24  C   UNL     1      17.371 -28.128  18.646  1.00  0.00     0.014 C 
ATOM     25  C   UNL     1      16.754 -29.955  20.218  1.00  0.00     0.014 C 
ATOM     26  C   UNL     1      12.816 -27.876  18.518  1.00  0.00     0.012 C 
ENDROOT
BRANCH   1  27
ATOM     27  C   UNL     1       9.019 -28.446  26.351  1.00  0.00    -0.077 C 
ATOM     28  C   UNL     1       8.369 -29.327  25.313  1.00  0.00     0.039 C 
ATOM     29  C   UNL     1       8.703 -28.643  27.644  1.00  0.00     0.008 C 
ENDBRANCH   1  27
BRANCH   4  30
ATOM     30  C   UNL     1       8.694 -25.165  22.995  1.00  0.00     0.163 C 
BRANCH  30  31
ATOM     31  O   UNL     1       7.627 -26.072  22.900  1.00  0.00    -0.396 OA
ATOM     32  H   UNL     1       7.429 -26.166  21.932  1.00  0.00     0.210 HD
ENDBRANCH  30  31
ENDBRANCH   4  30
BRANCH  13  33
ATOM     33  O   UNL     1      15.326 -28.930  16.899  1.00  0.00    -0.393 OA
ATOM     34  H   UNL     1      15.600 -28.011  17.162  1.00  0.00     0.210 HD
ENDBRANCH  13  33
TORSDOF 4
ENDMDL
MODEL 4
REMARK VINA RESULT:    -6.601      1.349      7.966
REMARK INTER + INTRA:          -8.221
REMARK INTER:                  -7.766
REMARK INTRA:                  -0.454
REMARK UNBOUND:                -0.462
REMARK SMILES C=C(C)[C@@H]1CC[C@@]2(CO)CC[C@@]3(C)[C@H](CC[C@@H]4[C@]5(C)CC[C@@H](O)C(C)(C)[C@@H]5CC[C@]43C)[C@@H]12
REMARK SMILES IDX 4 1 5 2 6 3 7 4 32 5 14 6 15 7 16 8 17 9 18 10 20 11 21 12
REMARK SMILES IDX 22 13 24 14 27 15 28 16 29 17 30 18 12 19 11 20 10 21 13 22
REMARK SMILES IDX 31 23 25 24 26 25 19 26 2 27 3 28 1 29 8 30 9 31 23 33
REMARK H PARENT 9 32 23 34
REMARK Flexibility Score: inf
ROOT
ATOM      1  C   UNL     1       9.663 -24.422  22.437  1.00  0.00     0.018 C 
ATOM      2  C   UNL     1       8.412 -24.660  23.295  1.00  0.00     0.009 C 
ATOM      3  C   UNL     1       8.882 -25.405  24.537  1.00  0.00     0.010 C 
ATOM      4  C   UNL     1      10.113 -26.231  24.113  1.00  0.00    -0.003 C 
ATOM      5  C   UNL     1      10.775 -25.335  23.019  1.00  0.00     0.008 C 
ATOM      6  C   UNL     1      11.650 -26.060  21.930  1.00  0.00    -0.000 C 
ATOM      7  C   UNL     1      13.095 -26.176  22.471  1.00  0.00     0.005 C 
ATOM      8  C   UNL     1      14.056 -26.828  21.492  1.00  0.00     0.005 C 
ATOM      9  C   UNL     1      13.586 -28.255  21.136  1.00  0.00     0.002 C 
ATOM     10  C   UNL     1      14.732 -29.180  20.472  1.00  0.00    -0.026 C 
ATOM     11  C   UNL     1      15.765 -28.341  19.651  1.00  0.00     0.010 C 
ATOM     12  C   UNL     1      16.912 -29.150  19.004  1.00  0.00     0.033 C 
ATOM     13  C   UNL     1      16.569 -30.597  18.583  1.00  0.00     0.120 C 
ATOM     14  C   UNL     1      15.054 -30.807  18.309  1.00  0.00    -0.006 C 
ATOM     15  C   UNL     1      14.181 -30.408  19.588  1.00  0.00     0.003 C 
ATOM     16  C   UNL     1      12.663 -30.401  19.236  1.00  0.00     0.005 C 
ATOM     17  C   UNL     1      11.780 -29.700  20.254  1.00  0.00     0.008 C 
ATOM     18  C   UNL     1      12.174 -28.208  20.461  1.00  0.00    -0.024 C 
ATOM     19  C   UNL     1      11.079 -27.437  21.392  1.00  0.00    -0.024 C 
ATOM     20  C   UNL     1      10.645 -28.296  22.625  1.00  0.00     0.008 C 
ATOM     21  C   UNL     1       9.637 -27.607  23.562  1.00  0.00     0.010 C 
ATOM     22  C   UNL     1       9.800 -27.163  20.529  1.00  0.00     0.012 C 
ATOM     23  C   UNL     1      12.269 -27.492  19.074  1.00  0.00     0.012 C 
ATOM     24  C   UNL     1      14.833 -32.308  17.977  1.00  0.00     0.014 C 
ATOM     25  C   UNL     1      14.689 -30.019  17.013  1.00  0.00     0.014 C 
ATOM     26  C   UNL     1      15.519 -29.758  21.699  1.00  0.00     0.012 C 
ENDROOT
BRANCH   1  27
ATOM     27  C   UNL     1      10.100 -22.957  22.379  1.00  0.00    -0.077 C 
ATOM     28  C   UNL     1      11.103 -22.512  21.343  1.00  0.00     0.039 C 
ATOM     29  C   UNL     1       9.680 -22.057  23.288  1.00  0.00     0.008 C 
ENDBRANCH   1  27
BRANCH   4  30
ATOM     30  C   UNL     1      11.019 -26.480  25.358  1.00  0.00     0.163 C 
BRANCH  30  31
ATOM     31  O   UNL     1      10.273 -26.540  26.545  1.00  0.00    -0.396 OA
ATOM     32  H   UNL     1       9.337 -26.731  26.273  1.00  0.00     0.210 HD
ENDBRANCH  30  31
ENDBRANCH   4  30
BRANCH  13  33
ATOM     33  O   UNL     1      17.026 -31.520  19.541  1.00  0.00    -0.393 OA
ATOM     34  H   UNL     1      17.167 -31.017  20.387  1.00  0.00     0.210 HD
ENDBRANCH  13  33
TORSDOF 4
ENDMDL
MODEL 5
REMARK VINA RESULT:    -6.321      1.872      7.912
REMARK INTER + INTRA:          -7.892
REMARK INTER:                  -7.449
REMARK INTRA:                  -0.443
REMARK UNBOUND:                -0.462
REMARK SMILES C=C(C)[C@@H]1CC[C@@]2(CO)CC[C@@]3(C)[C@H](CC[C@@H]4[C@]5(C)CC[C@@H](O)C(C)(C)[C@@H]5CC[C@]43C)[C@@H]12
REMARK SMILES IDX 4 1 5 2 6 3 7 4 32 5 14 6 15 7 16 8 17 9 18 10 20 11 21 12
REMARK SMILES IDX 22 13 24 14 27 15 28 16 29 17 30 18 12 19 11 20 10 21 13 22
REMARK SMILES IDX 31 23 25 24 26 25 19 26 2 27 3 28 1 29 8 30 9 31 23 33
REMARK H PARENT 9 32 23 34
REMARK Flexibility Score: inf
ROOT
ATOM      1  C   UNL     1      10.253 -25.963  24.839  1.00  0.00     0.018 C 
ATOM      2  C   UNL     1       9.100 -24.971  24.624  1.00  0.00     0.009 C 
ATOM      3  C   UNL     1       8.126 -25.650  23.671  1.00  0.00     0.010 C 
ATOM      4  C   UNL     1       8.966 -26.590  22.782  1.00  0.00    -0.003 C 
ATOM      5  C   UNL     1      10.109 -27.049  23.740  1.00  0.00     0.008 C 
ATOM      6  C   UNL     1      11.470 -27.483  23.078  1.00  0.00    -0.000 C 
ATOM      7  C   UNL     1      11.381 -28.989  22.734  1.00  0.00     0.005 C 
ATOM      8  C   UNL     1      12.655 -29.544  22.121  1.00  0.00     0.005 C 
ATOM      9  C   UNL     1      13.000 -28.797  20.815  1.00  0.00     0.002 C 
ATOM     10  C   UNL     1      14.054 -29.575  19.868  1.00  0.00    -0.026 C 
ATOM     11  C   UNL     1      15.049 -30.454  20.694  1.00  0.00     0.010 C 
ATOM     12  C   UNL     1      16.075 -31.254  19.860  1.00  0.00     0.033 C 
ATOM     13  C   UNL     1      16.522 -30.607  18.530  1.00  0.00     0.120 C 
ATOM     14  C   UNL     1      16.369 -29.061  18.524  1.00  0.00    -0.006 C 
ATOM     15  C   UNL     1      14.860 -28.636  18.839  1.00  0.00     0.003 C 
ATOM     16  C   UNL     1      14.758 -27.096  19.057  1.00  0.00     0.005 C 
ATOM     17  C   UNL     1      13.465 -26.633  19.706  1.00  0.00     0.008 C 
ATOM     18  C   UNL     1      13.233 -27.276  21.104  1.00  0.00    -0.024 C 
ATOM     19  C   UNL     1      11.955 -26.597  21.857  1.00  0.00    -0.024 C 
ATOM     20  C   UNL     1      10.740 -26.397  20.891  1.00  0.00     0.008 C 
ATOM     21  C   UNL     1       9.490 -25.791  21.553  1.00  0.00     0.010 C 
ATOM     22  C   UNL     1      12.382 -25.183  22.383  1.00  0.00     0.012 C 
ATOM     23  C   UNL     1      14.510 -27.090  21.987  1.00  0.00     0.012 C 
ATOM     24  C   UNL     1      16.770 -28.547  17.115  1.00  0.00     0.014 C 
ATOM     25  C   UNL     1      17.420 -28.473  19.515  1.00  0.00     0.014 C 
ATOM     26  C   UNL     1      13.169 -30.576  19.048  1.00  0.00     0.012 C 
ENDROOT
BRANCH   1  27
ATOM     27  C   UNL     1      10.289 -26.571  26.242  1.00  0.00    -0.077 C 
ATOM     28  C   UNL     1       9.299 -26.113  27.284  1.00  0.00     0.039 C 
ATOM     29  C   UNL     1      11.241 -27.450  26.608  1.00  0.00     0.008 C 
ENDBRANCH   1  27
BRANCH   4  30
ATOM     30  C   UNL     1       8.065 -27.756  22.270  1.00  0.00     0.163 C 
BRANCH  30  31
ATOM     31  O   UNL     1       6.876 -27.283  21.692  1.00  0.00    -0.396 OA
ATOM     32  H   UNL     1       7.141 -26.559  21.067  1.00  0.00     0.210 HD
ENDBRANCH  30  31
ENDBRANCH   4  30
BRANCH  13  33
ATOM     33  O   UNL     1      15.832 -31.172  17.442  1.00  0.00    -0.393 OA
ATOM     34  H   UNL     1      14.918 -30.780  17.440  1.00  0.00     0.210 HD
ENDBRANCH  13  33
TORSDOF 4
ENDMDL
MODEL 6
REMARK VINA RESULT:    -6.276      1.933      3.057
REMARK INTER + INTRA:          -7.839
REMARK INTER:                  -7.427
REMARK INTRA:                  -0.411
REMARK UNBOUND:                -0.462
REMARK SMILES C=C(C)[C@@H]1CC[C@@]2(CO)CC[C@@]3(C)[C@H](CC[C@@H]4[C@]5(C)CC[C@@H](O)C(C)(C)[C@@H]5CC[C@]43C)[C@@H]12
REMARK SMILES IDX 4 1 5 2 6 3 7 4 32 5 14 6 15 7 16 8 17 9 18 10 20 11 21 12
REMARK SMILES IDX 22 13 24 14 27 15 28 16 29 17 30 18 12 19 11 20 10 21 13 22
REMARK SMILES IDX 31 23 25 24 26 25 19 26 2 27 3 28 1 29 8 30 9 31 23 33
REMARK H PARENT 9 32 23 34
REMARK Flexibility Score: inf
ROOT
ATOM      1  C   UNL     1      15.678 -31.325  18.321  1.00  0.00     0.018 C 
ATOM      2  C   UNL     1      16.247 -31.238  16.898  1.00  0.00     0.009 C 
ATOM      3  C   UNL     1      17.158 -30.018  16.875  1.00  0.00     0.010 C 
ATOM      4  C   UNL     1      16.585 -29.025  17.906  1.00  0.00    -0.003 C 
ATOM      5  C   UNL     1      15.985 -29.963  19.001  1.00  0.00     0.008 C 
ATOM      6  C   UNL     1      14.801 -29.391  19.865  1.00  0.00    -0.000 C 
ATOM      7  C   UNL     1      15.405 -28.644  21.077  1.00  0.00     0.005 C 
ATOM      8  C   UNL     1      14.358 -28.074  22.019  1.00  0.00     0.005 C 
ATOM      9  C   UNL     1      13.444 -27.076  21.276  1.00  0.00     0.002 C 
ATOM     10  C   UNL     1      12.603 -26.100  22.251  1.00  0.00    -0.026 C 
ATOM     11  C   UNL     1      12.272 -26.778  23.620  1.00  0.00     0.010 C 
ATOM     12  C   UNL     1      11.491 -25.900  24.624  1.00  0.00     0.033 C 
ATOM     13  C   UNL     1      10.522 -24.865  24.009  1.00  0.00     0.120 C 
ATOM     14  C   UNL     1      10.032 -25.259  22.589  1.00  0.00    -0.006 C 
ATOM     15  C   UNL     1      11.269 -25.478  21.599  1.00  0.00     0.003 C 
ATOM     16  C   UNL     1      10.790 -26.091  20.249  1.00  0.00     0.005 C 
ATOM     17  C   UNL     1      11.899 -26.667  19.386  1.00  0.00     0.008 C 
ATOM     18  C   UNL     1      12.693 -27.796  20.105  1.00  0.00    -0.024 C 
ATOM     19  C   UNL     1      13.727 -28.530  19.080  1.00  0.00    -0.024 C 
ATOM     20  C   UNL     1      14.492 -27.505  18.180  1.00  0.00     0.008 C 
ATOM     21  C   UNL     1      15.510 -28.138  17.213  1.00  0.00     0.010 C 
ATOM     22  C   UNL     1      12.903 -29.471  18.135  1.00  0.00     0.012 C 
ATOM     23  C   UNL     1      11.697 -28.854  20.682  1.00  0.00     0.012 C 
ATOM     24  C   UNL     1       9.138 -24.107  22.055  1.00  0.00     0.014 C 
ATOM     25  C   UNL     1       9.099 -26.501  22.732  1.00  0.00     0.014 C 
ATOM     26  C   UNL     1      13.596 -24.930  22.575  1.00  0.00     0.012 C 
ENDROOT
BRANCH   1  27
ATOM     27  C   UNL     1      16.223 -32.502  19.132  1.00  0.00    -0.077 C 
ATOM     28  C   UNL     1      16.643 -33.768  18.427  1.00  0.00     0.039 C 
ATOM     29  C   UNL     1      16.260 -32.477  20.477  1.00  0.00     0.008 C 
ENDBRANCH   1  27
BRANCH   4  30
ATOM     30  C   UNL     1      17.731 -28.102  18.425  1.00  0.00     0.163 C 
BRANCH  30  31
ATOM     31  O   UNL     1      18.584 -27.694  17.388  1.00  0.00    -0.396 OA
ATOM     32  H   UNL     1      18.443 -26.718  17.282  1.00  0.00     0.210 HD
ENDBRANCH  30  31
ENDBRANCH   4  30
BRANCH  13  33
ATOM     33  O   UNL     1      11.103 -23.584  23.990  1.00  0.00    -0.393 OA
ATOM     34  H   UNL     1      11.198 -23.321  23.036  1.00  0.00     0.210 HD
ENDBRANCH  13  33
TORSDOF 4
ENDMDL
MODEL 7
REMARK VINA RESULT:    -6.131      1.818      3.241
REMARK INTER + INTRA:          -7.668
REMARK INTER:                  -7.133
REMARK INTRA:                  -0.535
REMARK UNBOUND:                -0.462
REMARK SMILES C=C(C)[C@@H]1CC[C@@]2(CO)CC[C@@]3(C)[C@H](CC[C@@H]4[C@]5(C)CC[C@@H](O)C(C)(C)[C@@H]5CC[C@]43C)[C@@H]12
REMARK SMILES IDX 4 1 5 2 6 3 7 4 32 5 14 6 15 7 16 8 17 9 18 10 20 11 21 12
REMARK SMILES IDX 22 13 24 14 27 15 28 16 29 17 30 18 12 19 11 20 10 21 13 22
REMARK SMILES IDX 31 23 25 24 26 25 19 26 2 27 3 28 1 29 8 30 9 31 23 33
REMARK H PARENT 9 32 23 34
REMARK Flexibility Score: inf
ROOT
ATOM      1  C   UNL     1      16.143 -28.347  19.808  1.00  0.00     0.018 C 
ATOM      2  C   UNL     1      16.626 -29.715  20.313  1.00  0.00     0.009 C 
ATOM      3  C   UNL     1      15.443 -30.664  20.170  1.00  0.00     0.010 C 
ATOM      4  C   UNL     1      14.172 -29.806  20.326  1.00  0.00    -0.003 C 
ATOM      5  C   UNL     1      14.597 -28.435  19.711  1.00  0.00     0.008 C 
ATOM      6  C   UNL     1      13.844 -27.152  20.227  1.00  0.00    -0.000 C 
ATOM      7  C   UNL     1      12.576 -26.957  19.361  1.00  0.00     0.005 C 
ATOM      8  C   UNL     1      11.775 -25.721  19.735  1.00  0.00     0.005 C 
ATOM      9  C   UNL     1      11.317 -25.794  21.207  1.00  0.00     0.002 C 
ATOM     10  C   UNL     1      10.116 -24.778  21.575  1.00  0.00    -0.026 C 
ATOM     11  C   UNL     1      10.157 -23.478  20.708  1.00  0.00     0.010 C 
ATOM     12  C   UNL     1       9.024 -22.463  20.979  1.00  0.00     0.033 C 
ATOM     13  C   UNL     1       8.482 -22.421  22.426  1.00  0.00     0.120 C 
ATOM     14  C   UNL     1       9.513 -22.920  23.476  1.00  0.00    -0.006 C 
ATOM     15  C   UNL     1      10.000 -24.405  23.137  1.00  0.00     0.003 C 
ATOM     16  C   UNL     1      11.193 -24.813  24.052  1.00  0.00     0.005 C 
ATOM     17  C   UNL     1      11.958 -26.040  23.585  1.00  0.00     0.008 C 
ATOM     18  C   UNL     1      12.558 -25.865  22.160  1.00  0.00    -0.024 C 
ATOM     19  C   UNL     1      13.544 -27.108  21.782  1.00  0.00    -0.024 C 
ATOM     20  C   UNL     1      12.937 -28.489  22.198  1.00  0.00     0.008 C 
ATOM     21  C   UNL     1      13.808 -29.705  21.836  1.00  0.00     0.010 C 
ATOM     22  C   UNL     1      14.892 -26.926  22.562  1.00  0.00     0.012 C 
ATOM     23  C   UNL     1      13.362 -24.527  22.088  1.00  0.00     0.012 C 
ATOM     24  C   UNL     1       8.822 -22.905  24.866  1.00  0.00     0.014 C 
ATOM     25  C   UNL     1      10.664 -21.870  23.553  1.00  0.00     0.014 C 
ATOM     26  C   UNL     1       8.817 -25.545  21.145  1.00  0.00     0.012 C 
ENDROOT
BRANCH   1  27
ATOM     27  C   UNL     1      16.775 -27.924  18.481  1.00  0.00    -0.077 C 
ATOM     28  C   UNL     1      15.908 -27.360  17.382  1.00  0.00     0.039 C 
ATOM     29  C   UNL     1      18.082 -28.120  18.226  1.00  0.00     0.008 C 
ENDBRANCH   1  27
BRANCH   4  30
ATOM     30  C   UNL     1      12.991 -30.495  19.575  1.00  0.00     0.163 C 
BRANCH  30  31
ATOM     31  O   UNL     1      13.076 -30.312  18.186  1.00  0.00    -0.396 OA
ATOM     32  H   UNL     1      14.026 -30.100  17.993  1.00  0.00     0.210 HD
ENDBRANCH  30  31
ENDBRANCH   4  30
BRANCH  13  33
ATOM     33  O   UNL     1       7.282 -23.148  22.533  1.00  0.00    -0.393 OA
ATOM     34  H   UNL     1       6.687 -22.838  21.799  1.00  0.00     0.210 HD
ENDBRANCH  13  33
TORSDOF 4
ENDMDL
MODEL 8
REMARK VINA RESULT:    -6.050      3.929      7.694
REMARK INTER + INTRA:          -7.573
REMARK INTER:                  -7.120
REMARK INTRA:                  -0.453
REMARK UNBOUND:                -0.462
REMARK SMILES C=C(C)[C@@H]1CC[C@@]2(CO)CC[C@@]3(C)[C@H](CC[C@@H]4[C@]5(C)CC[C@@H](O)C(C)(C)[C@@H]5CC[C@]43C)[C@@H]12
REMARK SMILES IDX 4 1 5 2 6 3 7 4 32 5 14 6 15 7 16 8 17 9 18 10 20 11 21 12
REMARK SMILES IDX 22 13 24 14 27 15 28 16 29 17 30 18 12 19 11 20 10 21 13 22
REMARK SMILES IDX 31 23 25 24 26 25 19 26 2 27 3 28 1 29 8 30 9 31 23 33
REMARK H PARENT 9 32 23 34
REMARK Flexibility Score: inf
ROOT
ATOM      1  C   UNL     1      12.102 -25.222  22.111  1.00  0.00     0.018 C 
ATOM      2  C   UNL     1      11.429 -23.983  21.504  1.00  0.00     0.009 C 
ATOM      3  C   UNL     1      10.396 -23.517  22.522  1.00  0.00     0.010 C 
ATOM      4  C   UNL     1       9.931 -24.776  23.282  1.00  0.00    -0.003 C 
ATOM      5  C   UNL     1      11.215 -25.664  23.305  1.00  0.00     0.008 C 
ATOM      6  C   UNL     1      11.008 -27.221  23.414  1.00  0.00    -0.000 C 
ATOM      7  C   UNL     1      10.927 -27.593  24.914  1.00  0.00     0.005 C 
ATOM      8  C   UNL     1      10.766 -29.083  25.159  1.00  0.00     0.005 C 
ATOM      9  C   UNL     1       9.479 -29.609  24.487  1.00  0.00     0.002 C 
ATOM     10  C   UNL     1       8.986 -31.045  25.040  1.00  0.00    -0.026 C 
ATOM     11  C   UNL     1      10.180 -31.933  25.519  1.00  0.00     0.010 C 
ATOM     12  C   UNL     1       9.791 -33.316  26.089  1.00  0.00     0.033 C 
ATOM     13  C   UNL     1       8.524 -33.966  25.488  1.00  0.00     0.120 C 
ATOM     14  C   UNL     1       8.204 -33.463  24.054  1.00  0.00    -0.006 C 
ATOM     15  C   UNL     1       8.045 -31.872  24.029  1.00  0.00     0.003 C 
ATOM     16  C   UNL     1       7.952 -31.352  22.563  1.00  0.00     0.005 C 
ATOM     17  C   UNL     1       8.158 -29.855  22.408  1.00  0.00     0.008 C 
ATOM     18  C   UNL     1       9.543 -29.383  22.939  1.00  0.00    -0.024 C 
ATOM     19  C   UNL     1       9.812 -27.819  22.563  1.00  0.00    -0.024 C 
ATOM     20  C   UNL     1       8.550 -26.928  22.808  1.00  0.00     0.008 C 
ATOM     21  C   UNL     1       8.754 -25.433  22.504  1.00  0.00     0.010 C 
ATOM     22  C   UNL     1      10.169 -27.729  21.039  1.00  0.00     0.012 C 
ATOM     23  C   UNL     1      10.674 -30.266  22.317  1.00  0.00     0.012 C 
ATOM     24  C   UNL     1       6.875 -34.125  23.601  1.00  0.00     0.014 C 
ATOM     25  C   UNL     1       9.309 -34.010  23.097  1.00  0.00     0.014 C 
ATOM     26  C   UNL     1       8.159 -30.699  26.327  1.00  0.00     0.012 C 
ENDROOT
BRANCH   1  27
ATOM     27  C   UNL     1      13.553 -24.988  22.535  1.00  0.00    -0.077 C 
ATOM     28  C   UNL     1      14.633 -25.935  22.072  1.00  0.00     0.039 C 
ATOM     29  C   UNL     1      13.891 -24.003  23.388  1.00  0.00     0.008 C 
ENDBRANCH   1  27
BRANCH   4  30
ATOM     30  C   UNL     1       9.423 -24.364  24.698  1.00  0.00     0.163 C 
BRANCH  30  31
ATOM     31  O   UNL     1       8.600 -23.228  24.648  1.00  0.00    -0.396 OA
ATOM     32  H   UNL     1       9.204 -22.456  24.494  1.00  0.00     0.210 HD
ENDBRANCH  30  31
ENDBRANCH   4  30
BRANCH  13  33
ATOM     33  O   UNL     1       7.415 -33.777  26.333  1.00  0.00    -0.393 OA
ATOM     34  H   UNL     1       7.736 -33.273  27.128  1.00  0.00     0.210 HD
ENDBRANCH  13  33
TORSDOF 4
ENDMDL
MODEL 9
REMARK VINA RESULT:    -5.911      2.420      3.678
REMARK INTER + INTRA:          -7.409
REMARK INTER:                  -6.902
REMARK INTRA:                  -0.507
REMARK UNBOUND:                -0.462
REMARK SMILES C=C(C)[C@@H]1CC[C@@]2(CO)CC[C@@]3(C)[C@H](CC[C@@H]4[C@]5(C)CC[C@@H](O)C(C)(C)[C@@H]5CC[C@]43C)[C@@H]12
REMARK SMILES IDX 4 1 5 2 6 3 7 4 32 5 14 6 15 7 16 8 17 9 18 10 20 11 21 12
REMARK SMILES IDX 22 13 24 14 27 15 28 16 29 17 30 18 12 19 11 20 10 21 13 22
REMARK SMILES IDX 31 23 25 24 26 25 19 26 2 27 3 28 1 29 8 30 9 31 23 33
REMARK H PARENT 9 32 23 34
REMARK Flexibility Score: inf
ROOT
ATOM      1  C   UNL     1      14.803 -27.346  18.872  1.00  0.00     0.018 C 
ATOM      2  C   UNL     1      16.260 -27.793  18.682  1.00  0.00     0.009 C 
ATOM      3  C   UNL     1      16.291 -29.287  18.977  1.00  0.00     0.010 C 
ATOM      4  C   UNL     1      15.169 -29.554  20.001  1.00  0.00    -0.003 C 
ATOM      5  C   UNL     1      14.081 -28.504  19.611  1.00  0.00     0.008 C 
ATOM      6  C   UNL     1      13.100 -28.031  20.748  1.00  0.00    -0.000 C 
ATOM      7  C   UNL     1      11.902 -29.009  20.788  1.00  0.00     0.005 C 
ATOM      8  C   UNL     1      10.855 -28.639  21.824  1.00  0.00     0.005 C 
ATOM      9  C   UNL     1      11.473 -28.616  23.239  1.00  0.00     0.002 C 
ATOM     10  C   UNL     1      10.388 -28.672  24.434  1.00  0.00    -0.026 C 
ATOM     11  C   UNL     1       9.034 -28.003  24.032  1.00  0.00     0.010 C 
ATOM     12  C   UNL     1       7.929 -28.038  25.113  1.00  0.00     0.033 C 
ATOM     13  C   UNL     1       8.414 -28.002  26.580  1.00  0.00     0.120 C 
ATOM     14  C   UNL     1       9.812 -27.343  26.743  1.00  0.00    -0.006 C 
ATOM     15  C   UNL     1      10.903 -28.088  25.843  1.00  0.00     0.003 C 
ATOM     16  C   UNL     1      12.242 -27.291  25.831  1.00  0.00     0.005 C 
ATOM     17  C   UNL     1      13.216 -27.705  24.742  1.00  0.00     0.008 C 
ATOM     18  C   UNL     1      12.618 -27.550  23.313  1.00  0.00    -0.024 C 
ATOM     19  C   UNL     1      13.756 -27.798  22.172  1.00  0.00    -0.024 C 
ATOM     20  C   UNL     1      14.659 -29.033  22.497  1.00  0.00     0.008 C 
ATOM     21  C   UNL     1      15.732 -29.338  21.437  1.00  0.00     0.010 C 
ATOM     22  C   UNL     1      14.681 -26.534  22.112  1.00  0.00     0.012 C 
ATOM     23  C   UNL     1      12.021 -26.114  23.146  1.00  0.00     0.012 C 
ATOM     24  C   UNL     1      10.215 -27.444  28.239  1.00  0.00     0.014 C 
ATOM     25  C   UNL     1       9.660 -25.821  26.436  1.00  0.00     0.014 C 
ATOM     26  C   UNL     1      10.082 -30.201  24.605  1.00  0.00     0.012 C 
ENDROOT
BRANCH   1  27
ATOM     27  C   UNL     1      14.098 -26.976  17.566  1.00  0.00    -0.077 C 
ATOM     28  C   UNL     1      13.077 -27.914  16.971  1.00  0.00     0.039 C 
ATOM     29  C   UNL     1      14.425 -25.867  16.875  1.00  0.00     0.008 C 
ENDBRANCH   1  27
BRANCH   4  30
ATOM     30  C   UNL     1      14.694 -31.034  19.870  1.00  0.00     0.163 C 
BRANCH  30  31
ATOM     31  O   UNL     1      15.724 -31.877  19.426  1.00  0.00    -0.396 OA
ATOM     32  H   UNL     1      15.302 -32.524  18.803  1.00  0.00     0.210 HD
ENDBRANCH  30  31
ENDBRANCH   4  30
BRANCH  13  33
ATOM     33  O   UNL     1       8.413 -29.293  27.139  1.00  0.00    -0.393 OA
ATOM     34  H   UNL     1       8.538 -29.187  28.120  1.00  0.00     0.210 HD
ENDBRANCH  13  33
TORSDOF 4
ENDMDL
