MODEL 1
REMARK VINA RESULT:     0.377      0.000      0.000
REMARK INTER + INTRA:           0.132
REMARK INTER:                   0.399
REMARK INTRA:                  -0.267
REMARK UNBOUND:                -0.267
REMARK SMILES CC(C)[C@H]1CC[C@@H](C)[C@@H]2C=C[C@@H](C)C[C@H]21
REMARK SMILES IDX 8 1 7 2 6 3 5 4 4 5 15 6 9 7 10 8 11 9 12 10 14 11 13 12
REMARK SMILES IDX 2 13 1 14 3 15
REMARK H PARENT
REMARK Flexibility Score: inf
ROOT
ATOM      1  C   UNL     1     147.915 145.017 134.125  1.00  0.00     0.008 C 
ATOM      2  C   UNL     1     146.594 144.379 133.656  1.00  0.00    -0.007 C 
ATOM      3  C   UNL     1     146.900 143.281 132.595  1.00  0.00     0.004 C 
ATOM      4  C   UNL     1     145.780 143.084 131.549  1.00  0.00     0.004 C 
ATOM      5  C   UNL     1     144.387 143.282 132.179  1.00  0.00    -0.005 C 
ATOM      6  C   UNL     1     144.221 144.731 132.771  1.00  0.00    -0.000 C 
ATOM      7  C   UNL     1     145.588 145.408 133.080  1.00  0.00     0.018 C 
ATOM      8  C   UNL     1     145.342 146.633 133.935  1.00  0.00    -0.027 C 
ATOM      9  C   UNL     1     144.272 147.418 133.718  1.00  0.00    -0.028 C 
ATOM     10  C   UNL     1     143.134 147.034 132.783  1.00  0.00     0.008 C 
ATOM     11  C   UNL     1     143.407 145.756 131.946  1.00  0.00     0.012 C 
ATOM     12  C   UNL     1     142.783 148.213 131.872  1.00  0.00     0.012 C 
ENDROOT
BRANCH   5  13
ATOM     13  C   UNL     1     143.210 142.756 131.289  1.00  0.00    -0.014 C 
ATOM     14  C   UNL     1     142.446 141.617 131.987  1.00  0.00     0.007 C 
ATOM     15  C   UNL     1     143.647 142.288 129.888  1.00  0.00     0.007 C 
ENDBRANCH   5  13
TORSDOF 1
ENDMDL
MODEL 2
REMARK VINA RESULT:     0.849      1.713      3.651
REMARK INTER + INTRA:           0.632
REMARK INTER:                   0.250
REMARK INTRA:                   0.382
REMARK UNBOUND:                -0.267
REMARK SMILES CC(C)[C@H]1CC[C@@H](C)[C@@H]2C=C[C@@H](C)C[C@H]21
REMARK SMILES IDX 8 1 7 2 6 3 5 4 4 5 15 6 9 7 10 8 11 9 12 10 14 11 13 12
REMARK SMILES IDX 2 13 1 14 3 15
REMARK H PARENT
REMARK Flexibility Score: inf
ROOT
ATOM      1  C   UNL     1     146.177 142.390 133.389  1.00  0.00     0.008 C 
ATOM      2  C   UNL     1     145.246 143.611 133.275  1.00  0.00    -0.007 C 
ATOM      3  C   UNL     1     144.003 143.234 132.416  1.00  0.00     0.004 C 
ATOM      4  C   UNL     1     143.400 144.416 131.624  1.00  0.00     0.004 C 
ATOM      5  C   UNL     1     143.506 145.732 132.420  1.00  0.00    -0.005 C 
ATOM      6  C   UNL     1     145.005 146.099 132.733  1.00  0.00    -0.000 C 
ATOM      7  C   UNL     1     145.945 144.859 132.678  1.00  0.00     0.018 C 
ATOM      8  C   UNL     1     147.273 145.229 133.303  1.00  0.00    -0.027 C 
ATOM      9  C   UNL     1     147.807 146.448 133.111  1.00  0.00    -0.028 C 
ATOM     10  C   UNL     1     147.046 147.597 132.467  1.00  0.00     0.008 C 
ATOM     11  C   UNL     1     145.674 147.190 131.866  1.00  0.00     0.012 C 
ATOM     12  C   UNL     1     147.920 148.279 131.411  1.00  0.00     0.012 C 
ENDROOT
BRANCH   5  13
ATOM     13  C   UNL     1     142.612 146.888 131.853  1.00  0.00    -0.014 C 
ATOM     14  C   UNL     1     142.674 146.941 130.317  1.00  0.00     0.007 C 
ATOM     15  C   UNL     1     142.955 148.278 132.422  1.00  0.00     0.007 C 
ENDBRANCH   5  13
TORSDOF 1
ENDMDL
MODEL 3
REMARK VINA RESULT:     0.981      1.548      4.109
REMARK INTER + INTRA:           0.772
REMARK INTER:                   0.409
REMARK INTRA:                   0.362
REMARK UNBOUND:                -0.267
REMARK SMILES CC(C)[C@H]1CC[C@@H](C)[C@@H]2C=C[C@@H](C)C[C@H]21
REMARK SMILES IDX 8 1 7 2 6 3 5 4 4 5 15 6 9 7 10 8 11 9 12 10 14 11 13 12
REMARK SMILES IDX 2 13 1 14 3 15
REMARK H PARENT
REMARK Flexibility Score: inf
ROOT
ATOM      1  C   UNL     1     144.109 148.359 132.989  1.00  0.00     0.008 C 
ATOM      2  C   UNL     1     145.132 147.208 132.954  1.00  0.00    -0.007 C 
ATOM      3  C   UNL     1     146.371 147.645 132.117  1.00  0.00     0.004 C 
ATOM      4  C   UNL     1     147.086 146.483 131.393  1.00  0.00     0.004 C 
ATOM      5  C   UNL     1     147.053 145.194 132.239  1.00  0.00    -0.005 C 
ATOM      6  C   UNL     1     145.577 144.727 132.522  1.00  0.00    -0.000 C 
ATOM      7  C   UNL     1     144.548 145.888 132.387  1.00  0.00     0.018 C 
ATOM      8  C   UNL     1     143.232 145.443 132.987  1.00  0.00    -0.027 C 
ATOM      9  C   UNL     1     142.797 144.181 132.830  1.00  0.00    -0.028 C 
ATOM     10  C   UNL     1     143.663 143.068 132.257  1.00  0.00     0.008 C 
ATOM     11  C   UNL     1     145.020 143.555 131.681  1.00  0.00     0.012 C 
ATOM     12  C   UNL     1     142.878 142.282 131.204  1.00  0.00     0.012 C 
ENDROOT
BRANCH   5  13
ATOM     13  C   UNL     1     148.049 144.089 131.748  1.00  0.00    -0.014 C 
ATOM     14  C   UNL     1     147.988 143.920 130.220  1.00  0.00     0.007 C 
ATOM     15  C   UNL     1     147.841 142.718 132.417  1.00  0.00     0.007 C 
ENDBRANCH   5  13
TORSDOF 1
ENDMDL
MODEL 4
REMARK VINA RESULT:     1.212      2.207      4.268
REMARK INTER + INTRA:           1.016
REMARK INTER:                   1.187
REMARK INTRA:                  -0.171
REMARK UNBOUND:                -0.267
REMARK SMILES CC(C)[C@H]1CC[C@@H](C)[C@@H]2C=C[C@@H](C)C[C@H]21
REMARK SMILES IDX 8 1 7 2 6 3 5 4 4 5 15 6 9 7 10 8 11 9 12 10 14 11 13 12
REMARK SMILES IDX 2 13 1 14 3 15
REMARK H PARENT
REMARK Flexibility Score: inf
ROOT
ATOM      1  C   UNL     1     146.005 142.819 133.561  1.00  0.00     0.008 C 
ATOM      2  C   UNL     1     146.381 144.090 132.776  1.00  0.00    -0.007 C 
ATOM      3  C   UNL     1     147.650 144.732 133.411  1.00  0.00     0.004 C 
ATOM      4  C   UNL     1     147.721 146.268 133.263  1.00  0.00     0.004 C 
ATOM      5  C   UNL     1     147.130 146.727 131.915  1.00  0.00    -0.005 C 
ATOM      6  C   UNL     1     145.616 146.318 131.780  1.00  0.00    -0.000 C 
ATOM      7  C   UNL     1     145.234 145.132 132.713  1.00  0.00     0.018 C 
ATOM      8  C   UNL     1     143.884 144.595 132.288  1.00  0.00    -0.027 C 
ATOM      9  C   UNL     1     142.911 145.428 131.880  1.00  0.00    -0.028 C 
ATOM     10  C   UNL     1     143.145 146.905 131.598  1.00  0.00     0.008 C 
ATOM     11  C   UNL     1     144.551 147.414 132.015  1.00  0.00     0.012 C 
ATOM     12  C   UNL     1     142.047 147.746 132.255  1.00  0.00     0.012 C 
ENDROOT
BRANCH   5  13
ATOM     13  C   UNL     1     147.486 148.206 131.539  1.00  0.00    -0.014 C 
ATOM     14  C   UNL     1     147.220 148.484 130.050  1.00  0.00     0.007 C 
ATOM     15  C   UNL     1     148.935 148.605 131.878  1.00  0.00     0.007 C 
ENDBRANCH   5  13
TORSDOF 1
ENDMDL
MODEL 5
REMARK VINA RESULT:     1.319      1.324      3.780
REMARK INTER + INTRA:           1.129
REMARK INTER:                   1.315
REMARK INTRA:                  -0.186
REMARK UNBOUND:                -0.267
REMARK SMILES CC(C)[C@H]1CC[C@@H](C)[C@@H]2C=C[C@@H](C)C[C@H]21
REMARK SMILES IDX 8 1 7 2 6 3 5 4 4 5 15 6 9 7 10 8 11 9 12 10 14 11 13 12
REMARK SMILES IDX 2 13 1 14 3 15
REMARK H PARENT
REMARK Flexibility Score: inf
ROOT
ATOM      1  C   UNL     1     144.748 147.977 133.551  1.00  0.00     0.008 C 
ATOM      2  C   UNL     1     144.358 146.705 132.775  1.00  0.00    -0.007 C 
ATOM      3  C   UNL     1     143.081 146.082 133.413  1.00  0.00     0.004 C 
ATOM      4  C   UNL     1     142.992 144.547 133.276  1.00  0.00     0.004 C 
ATOM      5  C   UNL     1     143.579 144.071 131.932  1.00  0.00    -0.005 C 
ATOM      6  C   UNL     1     145.098 144.461 131.795  1.00  0.00    -0.000 C 
ATOM      7  C   UNL     1     145.493 145.650 132.720  1.00  0.00     0.018 C 
ATOM      8  C   UNL     1     146.850 146.167 132.293  1.00  0.00    -0.027 C 
ATOM      9  C   UNL     1     147.813 145.320 131.892  1.00  0.00    -0.028 C 
ATOM     10  C   UNL     1     147.562 143.844 131.620  1.00  0.00     0.008 C 
ATOM     11  C   UNL     1     146.150 143.354 132.039  1.00  0.00     0.012 C 
ATOM     12  C   UNL     1     148.649 142.995 132.285  1.00  0.00     0.012 C 
ENDROOT
BRANCH   5  13
ATOM     13  C   UNL     1     143.206 142.594 131.566  1.00  0.00    -0.014 C 
ATOM     14  C   UNL     1     143.438 142.311 130.071  1.00  0.00     0.007 C 
ATOM     15  C   UNL     1     141.762 142.204 131.936  1.00  0.00     0.007 C 
ENDBRANCH   5  13
TORSDOF 1
ENDMDL
MODEL 6
REMARK VINA RESULT:     1.378      1.011      4.235
REMARK INTER + INTRA:           1.192
REMARK INTER:                   1.344
REMARK INTRA:                  -0.152
REMARK UNBOUND:                -0.267
REMARK SMILES CC(C)[C@H]1CC[C@@H](C)[C@@H]2C=C[C@@H](C)C[C@H]21
REMARK SMILES IDX 8 1 7 2 6 3 5 4 4 5 15 6 9 7 10 8 11 9 12 10 14 11 13 12
REMARK SMILES IDX 2 13 1 14 3 15
REMARK H PARENT
REMARK Flexibility Score: inf
ROOT
ATOM      1  C   UNL     1     147.635 145.764 134.120  1.00  0.00     0.008 C 
ATOM      2  C   UNL     1     146.473 146.209 133.213  1.00  0.00    -0.007 C 
ATOM      3  C   UNL     1     145.745 147.421 133.866  1.00  0.00     0.004 C 
ATOM      4  C   UNL     1     144.240 147.510 133.528  1.00  0.00     0.004 C 
ATOM      5  C   UNL     1     143.963 147.037 132.087  1.00  0.00    -0.005 C 
ATOM      6  C   UNL     1     144.398 145.539 131.877  1.00  0.00    -0.000 C 
ATOM      7  C   UNL     1     145.458 145.075 132.919  1.00  0.00     0.018 C 
ATOM      8  C   UNL     1     146.055 143.765 132.454  1.00  0.00    -0.027 C 
ATOM      9  C   UNL     1     145.289 142.833 131.861  1.00  0.00    -0.028 C 
ATOM     10  C   UNL     1     143.858 143.094 131.411  1.00  0.00     0.008 C 
ATOM     11  C   UNL     1     143.289 144.461 131.877  1.00  0.00     0.012 C 
ATOM     12  C   UNL     1     142.950 141.947 131.860  1.00  0.00     0.012 C 
ENDROOT
BRANCH   5  13
ATOM     13  C   UNL     1     142.541 147.428 131.556  1.00  0.00    -0.014 C 
ATOM     14  C   UNL     1     142.446 147.253 130.030  1.00  0.00     0.007 C 
ATOM     15  C   UNL     1     142.108 148.859 131.928  1.00  0.00     0.007 C 
ENDBRANCH   5  13
TORSDOF 1
ENDMDL
MODEL 7
REMARK VINA RESULT:     1.381      2.078      3.755
REMARK INTER + INTRA:           1.195
REMARK INTER:                   1.358
REMARK INTRA:                  -0.163
REMARK UNBOUND:                -0.267
REMARK SMILES CC(C)[C@H]1CC[C@@H](C)[C@@H]2C=C[C@@H](C)C[C@H]21
REMARK SMILES IDX 8 1 7 2 6 3 5 4 4 5 15 6 9 7 10 8 11 9 12 10 14 11 13 12
REMARK SMILES IDX 2 13 1 14 3 15
REMARK H PARENT
REMARK Flexibility Score: inf
ROOT
ATOM      1  C   UNL     1     143.095 145.001 134.125  1.00  0.00     0.008 C 
ATOM      2  C   UNL     1     144.254 144.557 133.213  1.00  0.00    -0.007 C 
ATOM      3  C   UNL     1     144.977 143.336 133.854  1.00  0.00     0.004 C 
ATOM      4  C   UNL     1     146.481 143.242 133.513  1.00  0.00     0.004 C 
ATOM      5  C   UNL     1     146.758 143.726 132.075  1.00  0.00    -0.005 C 
ATOM      6  C   UNL     1     146.331 145.228 131.879  1.00  0.00    -0.000 C 
ATOM      7  C   UNL     1     145.275 145.689 132.927  1.00  0.00     0.018 C 
ATOM      8  C   UNL     1     144.684 147.006 132.473  1.00  0.00    -0.027 C 
ATOM      9  C   UNL     1     145.454 147.939 131.887  1.00  0.00    -0.028 C 
ATOM     10  C   UNL     1     146.882 147.674 131.433  1.00  0.00     0.008 C 
ATOM     11  C   UNL     1     147.445 146.300 131.887  1.00  0.00     0.012 C 
ATOM     12  C   UNL     1     147.798 148.812 131.890  1.00  0.00     0.012 C 
ENDROOT
BRANCH   5  13
ATOM     13  C   UNL     1     148.177 143.332 131.538  1.00  0.00    -0.014 C 
ATOM     14  C   UNL     1     148.262 143.495 130.011  1.00  0.00     0.007 C 
ATOM     15  C   UNL     1     148.615 141.905 131.920  1.00  0.00     0.007 C 
ENDBRANCH   5  13
TORSDOF 1
ENDMDL
MODEL 8
REMARK VINA RESULT:     1.922      2.258      3.554
REMARK INTER + INTRA:           1.768
REMARK INTER:                   1.149
REMARK INTRA:                   0.619
REMARK UNBOUND:                -0.267
REMARK SMILES CC(C)[C@H]1CC[C@@H](C)[C@@H]2C=C[C@@H](C)C[C@H]21
REMARK SMILES IDX 8 1 7 2 6 3 5 4 4 5 15 6 9 7 10 8 11 9 12 10 14 11 13 12
REMARK SMILES IDX 2 13 1 14 3 15
REMARK H PARENT
REMARK Flexibility Score: inf
ROOT
ATOM      1  C   UNL     1     145.643 145.866 128.021  1.00  0.00     0.008 C 
ATOM      2  C   UNL     1     145.731 145.123 129.368  1.00  0.00    -0.007 C 
ATOM      3  C   UNL     1     144.632 144.021 129.422  1.00  0.00     0.004 C 
ATOM      4  C   UNL     1     144.112 143.718 130.844  1.00  0.00     0.004 C 
ATOM      5  C   UNL     1     145.242 143.833 131.888  1.00  0.00    -0.005 C 
ATOM      6  C   UNL     1     145.855 145.282 131.917  1.00  0.00    -0.000 C 
ATOM      7  C   UNL     1     145.602 146.063 130.594  1.00  0.00     0.018 C 
ATOM      8  C   UNL     1     146.489 147.289 130.577  1.00  0.00    -0.027 C 
ATOM      9  C   UNL     1     146.714 147.990 131.702  1.00  0.00    -0.028 C 
ATOM     10  C   UNL     1     146.303 147.501 133.083  1.00  0.00     0.008 C 
ATOM     11  C   UNL     1     145.423 146.223 133.065  1.00  0.00     0.012 C 
ATOM     12  C   UNL     1     145.609 148.627 133.853  1.00  0.00     0.012 C 
ENDROOT
BRANCH   5  13
ATOM     13  C   UNL     1     144.887 143.201 133.277  1.00  0.00    -0.014 C 
ATOM     14  C   UNL     1     143.974 144.129 134.098  1.00  0.00     0.007 C 
ATOM     15  C   UNL     1     146.117 142.822 134.124  1.00  0.00     0.007 C 
ENDBRANCH   5  13
TORSDOF 1
ENDMDL
