MODEL 1
REMARK VINA RESULT:    -4.263      0.000      0.000
REMARK INTER + INTRA:          -5.145
REMARK INTER:                  -4.887
REMARK INTRA:                  -0.258
REMARK UNBOUND:                -0.258
REMARK SMILES CC=Cc1ccc(O)c(OC)c1
REMARK SMILES IDX 4 1 12 2 9 3 7 4 6 5 5 6 3 7 1 8 2 9 10 10 11 11 8 12
REMARK H PARENT 8 13
REMARK Flexibility Score: inf
ROOT
ATOM      1  C   UNL     1      39.974 -40.805  -5.339  1.00  0.00    -0.022 A 
ATOM      2  C   UNL     1      39.420 -39.892  -6.249  1.00  0.00     0.058 A 
ATOM      3  C   UNL     1      38.168 -39.297  -5.997  1.00  0.00     0.161 A 
ATOM      4  C   UNL     1      37.466 -39.644  -4.828  1.00  0.00     0.157 A 
ATOM      5  C   UNL     1      38.007 -40.575  -3.937  1.00  0.00     0.051 A 
ATOM      6  C   UNL     1      39.248 -41.161  -4.193  1.00  0.00     0.012 A 
ENDROOT
BRANCH   1   7
ATOM      7  C   UNL     1      41.277 -41.431  -5.649  1.00  0.00     0.003 C 
ATOM      8  C   UNL     1      42.628 -39.758  -4.356  1.00  0.00     0.035 C 
ATOM      9  C   UNL     1      42.458 -40.987  -5.199  1.00  0.00    -0.030 C 
ENDBRANCH   1   7
BRANCH   3  10
ATOM     10  O   UNL     1      37.596 -38.367  -6.880  1.00  0.00    -0.493 OA
ATOM     11  C   UNL     1      37.021 -38.696  -8.140  1.00  0.00     0.278 C 
ENDBRANCH   3  10
BRANCH   4  12
ATOM     12  O   UNL     1      36.224 -39.078  -4.538  1.00  0.00    -0.504 OA
ATOM     13  H   UNL     1      35.886 -38.975  -3.589  1.00  0.00     0.293 HD
ENDBRANCH   4  12
TORSDOF 3
ENDMDL
MODEL 2
REMARK VINA RESULT:    -4.262      4.374      5.912
REMARK INTER + INTRA:          -5.143
REMARK INTER:                  -4.933
REMARK INTRA:                  -0.210
REMARK UNBOUND:                -0.258
REMARK SMILES CC=Cc1ccc(O)c(OC)c1
REMARK SMILES IDX 4 1 12 2 9 3 7 4 6 5 5 6 3 7 1 8 2 9 10 10 11 11 8 12
REMARK H PARENT 8 13
REMARK Flexibility Score: inf
ROOT
ATOM      1  C   UNL     1      41.978 -39.845  -3.966  1.00  0.00    -0.022 A 
ATOM      2  C   UNL     1      42.239 -40.298  -2.664  1.00  0.00     0.058 A 
ATOM      3  C   UNL     1      42.748 -39.420  -1.687  1.00  0.00     0.161 A 
ATOM      4  C   UNL     1      43.011 -38.082  -2.036  1.00  0.00     0.157 A 
ATOM      5  C   UNL     1      42.776 -37.641  -3.341  1.00  0.00     0.051 A 
ATOM      6  C   UNL     1      42.273 -38.516  -4.304  1.00  0.00     0.012 A 
ENDROOT
BRANCH   1   7
ATOM      7  C   UNL     1      41.471 -40.800  -4.973  1.00  0.00     0.003 C 
ATOM      8  C   UNL     1      43.743 -41.626  -5.645  1.00  0.00     0.035 C 
ATOM      9  C   UNL     1      42.244 -41.611  -5.707  1.00  0.00    -0.030 C 
ENDBRANCH   1   7
BRANCH   3  10
ATOM     10  O   UNL     1      43.003 -39.839  -0.371  1.00  0.00    -0.493 OA
ATOM     11  C   UNL     1      43.398 -41.158  -0.005  1.00  0.00     0.278 C 
ENDBRANCH   3  10
BRANCH   4  12
ATOM     12  O   UNL     1      43.514 -37.178  -1.099  1.00  0.00    -0.504 OA
ATOM     13  H   UNL     1      43.151 -36.237  -1.008  1.00  0.00     0.293 HD
ENDBRANCH   4  12
TORSDOF 3
ENDMDL
MODEL 3
REMARK VINA RESULT:    -4.224      4.224      5.233
REMARK INTER + INTRA:          -5.099
REMARK INTER:                  -4.844
REMARK INTRA:                  -0.255
REMARK UNBOUND:                -0.258
REMARK SMILES CC=Cc1ccc(O)c(OC)c1
REMARK SMILES IDX 4 1 12 2 9 3 7 4 6 5 5 6 3 7 1 8 2 9 10 10 11 11 8 12
REMARK H PARENT 8 13
REMARK Flexibility Score: inf
ROOT
ATOM      1  C   UNL     1      42.087 -39.910  -3.826  1.00  0.00    -0.022 A 
ATOM      2  C   UNL     1      42.553 -38.609  -4.065  1.00  0.00     0.058 A 
ATOM      3  C   UNL     1      42.982 -37.793  -2.999  1.00  0.00     0.161 A 
ATOM      4  C   UNL     1      42.918 -38.291  -1.685  1.00  0.00     0.157 A 
ATOM      5  C   UNL     1      42.426 -39.577  -1.447  1.00  0.00     0.051 A 
ATOM      6  C   UNL     1      42.004 -40.380  -2.507  1.00  0.00     0.012 A 
ENDROOT
BRANCH   1   7
ATOM      7  C   UNL     1      41.621 -40.729  -4.965  1.00  0.00     0.003 C 
ATOM      8  C   UNL     1      43.850 -41.805  -5.379  1.00  0.00     0.035 C 
ATOM      9  C   UNL     1      42.390 -41.589  -5.646  1.00  0.00    -0.030 C 
ENDBRANCH   1   7
BRANCH   3  10
ATOM     10  O   UNL     1      43.469 -36.493  -3.209  1.00  0.00    -0.493 OA
ATOM     11  C   UNL     1      42.682 -35.398  -3.666  1.00  0.00     0.278 C 
ENDBRANCH   3  10
BRANCH   4  12
ATOM     12  O   UNL     1      43.332 -37.517  -0.600  1.00  0.00    -0.504 OA
ATOM     13  H   UNL     1      42.680 -37.154   0.085  1.00  0.00     0.293 HD
ENDBRANCH   4  12
TORSDOF 3
ENDMDL
MODEL 4
REMARK VINA RESULT:    -4.035      2.190      3.848
REMARK INTER + INTRA:          -4.883
REMARK INTER:                  -4.983
REMARK INTRA:                   0.099
REMARK UNBOUND:                -0.258
REMARK SMILES CC=Cc1ccc(O)c(OC)c1
REMARK SMILES IDX 4 1 12 2 9 3 7 4 6 5 5 6 3 7 1 8 2 9 10 10 11 11 8 12
REMARK H PARENT 8 13
REMARK Flexibility Score: inf
ROOT
ATOM      1  C   UNL     1      41.577 -40.567  -4.431  1.00  0.00    -0.022 A 
ATOM      2  C   UNL     1      41.149 -40.535  -3.096  1.00  0.00     0.058 A 
ATOM      3  C   UNL     1      39.779 -40.620  -2.779  1.00  0.00     0.161 A 
ATOM      4  C   UNL     1      38.838 -40.716  -3.821  1.00  0.00     0.157 A 
ATOM      5  C   UNL     1      39.265 -40.719  -5.152  1.00  0.00     0.051 A 
ATOM      6  C   UNL     1      40.625 -40.635  -5.458  1.00  0.00     0.012 A 
ENDROOT
BRANCH   1   7
ATOM      7  C   UNL     1      43.021 -40.450  -4.728  1.00  0.00     0.003 C 
ATOM      8  C   UNL     1      43.079 -42.421  -6.279  1.00  0.00     0.035 C 
ATOM      9  C   UNL     1      43.691 -41.254  -5.564  1.00  0.00    -0.030 C 
ENDBRANCH   1   7
BRANCH   3  10
ATOM     10  O   UNL     1      39.320 -40.608  -1.451  1.00  0.00    -0.493 OA
ATOM     11  C   UNL     1      39.757 -41.507  -0.437  1.00  0.00     0.278 C 
ENDBRANCH   3  10
BRANCH   4  12
ATOM     12  O   UNL     1      37.471 -40.802  -3.552  1.00  0.00    -0.504 OA
ATOM     13  H   UNL     1      36.773 -40.421  -4.180  1.00  0.00     0.293 HD
ENDBRANCH   4  12
TORSDOF 3
ENDMDL
MODEL 5
REMARK VINA RESULT:    -3.875      3.011      4.877
REMARK INTER + INTRA:          -4.699
REMARK INTER:                  -4.494
REMARK INTRA:                  -0.206
REMARK UNBOUND:                -0.258
REMARK SMILES CC=Cc1ccc(O)c(OC)c1
REMARK SMILES IDX 4 1 12 2 9 3 7 4 6 5 5 6 3 7 1 8 2 9 10 10 11 11 8 12
REMARK H PARENT 8 13
REMARK Flexibility Score: inf
ROOT
ATOM      1  C   UNL     1      39.578 -39.737  -4.897  1.00  0.00    -0.022 A 
ATOM      2  C   UNL     1      40.656 -40.631  -4.960  1.00  0.00     0.058 A 
ATOM      3  C   UNL     1      41.939 -40.240  -4.526  1.00  0.00     0.161 A 
ATOM      4  C   UNL     1      42.133 -38.932  -4.047  1.00  0.00     0.157 A 
ATOM      5  C   UNL     1      41.062 -38.034  -4.013  1.00  0.00     0.051 A 
ATOM      6  C   UNL     1      39.794 -38.428  -4.444  1.00  0.00     0.012 A 
ENDROOT
BRANCH   1   7
ATOM      7  C   UNL     1      38.252 -40.172  -5.386  1.00  0.00     0.003 C 
ATOM      8  C   UNL     1      38.507 -39.124  -7.652  1.00  0.00     0.035 C 
ATOM      9  C   UNL     1      37.777 -39.924  -6.614  1.00  0.00    -0.030 C 
ENDBRANCH   1   7
BRANCH   3  10
ATOM     10  O   UNL     1      43.035 -41.118  -4.560  1.00  0.00    -0.493 OA
ATOM     11  C   UNL     1      43.505 -41.779  -5.731  1.00  0.00     0.278 C 
ENDBRANCH   3  10
BRANCH   4  12
ATOM     12  O   UNL     1      43.385 -38.503  -3.607  1.00  0.00    -0.504 OA
ATOM     13  H   UNL     1      43.575 -38.301  -2.633  1.00  0.00     0.293 HD
ENDBRANCH   4  12
TORSDOF 3
ENDMDL
MODEL 6
REMARK VINA RESULT:    -3.729      3.514      5.083
REMARK INTER + INTRA:          -4.532
REMARK INTER:                  -4.336
REMARK INTRA:                  -0.195
REMARK UNBOUND:                -0.258
REMARK SMILES CC=Cc1ccc(O)c(OC)c1
REMARK SMILES IDX 4 1 12 2 9 3 7 4 6 5 5 6 3 7 1 8 2 9 10 10 11 11 8 12
REMARK H PARENT 8 13
REMARK Flexibility Score: inf
ROOT
ATOM      1  C   UNL     1      42.077 -39.962  -1.858  1.00  0.00    -0.022 A 
ATOM      2  C   UNL     1      42.945 -40.199  -2.934  1.00  0.00     0.058 A 
ATOM      3  C   UNL     1      42.437 -40.535  -4.205  1.00  0.00     0.161 A 
ATOM      4  C   UNL     1      41.046 -40.649  -4.381  1.00  0.00     0.157 A 
ATOM      5  C   UNL     1      40.185 -40.440  -3.300  1.00  0.00     0.051 A 
ATOM      6  C   UNL     1      40.694 -40.108  -2.043  1.00  0.00     0.012 A 
ENDROOT
BRANCH   1   7
ATOM      7  C   UNL     1      42.645 -39.638  -0.532  1.00  0.00     0.003 C 
ATOM      8  C   UNL     1      42.378 -41.960   0.384  1.00  0.00     0.035 C 
ATOM      9  C   UNL     1      42.803 -40.523   0.462  1.00  0.00    -0.030 C 
ENDBRANCH   1   7
BRANCH   3  10
ATOM     10  O   UNL     1      43.280 -40.762  -5.306  1.00  0.00    -0.493 OA
ATOM     11  C   UNL     1      43.898 -42.009  -5.607  1.00  0.00     0.278 C 
ENDBRANCH   3  10
BRANCH   4  12
ATOM     12  O   UNL     1      40.500 -40.978  -5.622  1.00  0.00    -0.504 OA
ATOM     13  H   UNL     1      39.520 -41.208  -5.737  1.00  0.00     0.293 HD
ENDBRANCH   4  12
TORSDOF 3
ENDMDL
MODEL 7
REMARK VINA RESULT:    -3.638      1.234      2.853
REMARK INTER + INTRA:          -4.428
REMARK INTER:                  -4.356
REMARK INTRA:                  -0.072
REMARK UNBOUND:                -0.258
REMARK SMILES CC=Cc1ccc(O)c(OC)c1
REMARK SMILES IDX 4 1 12 2 9 3 7 4 6 5 5 6 3 7 1 8 2 9 10 10 11 11 8 12
REMARK H PARENT 8 13
REMARK Flexibility Score: inf
ROOT
ATOM      1  C   UNL     1      40.004 -40.631  -5.133  1.00  0.00    -0.022 A 
ATOM      2  C   UNL     1      39.489 -40.468  -3.839  1.00  0.00     0.058 A 
ATOM      3  C   UNL     1      38.238 -39.851  -3.637  1.00  0.00     0.161 A 
ATOM      4  C   UNL     1      37.517 -39.380  -4.749  1.00  0.00     0.157 A 
ATOM      5  C   UNL     1      38.046 -39.518  -6.036  1.00  0.00     0.051 A 
ATOM      6  C   UNL     1      39.285 -40.130  -6.229  1.00  0.00     0.012 A 
ENDROOT
BRANCH   1   7
ATOM      7  C   UNL     1      41.332 -41.257  -5.307  1.00  0.00     0.003 C 
ATOM      8  C   UNL     1      42.607 -39.318  -4.352  1.00  0.00     0.035 C 
ATOM      9  C   UNL     1      42.491 -40.693  -4.943  1.00  0.00    -0.030 C 
ENDBRANCH   1   7
BRANCH   3  10
ATOM     10  O   UNL     1      37.688 -39.689  -2.355  1.00  0.00    -0.493 OA
ATOM     11  C   UNL     1      38.442 -39.685  -1.146  1.00  0.00     0.278 C 
ENDBRANCH   3  10
BRANCH   4  12
ATOM     12  O   UNL     1      36.274 -38.765  -4.595  1.00  0.00    -0.504 OA
ATOM     13  H   UNL     1      35.725 -38.861  -3.749  1.00  0.00     0.293 HD
ENDBRANCH   4  12
TORSDOF 3
ENDMDL
MODEL 8
REMARK VINA RESULT:    -3.602      2.661      2.722
REMARK INTER + INTRA:          -4.386
REMARK INTER:                  -4.147
REMARK INTRA:                  -0.240
REMARK UNBOUND:                -0.258
REMARK SMILES CC=Cc1ccc(O)c(OC)c1
REMARK SMILES IDX 4 1 12 2 9 3 7 4 6 5 5 6 3 7 1 8 2 9 10 10 11 11 8 12
REMARK H PARENT 8 13
REMARK Flexibility Score: inf
ROOT
ATOM      1  C   UNL     1      40.466 -40.388  -4.569  1.00  0.00    -0.022 A 
ATOM      2  C   UNL     1      40.371 -39.001  -4.758  1.00  0.00     0.058 A 
ATOM      3  C   UNL     1      39.847 -38.172  -3.746  1.00  0.00     0.161 A 
ATOM      4  C   UNL     1      39.399 -38.754  -2.546  1.00  0.00     0.157 A 
ATOM      5  C   UNL     1      39.468 -40.140  -2.371  1.00  0.00     0.051 A 
ATOM      6  C   UNL     1      39.988 -40.954  -3.378  1.00  0.00     0.012 A 
ENDROOT
BRANCH   1   7
ATOM      7  C   UNL     1      40.996 -41.230  -5.662  1.00  0.00     0.003 C 
ATOM      8  C   UNL     1      43.361 -41.200  -4.825  1.00  0.00     0.035 C 
ATOM      9  C   UNL     1      42.274 -41.614  -5.773  1.00  0.00    -0.030 C 
ENDBRANCH   1   7
BRANCH   3  10
ATOM     10  O   UNL     1      39.755 -36.780  -3.899  1.00  0.00    -0.493 OA
ATOM     11  C   UNL     1      39.527 -36.116  -5.138  1.00  0.00     0.278 C 
ENDBRANCH   3  10
BRANCH   4  12
ATOM     12  O   UNL     1      38.874 -37.972  -1.517  1.00  0.00    -0.504 OA
ATOM     13  H   UNL     1      37.948 -38.129  -1.137  1.00  0.00     0.293 HD
ENDBRANCH   4  12
TORSDOF 3
ENDMDL
