MODEL 1
REMARK VINA RESULT:    -6.261      0.000      0.000
REMARK INTER + INTRA:          -7.912
REMARK INTER:                  -7.359
REMARK INTRA:                  -0.552
REMARK UNBOUND:                -0.552
REMARK SMILES C=C(C)[C@@H]1CC[C@@]2(CO)CC[C@@]3(C)[C@H](CC[C@@H]4[C@]5(C)CC[C@@H](O)C(C)(C)[C@H]5CC[C@@]43C)[C@@H]12
REMARK SMILES IDX 4 1 5 2 6 3 7 4 32 5 14 6 15 7 16 8 17 9 18 10 20 11 21 12
REMARK SMILES IDX 22 13 24 14 27 15 28 16 29 17 30 18 12 19 11 20 10 21 13 22
REMARK SMILES IDX 31 23 25 24 26 25 19 26 2 27 3 28 1 29 8 30 9 31 23 33
REMARK H PARENT 9 32 23 34
REMARK Flexibility Score: inf
ROOT
ATOM      1  C   UNL     1     105.156  84.980  16.368  1.00  0.00     0.018 C 
ATOM      2  C   UNL     1     104.467  84.720  15.036  1.00  0.00     0.009 C 
ATOM      3  C   UNL     1     102.990  84.740  15.306  1.00  0.00     0.010 C 
ATOM      4  C   UNL     1     102.826  84.327  16.786  1.00  0.00    -0.003 C 
ATOM      5  C   UNL     1     104.007  85.033  17.427  1.00  0.00     0.008 C 
ATOM      6  C   UNL     1     104.360  84.600  18.898  1.00  0.00    -0.000 C 
ATOM      7  C   UNL     1     103.551  85.517  19.884  1.00  0.00     0.005 C 
ATOM      8  C   UNL     1     102.844  84.929  21.108  1.00  0.00     0.005 C 
ATOM      9  C   UNL     1     102.805  83.394  21.227  1.00  0.00     0.002 C 
ATOM     10  C   UNL     1     102.422  82.846  22.656  1.00  0.00    -0.026 C 
ATOM     11  C   UNL     1     101.208  83.653  23.271  1.00  0.00     0.010 C 
ATOM     12  C   UNL     1     100.885  83.200  24.719  1.00  0.00     0.033 C 
ATOM     13  C   UNL     1     102.058  83.001  25.756  1.00  0.00     0.120 C 
ATOM     14  C   UNL     1     103.388  82.403  25.113  1.00  0.00    -0.006 C 
ATOM     15  C   UNL     1     103.614  83.051  23.724  1.00  0.00     0.003 C 
ATOM     16  C   UNL     1     105.087  82.945  23.156  1.00  0.00     0.005 C 
ATOM     17  C   UNL     1     105.300  83.385  21.678  1.00  0.00     0.008 C 
ATOM     18  C   UNL     1     104.201  82.739  20.723  1.00  0.00    -0.024 C 
ATOM     19  C   UNL     1     104.325  83.039  19.142  1.00  0.00    -0.024 C 
ATOM     20  C   UNL     1     103.132  82.309  18.341  1.00  0.00     0.008 C 
ATOM     21  C   UNL     1     102.937  82.781  16.886  1.00  0.00     0.010 C 
ATOM     22  C   UNL     1     105.670  82.443  18.610  1.00  0.00     0.012 C 
ATOM     23  C   UNL     1     104.409  81.162  20.894  1.00  0.00     0.012 C 
ATOM     24  C   UNL     1     103.338  80.892  25.050  1.00  0.00     0.014 C 
ATOM     25  C   UNL     1     104.563  82.773  26.062  1.00  0.00     0.014 C 
ATOM     26  C   UNL     1     101.869  81.384  22.357  1.00  0.00     0.012 C 
ENDROOT
BRANCH   1  27
ATOM     27  C   UNL     1     106.007  86.255  16.417  1.00  0.00    -0.077 C 
ATOM     28  C   UNL     1     107.446  86.239  16.822  1.00  0.00     0.039 C 
ATOM     29  C   UNL     1     105.426  87.460  16.202  1.00  0.00     0.008 C 
ENDBRANCH   1  27
BRANCH   4  30
ATOM     30  C   UNL     1     101.480  84.823  17.392  1.00  0.00     0.163 C 
BRANCH  30  31
ATOM     31  O   UNL     1     100.450  84.416  16.509  1.00  0.00    -0.396 OA
ATOM     32  H   UNL     1     100.582  84.935  15.671  1.00  0.00     0.210 HD
ENDBRANCH  30  31
ENDBRANCH   4  30
BRANCH  13  33
ATOM     33  O   UNL     1     101.550  82.195  26.777  1.00  0.00    -0.393 OA
ATOM     34  H   UNL     1     100.811  81.567  26.435  1.00  0.00     0.210 HD
ENDBRANCH  13  33
TORSDOF 4
ENDMDL
MODEL 2
REMARK VINA RESULT:    -5.796      1.637      1.936
REMARK INTER + INTRA:          -7.364
REMARK INTER:                  -6.773
REMARK INTRA:                  -0.591
REMARK UNBOUND:                -0.552
REMARK SMILES C=C(C)[C@@H]1CC[C@@]2(CO)CC[C@@]3(C)[C@H](CC[C@@H]4[C@]5(C)CC[C@@H](O)C(C)(C)[C@H]5CC[C@@]43C)[C@@H]12
REMARK SMILES IDX 4 1 5 2 6 3 7 4 32 5 14 6 15 7 16 8 17 9 18 10 20 11 21 12
REMARK SMILES IDX 22 13 24 14 27 15 28 16 29 17 30 18 12 19 11 20 10 21 13 22
REMARK SMILES IDX 31 23 25 24 26 25 19 26 2 27 3 28 1 29 8 30 9 31 23 33
REMARK H PARENT 9 32 23 34
REMARK Flexibility Score: inf
ROOT
ATOM      1  C   UNL     1     105.300  87.097  17.452  1.00  0.00     0.018 C 
ATOM      2  C   UNL     1     104.610  87.415  16.134  1.00  0.00     0.009 C 
ATOM      3  C   UNL     1     103.154  87.607  16.447  1.00  0.00     0.010 C 
ATOM      4  C   UNL     1     102.881  86.767  17.715  1.00  0.00    -0.003 C 
ATOM      5  C   UNL     1     104.152  87.002  18.510  1.00  0.00     0.008 C 
ATOM      6  C   UNL     1     104.384  86.056  19.745  1.00  0.00    -0.000 C 
ATOM      7  C   UNL     1     103.727  86.726  21.004  1.00  0.00     0.005 C 
ATOM      8  C   UNL     1     102.895  85.904  21.993  1.00  0.00     0.005 C 
ATOM      9  C   UNL     1     102.579  84.448  21.603  1.00  0.00     0.002 C 
ATOM     10  C   UNL     1     102.068  83.538  22.787  1.00  0.00    -0.026 C 
ATOM     11  C   UNL     1     101.003  84.301  23.675  1.00  0.00     0.010 C 
ATOM     12  C   UNL     1     100.566  83.463  24.905  1.00  0.00     0.033 C 
ATOM     13  C   UNL     1     101.658  82.730  25.778  1.00  0.00     0.120 C 
ATOM     14  C   UNL     1     102.875  82.150  24.929  1.00  0.00    -0.006 C 
ATOM     15  C   UNL     1     103.250  83.167  23.821  1.00  0.00     0.003 C 
ATOM     16  C   UNL     1     104.694  82.994  23.199  1.00  0.00     0.005 C 
ATOM     17  C   UNL     1     105.020  83.849  21.939  1.00  0.00     0.008 C 
ATOM     18  C   UNL     1     103.848  83.758  20.865  1.00  0.00    -0.024 C 
ATOM     19  C   UNL     1     104.064  84.533  19.466  1.00  0.00    -0.024 C 
ATOM     20  C   UNL     1     102.781  84.330  18.512  1.00  0.00     0.008 C 
ATOM     21  C   UNL     1     102.711  85.281  17.299  1.00  0.00     0.010 C 
ATOM     22  C   UNL     1     105.294  83.916  18.722  1.00  0.00     0.012 C 
ATOM     23  C   UNL     1     103.766  82.202  20.503  1.00  0.00     0.012 C 
ATOM     24  C   UNL     1     102.557  80.778  24.376  1.00  0.00     0.014 C 
ATOM     25  C   UNL     1     104.073  81.973  25.905  1.00  0.00     0.014 C 
ATOM     26  C   UNL     1     101.270  82.378  22.046  1.00  0.00     0.012 C 
ENDROOT
BRANCH   1  27
ATOM     27  C   UNL     1     106.364  88.113  17.887  1.00  0.00    -0.077 C 
ATOM     28  C   UNL     1     107.805  87.966  17.518  1.00  0.00     0.039 C 
ATOM     29  C   UNL     1     106.028  89.120  18.728  1.00  0.00     0.008 C 
ENDBRANCH   1  27
BRANCH   4  30
ATOM     30  C   UNL     1     101.630  87.268  18.497  1.00  0.00     0.163 C 
BRANCH  30  31
ATOM     31  O   UNL     1     101.803  88.656  18.716  1.00  0.00    -0.396 OA
ATOM     32  H   UNL     1     100.889  89.041  18.791  1.00  0.00     0.210 HD
ENDBRANCH  30  31
ENDBRANCH   4  30
BRANCH  13  33
ATOM     33  O   UNL     1     100.988  81.736  26.495  1.00  0.00    -0.393 OA
ATOM     34  H   UNL     1     101.433  81.555  27.403  1.00  0.00     0.210 HD
ENDBRANCH  13  33
TORSDOF 4
ENDMDL
MODEL 3
REMARK VINA RESULT:    -5.552      2.127      7.707
REMARK INTER + INTRA:          -7.078
REMARK INTER:                  -6.479
REMARK INTRA:                  -0.599
REMARK UNBOUND:                -0.552
REMARK SMILES C=C(C)[C@@H]1CC[C@@]2(CO)CC[C@@]3(C)[C@H](CC[C@@H]4[C@]5(C)CC[C@@H](O)C(C)(C)[C@H]5CC[C@@]43C)[C@@H]12
REMARK SMILES IDX 4 1 5 2 6 3 7 4 32 5 14 6 15 7 16 8 17 9 18 10 20 11 21 12
REMARK SMILES IDX 22 13 24 14 27 15 28 16 29 17 30 18 12 19 11 20 10 21 13 22
REMARK SMILES IDX 31 23 25 24 26 25 19 26 2 27 3 28 1 29 8 30 9 31 23 33
REMARK H PARENT 9 32 23 34
REMARK Flexibility Score: inf
ROOT
ATOM      1  C   UNL     1     101.460  82.295  24.544  1.00  0.00     0.018 C 
ATOM      2  C   UNL     1     100.611  81.033  24.505  1.00  0.00     0.009 C 
ATOM      3  C   UNL     1     101.129  80.202  23.366  1.00  0.00     0.010 C 
ATOM      4  C   UNL     1     101.753  81.200  22.365  1.00  0.00    -0.003 C 
ATOM      5  C   UNL     1     102.408  82.196  23.304  1.00  0.00     0.008 C 
ATOM      6  C   UNL     1     102.893  83.546  22.656  1.00  0.00    -0.000 C 
ATOM      7  C   UNL     1     104.375  83.351  22.173  1.00  0.00     0.005 C 
ATOM      8  C   UNL     1     104.834  83.868  20.807  1.00  0.00     0.005 C 
ATOM      9  C   UNL     1     103.749  84.415  19.862  1.00  0.00     0.002 C 
ATOM     10  C   UNL     1     104.289  85.275  18.654  1.00  0.00    -0.026 C 
ATOM     11  C   UNL     1     105.555  84.596  17.991  1.00  0.00     0.010 C 
ATOM     12  C   UNL     1     106.166  85.477  16.870  1.00  0.00     0.033 C 
ATOM     13  C   UNL     1     106.376  87.022  17.118  1.00  0.00     0.120 C 
ATOM     14  C   UNL     1     105.226  87.694  17.992  1.00  0.00    -0.006 C 
ATOM     15  C   UNL     1     104.821  86.722  19.129  1.00  0.00     0.003 C 
ATOM     16  C   UNL     1     104.058  87.381  20.347  1.00  0.00     0.005 C 
ATOM     17  C   UNL     1     103.444  86.410  21.398  1.00  0.00     0.008 C 
ATOM     18  C   UNL     1     102.625  85.242  20.689  1.00  0.00    -0.024 C 
ATOM     19  C   UNL     1     101.862  84.187  21.643  1.00  0.00    -0.024 C 
ATOM     20  C   UNL     1     101.094  83.084  20.753  1.00  0.00     0.008 C 
ATOM     21  C   UNL     1     100.613  81.840  21.527  1.00  0.00     0.010 C 
ATOM     22  C   UNL     1     100.778  84.942  22.480  1.00  0.00     0.012 C 
ATOM     23  C   UNL     1     101.482  86.005  19.869  1.00  0.00     0.012 C 
ATOM     24  C   UNL     1     104.050  88.106  17.132  1.00  0.00     0.014 C 
ATOM     25  C   UNL     1     105.814  88.998  18.601  1.00  0.00     0.014 C 
ATOM     26  C   UNL     1     103.123  85.174  17.575  1.00  0.00     0.012 C 
ENDROOT
BRANCH   1  27
ATOM     27  C   UNL     1     102.264  82.494  25.835  1.00  0.00    -0.077 C 
ATOM     28  C   UNL     1     103.705  82.110  25.945  1.00  0.00     0.039 C 
ATOM     29  C   UNL     1     101.639  82.924  26.957  1.00  0.00     0.008 C 
ENDBRANCH   1  27
BRANCH   4  30
ATOM     30  C   UNL     1     102.808  80.525  21.439  1.00  0.00     0.163 C 
BRANCH  30  31
ATOM     31  O   UNL     1     103.745  79.875  22.278  1.00  0.00    -0.396 OA
ATOM     32  H   UNL     1     103.368  78.975  22.468  1.00  0.00     0.210 HD
ENDBRANCH  30  31
ENDBRANCH   4  30
BRANCH  13  33
ATOM     33  O   UNL     1     106.500  87.610  15.857  1.00  0.00    -0.393 OA
ATOM     34  H   UNL     1     105.585  87.759  15.414  1.00  0.00     0.210 HD
ENDBRANCH  13  33
TORSDOF 4
ENDMDL
MODEL 4
REMARK VINA RESULT:    -5.448      1.723      3.530
REMARK INTER + INTRA:          -6.955
REMARK INTER:                  -6.564
REMARK INTRA:                  -0.392
REMARK UNBOUND:                -0.552
REMARK SMILES C=C(C)[C@@H]1CC[C@@]2(CO)CC[C@@]3(C)[C@H](CC[C@@H]4[C@]5(C)CC[C@@H](O)C(C)(C)[C@H]5CC[C@@]43C)[C@@H]12
REMARK SMILES IDX 4 1 5 2 6 3 7 4 32 5 14 6 15 7 16 8 17 9 18 10 20 11 21 12
REMARK SMILES IDX 22 13 24 14 27 15 28 16 29 17 30 18 12 19 11 20 10 21 13 22
REMARK SMILES IDX 31 23 25 24 26 25 19 26 2 27 3 28 1 29 8 30 9 31 23 33
REMARK H PARENT 9 32 23 34
REMARK Flexibility Score: inf
ROOT
ATOM      1  C   UNL     1     102.500  86.149  15.721  1.00  0.00     0.018 C 
ATOM      2  C   UNL     1     103.500  86.389  14.601  1.00  0.00     0.009 C 
ATOM      3  C   UNL     1     104.357  85.158  14.519  1.00  0.00     0.010 C 
ATOM      4  C   UNL     1     104.343  84.540  15.935  1.00  0.00    -0.003 C 
ATOM      5  C   UNL     1     102.902  84.775  16.349  1.00  0.00     0.008 C 
ATOM      6  C   UNL     1     102.573  84.552  17.872  1.00  0.00    -0.000 C 
ATOM      7  C   UNL     1     102.160  83.049  18.068  1.00  0.00     0.005 C 
ATOM      8  C   UNL     1     102.691  82.233  19.250  1.00  0.00     0.005 C 
ATOM      9  C   UNL     1     103.780  82.885  20.122  1.00  0.00     0.002 C 
ATOM     10  C   UNL     1     104.017  82.193  21.520  1.00  0.00    -0.026 C 
ATOM     11  C   UNL     1     104.045  80.617  21.379  1.00  0.00     0.010 C 
ATOM     12  C   UNL     1     104.170  79.914  22.757  1.00  0.00     0.033 C 
ATOM     13  C   UNL     1     103.270  80.391  23.962  1.00  0.00     0.120 C 
ATOM     14  C   UNL     1     103.025  81.965  23.996  1.00  0.00    -0.006 C 
ATOM     15  C   UNL     1     102.806  82.475  22.549  1.00  0.00     0.003 C 
ATOM     16  C   UNL     1     102.097  83.883  22.425  1.00  0.00     0.005 C 
ATOM     17  C   UNL     1     102.060  84.526  21.007  1.00  0.00     0.008 C 
ATOM     18  C   UNL     1     103.494  84.470  20.314  1.00  0.00    -0.024 C 
ATOM     19  C   UNL     1     103.643  85.161  18.864  1.00  0.00    -0.024 C 
ATOM     20  C   UNL     1     105.154  85.004  18.324  1.00  0.00     0.008 C 
ATOM     21  C   UNL     1     105.348  85.317  16.826  1.00  0.00     0.010 C 
ATOM     22  C   UNL     1     103.356  86.694  18.993  1.00  0.00     0.012 C 
ATOM     23  C   UNL     1     104.439  85.301  21.302  1.00  0.00     0.012 C 
ATOM     24  C   UNL     1     104.155  82.683  24.702  1.00  0.00     0.014 C 
ATOM     25  C   UNL     1     101.742  82.213  24.840  1.00  0.00     0.014 C 
ATOM     26  C   UNL     1     105.499  82.625  21.902  1.00  0.00     0.012 C 
ENDROOT
BRANCH   1  27
ATOM     27  C   UNL     1     101.029  86.144  15.286  1.00  0.00    -0.077 C 
ATOM     28  C   UNL     1     100.070  85.085  15.726  1.00  0.00     0.039 C 
ATOM     29  C   UNL     1     100.593  87.053  14.382  1.00  0.00     0.008 C 
ENDBRANCH   1  27
BRANCH   4  30
ATOM     30  C   UNL     1     104.681  83.019  15.918  1.00  0.00     0.163 C 
BRANCH  30  31
ATOM     31  O   UNL     1     104.032  82.460  14.791  1.00  0.00    -0.396 OA
ATOM     32  H   UNL     1     103.647  83.225  14.285  1.00  0.00     0.210 HD
ENDBRANCH  30  31
ENDBRANCH   4  30
BRANCH  13  33
ATOM     33  O   UNL     1     103.887  79.923  25.125  1.00  0.00    -0.393 OA
ATOM     34  H   UNL     1     104.040  80.676  25.806  1.00  0.00     0.210 HD
ENDBRANCH  13  33
TORSDOF 4
ENDMDL
MODEL 5
REMARK VINA RESULT:    -5.445      1.767      3.108
REMARK INTER + INTRA:          -6.953
REMARK INTER:                  -6.358
REMARK INTRA:                  -0.594
REMARK UNBOUND:                -0.552
REMARK SMILES C=C(C)[C@@H]1CC[C@@]2(CO)CC[C@@]3(C)[C@H](CC[C@@H]4[C@]5(C)CC[C@@H](O)C(C)(C)[C@H]5CC[C@@]43C)[C@@H]12
REMARK SMILES IDX 4 1 5 2 6 3 7 4 32 5 14 6 15 7 16 8 17 9 18 10 20 11 21 12
REMARK SMILES IDX 22 13 24 14 27 15 28 16 29 17 30 18 12 19 11 20 10 21 13 22
REMARK SMILES IDX 31 23 25 24 26 25 19 26 2 27 3 28 1 29 8 30 9 31 23 33
REMARK H PARENT 9 32 23 34
REMARK Flexibility Score: inf
ROOT
ATOM      1  C   UNL     1     104.424  84.303  17.276  1.00  0.00     0.018 C 
ATOM      2  C   UNL     1     105.454  83.545  16.451  1.00  0.00     0.009 C 
ATOM      3  C   UNL     1     105.171  82.083  16.649  1.00  0.00     0.010 C 
ATOM      4  C   UNL     1     104.496  81.968  18.034  1.00  0.00    -0.003 C 
ATOM      5  C   UNL     1     103.617  83.205  18.043  1.00  0.00     0.008 C 
ATOM      6  C   UNL     1     102.995  83.604  19.432  1.00  0.00    -0.000 C 
ATOM      7  C   UNL     1     101.608  82.879  19.572  1.00  0.00     0.005 C 
ATOM      8  C   UNL     1     101.200  82.204  20.884  1.00  0.00     0.005 C 
ATOM      9  C   UNL     1     102.271  82.105  21.986  1.00  0.00     0.002 C 
ATOM     10  C   UNL     1     101.718  81.763  23.424  1.00  0.00    -0.026 C 
ATOM     11  C   UNL     1     100.633  80.613  23.360  1.00  0.00     0.010 C 
ATOM     12  C   UNL     1      99.999  80.335  24.749  1.00  0.00     0.033 C 
ATOM     13  C   UNL     1      99.538  81.544  25.652  1.00  0.00     0.120 C 
ATOM     14  C   UNL     1     100.490  82.817  25.557  1.00  0.00    -0.006 C 
ATOM     15  C   UNL     1     100.933  83.009  24.084  1.00  0.00     0.003 C 
ATOM     16  C   UNL     1     101.476  84.449  23.719  1.00  0.00     0.005 C 
ATOM     17  C   UNL     1     102.133  84.615  22.318  1.00  0.00     0.008 C 
ATOM     18  C   UNL     1     103.179  83.448  22.032  1.00  0.00    -0.024 C 
ATOM     19  C   UNL     1     104.003  83.515  20.646  1.00  0.00    -0.024 C 
ATOM     20  C   UNL     1     105.005  82.257  20.533  1.00  0.00     0.008 C 
ATOM     21  C   UNL     1     105.597  82.018  19.128  1.00  0.00     0.010 C 
ATOM     22  C   UNL     1     104.882  84.808  20.632  1.00  0.00     0.012 C 
ATOM     23  C   UNL     1     104.262  83.597  23.200  1.00  0.00     0.012 C 
ATOM     24  C   UNL     1     101.663  82.701  26.507  1.00  0.00     0.014 C 
ATOM     25  C   UNL     1      99.660  84.048  26.019  1.00  0.00     0.014 C 
ATOM     26  C   UNL     1     102.977  81.136  24.167  1.00  0.00     0.012 C 
ENDROOT
BRANCH   1  27
ATOM     27  C   UNL     1     103.487  85.208  16.467  1.00  0.00    -0.077 C 
ATOM     28  C   UNL     1     102.797  84.739  15.226  1.00  0.00     0.039 C 
ATOM     29  C   UNL     1     103.356  86.513  16.806  1.00  0.00     0.008 C 
ENDBRANCH   1  27
BRANCH   4  30
ATOM     30  C   UNL     1     103.643  80.672  18.169  1.00  0.00     0.163 C 
BRANCH  30  31
ATOM     31  O   UNL     1     102.903  80.533  16.970  1.00  0.00    -0.396 OA
ATOM     32  H   UNL     1     102.680  81.456  16.673  1.00  0.00     0.210 HD
ENDBRANCH  30  31
ENDBRANCH   4  30
BRANCH  13  33
ATOM     33  O   UNL     1      99.440  81.048  26.954  1.00  0.00    -0.393 OA
ATOM     34  H   UNL     1      98.544  81.298  27.392  1.00  0.00     0.210 HD
ENDBRANCH  13  33
TORSDOF 4
ENDMDL
MODEL 6
REMARK VINA RESULT:    -5.443      3.605      9.134
REMARK INTER + INTRA:          -6.950
REMARK INTER:                  -6.393
REMARK INTRA:                  -0.557
REMARK UNBOUND:                -0.552
REMARK SMILES C=C(C)[C@@H]1CC[C@@]2(CO)CC[C@@]3(C)[C@H](CC[C@@H]4[C@]5(C)CC[C@@H](O)C(C)(C)[C@H]5CC[C@@]43C)[C@@H]12
REMARK SMILES IDX 4 1 5 2 6 3 7 4 32 5 14 6 15 7 16 8 17 9 18 10 20 11 21 12
REMARK SMILES IDX 22 13 24 14 27 15 28 16 29 17 30 18 12 19 11 20 10 21 13 22
REMARK SMILES IDX 31 23 25 24 26 25 19 26 2 27 3 28 1 29 8 30 9 31 23 33
REMARK H PARENT 9 32 23 34
REMARK Flexibility Score: inf
ROOT
ATOM      1  C   UNL     1     105.903  81.863  17.993  1.00  0.00     0.018 C 
ATOM      2  C   UNL     1     105.457  81.680  19.436  1.00  0.00     0.009 C 
ATOM      3  C   UNL     1     104.039  82.169  19.513  1.00  0.00     0.010 C 
ATOM      4  C   UNL     1     103.894  83.218  18.388  1.00  0.00    -0.003 C 
ATOM      5  C   UNL     1     104.714  82.585  17.279  1.00  0.00     0.008 C 
ATOM      6  C   UNL     1     105.061  83.512  16.056  1.00  0.00    -0.000 C 
ATOM      7  C   UNL     1     103.911  83.371  14.995  1.00  0.00     0.005 C 
ATOM      8  C   UNL     1     103.336  84.601  14.287  1.00  0.00     0.005 C 
ATOM      9  C   UNL     1     103.797  85.981  14.790  1.00  0.00     0.002 C 
ATOM     10  C   UNL     1     103.495  87.182  13.812  1.00  0.00    -0.026 C 
ATOM     11  C   UNL     1     102.034  87.077  13.214  1.00  0.00     0.010 C 
ATOM     12  C   UNL     1     101.754  88.189  12.168  1.00  0.00     0.033 C 
ATOM     13  C   UNL     1     102.832  88.509  11.061  1.00  0.00     0.120 C 
ATOM     14  C   UNL     1     104.335  88.391  11.577  1.00  0.00    -0.006 C 
ATOM     15  C   UNL     1     104.454  87.164  12.514  1.00  0.00     0.003 C 
ATOM     16  C   UNL     1     105.922  86.619  12.739  1.00  0.00     0.005 C 
ATOM     17  C   UNL     1     106.106  85.534  13.841  1.00  0.00     0.008 C 
ATOM     18  C   UNL     1     105.369  85.956  15.189  1.00  0.00    -0.024 C 
ATOM     19  C   UNL     1     105.524  84.969  16.457  1.00  0.00    -0.024 C 
ATOM     20  C   UNL     1     104.714  85.556  17.721  1.00  0.00     0.008 C 
ATOM     21  C   UNL     1     104.501  84.560  18.879  1.00  0.00     0.010 C 
ATOM     22  C   UNL     1     107.031  84.895  16.869  1.00  0.00     0.012 C 
ATOM     23  C   UNL     1     106.072  87.331  15.607  1.00  0.00     0.012 C 
ATOM     24  C   UNL     1     104.794  89.674  12.235  1.00  0.00     0.014 C 
ATOM     25  C   UNL     1     105.235  88.184  10.325  1.00  0.00     0.014 C 
ATOM     26  C   UNL     1     103.485  88.450  14.773  1.00  0.00     0.012 C 
ENDROOT
BRANCH   1  27
ATOM     27  C   UNL     1     106.276  80.567  17.262  1.00  0.00    -0.077 C 
ATOM     28  C   UNL     1     105.395  79.956  16.220  1.00  0.00     0.039 C 
ATOM     29  C   UNL     1     107.379  79.877  17.639  1.00  0.00     0.008 C 
ENDBRANCH   1  27
BRANCH   4  30
ATOM     30  C   UNL     1     102.411  83.411  17.949  1.00  0.00     0.163 C 
BRANCH  30  31
ATOM     31  O   UNL     1     101.921  82.139  17.564  1.00  0.00    -0.396 OA
ATOM     32  H   UNL     1     101.480  82.268  16.683  1.00  0.00     0.210 HD
ENDBRANCH  30  31
ENDBRANCH   4  30
BRANCH  13  33
ATOM     33  O   UNL     1     102.533  89.785  10.577  1.00  0.00    -0.393 OA
ATOM     34  H   UNL     1     101.649  89.797  10.054  1.00  0.00     0.210 HD
ENDBRANCH  13  33
TORSDOF 4
ENDMDL
MODEL 7
REMARK VINA RESULT:    -5.441      2.169      7.968
REMARK INTER + INTRA:          -6.947
REMARK INTER:                  -6.463
REMARK INTRA:                  -0.485
REMARK UNBOUND:                -0.552
REMARK SMILES C=C(C)[C@@H]1CC[C@@]2(CO)CC[C@@]3(C)[C@H](CC[C@@H]4[C@]5(C)CC[C@@H](O)C(C)(C)[C@H]5CC[C@@]43C)[C@@H]12
REMARK SMILES IDX 4 1 5 2 6 3 7 4 32 5 14 6 15 7 16 8 17 9 18 10 20 11 21 12
REMARK SMILES IDX 22 13 24 14 27 15 28 16 29 17 30 18 12 19 11 20 10 21 13 22
REMARK SMILES IDX 31 23 25 24 26 25 19 26 2 27 3 28 1 29 8 30 9 31 23 33
REMARK H PARENT 9 32 23 34
REMARK Flexibility Score: inf
ROOT
ATOM      1  C   UNL     1     102.943  81.421  23.703  1.00  0.00     0.018 C 
ATOM      2  C   UNL     1     103.638  80.261  24.399  1.00  0.00     0.009 C 
ATOM      3  C   UNL     1     105.070  80.284  23.946  1.00  0.00     0.010 C 
ATOM      4  C   UNL     1     105.060  80.949  22.552  1.00  0.00    -0.003 C 
ATOM      5  C   UNL     1     104.016  82.033  22.744  1.00  0.00     0.008 C 
ATOM      6  C   UNL     1     103.497  82.738  21.436  1.00  0.00    -0.000 C 
ATOM      7  C   UNL     1     104.421  83.977  21.151  1.00  0.00     0.005 C 
ATOM      8  C   UNL     1     104.919  84.279  19.735  1.00  0.00     0.005 C 
ATOM      9  C   UNL     1     104.634  83.225  18.649  1.00  0.00     0.002 C 
ATOM     10  C   UNL     1     104.813  83.731  17.165  1.00  0.00    -0.026 C 
ATOM     11  C   UNL     1     106.130  84.594  17.012  1.00  0.00     0.010 C 
ATOM     12  C   UNL     1     106.270  85.191  15.586  1.00  0.00     0.033 C 
ATOM     13  C   UNL     1     105.023  85.873  14.899  1.00  0.00     0.120 C 
ATOM     14  C   UNL     1     103.638  85.159  15.230  1.00  0.00    -0.006 C 
ATOM     15  C   UNL     1     103.630  84.734  16.720  1.00  0.00     0.003 C 
ATOM     16  C   UNL     1     102.202  84.449  17.338  1.00  0.00     0.005 C 
ATOM     17  C   UNL     1     102.168  83.810  18.757  1.00  0.00     0.008 C 
ATOM     18  C   UNL     1     103.164  82.569  18.852  1.00  0.00    -0.024 C 
ATOM     19  C   UNL     1     103.195  81.749  20.241  1.00  0.00    -0.024 C 
ATOM     20  C   UNL     1     104.255  80.538  20.150  1.00  0.00     0.008 C 
ATOM     21  C   UNL     1     104.626  79.892  21.500  1.00  0.00     0.010 C 
ATOM     22  C   UNL     1     101.788  81.112  20.493  1.00  0.00     0.012 C 
ATOM     23  C   UNL     1     102.625  81.548  17.744  1.00  0.00     0.012 C 
ATOM     24  C   UNL     1     103.378  83.999  14.292  1.00  0.00     0.014 C 
ATOM     25  C   UNL     1     102.512  86.201  14.975  1.00  0.00     0.014 C 
ATOM     26  C   UNL     1     105.068  82.392  16.344  1.00  0.00     0.012 C 
ENDROOT
BRANCH   1  27
ATOM     27  C   UNL     1     102.372  82.491  24.642  1.00  0.00    -0.077 C 
ATOM     28  C   UNL     1     102.741  82.562  26.089  1.00  0.00     0.039 C 
ATOM     29  C   UNL     1     101.414  83.337  24.194  1.00  0.00     0.008 C 
ENDBRANCH   1  27
BRANCH   4  30
ATOM     30  C   UNL     1     106.443  81.562  22.180  1.00  0.00     0.163 C 
BRANCH  30  31
ATOM     31  O   UNL     1     107.332  80.482  21.961  1.00  0.00    -0.396 OA
ATOM     32  H   UNL     1     108.132  80.868  21.514  1.00  0.00     0.210 HD
ENDBRANCH  30  31
ENDBRANCH   4  30
BRANCH  13  33
ATOM     33  O   UNL     1     105.294  85.902  13.529  1.00  0.00    -0.393 OA
ATOM     34  H   UNL     1     106.122  86.473  13.316  1.00  0.00     0.210 HD
ENDBRANCH  13  33
TORSDOF 4
ENDMDL
MODEL 8
REMARK VINA RESULT:    -5.391     12.029     15.386
REMARK INTER + INTRA:          -6.889
REMARK INTER:                  -6.355
REMARK INTRA:                  -0.534
REMARK UNBOUND:                -0.552
REMARK SMILES C=C(C)[C@@H]1CC[C@@]2(CO)CC[C@@]3(C)[C@H](CC[C@@H]4[C@]5(C)CC[C@@H](O)C(C)(C)[C@H]5CC[C@@]43C)[C@@H]12
REMARK SMILES IDX 4 1 5 2 6 3 7 4 32 5 14 6 15 7 16 8 17 9 18 10 20 11 21 12
REMARK SMILES IDX 22 13 24 14 27 15 28 16 29 17 30 18 12 19 11 20 10 21 13 22
REMARK SMILES IDX 31 23 25 24 26 25 19 26 2 27 3 28 1 29 8 30 9 31 23 33
REMARK H PARENT 9 32 23 34
REMARK Flexibility Score: inf
ROOT
ATOM      1  C   UNL     1     109.668  97.305  23.708  1.00  0.00     0.018 C 
ATOM      2  C   UNL     1     108.660  96.837  24.746  1.00  0.00     0.009 C 
ATOM      3  C   UNL     1     108.981  95.400  25.039  1.00  0.00     0.010 C 
ATOM      4  C   UNL     1     109.656  94.850  23.763  1.00  0.00    -0.003 C 
ATOM      5  C   UNL     1     110.503  96.036  23.338  1.00  0.00     0.008 C 
ATOM      6  C   UNL     1     111.113  95.970  21.889  1.00  0.00    -0.000 C 
ATOM      7  C   UNL     1     112.518  95.273  21.983  1.00  0.00     0.005 C 
ATOM      8  C   UNL     1     112.942  94.212  20.963  1.00  0.00     0.005 C 
ATOM      9  C   UNL     1     111.873  93.729  19.966  1.00  0.00     0.002 C 
ATOM     10  C   UNL     1     112.434  92.945  18.716  1.00  0.00    -0.026 C 
ATOM     11  C   UNL     1     113.549  91.908  19.146  1.00  0.00     0.010 C 
ATOM     12  C   UNL     1     114.188  91.203  17.920  1.00  0.00     0.033 C 
ATOM     13  C   UNL     1     114.616  92.057  16.664  1.00  0.00     0.120 C 
ATOM     14  C   UNL     1     113.630  93.266  16.343  1.00  0.00    -0.006 C 
ATOM     15  C   UNL     1     113.185  93.922  17.674  1.00  0.00     0.003 C 
ATOM     16  C   UNL     1     112.604  95.389  17.549  1.00  0.00     0.005 C 
ATOM     17  C   UNL     1     111.945  95.992  18.824  1.00  0.00     0.008 C 
ATOM     18  C   UNL     1     110.930  94.959  19.488  1.00  0.00    -0.024 C 
ATOM     19  C   UNL     1     110.106  95.460  20.783  1.00  0.00    -0.024 C 
ATOM     20  C   UNL     1     109.138  94.286  21.314  1.00  0.00     0.008 C 
ATOM     21  C   UNL     1     108.554  94.510  22.725  1.00  0.00     0.010 C 
ATOM     22  C   UNL     1     109.193  96.663  20.377  1.00  0.00     0.012 C 
ATOM     23  C   UNL     1     109.842  94.688  18.347  1.00  0.00     0.012 C 
ATOM     24  C   UNL     1     112.461  92.814  15.496  1.00  0.00     0.014 C 
ATOM     25  C   UNL     1     114.427  94.295  15.492  1.00  0.00     0.014 C 
ATOM     26  C   UNL     1     111.190  92.077  18.234  1.00  0.00     0.012 C 
ENDROOT
BRANCH   1  27
ATOM     27  C   UNL     1     110.582  98.450  24.164  1.00  0.00    -0.077 C 
ATOM     28  C   UNL     1     111.698  98.241  25.136  1.00  0.00     0.039 C 
ATOM     29  C   UNL     1     110.315  99.719  23.773  1.00  0.00     0.008 C 
ENDBRANCH   1  27
BRANCH   4  30
ATOM     30  C   UNL     1     110.544  93.604  24.055  1.00  0.00     0.163 C 
BRANCH  30  31
ATOM     31  O   UNL     1     110.691  93.517  25.461  1.00  0.00    -0.396 OA
ATOM     32  H   UNL     1     109.833  93.835  25.849  1.00  0.00     0.210 HD
ENDBRANCH  30  31
ENDBRANCH   4  30
BRANCH  13  33
ATOM     33  O   UNL     1     114.726  91.161  15.597  1.00  0.00    -0.393 OA
ATOM     34  H   UNL     1     114.086  90.364  15.701  1.00  0.00     0.210 HD
ENDBRANCH  13  33
TORSDOF 4
ENDMDL
MODEL 9
REMARK VINA RESULT:    -5.377      2.239      3.687
REMARK INTER + INTRA:          -6.873
REMARK INTER:                  -6.304
REMARK INTRA:                  -0.569
REMARK UNBOUND:                -0.552
REMARK SMILES C=C(C)[C@@H]1CC[C@@]2(CO)CC[C@@]3(C)[C@H](CC[C@@H]4[C@]5(C)CC[C@@H](O)C(C)(C)[C@H]5CC[C@@]43C)[C@@H]12
REMARK SMILES IDX 4 1 5 2 6 3 7 4 32 5 14 6 15 7 16 8 17 9 18 10 20 11 21 12
REMARK SMILES IDX 22 13 24 14 27 15 28 16 29 17 30 18 12 19 11 20 10 21 13 22
REMARK SMILES IDX 31 23 25 24 26 25 19 26 2 27 3 28 1 29 8 30 9 31 23 33
REMARK H PARENT 9 32 23 34
REMARK Flexibility Score: inf
ROOT
ATOM      1  C   UNL     1     104.073  86.112  13.352  1.00  0.00     0.018 C 
ATOM      2  C   UNL     1     102.878  86.761  12.670  1.00  0.00     0.009 C 
ATOM      3  C   UNL     1     102.119  87.495  13.739  1.00  0.00     0.010 C 
ATOM      4  C   UNL     1     102.428  86.754  15.059  1.00  0.00    -0.003 C 
ATOM      5  C   UNL     1     103.895  86.414  14.876  1.00  0.00     0.008 C 
ATOM      6  C   UNL     1     104.500  85.376  15.893  1.00  0.00    -0.000 C 
ATOM      7  C   UNL     1     105.058  86.171  17.127  1.00  0.00     0.005 C 
ATOM      8  C   UNL     1     104.807  85.685  18.558  1.00  0.00     0.005 C 
ATOM      9  C   UNL     1     103.837  84.503  18.738  1.00  0.00     0.002 C 
ATOM     10  C   UNL     1     103.902  83.797  20.148  1.00  0.00    -0.026 C 
ATOM     11  C   UNL     1     103.974  84.862  21.316  1.00  0.00     0.010 C 
ATOM     12  C   UNL     1     104.145  84.190  22.704  1.00  0.00     0.033 C 
ATOM     13  C   UNL     1     105.200  83.030  22.885  1.00  0.00     0.120 C 
ATOM     14  C   UNL     1     105.322  82.070  21.619  1.00  0.00    -0.006 C 
ATOM     15  C   UNL     1     105.246  82.923  20.328  1.00  0.00     0.003 C 
ATOM     16  C   UNL     1     105.809  82.231  19.022  1.00  0.00     0.005 C 
ATOM     17  C   UNL     1     105.549  82.964  17.673  1.00  0.00     0.008 C 
ATOM     18  C   UNL     1     104.026  83.415  17.550  1.00  0.00    -0.024 C 
ATOM     19  C   UNL     1     103.573  84.127  16.174  1.00  0.00    -0.024 C 
ATOM     20  C   UNL     1     102.009  84.511  16.234  1.00  0.00     0.008 C 
ATOM     21  C   UNL     1     101.534  85.487  15.137  1.00  0.00     0.010 C 
ATOM     22  C   UNL     1     103.756  83.121  14.990  1.00  0.00     0.012 C 
ATOM     23  C   UNL     1     103.203  82.045  17.632  1.00  0.00     0.012 C 
ATOM     24  C   UNL     1     104.278  80.975  21.656  1.00  0.00     0.014 C 
ATOM     25  C   UNL     1     106.708  81.370  21.705  1.00  0.00     0.014 C 
ATOM     26  C   UNL     1     102.478  83.099  20.279  1.00  0.00     0.012 C 
ENDROOT
BRANCH   1  27
ATOM     27  C   UNL     1     105.442  86.592  12.853  1.00  0.00    -0.077 C 
ATOM     28  C   UNL     1     106.301  87.521  13.649  1.00  0.00     0.039 C 
ATOM     29  C   UNL     1     105.853  86.268  11.604  1.00  0.00     0.008 C 
ENDBRANCH   1  27
BRANCH   4  30
ATOM     30  C   UNL     1     102.213  87.659  16.308  1.00  0.00     0.163 C 
BRANCH  30  31
ATOM     31  O   UNL     1     102.958  88.845  16.097  1.00  0.00    -0.396 OA
ATOM     32  H   UNL     1     103.332  89.098  16.983  1.00  0.00     0.210 HD
ENDBRANCH  30  31
ENDBRANCH   4  30
BRANCH  13  33
ATOM     33  O   UNL     1     104.833  82.341  24.043  1.00  0.00    -0.393 OA
ATOM     34  H   UNL     1     104.571  82.982  24.802  1.00  0.00     0.210 HD
ENDBRANCH  13  33
TORSDOF 4
ENDMDL
