MODEL 1
REMARK VINA RESULT:    -4.526      0.000      0.000
REMARK INTER + INTRA:          -6.807
REMARK INTER:                  -6.113
REMARK INTRA:                  -0.694
REMARK UNBOUND:                -0.694
REMARK SMILES COc1ccc(-c2cc(=O)c3c(OC)c(OC)c(OC)c(OC)c3o2)cc1
REMARK SMILES IDX 7 1 8 2 9 3 10 4 11 5 24 6 25 7 21 8 18 9 15 10 12 11 6 12
REMARK SMILES IDX 3 13 4 14 27 15 5 16 26 17 2 18 1 19 22 20 23 21 13 22 14 23
REMARK SMILES IDX 19 24 20 25 16 26 17 27
REMARK H PARENT
REMARK Flexibility Score: inf
ROOT
ATOM      1  C   UNL     1       7.123  -6.442  24.563  1.00  0.00     0.138 A 
ATOM      2  C   UNL     1       7.323  -5.304  25.347  1.00  0.00     0.100 A 
ATOM      3  C   UNL     1       6.220  -4.576  25.785  1.00  0.00     0.197 A 
ATOM      4  O   UNL     1       6.423  -3.554  26.494  1.00  0.00    -0.289 OA
ATOM      5  C   UNL     1       4.913  -4.991  25.431  1.00  0.00     0.115 A 
ATOM      6  C   UNL     1       4.789  -6.156  24.636  1.00  0.00     0.188 A 
ATOM      7  O   UNL     1       5.884  -6.812  24.255  1.00  0.00    -0.452 OA
ATOM      8  C   UNL     1       3.516  -6.617  24.232  1.00  0.00     0.209 A 
ATOM      9  C   UNL     1       2.357  -5.894  24.615  1.00  0.00     0.211 A 
ATOM     10  C   UNL     1       2.474  -4.755  25.454  1.00  0.00     0.208 A 
ATOM     11  C   UNL     1       3.756  -4.292  25.848  1.00  0.00     0.179 A 
ENDROOT
BRANCH   1  12
ATOM     12  C   UNL     1       8.264  -7.254  24.074  1.00  0.00     0.018 A 
ATOM     13  C   UNL     1      10.464  -8.778  23.174  1.00  0.00     0.118 A 
ATOM     14  C   UNL     1       9.180  -9.002  22.646  1.00  0.00     0.047 A 
ATOM     15  C   UNL     1      10.634  -7.801  24.161  1.00  0.00     0.047 A 
ATOM     16  C   UNL     1       8.091  -8.249  23.094  1.00  0.00     0.016 A 
ATOM     17  C   UNL     1       9.546  -7.047  24.610  1.00  0.00     0.016 A 
BRANCH  13  18
ATOM     18  O   UNL     1      11.590  -9.502  22.752  1.00  0.00    -0.497 OA
ATOM     19  C   UNL     1      12.574  -9.002  21.853  1.00  0.00     0.278 C 
ENDBRANCH  13  18
ENDBRANCH   1  12
BRANCH   8  20
ATOM     20  O   UNL     1       3.351  -7.777  23.452  1.00  0.00    -0.490 OA
ATOM     21  C   UNL     1       3.177  -9.112  23.913  1.00  0.00     0.278 C 
ENDBRANCH   8  20
BRANCH  11  22
ATOM     22  O   UNL     1       3.938  -3.146  26.653  1.00  0.00    -0.492 OA
ATOM     23  C   UNL     1       3.590  -2.974  28.024  1.00  0.00     0.278 C 
ENDBRANCH  11  22
BRANCH   9  24
ATOM     24  O   UNL     1       1.066  -6.260  24.180  1.00  0.00    -0.490 OA
ATOM     25  C   UNL     1       0.412  -5.890  22.971  1.00  0.00     0.279 C 
ENDBRANCH   9  24
BRANCH  10  26
ATOM     26  O   UNL     1       1.346  -4.046  25.913  1.00  0.00    -0.490 OA
ATOM     27  C   UNL     1       0.715  -2.926  25.301  1.00  0.00     0.278 C 
ENDBRANCH  10  26
TORSDOF 6
ENDMDL
MODEL 2
REMARK VINA RESULT:    -4.416      1.427      3.679
REMARK INTER + INTRA:          -6.660
REMARK INTER:                  -6.027
REMARK INTRA:                  -0.632
REMARK UNBOUND:                -0.694
REMARK SMILES COc1ccc(-c2cc(=O)c3c(OC)c(OC)c(OC)c(OC)c3o2)cc1
REMARK SMILES IDX 7 1 8 2 9 3 10 4 11 5 24 6 25 7 21 8 18 9 15 10 12 11 6 12
REMARK SMILES IDX 3 13 4 14 27 15 5 16 26 17 2 18 1 19 22 20 23 21 13 22 14 23
REMARK SMILES IDX 19 24 20 25 16 26 17 27
REMARK H PARENT
REMARK Flexibility Score: inf
ROOT
ATOM      1  C   UNL     1       6.269  -6.420  24.741  1.00  0.00     0.138 A 
ATOM      2  C   UNL     1       5.120  -6.849  24.072  1.00  0.00     0.100 A 
ATOM      3  C   UNL     1       3.896  -6.257  24.370  1.00  0.00     0.197 A 
ATOM      4  O   UNL     1       2.873  -6.657  23.753  1.00  0.00    -0.289 OA
ATOM      5  C   UNL     1       3.826  -5.232  25.346  1.00  0.00     0.115 A 
ATOM      6  C   UNL     1       5.032  -4.849  25.980  1.00  0.00     0.188 A 
ATOM      7  O   UNL     1       6.172  -5.450  25.645  1.00  0.00    -0.452 OA
ATOM      8  C   UNL     1       5.032  -3.844  26.974  1.00  0.00     0.209 A 
ATOM      9  C   UNL     1       3.809  -3.232  27.349  1.00  0.00     0.211 A 
ATOM     10  C   UNL     1       2.606  -3.578  26.680  1.00  0.00     0.208 A 
ATOM     11  C   UNL     1       2.612  -4.593  25.689  1.00  0.00     0.179 A 
ENDROOT
BRANCH   1  12
ATOM     12  C   UNL     1       7.596  -7.017  24.457  1.00  0.00     0.018 A 
ATOM     13  C   UNL     1      10.142  -8.127  23.947  1.00  0.00     0.118 A 
ATOM     14  C   UNL     1       9.009  -8.602  23.263  1.00  0.00     0.047 A 
ATOM     15  C   UNL     1       9.988  -7.107  24.893  1.00  0.00     0.047 A 
ATOM     16  C   UNL     1       7.749  -8.054  23.518  1.00  0.00     0.016 A 
ATOM     17  C   UNL     1       8.729  -6.558  25.148  1.00  0.00     0.016 A 
BRANCH  13  18
ATOM     18  O   UNL     1      11.429  -8.638  23.721  1.00  0.00    -0.497 OA
ATOM     19  C   UNL     1      12.298  -8.195  22.684  1.00  0.00     0.278 C 
ENDBRANCH  13  18
ENDBRANCH   1  12
BRANCH   8  20
ATOM     20  O   UNL     1       6.212  -3.427  27.619  1.00  0.00    -0.490 OA
ATOM     21  C   UNL     1       6.859  -4.045  28.725  1.00  0.00     0.278 C 
ENDBRANCH   8  20
BRANCH  11  22
ATOM     22  O   UNL     1       1.442  -5.005  25.013  1.00  0.00    -0.492 OA
ATOM     23  C   UNL     1       0.596  -4.227  24.171  1.00  0.00     0.278 C 
ENDBRANCH  11  22
BRANCH   9  24
ATOM     24  O   UNL     1       3.733  -2.280  28.387  1.00  0.00    -0.490 OA
ATOM     25  C   UNL     1       3.868  -0.866  28.290  1.00  0.00     0.279 C 
ENDBRANCH   9  24
BRANCH  10  26
ATOM     26  O   UNL     1       1.380  -2.948  26.973  1.00  0.00    -0.490 OA
ATOM     27  C   UNL     1       0.412  -3.338  27.941  1.00  0.00     0.278 C 
ENDBRANCH  10  26
TORSDOF 6
ENDMDL
MODEL 3
REMARK VINA RESULT:    -4.332      2.470      8.018
REMARK INTER + INTRA:          -6.546
REMARK INTER:                  -5.877
REMARK INTRA:                  -0.669
REMARK UNBOUND:                -0.694
REMARK SMILES COc1ccc(-c2cc(=O)c3c(OC)c(OC)c(OC)c(OC)c3o2)cc1
REMARK SMILES IDX 7 1 8 2 9 3 10 4 11 5 24 6 25 7 21 8 18 9 15 10 12 11 6 12
REMARK SMILES IDX 3 13 4 14 27 15 5 16 26 17 2 18 1 19 22 20 23 21 13 22 14 23
REMARK SMILES IDX 19 24 20 25 16 26 17 27
REMARK H PARENT
REMARK Flexibility Score: inf
ROOT
ATOM      1  C   UNL     1       4.961  -3.727  27.548  1.00  0.00     0.138 A 
ATOM      2  C   UNL     1       6.002  -3.788  28.478  1.00  0.00     0.100 A 
ATOM      3  C   UNL     1       7.073  -4.647  28.246  1.00  0.00     0.197 A 
ATOM      4  O   UNL     1       8.002  -4.685  29.097  1.00  0.00    -0.289 OA
ATOM      5  C   UNL     1       7.097  -5.449  27.078  1.00  0.00     0.115 A 
ATOM      6  C   UNL     1       6.008  -5.331  26.182  1.00  0.00     0.188 A 
ATOM      7  O   UNL     1       5.016  -4.485  26.457  1.00  0.00    -0.452 OA
ATOM      8  C   UNL     1       5.959  -6.113  25.006  1.00  0.00     0.209 A 
ATOM      9  C   UNL     1       7.003  -7.035  24.736  1.00  0.00     0.211 A 
ATOM     10  C   UNL     1       8.120  -7.119  25.608  1.00  0.00     0.208 A 
ATOM     11  C   UNL     1       8.158  -6.337  26.790  1.00  0.00     0.179 A 
ENDROOT
BRANCH   1  12
ATOM     12  C   UNL     1       3.800  -2.826  27.747  1.00  0.00     0.018 A 
ATOM     13  C   UNL     1       1.564  -1.138  28.100  1.00  0.00     0.118 A 
ATOM     14  C   UNL     1       2.784  -0.845  28.736  1.00  0.00     0.047 A 
ATOM     15  C   UNL     1       1.470  -2.284  27.303  1.00  0.00     0.047 A 
ATOM     16  C   UNL     1       3.889  -1.683  28.563  1.00  0.00     0.016 A 
ATOM     17  C   UNL     1       2.575  -3.122  27.128  1.00  0.00     0.016 A 
BRANCH  13  18
ATOM     18  O   UNL     1       0.429  -0.325  28.236  1.00  0.00    -0.497 OA
ATOM     19  C   UNL     1       0.406   0.909  28.946  1.00  0.00     0.278 C 
ENDBRANCH  13  18
ENDBRANCH   1  12
BRANCH   8  20
ATOM     20  O   UNL     1       4.900  -6.015  24.083  1.00  0.00    -0.490 OA
ATOM     21  C   UNL     1       3.686  -6.756  24.078  1.00  0.00     0.278 C 
ENDBRANCH   8  20
BRANCH  11  22
ATOM     22  O   UNL     1       9.226  -6.403  27.713  1.00  0.00    -0.492 OA
ATOM     23  C   UNL     1       9.635  -7.515  28.503  1.00  0.00     0.278 C 
ENDBRANCH  11  22
BRANCH   9  24
ATOM     24  O   UNL     1       6.973  -7.897  23.620  1.00  0.00    -0.490 OA
ATOM     25  C   UNL     1       6.488  -9.234  23.560  1.00  0.00     0.279 C 
ENDBRANCH   9  24
BRANCH  10  26
ATOM     26  O   UNL     1       9.210  -7.972  25.344  1.00  0.00    -0.490 OA
ATOM     27  C   UNL     1      10.320  -7.726  24.488  1.00  0.00     0.278 C 
ENDBRANCH  10  26
TORSDOF 6
ENDMDL
MODEL 4
REMARK VINA RESULT:    -4.284      2.366      8.423
REMARK INTER + INTRA:          -6.481
REMARK INTER:                  -5.887
REMARK INTRA:                  -0.594
REMARK UNBOUND:                -0.694
REMARK SMILES COc1ccc(-c2cc(=O)c3c(OC)c(OC)c(OC)c(OC)c3o2)cc1
REMARK SMILES IDX 7 1 8 2 9 3 10 4 11 5 24 6 25 7 21 8 18 9 15 10 12 11 6 12
REMARK SMILES IDX 3 13 4 14 27 15 5 16 26 17 2 18 1 19 22 20 23 21 13 22 14 23
REMARK SMILES IDX 19 24 20 25 16 26 17 27
REMARK H PARENT
REMARK Flexibility Score: inf
ROOT
ATOM      1  C   UNL     1       4.192  -4.004  26.433  1.00  0.00     0.138 A 
ATOM      2  C   UNL     1       3.554  -4.757  25.444  1.00  0.00     0.100 A 
ATOM      3  C   UNL     1       4.225  -5.829  24.863  1.00  0.00     0.197 A 
ATOM      4  O   UNL     1       3.629  -6.495  23.975  1.00  0.00    -0.289 OA
ATOM      5  C   UNL     1       5.544  -6.144  25.275  1.00  0.00     0.115 A 
ATOM      6  C   UNL     1       6.124  -5.338  26.283  1.00  0.00     0.188 A 
ATOM      7  O   UNL     1       5.427  -4.330  26.804  1.00  0.00    -0.452 OA
ATOM      8  C   UNL     1       7.442  -5.586  26.729  1.00  0.00     0.209 A 
ATOM      9  C   UNL     1       8.191  -6.641  26.146  1.00  0.00     0.211 A 
ATOM     10  C   UNL     1       7.593  -7.482  25.171  1.00  0.00     0.208 A 
ATOM     11  C   UNL     1       6.274  -7.221  24.721  1.00  0.00     0.179 A 
ENDROOT
BRANCH   1  12
ATOM     12  C   UNL     1       3.519  -2.855  27.085  1.00  0.00     0.018 A 
ATOM     13  C   UNL     1       2.276  -0.649  28.334  1.00  0.00     0.118 A 
ATOM     14  C   UNL     1       1.500  -1.681  27.777  1.00  0.00     0.047 A 
ATOM     15  C   UNL     1       3.671  -0.723  28.248  1.00  0.00     0.047 A 
ATOM     16  C   UNL     1       2.116  -2.771  27.156  1.00  0.00     0.016 A 
ATOM     17  C   UNL     1       4.288  -1.814  27.629  1.00  0.00     0.016 A 
BRANCH  13  18
ATOM     18  O   UNL     1       1.706   0.462  28.973  1.00  0.00    -0.497 OA
ATOM     19  C   UNL     1       0.324   0.798  28.918  1.00  0.00     0.278 C 
ENDBRANCH  13  18
ENDBRANCH   1  12
BRANCH   8  20
ATOM     20  O   UNL     1       8.050  -4.816  27.738  1.00  0.00    -0.490 OA
ATOM     21  C   UNL     1       7.729  -4.798  29.125  1.00  0.00     0.278 C 
ENDBRANCH   8  20
BRANCH  11  22
ATOM     22  O   UNL     1       5.638  -8.002  23.729  1.00  0.00    -0.492 OA
ATOM     23  C   UNL     1       5.192  -9.351  23.828  1.00  0.00     0.278 C 
ENDBRANCH  11  22
BRANCH   9  24
ATOM     24  O   UNL     1       9.534  -6.889  26.494  1.00  0.00    -0.490 OA
ATOM     25  C   UNL     1      10.029  -7.702  27.552  1.00  0.00     0.279 C 
ENDBRANCH   9  24
BRANCH  10  26
ATOM     26  O   UNL     1       8.276  -8.581  24.613  1.00  0.00    -0.490 OA
ATOM     27  C   UNL     1       9.053  -8.608  23.420  1.00  0.00     0.278 C 
ENDBRANCH  10  26
TORSDOF 6
ENDMDL
MODEL 5
REMARK VINA RESULT:    -4.257      2.269      7.810
REMARK INTER + INTRA:          -6.444
REMARK INTER:                  -5.767
REMARK INTRA:                  -0.677
REMARK UNBOUND:                -0.694
REMARK SMILES COc1ccc(-c2cc(=O)c3c(OC)c(OC)c(OC)c(OC)c3o2)cc1
REMARK SMILES IDX 7 1 8 2 9 3 10 4 11 5 24 6 25 7 21 8 18 9 15 10 12 11 6 12
REMARK SMILES IDX 3 13 4 14 27 15 5 16 26 17 2 18 1 19 22 20 23 21 13 22 14 23
REMARK SMILES IDX 19 24 20 25 16 26 17 27
REMARK H PARENT
REMARK Flexibility Score: inf
ROOT
ATOM      1  C   UNL     1       4.216  -3.265  26.981  1.00  0.00     0.138 A 
ATOM      2  C   UNL     1       5.581  -3.365  27.259  1.00  0.00     0.100 A 
ATOM      3  C   UNL     1       6.317  -4.406  26.700  1.00  0.00     0.197 A 
ATOM      4  O   UNL     1       7.547  -4.475  26.962  1.00  0.00    -0.289 OA
ATOM      5  C   UNL     1       5.677  -5.352  25.861  1.00  0.00     0.115 A 
ATOM      6  C   UNL     1       4.292  -5.185  25.624  1.00  0.00     0.188 A 
ATOM      7  O   UNL     1       3.646  -4.163  26.183  1.00  0.00    -0.452 OA
ATOM      8  C   UNL     1       3.588  -6.102  24.810  1.00  0.00     0.209 A 
ATOM      9  C   UNL     1       4.276  -7.206  24.245  1.00  0.00     0.211 A 
ATOM     10  C   UNL     1       5.675  -7.347  24.440  1.00  0.00     0.208 A 
ATOM     11  C   UNL     1       6.373  -6.429  25.265  1.00  0.00     0.179 A 
ENDROOT
BRANCH   1  12
ATOM     12  C   UNL     1       3.389  -2.173  27.549  1.00  0.00     0.018 A 
ATOM     13  C   UNL     1       1.779  -0.114  28.619  1.00  0.00     0.118 A 
ATOM     14  C   UNL     1       3.179  -0.051  28.728  1.00  0.00     0.047 A 
ATOM     15  C   UNL     1       1.194  -1.217  27.987  1.00  0.00     0.047 A 
ATOM     16  C   UNL     1       3.975  -1.072  28.201  1.00  0.00     0.016 A 
ATOM     17  C   UNL     1       1.990  -2.238  27.458  1.00  0.00     0.016 A 
BRANCH  13  18
ATOM     18  O   UNL     1       0.937   0.887  29.125  1.00  0.00    -0.497 OA
ATOM     19  C   UNL     1       1.240   2.278  29.101  1.00  0.00     0.278 C 
ENDBRANCH  13  18
ENDBRANCH   1  12
BRANCH   8  20
ATOM     20  O   UNL     1       2.214  -5.962  24.540  1.00  0.00    -0.490 OA
ATOM     21  C   UNL     1       1.126  -6.495  25.288  1.00  0.00     0.278 C 
ENDBRANCH   8  20
BRANCH  11  22
ATOM     22  O   UNL     1       7.758  -6.537  25.524  1.00  0.00    -0.492 OA
ATOM     23  C   UNL     1       8.836  -6.374  24.608  1.00  0.00     0.278 C 
ENDBRANCH  11  22
BRANCH   9  24
ATOM     24  O   UNL     1       3.615  -8.195  23.489  1.00  0.00    -0.490 OA
ATOM     25  C   UNL     1       3.067  -9.426  23.947  1.00  0.00     0.279 C 
ENDBRANCH   9  24
BRANCH  10  26
ATOM     26  O   UNL     1       6.410  -8.391  23.844  1.00  0.00    -0.490 OA
ATOM     27  C   UNL     1       6.672  -9.685  24.375  1.00  0.00     0.278 C 
ENDBRANCH  10  26
TORSDOF 6
ENDMDL
MODEL 6
REMARK VINA RESULT:    -4.108      2.142      7.480
REMARK INTER + INTRA:          -6.243
REMARK INTER:                  -5.586
REMARK INTRA:                  -0.658
REMARK UNBOUND:                -0.694
REMARK SMILES COc1ccc(-c2cc(=O)c3c(OC)c(OC)c(OC)c(OC)c3o2)cc1
REMARK SMILES IDX 7 1 8 2 9 3 10 4 11 5 24 6 25 7 21 8 18 9 15 10 12 11 6 12
REMARK SMILES IDX 3 13 4 14 27 15 5 16 26 17 2 18 1 19 22 20 23 21 13 22 14 23
REMARK SMILES IDX 19 24 20 25 16 26 17 27
REMARK H PARENT
REMARK Flexibility Score: inf
ROOT
ATOM      1  C   UNL     1       5.769  -4.791  26.277  1.00  0.00     0.138 A 
ATOM      2  C   UNL     1       7.115  -4.557  26.570  1.00  0.00     0.100 A 
ATOM      3  C   UNL     1       8.080  -5.437  26.088  1.00  0.00     0.197 A 
ATOM      4  O   UNL     1       9.288  -5.206  26.362  1.00  0.00    -0.289 OA
ATOM      5  C   UNL     1       7.691  -6.556  25.311  1.00  0.00     0.115 A 
ATOM      6  C   UNL     1       6.310  -6.726  25.054  1.00  0.00     0.188 A 
ATOM      7  O   UNL     1       5.437  -5.845  25.539  1.00  0.00    -0.452 OA
ATOM      8  C   UNL     1       5.851  -7.830  24.301  1.00  0.00     0.209 A 
ATOM      9  C   UNL     1       6.785  -8.782  23.816  1.00  0.00     0.211 A 
ATOM     10  C   UNL     1       8.175  -8.587  24.029  1.00  0.00     0.208 A 
ATOM     11  C   UNL     1       8.627  -7.482  24.794  1.00  0.00     0.179 A 
ENDROOT
BRANCH   1  12
ATOM     12  C   UNL     1       4.704  -3.882  26.765  1.00  0.00     0.018 A 
ATOM     13  C   UNL     1       2.705  -2.130  27.718  1.00  0.00     0.118 A 
ATOM     14  C   UNL     1       2.400  -3.088  26.734  1.00  0.00     0.047 A 
ATOM     15  C   UNL     1       4.013  -2.047  28.207  1.00  0.00     0.047 A 
ATOM     16  C   UNL     1       3.391  -3.952  26.261  1.00  0.00     0.016 A 
ATOM     17  C   UNL     1       5.005  -2.912  27.735  1.00  0.00     0.016 A 
BRANCH  13  18
ATOM     18  O   UNL     1       1.745  -1.245  28.231  1.00  0.00    -0.497 OA
ATOM     19  C   UNL     1       2.038  -0.167  29.115  1.00  0.00     0.278 C 
ENDBRANCH  13  18
ENDBRANCH   1  12
BRANCH   8  20
ATOM     20  O   UNL     1       4.487  -8.027  24.013  1.00  0.00    -0.490 OA
ATOM     21  C   UNL     1       3.572  -8.873  24.699  1.00  0.00     0.278 C 
ENDBRANCH   8  20
BRANCH  11  22
ATOM     22  O   UNL     1       9.994  -7.254  25.069  1.00  0.00    -0.492 OA
ATOM     23  C   UNL     1      10.861  -8.020  25.900  1.00  0.00     0.278 C 
ENDBRANCH  11  22
BRANCH   9  24
ATOM     24  O   UNL     1       6.382  -9.943  23.125  1.00  0.00    -0.490 OA
ATOM     25  C   UNL     1       6.254 -10.125  21.719  1.00  0.00     0.279 C 
ENDBRANCH   9  24
BRANCH  10  26
ATOM     26  O   UNL     1       9.141  -9.471  23.510  1.00  0.00    -0.490 OA
ATOM     27  C   UNL     1       9.863  -9.350  22.289  1.00  0.00     0.278 C 
ENDBRANCH  10  26
TORSDOF 6
ENDMDL
MODEL 7
REMARK VINA RESULT:    -4.038      1.520      3.851
REMARK INTER + INTRA:          -6.149
REMARK INTER:                  -5.474
REMARK INTRA:                  -0.675
REMARK UNBOUND:                -0.694
REMARK SMILES COc1ccc(-c2cc(=O)c3c(OC)c(OC)c(OC)c(OC)c3o2)cc1
REMARK SMILES IDX 7 1 8 2 9 3 10 4 11 5 24 6 25 7 21 8 18 9 15 10 12 11 6 12
REMARK SMILES IDX 3 13 4 14 27 15 5 16 26 17 2 18 1 19 22 20 23 21 13 22 14 23
REMARK SMILES IDX 19 24 20 25 16 26 17 27
REMARK H PARENT
REMARK Flexibility Score: inf
ROOT
ATOM      1  C   UNL     1       7.725  -8.442  23.468  1.00  0.00     0.138 A 
ATOM      2  C   UNL     1       6.768  -9.417  23.174  1.00  0.00     0.100 A 
ATOM      3  C   UNL     1       5.444  -9.206  23.549  1.00  0.00     0.197 A 
ATOM      4  O   UNL     1       4.597 -10.097  23.272  1.00  0.00    -0.289 OA
ATOM      5  C   UNL     1       5.081  -8.014  24.224  1.00  0.00     0.115 A 
ATOM      6  C   UNL     1       6.105  -7.073  24.485  1.00  0.00     0.188 A 
ATOM      7  O   UNL     1       7.352  -7.330  24.094  1.00  0.00    -0.452 OA
ATOM      8  C   UNL     1       5.816  -5.870  25.169  1.00  0.00     0.209 A 
ATOM      9  C   UNL     1       4.492  -5.618  25.611  1.00  0.00     0.211 A 
ATOM     10  C   UNL     1       3.454  -6.537  25.306  1.00  0.00     0.208 A 
ATOM     11  C   UNL     1       3.753  -7.746  24.628  1.00  0.00     0.179 A 
ENDROOT
BRANCH   1  12
ATOM     12  C   UNL     1       9.148  -8.617  23.087  1.00  0.00     0.018 A 
ATOM     13  C   UNL     1      11.868  -8.929  22.397  1.00  0.00     0.118 A 
ATOM     14  C   UNL     1      10.862  -9.491  21.592  1.00  0.00     0.047 A 
ATOM     15  C   UNL     1      11.504  -8.226  23.551  1.00  0.00     0.047 A 
ATOM     16  C   UNL     1       9.516  -9.339  21.936  1.00  0.00     0.016 A 
ATOM     17  C   UNL     1      10.158  -8.072  23.895  1.00  0.00     0.016 A 
BRANCH  13  18
ATOM     18  O   UNL     1      13.233  -9.047  22.092  1.00  0.00    -0.497 OA
ATOM     19  C   UNL     1      14.126  -7.944  21.970  1.00  0.00     0.278 C 
ENDBRANCH  13  18
ENDBRANCH   1  12
BRANCH   8  20
ATOM     20  O   UNL     1       6.804  -4.903  25.435  1.00  0.00    -0.490 OA
ATOM     21  C   UNL     1       7.714  -4.874  26.530  1.00  0.00     0.278 C 
ENDBRANCH   8  20
BRANCH  11  22
ATOM     22  O   UNL     1       2.769  -8.714  24.327  1.00  0.00    -0.492 OA
ATOM     23  C   UNL     1       2.019  -9.514  25.237  1.00  0.00     0.278 C 
ENDBRANCH  11  22
BRANCH   9  24
ATOM     24  O   UNL     1       4.158  -4.474  26.364  1.00  0.00    -0.490 OA
ATOM     25  C   UNL     1       3.828  -3.175  25.883  1.00  0.00     0.279 C 
ENDBRANCH   9  24
BRANCH  10  26
ATOM     26  O   UNL     1       2.114  -6.296  25.667  1.00  0.00    -0.490 OA
ATOM     27  C   UNL     1       1.116  -5.623  24.907  1.00  0.00     0.278 C 
ENDBRANCH  10  26
TORSDOF 6
ENDMDL
MODEL 8
REMARK VINA RESULT:    -3.952      2.256      2.589
REMARK INTER + INTRA:          -6.033
REMARK INTER:                  -5.381
REMARK INTRA:                  -0.652
REMARK UNBOUND:                -0.694
REMARK SMILES COc1ccc(-c2cc(=O)c3c(OC)c(OC)c(OC)c(OC)c3o2)cc1
REMARK SMILES IDX 7 1 8 2 9 3 10 4 11 5 24 6 25 7 21 8 18 9 15 10 12 11 6 12
REMARK SMILES IDX 3 13 4 14 27 15 5 16 26 17 2 18 1 19 22 20 23 21 13 22 14 23
REMARK SMILES IDX 19 24 20 25 16 26 17 27
REMARK H PARENT
REMARK Flexibility Score: inf
ROOT
ATOM      1  C   UNL     1       7.306  -6.507  24.727  1.00  0.00     0.138 A 
ATOM      2  C   UNL     1       6.962  -5.248  24.228  1.00  0.00     0.100 A 
ATOM      3  C   UNL     1       5.926  -4.537  24.826  1.00  0.00     0.197 A 
ATOM      4  O   UNL     1       5.635  -3.402  24.361  1.00  0.00    -0.289 OA
ATOM      5  C   UNL     1       5.232  -5.093  25.929  1.00  0.00     0.115 A 
ATOM      6  C   UNL     1       5.638  -6.372  26.380  1.00  0.00     0.188 A 
ATOM      7  O   UNL     1       6.641  -6.998  25.769  1.00  0.00    -0.452 OA
ATOM      8  C   UNL     1       4.977  -6.992  27.465  1.00  0.00     0.209 A 
ATOM      9  C   UNL     1       3.888  -6.333  28.090  1.00  0.00     0.211 A 
ATOM     10  C   UNL     1       3.511  -5.029  27.672  1.00  0.00     0.208 A 
ATOM     11  C   UNL     1       4.173  -4.416  26.577  1.00  0.00     0.179 A 
ENDROOT
BRANCH   1  12
ATOM     12  C   UNL     1       8.403  -7.303  24.127  1.00  0.00     0.018 A 
ATOM     13  C   UNL     1      10.523  -8.800  23.013  1.00  0.00     0.118 A 
ATOM     14  C   UNL     1       9.207  -8.976  22.548  1.00  0.00     0.047 A 
ATOM     15  C   UNL     1      10.765  -7.885  24.043  1.00  0.00     0.047 A 
ATOM     16  C   UNL     1       8.158  -8.237  23.103  1.00  0.00     0.016 A 
ATOM     17  C   UNL     1       9.717  -7.144  24.597  1.00  0.00     0.016 A 
BRANCH  13  18
ATOM     18  O   UNL     1      11.610  -9.512  22.485  1.00  0.00    -0.497 OA
ATOM     19  C   UNL     1      12.553  -8.971  21.565  1.00  0.00     0.278 C 
ENDBRANCH  13  18
ENDBRANCH   1  12
BRANCH   8  20
ATOM     20  O   UNL     1       5.359  -8.257  27.951  1.00  0.00    -0.490 OA
ATOM     21  C   UNL     1       4.983  -9.530  27.440  1.00  0.00     0.278 C 
ENDBRANCH   8  20
BRANCH  11  22
ATOM     22  O   UNL     1       3.821  -3.136  26.094  1.00  0.00    -0.492 OA
ATOM     23  C   UNL     1       4.016  -1.876  26.728  1.00  0.00     0.278 C 
ENDBRANCH  11  22
BRANCH   9  24
ATOM     24  O   UNL     1       3.141  -6.932  29.124  1.00  0.00    -0.490 OA
ATOM     25  C   UNL     1       2.046  -7.834  29.004  1.00  0.00     0.279 C 
ENDBRANCH   9  24
BRANCH  10  26
ATOM     26  O   UNL     1       2.480  -4.310  28.307  1.00  0.00    -0.490 OA
ATOM     27  C   UNL     1       1.105  -4.255  27.941  1.00  0.00     0.278 C 
ENDBRANCH  10  26
TORSDOF 6
ENDMDL
MODEL 9
REMARK VINA RESULT:    -3.949      2.521      3.831
REMARK INTER + INTRA:          -6.028
REMARK INTER:                  -5.362
REMARK INTRA:                  -0.666
REMARK UNBOUND:                -0.694
REMARK SMILES COc1ccc(-c2cc(=O)c3c(OC)c(OC)c(OC)c(OC)c3o2)cc1
REMARK SMILES IDX 7 1 8 2 9 3 10 4 11 5 24 6 25 7 21 8 18 9 15 10 12 11 6 12
REMARK SMILES IDX 3 13 4 14 27 15 5 16 26 17 2 18 1 19 22 20 23 21 13 22 14 23
REMARK SMILES IDX 19 24 20 25 16 26 17 27
REMARK H PARENT
REMARK Flexibility Score: inf
ROOT
ATOM      1  C   UNL     1       8.288  -8.278  24.625  1.00  0.00     0.138 A 
ATOM      2  C   UNL     1       7.782  -9.311  25.418  1.00  0.00     0.100 A 
ATOM      3  C   UNL     1       6.668  -9.073  26.218  1.00  0.00     0.197 A 
ATOM      4  O   UNL     1       6.227 -10.019  26.924  1.00  0.00    -0.289 OA
ATOM      5  C   UNL     1       6.062  -7.792  26.223  1.00  0.00     0.115 A 
ATOM      6  C   UNL     1       6.629  -6.797  25.391  1.00  0.00     0.188 A 
ATOM      7  O   UNL     1       7.691  -7.090  24.644  1.00  0.00    -0.452 OA
ATOM      8  C   UNL     1       6.084  -5.493  25.360  1.00  0.00     0.209 A 
ATOM      9  C   UNL     1       4.973  -5.179  26.184  1.00  0.00     0.211 A 
ATOM     10  C   UNL     1       4.371  -6.189  26.981  1.00  0.00     0.208 A 
ATOM     11  C   UNL     1       4.928  -7.493  27.014  1.00  0.00     0.179 A 
ENDROOT
BRANCH   1  12
ATOM     12  C   UNL     1       9.470  -8.482  23.752  1.00  0.00     0.018 A 
ATOM     13  C   UNL     1      11.746  -8.849  22.122  1.00  0.00     0.118 A 
ATOM     14  C   UNL     1      10.498  -9.365  21.728  1.00  0.00     0.047 A 
ATOM     15  C   UNL     1      11.847  -8.165  23.339  1.00  0.00     0.047 A 
ATOM     16  C   UNL     1       9.373  -9.185  22.537  1.00  0.00     0.016 A 
ATOM     17  C   UNL     1      10.721  -7.984  24.148  1.00  0.00     0.016 A 
BRANCH  13  18
ATOM     18  O   UNL     1      12.903  -8.997  21.343  1.00  0.00    -0.497 OA
ATOM     19  C   UNL     1      13.965  -8.049  21.297  1.00  0.00     0.278 C 
ENDBRANCH  13  18
ENDBRANCH   1  12
BRANCH   8  20
ATOM     20  O   UNL     1       6.612  -4.480  24.538  1.00  0.00    -0.490 OA
ATOM     21  C   UNL     1       6.247  -4.178  23.195  1.00  0.00     0.278 C 
ENDBRANCH   8  20
BRANCH  11  22
ATOM     22  O   UNL     1       4.395  -8.529  27.812  1.00  0.00    -0.492 OA
ATOM     23  C   UNL     1       3.136  -9.181  27.676  1.00  0.00     0.278 C 
ENDBRANCH  11  22
BRANCH   9  24
ATOM     24  O   UNL     1       4.434  -3.879  26.254  1.00  0.00    -0.490 OA
ATOM     25  C   UNL     1       4.848  -2.804  27.090  1.00  0.00     0.279 C 
ENDBRANCH   9  24
BRANCH  10  26
ATOM     26  O   UNL     1       3.226  -5.940  27.763  1.00  0.00    -0.490 OA
ATOM     27  C   UNL     1       3.176  -5.523  29.123  1.00  0.00     0.278 C 
ENDBRANCH  10  26
TORSDOF 6
ENDMDL
