MODEL 1
REMARK VINA RESULT:    -3.878      0.000      0.000
REMARK INTER + INTRA:          -3.878
REMARK INTER:                  -3.878
REMARK INTRA:                   0.000
REMARK UNBOUND:                 0.000
REMARK SMILES CC1=CC(=O)[C@@H]2C[C@H]1C2(C)C
REMARK SMILES IDX 1 1 2 2 3 3 4 4 5 5 6 6 7 7 8 8 9 9 10 10 11 11
REMARK H PARENT
REMARK Flexibility Score: inf
ROOT
ATOM      1  C   UNL     1     101.036   9.309  80.856  1.00  0.00     0.040 C 
ATOM      2  C   UNL     1     100.668   8.492  79.658  1.00  0.00    -0.066 C 
ATOM      3  C   UNL     1      99.512   8.717  78.974  1.00  0.00     0.047 C 
ATOM      4  C   UNL     1      99.272   7.852  77.774  1.00  0.00     0.159 C 
ATOM      5  O   UNL     1      98.261   7.988  77.037  1.00  0.00    -0.295 OA
ATOM      6  C   UNL     1     100.344   6.794  77.505  1.00  0.00     0.067 C 
ATOM      7  C   UNL     1     100.607   6.163  78.890  1.00  0.00     0.021 C 
ATOM      8  C   UNL     1     101.569   7.346  79.150  1.00  0.00     0.022 C 
ATOM      9  C   UNL     1     101.742   7.468  77.607  1.00  0.00    -0.019 C 
ATOM     10  C   UNL     1     102.876   6.560  77.067  1.00  0.00     0.012 C 
ATOM     11  C   UNL     1     101.923   8.888  76.999  1.00  0.00     0.012 C 
ENDROOT
TORSDOF 0
ENDMDL
MODEL 2
REMARK VINA RESULT:    -3.841      1.924      3.106
REMARK INTER + INTRA:          -3.841
REMARK INTER:                  -3.841
REMARK INTRA:                   0.000
REMARK UNBOUND:                 0.000
REMARK SMILES CC1=CC(=O)[C@@H]2C[C@H]1C2(C)C
REMARK SMILES IDX 1 1 2 2 3 3 4 4 5 5 6 6 7 7 8 8 9 9 10 10 11 11
REMARK H PARENT
REMARK Flexibility Score: inf
ROOT
ATOM      1  C   UNL     1     101.765  10.654  76.741  1.00  0.00     0.040 C 
ATOM      2  C   UNL     1     101.532   9.631  77.808  1.00  0.00    -0.066 C 
ATOM      3  C   UNL     1     101.486   9.976  79.124  1.00  0.00     0.047 C 
ATOM      4  C   UNL     1     101.215   8.865  80.093  1.00  0.00     0.159 C 
ATOM      5  O   UNL     1     101.110   9.063  81.331  1.00  0.00    -0.295 OA
ATOM      6  C   UNL     1     101.075   7.474  79.470  1.00  0.00     0.067 C 
ATOM      7  C   UNL     1     102.254   7.384  78.477  1.00  0.00     0.021 C 
ATOM      8  C   UNL     1     101.352   8.135  77.471  1.00  0.00     0.022 C 
ATOM      9  C   UNL     1     100.122   7.575  78.245  1.00  0.00    -0.019 C 
ATOM     10  C   UNL     1      99.682   6.183  77.724  1.00  0.00     0.012 C 
ATOM     11  C   UNL     1      98.858   8.473  78.364  1.00  0.00     0.012 C 
ENDROOT
TORSDOF 0
ENDMDL
MODEL 3
REMARK VINA RESULT:    -3.767      8.325      9.539
REMARK INTER + INTRA:          -3.767
REMARK INTER:                  -3.767
REMARK INTRA:                   0.000
REMARK UNBOUND:                 0.000
REMARK SMILES CC1=CC(=O)[C@@H]2C[C@H]1C2(C)C
REMARK SMILES IDX 1 1 2 2 3 3 4 4 5 5 6 6 7 7 8 8 9 9 10 10 11 11
REMARK H PARENT
REMARK Flexibility Score: inf
ROOT
ATOM      1  C   UNL     1      97.940   5.327  72.507  1.00  0.00     0.040 C 
ATOM      2  C   UNL     1      97.849   5.699  71.060  1.00  0.00    -0.066 C 
ATOM      3  C   UNL     1      97.239   4.885  70.156  1.00  0.00     0.047 C 
ATOM      4  C   UNL     1      97.185   5.384  68.744  1.00  0.00     0.159 C 
ATOM      5  O   UNL     1      96.614   4.742  67.824  1.00  0.00    -0.295 OA
ATOM      6  C   UNL     1      97.871   6.729  68.499  1.00  0.00     0.067 C 
ATOM      7  C   UNL     1      99.221   6.605  69.240  1.00  0.00     0.021 C 
ATOM      8  C   UNL     1      98.456   7.012  70.521  1.00  0.00     0.022 C 
ATOM      9  C   UNL     1      97.418   7.725  69.605  1.00  0.00    -0.019 C 
ATOM     10  C   UNL     1      97.820   9.187  69.284  1.00  0.00     0.012 C 
ATOM     11  C   UNL     1      95.925   7.714  70.041  1.00  0.00     0.012 C 
ENDROOT
TORSDOF 0
ENDMDL
MODEL 4
REMARK VINA RESULT:    -3.719      8.297      9.730
REMARK INTER + INTRA:          -3.719
REMARK INTER:                  -3.719
REMARK INTRA:                   0.000
REMARK UNBOUND:                 0.000
REMARK SMILES CC1=CC(=O)[C@@H]2C[C@H]1C2(C)C
REMARK SMILES IDX 1 1 2 2 3 3 4 4 5 5 6 6 7 7 8 8 9 9 10 10 11 11
REMARK H PARENT
REMARK Flexibility Score: inf
ROOT
ATOM      1  C   UNL     1      98.051   4.791  67.520  1.00  0.00     0.040 C 
ATOM      2  C   UNL     1      97.740   5.587  68.748  1.00  0.00    -0.066 C 
ATOM      3  C   UNL     1      97.907   5.063  69.993  1.00  0.00     0.047 C 
ATOM      4  C   UNL     1      97.592   5.972  71.143  1.00  0.00     0.159 C 
ATOM      5  O   UNL     1      97.743   5.619  72.341  1.00  0.00    -0.295 OA
ATOM      6  C   UNL     1      97.075   7.359  70.757  1.00  0.00     0.067 C 
ATOM      7  C   UNL     1      96.022   7.080  69.662  1.00  0.00     0.021 C 
ATOM      8  C   UNL     1      97.201   7.031  68.663  1.00  0.00     0.022 C 
ATOM      9  C   UNL     1      97.996   7.940  69.646  1.00  0.00    -0.019 C 
ATOM     10  C   UNL     1      97.739   9.447  69.395  1.00  0.00     0.012 C 
ATOM     11  C   UNL     1      99.530   7.720  69.770  1.00  0.00     0.012 C 
ENDROOT
TORSDOF 0
ENDMDL
MODEL 5
REMARK VINA RESULT:    -3.668      3.258      4.907
REMARK INTER + INTRA:          -3.668
REMARK INTER:                  -3.668
REMARK INTRA:                   0.000
REMARK UNBOUND:                 0.000
REMARK SMILES CC1=CC(=O)[C@@H]2C[C@H]1C2(C)C
REMARK SMILES IDX 1 1 2 2 3 3 4 4 5 5 6 6 7 7 8 8 9 9 10 10 11 11
REMARK H PARENT
REMARK Flexibility Score: inf
ROOT
ATOM      1  C   UNL     1      96.261   8.129  75.752  1.00  0.00     0.040 C 
ATOM      2  C   UNL     1      97.384   7.164  75.966  1.00  0.00    -0.066 C 
ATOM      3  C   UNL     1      98.187   7.242  77.062  1.00  0.00     0.047 C 
ATOM      4  C   UNL     1      99.256   6.198  77.178  1.00  0.00     0.159 C 
ATOM      5  O   UNL     1     100.037   6.141  78.164  1.00  0.00    -0.295 OA
ATOM      6  C   UNL     1      99.332   5.208  76.015  1.00  0.00     0.067 C 
ATOM      7  C   UNL     1      99.230   6.096  74.755  1.00  0.00     0.021 C 
ATOM      8  C   UNL     1      97.697   6.046  74.949  1.00  0.00     0.022 C 
ATOM      9  C   UNL     1      97.895   4.699  75.704  1.00  0.00    -0.019 C 
ATOM     10  C   UNL     1      97.895   3.480  74.747  1.00  0.00     0.012 C 
ATOM     11  C   UNL     1      96.950   4.381  76.898  1.00  0.00     0.012 C 
ENDROOT
TORSDOF 0
ENDMDL
MODEL 6
REMARK VINA RESULT:    -3.613      8.261      9.459
REMARK INTER + INTRA:          -3.613
REMARK INTER:                  -3.613
REMARK INTRA:                   0.000
REMARK UNBOUND:                 0.000
REMARK SMILES CC1=CC(=O)[C@@H]2C[C@H]1C2(C)C
REMARK SMILES IDX 1 1 2 2 3 3 4 4 5 5 6 6 7 7 8 8 9 9 10 10 11 11
REMARK H PARENT
REMARK Flexibility Score: inf
ROOT
ATOM      1  C   UNL     1      98.233   9.669  69.070  1.00  0.00     0.040 C 
ATOM      2  C   UNL     1      97.822   8.243  69.263  1.00  0.00    -0.066 C 
ATOM      3  C   UNL     1      97.796   7.366  68.223  1.00  0.00     0.047 C 
ATOM      4  C   UNL     1      97.397   5.959  68.552  1.00  0.00     0.159 C 
ATOM      5  O   UNL     1      97.372   5.046  67.685  1.00  0.00    -0.295 OA
ATOM      6  C   UNL     1      97.023   5.709  70.014  1.00  0.00     0.067 C 
ATOM      7  C   UNL     1      96.101   6.895  70.376  1.00  0.00     0.021 C 
ATOM      8  C   UNL     1      97.391   7.704  70.644  1.00  0.00     0.022 C 
ATOM      9  C   UNL     1      98.113   6.352  70.920  1.00  0.00    -0.019 C 
ATOM     10  C   UNL     1      97.987   5.907  72.399  1.00  0.00     0.012 C 
ATOM     11  C   UNL     1      99.602   6.214  70.494  1.00  0.00     0.012 C 
ENDROOT
TORSDOF 0
ENDMDL
MODEL 7
REMARK VINA RESULT:    -3.576      1.513      3.280
REMARK INTER + INTRA:          -3.576
REMARK INTER:                  -3.576
REMARK INTRA:                   0.000
REMARK UNBOUND:                 0.000
REMARK SMILES CC1=CC(=O)[C@@H]2C[C@H]1C2(C)C
REMARK SMILES IDX 1 1 2 2 3 3 4 4 5 5 6 6 7 7 8 8 9 9 10 10 11 11
REMARK H PARENT
REMARK Flexibility Score: inf
ROOT
ATOM      1  C   UNL     1     100.007   4.243  78.839  1.00  0.00     0.040 C 
ATOM      2  C   UNL     1     100.457   5.537  78.237  1.00  0.00    -0.066 C 
ATOM      3  C   UNL     1     100.604   5.679  76.890  1.00  0.00     0.047 C 
ATOM      4  C   UNL     1     101.030   7.033  76.409  1.00  0.00     0.159 C 
ATOM      5  O   UNL     1     101.162   7.302  75.186  1.00  0.00    -0.295 OA
ATOM      6  C   UNL     1     101.292   8.066  77.507  1.00  0.00     0.067 C 
ATOM      7  C   UNL     1     102.134   7.300  78.552  1.00  0.00     0.021 C 
ATOM      8  C   UNL     1     100.795   6.764  79.110  1.00  0.00     0.022 C 
ATOM      9  C   UNL     1     100.108   8.028  78.515  1.00  0.00    -0.019 C 
ATOM     10  C   UNL     1     100.129   9.228  79.495  1.00  0.00     0.012 C 
ATOM     11  C   UNL     1      98.665   7.883  77.952  1.00  0.00     0.012 C 
ENDROOT
TORSDOF 0
ENDMDL
MODEL 8
REMARK VINA RESULT:    -3.553      3.316      4.466
REMARK INTER + INTRA:          -3.553
REMARK INTER:                  -3.553
REMARK INTRA:                   0.000
REMARK UNBOUND:                 0.000
REMARK SMILES CC1=CC(=O)[C@@H]2C[C@H]1C2(C)C
REMARK SMILES IDX 1 1 2 2 3 3 4 4 5 5 6 6 7 7 8 8 9 9 10 10 11 11
REMARK H PARENT
REMARK Flexibility Score: inf
ROOT
ATOM      1  C   UNL     1     100.416   5.534  78.128  1.00  0.00     0.040 C 
ATOM      2  C   UNL     1      99.181   5.539  77.283  1.00  0.00    -0.066 C 
ATOM      3  C   UNL     1      98.524   6.696  76.995  1.00  0.00     0.047 C 
ATOM      4  C   UNL     1      97.318   6.573  76.113  1.00  0.00     0.159 C 
ATOM      5  O   UNL     1      96.650   7.573  75.744  1.00  0.00    -0.295 OA
ATOM      6  C   UNL     1      96.958   5.147  75.693  1.00  0.00     0.067 C 
ATOM      7  C   UNL     1      97.066   4.329  76.999  1.00  0.00     0.021 C 
ATOM      8  C   UNL     1      98.583   4.235  76.713  1.00  0.00     0.022 C 
ATOM      9  C   UNL     1      98.252   4.433  75.204  1.00  0.00    -0.019 C 
ATOM     10  C   UNL     1      97.951   3.094  74.485  1.00  0.00     0.012 C 
ATOM     11  C   UNL     1      99.255   5.240  74.332  1.00  0.00     0.012 C 
ENDROOT
TORSDOF 0
ENDMDL
MODEL 9
REMARK VINA RESULT:    -3.533      1.357      3.227
REMARK INTER + INTRA:          -3.533
REMARK INTER:                  -3.533
REMARK INTRA:                   0.000
REMARK UNBOUND:                 0.000
REMARK SMILES CC1=CC(=O)[C@@H]2C[C@H]1C2(C)C
REMARK SMILES IDX 1 1 2 2 3 3 4 4 5 5 6 6 7 7 8 8 9 9 10 10 11 11
REMARK H PARENT
REMARK Flexibility Score: inf
ROOT
ATOM      1  C   UNL     1     102.992   9.552  76.632  1.00  0.00     0.040 C 
ATOM      2  C   UNL     1     101.742   9.328  77.424  1.00  0.00    -0.066 C 
ATOM      3  C   UNL     1     100.707   8.600  76.923  1.00  0.00     0.047 C 
ATOM      4  C   UNL     1      99.523   8.421  77.826  1.00  0.00     0.159 C 
ATOM      5  O   UNL     1      98.521   7.737  77.494  1.00  0.00    -0.295 OA
ATOM      6  C   UNL     1      99.621   9.127  79.180  1.00  0.00     0.067 C 
ATOM      7  C   UNL     1     100.141  10.540  78.833  1.00  0.00     0.021 C 
ATOM      8  C   UNL     1     101.559   9.924  78.836  1.00  0.00     0.022 C 
ATOM      9  C   UNL     1     101.017   8.825  79.796  1.00  0.00    -0.019 C 
ATOM     10  C   UNL     1     101.107   9.245  81.285  1.00  0.00     0.012 C 
ATOM     11  C   UNL     1     101.588   7.385  79.660  1.00  0.00     0.012 C 
ENDROOT
TORSDOF 0
ENDMDL
