MODEL 1
REMARK VINA RESULT:     6.161      0.000      0.000
REMARK INTER + INTRA:          10.847
REMARK INTER:                  11.924
REMARK INTRA:                  -1.076
REMARK UNBOUND:                -1.076
REMARK SMILES CCCCCCCCCCCCCCCCCC(=O)[O-]
REMARK SMILES IDX 10 1 11 2 12 3 13 4 14 5 15 6 16 7 17 8 18 9 19 10 20 11
REMARK SMILES IDX 9 12 8 13 7 14 6 15 5 16 4 17 3 18 2 19 1 20
REMARK H PARENT
REMARK Flexibility Score: inf
ROOT
ATOM      1  C   UNL     1     -30.788   7.248   1.304  1.00  0.00     0.000 C 
ENDROOT
BRANCH   1   2
ATOM      2  C   UNL     1     -29.292   7.411   0.995  1.00  0.00     0.000 C 
BRANCH   2   3
ATOM      3  C   UNL     1     -29.008   7.517  -0.512  1.00  0.00     0.000 C 
BRANCH   3   4
ATOM      4  C   UNL     1     -27.535   7.838  -0.815  1.00  0.00     0.000 C 
BRANCH   4   5
ATOM      5  C   UNL     1     -27.303   8.247  -2.279  1.00  0.00     0.000 C 
BRANCH   5   6
ATOM      6  C   UNL     1     -28.545   8.065  -3.177  1.00  0.00     0.000 C 
BRANCH   6   7
ATOM      7  C   UNL     1     -28.240   8.350  -4.656  1.00  0.00     0.006 C 
BRANCH   7   8
ATOM      8  C   UNL     1     -26.803   7.953  -5.006  1.00  0.00     0.053 C 
BRANCH   8   9
ATOM      9  C   UNL     1     -26.350   8.661  -6.244  1.00  0.00     0.041 C 
ATOM     10  O   UNL     1     -27.191   9.032  -7.105  1.00  0.00    -0.550 OA
ATOM     11  O   UNL     1     -24.995   8.868  -6.470  1.00  0.00    -0.550 OA
ENDBRANCH   8   9
ENDBRANCH   7   8
ENDBRANCH   6   7
ENDBRANCH   5   6
ENDBRANCH   4   5
ENDBRANCH   3   4
ENDBRANCH   2   3
ENDBRANCH   1   2
BRANCH   1  12
ATOM     12  C   UNL     1     -31.555   6.764   0.067  1.00  0.00     0.000 C 
BRANCH  12  13
ATOM     13  C   UNL     1     -32.363   7.909  -0.561  1.00  0.00    -0.000 C 
BRANCH  13  14
ATOM     14  C   UNL     1     -32.388   7.848  -2.097  1.00  0.00    -0.000 C 
BRANCH  14  15
ATOM     15  C   UNL     1     -33.587   8.602  -2.699  1.00  0.00    -0.000 C 
BRANCH  15  16
ATOM     16  C   UNL     1     -34.025   8.025  -4.055  1.00  0.00    -0.000 C 
BRANCH  16  17
ATOM     17  C   UNL     1     -32.847   7.484  -4.879  1.00  0.00    -0.000 C 
BRANCH  17  18
ATOM     18  C   UNL     1     -33.041   7.783  -6.374  1.00  0.00    -0.000 C 
BRANCH  18  19
ATOM     19  C   UNL     1     -33.724   6.628  -7.123  1.00  0.00    -0.003 C 
ATOM     20  C   UNL     1     -33.022   5.287  -6.910  1.00  0.00     0.004 C 
ENDBRANCH  18  19
ENDBRANCH  17  18
ENDBRANCH  16  17
ENDBRANCH  15  16
ENDBRANCH  14  15
ENDBRANCH  13  14
ENDBRANCH  12  13
ENDBRANCH   1  12
TORSDOF 16
ENDMDL
MODEL 2
REMARK VINA RESULT:     6.688      2.535      5.836
REMARK INTER + INTRA:          11.867
REMARK INTER:                  13.069
REMARK INTRA:                  -1.202
REMARK UNBOUND:                -1.076
REMARK SMILES CCCCCCCCCCCCCCCCCC(=O)[O-]
REMARK SMILES IDX 10 1 11 2 12 3 13 4 14 5 15 6 16 7 17 8 18 9 19 10 20 11
REMARK SMILES IDX 9 12 8 13 7 14 6 15 5 16 4 17 3 18 2 19 1 20
REMARK H PARENT
REMARK Flexibility Score: inf
ROOT
ATOM      1  C   UNL     1     -30.661   7.266   1.089  1.00  0.00     0.000 C 
ENDROOT
BRANCH   1   2
ATOM      2  C   UNL     1     -31.483   6.821  -0.131  1.00  0.00     0.000 C 
BRANCH   2   3
ATOM      3  C   UNL     1     -32.376   7.944  -0.682  1.00  0.00     0.000 C 
BRANCH   3   4
ATOM      4  C   UNL     1     -32.456   7.935  -2.218  1.00  0.00     0.000 C 
BRANCH   4   5
ATOM      5  C   UNL     1     -33.812   8.432  -2.747  1.00  0.00     0.000 C 
BRANCH   5   6
ATOM      6  C   UNL     1     -33.981   8.262  -4.272  1.00  0.00     0.000 C 
BRANCH   6   7
ATOM      7  C   UNL     1     -32.721   7.684  -4.936  1.00  0.00     0.006 C 
BRANCH   7   8
ATOM      8  C   UNL     1     -32.899   7.583  -6.454  1.00  0.00     0.053 C 
BRANCH   8   9
ATOM      9  C   UNL     1     -33.603   6.314  -6.816  1.00  0.00     0.041 C 
ATOM     10  O   UNL     1     -34.825   6.332  -7.123  1.00  0.00    -0.550 OA
ATOM     11  O   UNL     1     -32.924   5.103  -6.766  1.00  0.00    -0.550 OA
ENDBRANCH   8   9
ENDBRANCH   7   8
ENDBRANCH   6   7
ENDBRANCH   5   6
ENDBRANCH   4   5
ENDBRANCH   3   4
ENDBRANCH   2   3
ENDBRANCH   1   2
BRANCH   1  12
ATOM     12  C   UNL     1     -29.167   7.338   0.747  1.00  0.00     0.000 C 
BRANCH  12  13
ATOM     13  C   UNL     1     -28.959   7.667  -0.738  1.00  0.00    -0.000 C 
BRANCH  13  14
ATOM     14  C   UNL     1     -27.477   7.842  -1.107  1.00  0.00    -0.000 C 
BRANCH  14  15
ATOM     15  C   UNL     1     -27.273   8.147  -2.602  1.00  0.00    -0.000 C 
BRANCH  15  16
ATOM     16  C   UNL     1     -28.594   8.450  -3.327  1.00  0.00    -0.000 C 
BRANCH  16  17
ATOM     17  C   UNL     1     -28.468   8.357  -4.855  1.00  0.00    -0.000 C 
BRANCH  17  18
ATOM     18  C   UNL     1     -27.021   8.048  -5.268  1.00  0.00    -0.000 C 
BRANCH  18  19
ATOM     19  C   UNL     1     -26.625   8.724  -6.589  1.00  0.00    -0.003 C 
ATOM     20  C   UNL     1     -25.129   9.024  -6.676  1.00  0.00     0.004 C 
ENDBRANCH  18  19
ENDBRANCH  17  18
ENDBRANCH  16  17
ENDBRANCH  15  16
ENDBRANCH  14  15
ENDBRANCH  13  14
ENDBRANCH  12  13
ENDBRANCH   1  12
TORSDOF 16
ENDMDL
MODEL 3
REMARK VINA RESULT:     7.381      4.223      6.843
REMARK INTER + INTRA:          13.208
REMARK INTER:                  13.501
REMARK INTRA:                  -0.293
REMARK UNBOUND:                -1.076
REMARK SMILES CCCCCCCCCCCCCCCCCC(=O)[O-]
REMARK SMILES IDX 10 1 11 2 12 3 13 4 14 5 15 6 16 7 17 8 18 9 19 10 20 11
REMARK SMILES IDX 9 12 8 13 7 14 6 15 5 16 4 17 3 18 2 19 1 20
REMARK H PARENT
REMARK Flexibility Score: inf
ROOT
ATOM      1  C   UNL     1     -29.972   7.138   0.792  1.00  0.00     0.000 C 
ENDROOT
BRANCH   1   2
ATOM      2  C   UNL     1     -31.149   6.833  -0.149  1.00  0.00     0.000 C 
BRANCH   2   3
ATOM      3  C   UNL     1     -32.283   7.863  -0.027  1.00  0.00     0.000 C 
BRANCH   3   4
ATOM      4  C   UNL     1     -32.581   8.245   1.432  1.00  0.00     0.000 C 
BRANCH   4   5
ATOM      5  C   UNL     1     -33.357   9.567   1.556  1.00  0.00     0.000 C 
BRANCH   5   6
ATOM      6  C   UNL     1     -33.497  10.330   0.221  1.00  0.00     0.000 C 
BRANCH   6   7
ATOM      7  C   UNL     1     -33.238  11.836   0.382  1.00  0.00     0.006 C 
BRANCH   7   8
ATOM      8  C   UNL     1     -34.353  12.657  -0.274  1.00  0.00     0.053 C 
BRANCH   8   9
ATOM      9  C   UNL     1     -34.057  12.879  -1.724  1.00  0.00     0.041 C 
ATOM     10  O   UNL     1     -34.979  12.798  -2.578  1.00  0.00    -0.550 OA
ATOM     11  O   UNL     1     -32.754  13.125  -2.137  1.00  0.00    -0.550 OA
ENDBRANCH   8   9
ENDBRANCH   7   8
ENDBRANCH   6   7
ENDBRANCH   5   6
ENDBRANCH   4   5
ENDBRANCH   3   4
ENDBRANCH   2   3
ENDBRANCH   1   2
BRANCH   1  12
ATOM     12  C   UNL     1     -28.727   7.551  -0.003  1.00  0.00     0.000 C 
BRANCH  12  13
ATOM     13  C   UNL     1     -28.917   7.280  -1.502  1.00  0.00    -0.000 C 
BRANCH  13  14
ATOM     14  C   UNL     1     -28.244   8.340  -2.389  1.00  0.00    -0.000 C 
BRANCH  14  15
ATOM     15  C   UNL     1     -26.942   7.832  -3.032  1.00  0.00    -0.000 C 
BRANCH  15  16
ATOM     16  C   UNL     1     -27.084   7.598  -4.545  1.00  0.00    -0.000 C 
BRANCH  16  17
ATOM     17  C   UNL     1     -27.605   8.836  -5.291  1.00  0.00    -0.000 C 
BRANCH  17  18
ATOM     18  C   UNL     1     -27.324   8.726  -6.797  1.00  0.00    -0.000 C 
BRANCH  18  19
ATOM     19  C   UNL     1     -25.850   8.419  -7.103  1.00  0.00    -0.003 C 
ATOM     20  C   UNL     1     -24.914   8.813  -5.960  1.00  0.00     0.004 C 
ENDBRANCH  18  19
ENDBRANCH  17  18
ENDBRANCH  16  17
ENDBRANCH  15  16
ENDBRANCH  14  15
ENDBRANCH  13  14
ENDBRANCH  12  13
ENDBRANCH   1  12
TORSDOF 16
ENDMDL
MODEL 4
REMARK VINA RESULT:     7.730      2.868      4.112
REMARK INTER + INTRA:          13.885
REMARK INTER:                  12.732
REMARK INTRA:                   1.153
REMARK UNBOUND:                -1.076
REMARK SMILES CCCCCCCCCCCCCCCCCC(=O)[O-]
REMARK SMILES IDX 10 1 11 2 12 3 13 4 14 5 15 6 16 7 17 8 18 9 19 10 20 11
REMARK SMILES IDX 9 12 8 13 7 14 6 15 5 16 4 17 3 18 2 19 1 20
REMARK H PARENT
REMARK Flexibility Score: inf
ROOT
ATOM      1  C   UNL     1     -29.795   7.392   1.344  1.00  0.00     0.000 C 
ENDROOT
BRANCH   1   2
ATOM      2  C   UNL     1     -28.969   7.223   0.059  1.00  0.00     0.000 C 
BRANCH   2   3
ATOM      3  C   UNL     1     -29.847   6.985  -1.180  1.00  0.00     0.000 C 
BRANCH   3   4
ATOM      4  C   UNL     1     -29.117   7.314  -2.493  1.00  0.00     0.000 C 
BRANCH   4   5
ATOM      5  C   UNL     1     -27.849   8.156  -2.276  1.00  0.00     0.000 C 
BRANCH   5   6
ATOM      6  C   UNL     1     -27.185   8.625  -3.588  1.00  0.00     0.000 C 
BRANCH   6   7
ATOM      7  C   UNL     1     -27.924   8.106  -4.831  1.00  0.00     0.006 C 
BRANCH   7   8
ATOM      8  C   UNL     1     -26.946   7.475  -5.827  1.00  0.00     0.053 C 
BRANCH   8   9
ATOM      9  C   UNL     1     -26.121   8.530  -6.493  1.00  0.00     0.041 C 
ATOM     10  O   UNL     1     -24.897   8.333  -6.714  1.00  0.00    -0.550 OA
ATOM     11  O   UNL     1     -26.693   9.752  -6.825  1.00  0.00    -0.550 OA
ENDBRANCH   8   9
ENDBRANCH   7   8
ENDBRANCH   6   7
ENDBRANCH   5   6
ENDBRANCH   4   5
ENDBRANCH   3   4
ENDBRANCH   2   3
ENDBRANCH   1   2
BRANCH   1  12
ATOM     12  C   UNL     1     -31.233   6.899   1.141  1.00  0.00     0.000 C 
BRANCH  12  13
ATOM     13  C   UNL     1     -31.771   7.326  -0.232  1.00  0.00    -0.000 C 
BRANCH  13  14
ATOM     14  C   UNL     1     -32.825   8.442  -0.139  1.00  0.00    -0.000 C 
BRANCH  14  15
ATOM     15  C   UNL     1     -33.060   8.911   1.308  1.00  0.00    -0.000 C 
BRANCH  15  16
ATOM     16  C   UNL     1     -33.628  10.338   1.380  1.00  0.00    -0.000 C 
BRANCH  16  17
ATOM     17  C   UNL     1     -33.027  11.271   0.318  1.00  0.00    -0.000 C 
BRANCH  17  18
ATOM     18  C   UNL     1     -33.998  12.413  -0.020  1.00  0.00    -0.000 C 
BRANCH  18  19
ATOM     19  C   UNL     1     -33.685  13.075  -1.371  1.00  0.00    -0.003 C 
ATOM     20  C   UNL     1     -34.733  12.763  -2.440  1.00  0.00     0.004 C 
ENDBRANCH  18  19
ENDBRANCH  17  18
ENDBRANCH  16  17
ENDBRANCH  15  16
ENDBRANCH  14  15
ENDBRANCH  13  14
ENDBRANCH  12  13
ENDBRANCH   1  12
TORSDOF 16
ENDMDL
