MODEL 1
REMARK VINA RESULT:    -4.796      0.000      0.000
REMARK INTER + INTRA:          -7.215
REMARK INTER:                  -6.758
REMARK INTRA:                  -0.456
REMARK UNBOUND:                -0.456
REMARK SMILES CCCCCCCCC(=O)[O-]
REMARK SMILES IDX 6 1 7 2 8 3 9 4 10 5 11 6 5 7 4 8 3 9 2 10 1 11
REMARK H PARENT
REMARK Flexibility Score: inf
ROOT
ATOM      1  C   UNL     1       8.272 -12.971  25.962  1.00  0.00     0.000 C 
ENDROOT
BRANCH   1   2
ATOM      2  C   UNL     1       8.380 -13.375  27.440  1.00  0.00     0.006 C 
BRANCH   2   3
ATOM      3  C   UNL     1       8.855 -12.197  28.296  1.00  0.00     0.053 C 
BRANCH   3   4
ATOM      4  C   UNL     1       9.508 -12.689  29.548  1.00  0.00     0.041 C 
ATOM      5  O   UNL     1       9.096 -12.300  30.673  1.00  0.00    -0.550 OA
ATOM      6  O   UNL     1      10.539 -13.617  29.477  1.00  0.00    -0.550 OA
ENDBRANCH   3   4
ENDBRANCH   2   3
ENDBRANCH   1   2
BRANCH   1   7
ATOM      7  C   UNL     1       8.909 -11.601  25.668  1.00  0.00     0.000 C 
BRANCH   7   8
ATOM      8  C   UNL     1       9.642 -11.500  24.316  1.00  0.00    -0.000 C 
BRANCH   8   9
ATOM      9  C   UNL     1      10.853 -12.440  24.156  1.00  0.00    -0.000 C 
BRANCH   9  10
ATOM     10  C   UNL     1      11.869 -12.388  25.311  1.00  0.00    -0.003 C 
ATOM     11  C   UNL     1      13.231 -11.843  24.881  1.00  0.00     0.004 C 
ENDBRANCH   9  10
ENDBRANCH   8   9
ENDBRANCH   7   8
ENDBRANCH   1   7
TORSDOF 7
ENDMDL
MODEL 2
REMARK VINA RESULT:    -4.640      2.770      4.849
REMARK INTER + INTRA:          -6.996
REMARK INTER:                  -6.549
REMARK INTRA:                  -0.447
REMARK UNBOUND:                -0.456
REMARK SMILES CCCCCCCCC(=O)[O-]
REMARK SMILES IDX 6 1 7 2 8 3 9 4 10 5 11 6 5 7 4 8 3 9 2 10 1 11
REMARK H PARENT
REMARK Flexibility Score: inf
ROOT
ATOM      1  C   UNL     1       9.636 -11.947  24.533  1.00  0.00     0.000 C 
ENDROOT
BRANCH   1   2
ATOM      2  C   UNL     1      10.973 -12.607  24.164  1.00  0.00     0.006 C 
BRANCH   2   3
ATOM      3  C   UNL     1      11.953 -12.553  25.340  1.00  0.00     0.053 C 
BRANCH   3   4
ATOM      4  C   UNL     1      13.298 -12.090  24.878  1.00  0.00     0.041 C 
ATOM      5  O   UNL     1      13.511 -11.879  23.655  1.00  0.00    -0.550 OA
ATOM      6  O   UNL     1      14.304 -11.842  25.804  1.00  0.00    -0.550 OA
ENDBRANCH   3   4
ENDBRANCH   2   3
ENDBRANCH   1   2
BRANCH   1   7
ATOM      7  C   UNL     1       9.341 -11.996  26.043  1.00  0.00     0.000 C 
BRANCH   7   8
ATOM      8  C   UNL     1       8.278 -13.030  26.466  1.00  0.00    -0.000 C 
BRANCH   8   9
ATOM      9  C   UNL     1       8.305 -13.424  27.956  1.00  0.00    -0.000 C 
BRANCH   9  10
ATOM     10  C   UNL     1       9.193 -12.535  28.844  1.00  0.00    -0.003 C 
ATOM     11  C   UNL     1      10.426 -13.267  29.374  1.00  0.00     0.004 C 
ENDBRANCH   9  10
ENDBRANCH   8   9
ENDBRANCH   7   8
ENDBRANCH   1   7
TORSDOF 7
ENDMDL
MODEL 3
REMARK VINA RESULT:    -4.605      4.045      6.066
REMARK INTER + INTRA:          -6.946
REMARK INTER:                  -6.722
REMARK INTRA:                  -0.224
REMARK UNBOUND:                -0.456
REMARK SMILES CCCCCCCCC(=O)[O-]
REMARK SMILES IDX 6 1 7 2 8 3 9 4 10 5 11 6 5 7 4 8 3 9 2 10 1 11
REMARK H PARENT
REMARK Flexibility Score: inf
ROOT
ATOM      1  C   UNL     1       9.191 -11.719  25.121  1.00  0.00     0.000 C 
ENDROOT
BRANCH   1   2
ATOM      2  C   UNL     1       9.962 -12.016  23.827  1.00  0.00     0.006 C 
BRANCH   2   3
ATOM      3  C   UNL     1       9.152 -11.591  22.598  1.00  0.00     0.053 C 
BRANCH   3   4
ATOM      4  C   UNL     1       9.528 -12.420  21.411  1.00  0.00     0.041 C 
ATOM      5  O   UNL     1      10.706 -12.848  21.284  1.00  0.00    -0.550 OA
ATOM      6  O   UNL     1       8.567 -12.762  20.469  1.00  0.00    -0.550 OA
ENDBRANCH   3   4
ENDBRANCH   2   3
ENDBRANCH   1   2
BRANCH   1   7
ATOM      7  C   UNL     1       8.541 -12.973  25.732  1.00  0.00     0.000 C 
BRANCH   7   8
ATOM      8  C   UNL     1       8.348 -12.929  27.261  1.00  0.00    -0.000 C 
BRANCH   8   9
ATOM      9  C   UNL     1       9.639 -12.725  28.077  1.00  0.00    -0.000 C 
BRANCH   9  10
ATOM     10  C   UNL     1       9.432 -12.609  29.598  1.00  0.00    -0.003 C 
ATOM     11  C   UNL     1       8.079 -12.002  29.968  1.00  0.00     0.004 C 
ENDBRANCH   9  10
ENDBRANCH   8   9
ENDBRANCH   7   8
ENDBRANCH   1   7
TORSDOF 7
ENDMDL
MODEL 4
REMARK VINA RESULT:    -4.578      4.763      6.690
REMARK INTER + INTRA:          -6.907
REMARK INTER:                  -6.709
REMARK INTRA:                  -0.199
REMARK UNBOUND:                -0.456
REMARK SMILES CCCCCCCCC(=O)[O-]
REMARK SMILES IDX 6 1 7 2 8 3 9 4 10 5 11 6 5 7 4 8 3 9 2 10 1 11
REMARK H PARENT
REMARK Flexibility Score: inf
ROOT
ATOM      1  C   UNL     1       9.844 -12.121  23.715  1.00  0.00     0.000 C 
ENDROOT
BRANCH   1   2
ATOM      2  C   UNL     1       9.427 -11.852  22.262  1.00  0.00     0.006 C 
BRANCH   2   3
ATOM      3  C   UNL     1      10.307 -12.638  21.286  1.00  0.00     0.053 C 
BRANCH   3   4
ATOM      4  C   UNL     1      10.304 -11.989  19.938  1.00  0.00     0.041 C 
ATOM      5  O   UNL     1       9.598 -10.968  19.728  1.00  0.00    -0.550 OA
ATOM      6  O   UNL     1      11.120 -12.481  18.927  1.00  0.00    -0.550 OA
ENDBRANCH   3   4
ENDBRANCH   2   3
ENDBRANCH   1   2
BRANCH   1   7
ATOM      7  C   UNL     1       9.129 -11.203  24.723  1.00  0.00     0.000 C 
BRANCH   7   8
ATOM      8  C   UNL     1       9.142 -11.701  26.182  1.00  0.00    -0.000 C 
BRANCH   8   9
ATOM      9  C   UNL     1       8.441 -13.054  26.418  1.00  0.00    -0.000 C 
BRANCH   9  10
ATOM     10  C   UNL     1       8.162 -13.389  27.893  1.00  0.00    -0.003 C 
ATOM     11  C   UNL     1       8.692 -12.326  28.855  1.00  0.00     0.004 C 
ENDBRANCH   9  10
ENDBRANCH   8   9
ENDBRANCH   7   8
ENDBRANCH   1   7
TORSDOF 7
ENDMDL
MODEL 5
REMARK VINA RESULT:    -4.522      2.445      4.878
REMARK INTER + INTRA:          -6.829
REMARK INTER:                  -6.443
REMARK INTRA:                  -0.386
REMARK UNBOUND:                -0.456
REMARK SMILES CCCCCCCCC(=O)[O-]
REMARK SMILES IDX 6 1 7 2 8 3 9 4 10 5 11 6 5 7 4 8 3 9 2 10 1 11
REMARK H PARENT
REMARK Flexibility Score: inf
ROOT
ATOM      1  C   UNL     1      11.561 -12.451  25.330  1.00  0.00     0.000 C 
ENDROOT
BRANCH   1   2
ATOM      2  C   UNL     1      12.851 -11.881  24.722  1.00  0.00     0.006 C 
BRANCH   2   3
ATOM      3  C   UNL     1      14.068 -12.258  25.572  1.00  0.00     0.053 C 
BRANCH   3   4
ATOM      4  C   UNL     1      14.155 -13.742  25.734  1.00  0.00     0.041 C 
ATOM      5  O   UNL     1      14.321 -14.481  24.729  1.00  0.00    -0.550 OA
ATOM      6  O   UNL     1      14.103 -14.307  27.002  1.00  0.00    -0.550 OA
ENDBRANCH   3   4
ENDBRANCH   2   3
ENDBRANCH   1   2
BRANCH   1   7
ATOM      7  C   UNL     1      10.290 -11.803  24.751  1.00  0.00     0.000 C 
BRANCH   7   8
ATOM      8  C   UNL     1       9.119 -11.663  25.744  1.00  0.00    -0.000 C 
BRANCH   8   9
ATOM      9  C   UNL     1       8.389 -12.978  26.085  1.00  0.00    -0.000 C 
BRANCH   9  10
ATOM     10  C   UNL     1       8.303 -13.299  27.587  1.00  0.00    -0.003 C 
ATOM     11  C   UNL     1       9.341 -12.544  28.417  1.00  0.00     0.004 C 
ENDBRANCH   9  10
ENDBRANCH   8   9
ENDBRANCH   7   8
ENDBRANCH   1   7
TORSDOF 7
ENDMDL
MODEL 6
REMARK VINA RESULT:    -4.500      2.909      4.949
REMARK INTER + INTRA:          -6.797
REMARK INTER:                  -6.355
REMARK INTRA:                  -0.443
REMARK UNBOUND:                -0.456
REMARK SMILES CCCCCCCCC(=O)[O-]
REMARK SMILES IDX 6 1 7 2 8 3 9 4 10 5 11 6 5 7 4 8 3 9 2 10 1 11
REMARK H PARENT
REMARK Flexibility Score: inf
ROOT
ATOM      1  C   UNL     1      10.833 -12.439  24.242  1.00  0.00     0.000 C 
ENDROOT
BRANCH   1   2
ATOM      2  C   UNL     1      11.912 -12.348  25.331  1.00  0.00     0.006 C 
BRANCH   2   3
ATOM      3  C   UNL     1      13.284 -12.050  24.719  1.00  0.00     0.053 C 
BRANCH   3   4
ATOM      4  C   UNL     1      14.254 -13.139  25.051  1.00  0.00     0.041 C 
ATOM      5  O   UNL     1      13.896 -14.345  24.997  1.00  0.00    -0.550 OA
ATOM      6  O   UNL     1      15.568 -12.825  25.373  1.00  0.00    -0.550 OA
ENDBRANCH   3   4
ENDBRANCH   2   3
ENDBRANCH   1   2
BRANCH   1   7
ATOM      7  C   UNL     1       9.640 -11.502  24.502  1.00  0.00     0.000 C 
BRANCH   7   8
ATOM      8  C   UNL     1       9.018 -11.613  25.908  1.00  0.00    -0.000 C 
BRANCH   8   9
ATOM      9  C   UNL     1       8.364 -12.971  26.229  1.00  0.00    -0.000 C 
BRANCH   9  10
ATOM     10  C   UNL     1       8.314 -13.328  27.726  1.00  0.00    -0.003 C 
ATOM     11  C   UNL     1       9.341 -12.556  28.555  1.00  0.00     0.004 C 
ENDBRANCH   9  10
ENDBRANCH   8   9
ENDBRANCH   7   8
ENDBRANCH   1   7
TORSDOF 7
ENDMDL
MODEL 7
REMARK VINA RESULT:    -4.363      4.050      6.066
REMARK INTER + INTRA:          -6.605
REMARK INTER:                  -6.240
REMARK INTRA:                  -0.365
REMARK UNBOUND:                -0.456
REMARK SMILES CCCCCCCCC(=O)[O-]
REMARK SMILES IDX 6 1 7 2 8 3 9 4 10 5 11 6 5 7 4 8 3 9 2 10 1 11
REMARK H PARENT
REMARK Flexibility Score: inf
ROOT
ATOM      1  C   UNL     1      11.255 -12.255  24.739  1.00  0.00     0.000 C 
ENDROOT
BRANCH   1   2
ATOM      2  C   UNL     1      11.587 -13.322  23.686  1.00  0.00     0.006 C 
BRANCH   2   3
ATOM      3  C   UNL     1      10.927 -12.991  22.344  1.00  0.00     0.053 C 
BRANCH   3   4
ATOM      4  C   UNL     1      11.959 -12.880  21.267  1.00  0.00     0.041 C 
ATOM      5  O   UNL     1      13.183 -12.896  21.558  1.00  0.00    -0.550 OA
ATOM      6  O   UNL     1      11.569 -12.809  19.935  1.00  0.00    -0.550 OA
ENDBRANCH   3   4
ENDBRANCH   2   3
ENDBRANCH   1   2
BRANCH   1   7
ATOM      7  C   UNL     1       9.885 -11.594  24.509  1.00  0.00     0.000 C 
BRANCH   7   8
ATOM      8  C   UNL     1       9.001 -11.469  25.767  1.00  0.00    -0.000 C 
BRANCH   8   9
ATOM      9  C   UNL     1       9.071 -12.666  26.736  1.00  0.00    -0.000 C 
BRANCH   9  10
ATOM     10  C   UNL     1       8.936 -12.300  28.225  1.00  0.00    -0.003 C 
ATOM     11  C   UNL     1       9.980 -12.988  29.104  1.00  0.00     0.004 C 
ENDBRANCH   9  10
ENDBRANCH   8   9
ENDBRANCH   7   8
ENDBRANCH   1   7
TORSDOF 7
ENDMDL
MODEL 8
REMARK VINA RESULT:    -4.292      2.874      4.770
REMARK INTER + INTRA:          -6.505
REMARK INTER:                  -6.121
REMARK INTRA:                  -0.383
REMARK UNBOUND:                -0.456
REMARK SMILES CCCCCCCCC(=O)[O-]
REMARK SMILES IDX 6 1 7 2 8 3 9 4 10 5 11 6 5 7 4 8 3 9 2 10 1 11
REMARK H PARENT
REMARK Flexibility Score: inf
ROOT
ATOM      1  C   UNL     1      12.239 -11.919  25.017  1.00  0.00     0.000 C 
ENDROOT
BRANCH   1   2
ATOM      2  C   UNL     1      13.491 -12.790  25.201  1.00  0.00     0.006 C 
BRANCH   2   3
ATOM      3  C   UNL     1      13.572 -13.337  26.629  1.00  0.00     0.053 C 
BRANCH   3   4
ATOM      4  C   UNL     1      14.515 -14.496  26.693  1.00  0.00     0.041 C 
ATOM      5  O   UNL     1      15.463 -14.497  27.522  1.00  0.00    -0.550 OA
ATOM      6  O   UNL     1      14.319 -15.599  25.872  1.00  0.00    -0.550 OA
ENDBRANCH   3   4
ENDBRANCH   2   3
ENDBRANCH   1   2
BRANCH   1   7
ATOM      7  C   UNL     1      11.050 -12.698  24.426  1.00  0.00     0.000 C 
BRANCH   7   8
ATOM      8  C   UNL     1       9.750 -11.884  24.272  1.00  0.00    -0.000 C 
BRANCH   8   9
ATOM      9  C   UNL     1       9.031 -11.543  25.592  1.00  0.00    -0.000 C 
BRANCH   9  10
ATOM     10  C   UNL     1       8.823 -12.736  26.542  1.00  0.00    -0.003 C 
ATOM     11  C   UNL     1       9.099 -12.388  28.004  1.00  0.00     0.004 C 
ENDBRANCH   9  10
ENDBRANCH   8   9
ENDBRANCH   7   8
ENDBRANCH   1   7
TORSDOF 7
ENDMDL
MODEL 9
REMARK VINA RESULT:    -4.159      4.058      6.576
REMARK INTER + INTRA:          -6.317
REMARK INTER:                  -6.011
REMARK INTRA:                  -0.306
REMARK UNBOUND:                -0.456
REMARK SMILES CCCCCCCCC(=O)[O-]
REMARK SMILES IDX 6 1 7 2 8 3 9 4 10 5 11 6 5 7 4 8 3 9 2 10 1 11
REMARK H PARENT
REMARK Flexibility Score: inf
ROOT
ATOM      1  C   UNL     1      14.223 -13.348  28.889  1.00  0.00     0.000 C 
ENDROOT
BRANCH   1   2
ATOM      2  C   UNL     1      14.953 -13.201  27.546  1.00  0.00     0.006 C 
BRANCH   2   3
ATOM      3  C   UNL     1      16.018 -14.289  27.380  1.00  0.00     0.053 C 
BRANCH   3   4
ATOM      4  C   UNL     1      15.717 -15.139  26.187  1.00  0.00     0.041 C 
ATOM      5  O   UNL     1      16.620 -15.399  25.349  1.00  0.00    -0.550 OA
ATOM      6  O   UNL     1      14.450 -15.687  26.026  1.00  0.00    -0.550 OA
ENDBRANCH   3   4
ENDBRANCH   2   3
ENDBRANCH   1   2
BRANCH   1   7
ATOM      7  C   UNL     1      12.745 -13.744  28.727  1.00  0.00     0.000 C 
BRANCH   7   8
ATOM      8  C   UNL     1      11.902 -13.661  30.015  1.00  0.00    -0.000 C 
BRANCH   8   9
ATOM      9  C   UNL     1      10.412 -13.328  29.802  1.00  0.00    -0.000 C 
BRANCH   9  10
ATOM     10  C   UNL     1      10.068 -12.767  28.410  1.00  0.00    -0.003 C 
ATOM     11  C   UNL     1       8.566 -12.763  28.126  1.00  0.00     0.004 C 
ENDBRANCH   9  10
ENDBRANCH   8   9
ENDBRANCH   7   8
ENDBRANCH   1   7
TORSDOF 7
ENDMDL
