MODEL 1
REMARK VINA RESULT:    -5.504      0.000      0.000
REMARK INTER + INTRA:          -8.130
REMARK INTER:                  -7.596
REMARK INTRA:                  -0.535
REMARK UNBOUND:                -0.535
REMARK SMILES CCCCc1cccc(O)c1CCCC
REMARK SMILES IDX 5 1 11 2 9 3 8 4 7 5 6 6 4 7 3 8 2 9 1 10 12 11 13 12 14 13
REMARK SMILES IDX 15 14 10 15
REMARK H PARENT 10 16
REMARK Flexibility Score: inf
ROOT
ATOM      1  C   UNL     1     -10.456   5.312   6.767  1.00  0.00    -0.041 A 
ATOM      2  C   UNL     1     -11.760   4.845   6.427  1.00  0.00    -0.003 A 
ATOM      3  C   UNL     1     -12.563   4.257   7.443  1.00  0.00     0.119 A 
ATOM      4  C   UNL     1     -12.102   4.211   8.761  1.00  0.00     0.046 A 
ATOM      5  C   UNL     1     -10.847   4.712   9.091  1.00  0.00     0.004 A 
ATOM      6  C   UNL     1     -10.030   5.254   8.105  1.00  0.00     0.004 A 
ENDROOT
BRANCH   1   7
ATOM      7  C   UNL     1      -9.508   5.921   5.755  1.00  0.00     0.036 C 
BRANCH   7   8
ATOM      8  C   UNL     1      -8.983   7.276   6.248  1.00  0.00     0.004 C 
BRANCH   8   9
ATOM      9  C   UNL     1      -8.363   8.077   5.097  1.00  0.00    -0.003 C 
ATOM     10  C   UNL     1      -7.659   9.328   5.612  1.00  0.00     0.004 C 
ENDBRANCH   8   9
ENDBRANCH   7   8
ENDBRANCH   1   7
BRANCH   2  11
ATOM     11  C   UNL     1     -12.277   4.929   5.001  1.00  0.00     0.040 C 
BRANCH  11  12
ATOM     12  C   UNL     1     -13.309   6.058   4.860  1.00  0.00     0.005 C 
BRANCH  12  13
ATOM     13  C   UNL     1     -14.399   5.738   3.828  1.00  0.00    -0.003 C 
ATOM     14  C   UNL     1     -14.321   6.633   2.592  1.00  0.00     0.004 C 
ENDBRANCH  12  13
ENDBRANCH  11  12
ENDBRANCH   2  11
BRANCH   3  15
ATOM     15  O   UNL     1     -13.821   3.703   7.186  1.00  0.00    -0.508 OA
ATOM     16  H   UNL     1     -14.258   3.685   6.275  1.00  0.00     0.293 HD
ENDBRANCH   3  15
TORSDOF 7
ENDMDL
MODEL 2
REMARK VINA RESULT:    -5.488      2.072      4.478
REMARK INTER + INTRA:          -8.108
REMARK INTER:                  -7.077
REMARK INTRA:                  -1.031
REMARK UNBOUND:                -0.535
REMARK SMILES CCCCc1cccc(O)c1CCCC
REMARK SMILES IDX 5 1 11 2 9 3 8 4 7 5 6 6 4 7 3 8 2 9 1 10 12 11 13 12 14 13
REMARK SMILES IDX 15 14 10 15
REMARK H PARENT 10 16
REMARK Flexibility Score: inf
ROOT
ATOM      1  C   UNL     1     -12.107   5.017   6.114  1.00  0.00    -0.041 A 
ATOM      2  C   UNL     1     -11.741   5.164   7.484  1.00  0.00    -0.003 A 
ATOM      3  C   UNL     1     -10.373   5.382   7.807  1.00  0.00     0.119 A 
ATOM      4  C   UNL     1      -9.427   5.521   6.789  1.00  0.00     0.046 A 
ATOM      5  C   UNL     1      -9.802   5.423   5.453  1.00  0.00     0.004 A 
ATOM      6  C   UNL     1     -11.128   5.170   5.117  1.00  0.00     0.004 A 
ENDROOT
BRANCH   1   7
ATOM      7  C   UNL     1     -13.528   4.747   5.664  1.00  0.00     0.036 C 
BRANCH   7   8
ATOM      8  C   UNL     1     -13.674   4.977   4.154  1.00  0.00     0.004 C 
BRANCH   8   9
ATOM      9  C   UNL     1     -14.383   6.305   3.866  1.00  0.00    -0.003 C 
ATOM     10  C   UNL     1     -14.432   6.591   2.369  1.00  0.00     0.004 C 
ENDBRANCH   8   9
ENDBRANCH   7   8
ENDBRANCH   1   7
BRANCH   2  11
ATOM     11  C   UNL     1     -12.776   5.050   8.590  1.00  0.00     0.040 C 
BRANCH  11  12
ATOM     12  C   UNL     1     -13.273   6.439   9.018  1.00  0.00     0.005 C 
BRANCH  12  13
ATOM     13  C   UNL     1     -14.606   6.819   8.359  1.00  0.00    -0.003 C 
ATOM     14  C   UNL     1     -14.453   7.922   7.313  1.00  0.00     0.004 C 
ENDBRANCH  12  13
ENDBRANCH  11  12
ENDBRANCH   2  11
BRANCH   3  15
ATOM     15  O   UNL     1      -9.911   5.461   9.125  1.00  0.00    -0.508 OA
ATOM     16  H   UNL     1      -9.657   4.660   9.686  1.00  0.00     0.293 HD
ENDBRANCH   3  15
TORSDOF 7
ENDMDL
MODEL 3
REMARK VINA RESULT:    -5.409      1.550      4.775
REMARK INTER + INTRA:          -7.999
REMARK INTER:                  -7.577
REMARK INTRA:                  -0.421
REMARK UNBOUND:                -0.535
REMARK SMILES CCCCc1cccc(O)c1CCCC
REMARK SMILES IDX 5 1 11 2 9 3 8 4 7 5 6 6 4 7 3 8 2 9 1 10 12 11 13 12 14 13
REMARK SMILES IDX 15 14 10 15
REMARK H PARENT 10 16
REMARK Flexibility Score: inf
ROOT
ATOM      1  C   UNL     1     -12.219   5.366   6.233  1.00  0.00    -0.041 A 
ATOM      2  C   UNL     1     -11.097   5.911   6.924  1.00  0.00    -0.003 A 
ATOM      3  C   UNL     1     -10.542   5.180   8.010  1.00  0.00     0.119 A 
ATOM      4  C   UNL     1     -11.048   3.920   8.337  1.00  0.00     0.046 A 
ATOM      5  C   UNL     1     -12.113   3.376   7.627  1.00  0.00     0.004 A 
ATOM      6  C   UNL     1     -12.696   4.093   6.587  1.00  0.00     0.004 A 
ENDROOT
BRANCH   1   7
ATOM      7  C   UNL     1     -12.907   6.078   5.086  1.00  0.00     0.036 C 
BRANCH   7   8
ATOM      8  C   UNL     1     -13.628   5.074   4.176  1.00  0.00     0.004 C 
BRANCH   8   9
ATOM      9  C   UNL     1     -14.791   5.742   3.434  1.00  0.00    -0.003 C 
ATOM     10  C   UNL     1     -14.283   6.708   2.368  1.00  0.00     0.004 C 
ENDBRANCH   8   9
ENDBRANCH   7   8
ENDBRANCH   1   7
BRANCH   2  11
ATOM     11  C   UNL     1     -10.522   7.265   6.544  1.00  0.00     0.040 C 
BRANCH  11  12
ATOM     12  C   UNL     1      -9.096   7.118   5.994  1.00  0.00     0.005 C 
BRANCH  12  13
ATOM     13  C   UNL     1      -8.222   8.346   6.281  1.00  0.00    -0.003 C 
ATOM     14  C   UNL     1      -7.941   9.176   5.029  1.00  0.00     0.004 C 
ENDBRANCH  12  13
ENDBRANCH  11  12
ENDBRANCH   2  11
BRANCH   3  15
ATOM     15  O   UNL     1      -9.492   5.671   8.793  1.00  0.00    -0.508 OA
ATOM     16  H   UNL     1      -8.659   6.103   8.419  1.00  0.00     0.293 HD
ENDBRANCH   3  15
TORSDOF 7
ENDMDL
MODEL 4
REMARK VINA RESULT:    -5.340     16.703     18.168
REMARK INTER + INTRA:          -7.904
REMARK INTER:                  -6.783
REMARK INTRA:                  -1.121
REMARK UNBOUND:                -0.535
REMARK SMILES CCCCc1cccc(O)c1CCCC
REMARK SMILES IDX 5 1 11 2 9 3 8 4 7 5 6 6 4 7 3 8 2 9 1 10 12 11 13 12 14 13
REMARK SMILES IDX 15 14 10 15
REMARK H PARENT 10 16
REMARK Flexibility Score: inf
ROOT
ATOM      1  C   UNL     1     -10.879  -5.892  -7.149  1.00  0.00    -0.041 A 
ATOM      2  C   UNL     1     -11.860  -6.735  -7.751  1.00  0.00    -0.003 A 
ATOM      3  C   UNL     1     -12.921  -7.231  -6.945  1.00  0.00     0.119 A 
ATOM      4  C   UNL     1     -13.032  -6.835  -5.610  1.00  0.00     0.046 A 
ATOM      5  C   UNL     1     -12.095  -5.975  -5.046  1.00  0.00     0.004 A 
ATOM      6  C   UNL     1     -11.027  -5.510  -5.805  1.00  0.00     0.004 A 
ENDROOT
BRANCH   1   7
ATOM      7  C   UNL     1      -9.690  -5.339  -7.907  1.00  0.00     0.036 C 
BRANCH   7   8
ATOM      8  C   UNL     1      -9.435  -3.875  -7.526  1.00  0.00     0.004 C 
BRANCH   8   9
ATOM      9  C   UNL     1      -9.976  -2.925  -8.601  1.00  0.00    -0.003 C 
ATOM     10  C   UNL     1      -9.788  -3.508  -9.998  1.00  0.00     0.004 C 
ENDBRANCH   8   9
ENDBRANCH   7   8
ENDBRANCH   1   7
BRANCH   2  11
ATOM     11  C   UNL     1     -11.761  -7.136  -9.212  1.00  0.00     0.040 C 
BRANCH  11  12
ATOM     12  C   UNL     1     -12.871  -6.469 -10.038  1.00  0.00     0.005 C 
BRANCH  12  13
ATOM     13  C   UNL     1     -13.174  -5.038  -9.573  1.00  0.00    -0.003 C 
ATOM     14  C   UNL     1     -14.662  -4.803  -9.321  1.00  0.00     0.004 C 
ENDBRANCH  12  13
ENDBRANCH  11  12
ENDBRANCH   2  11
BRANCH   3  15
ATOM     15  O   UNL     1     -13.883  -8.124  -7.429  1.00  0.00    -0.508 OA
ATOM     16  H   UNL     1     -13.667  -8.997  -7.889  1.00  0.00     0.293 HD
ENDBRANCH   3  15
TORSDOF 7
ENDMDL
MODEL 5
REMARK VINA RESULT:    -5.263     16.556     18.372
REMARK INTER + INTRA:          -7.797
REMARK INTER:                  -6.826
REMARK INTRA:                  -0.971
REMARK UNBOUND:                -0.535
REMARK SMILES CCCCc1cccc(O)c1CCCC
REMARK SMILES IDX 5 1 11 2 9 3 8 4 7 5 6 6 4 7 3 8 2 9 1 10 12 11 13 12 14 13
REMARK SMILES IDX 15 14 10 15
REMARK H PARENT 10 16
REMARK Flexibility Score: inf
ROOT
ATOM      1  C   UNL     1     -12.496  -6.241  -7.771  1.00  0.00    -0.041 A 
ATOM      2  C   UNL     1     -11.301  -5.466  -7.842  1.00  0.00    -0.003 A 
ATOM      3  C   UNL     1     -10.639  -5.117  -6.633  1.00  0.00     0.119 A 
ATOM      4  C   UNL     1     -11.118  -5.592  -5.410  1.00  0.00     0.046 A 
ATOM      5  C   UNL     1     -12.259  -6.387  -5.355  1.00  0.00     0.004 A 
ATOM      6  C   UNL     1     -12.944  -6.707  -6.523  1.00  0.00     0.004 A 
ENDROOT
BRANCH   1   7
ATOM      7  C   UNL     1     -13.297  -6.637  -8.994  1.00  0.00     0.036 C 
BRANCH   7   8
ATOM      8  C   UNL     1     -14.625  -5.870  -9.047  1.00  0.00     0.004 C 
BRANCH   8   9
ATOM      9  C   UNL     1     -14.728  -5.037 -10.330  1.00  0.00    -0.003 C 
ATOM     10  C   UNL     1     -14.959  -3.563 -10.013  1.00  0.00     0.004 C 
ENDBRANCH   8   9
ENDBRANCH   7   8
ENDBRANCH   1   7
BRANCH   2  11
ATOM     11  C   UNL     1     -10.758  -4.980  -9.175  1.00  0.00     0.040 C 
BRANCH  11  12
ATOM     12  C   UNL     1     -11.348  -3.609  -9.537  1.00  0.00     0.005 C 
BRANCH  12  13
ATOM     13  C   UNL     1     -10.283  -2.506  -9.603  1.00  0.00    -0.003 C 
ATOM     14  C   UNL     1     -10.865  -1.146  -9.987  1.00  0.00     0.004 C 
ENDBRANCH  12  13
ENDBRANCH  11  12
ENDBRANCH   2  11
BRANCH   3  15
ATOM     15  O   UNL     1      -9.507  -4.297  -6.600  1.00  0.00    -0.508 OA
ATOM     16  H   UNL     1      -8.605  -4.588  -6.250  1.00  0.00     0.293 HD
ENDBRANCH   3  15
TORSDOF 7
ENDMDL
MODEL 6
REMARK VINA RESULT:    -5.211      2.585      3.256
REMARK INTER + INTRA:          -7.726
REMARK INTER:                  -6.676
REMARK INTRA:                  -1.050
REMARK UNBOUND:                -0.535
REMARK SMILES CCCCc1cccc(O)c1CCCC
REMARK SMILES IDX 5 1 11 2 9 3 8 4 7 5 6 6 4 7 3 8 2 9 1 10 12 11 13 12 14 13
REMARK SMILES IDX 15 14 10 15
REMARK H PARENT 10 16
REMARK Flexibility Score: inf
ROOT
ATOM      1  C   UNL     1     -13.263   4.898   7.640  1.00  0.00    -0.041 A 
ATOM      2  C   UNL     1     -12.896   4.322   6.388  1.00  0.00    -0.003 A 
ATOM      3  C   UNL     1     -11.783   3.438   6.342  1.00  0.00     0.119 A 
ATOM      4  C   UNL     1     -11.116   3.090   7.519  1.00  0.00     0.046 A 
ATOM      5  C   UNL     1     -11.512   3.621   8.742  1.00  0.00     0.004 A 
ATOM      6  C   UNL     1     -12.573   4.519   8.803  1.00  0.00     0.004 A 
ENDROOT
BRANCH   1   7
ATOM      7  C   UNL     1     -14.409   5.878   7.793  1.00  0.00     0.036 C 
BRANCH   7   8
ATOM      8  C   UNL     1     -13.951   7.137   8.540  1.00  0.00     0.004 C 
BRANCH   8   9
ATOM      9  C   UNL     1     -13.790   8.319   7.576  1.00  0.00    -0.003 C 
ATOM     10  C   UNL     1     -12.329   8.520   7.190  1.00  0.00     0.004 C 
ENDBRANCH   8   9
ENDBRANCH   7   8
ENDBRANCH   1   7
BRANCH   2  11
ATOM     11  C   UNL     1     -13.645   4.672   5.113  1.00  0.00     0.040 C 
BRANCH  11  12
ATOM     12  C   UNL     1     -13.230   6.058   4.599  1.00  0.00     0.005 C 
BRANCH  12  13
ATOM     13  C   UNL     1     -14.386   6.807   3.921  1.00  0.00    -0.003 C 
ATOM     14  C   UNL     1     -14.389   6.636   2.402  1.00  0.00     0.004 C 
ENDBRANCH  12  13
ENDBRANCH  11  12
ENDBRANCH   2  11
BRANCH   3  15
ATOM     15  O   UNL     1     -11.304   2.888   5.149  1.00  0.00    -0.508 OA
ATOM     16  H   UNL     1     -10.616   3.331   4.555  1.00  0.00     0.293 HD
ENDBRANCH   3  15
TORSDOF 7
ENDMDL
MODEL 7
REMARK VINA RESULT:    -5.160     16.729     18.701
REMARK INTER + INTRA:          -7.655
REMARK INTER:                  -6.297
REMARK INTRA:                  -1.358
REMARK UNBOUND:                -0.535
REMARK SMILES CCCCc1cccc(O)c1CCCC
REMARK SMILES IDX 5 1 11 2 9 3 8 4 7 5 6 6 4 7 3 8 2 9 1 10 12 11 13 12 14 13
REMARK SMILES IDX 15 14 10 15
REMARK H PARENT 10 16
REMARK Flexibility Score: inf
ROOT
ATOM      1  C   UNL     1     -11.335  -5.718  -8.761  1.00  0.00    -0.041 A 
ATOM      2  C   UNL     1     -10.671  -5.458  -7.526  1.00  0.00    -0.003 A 
ATOM      3  C   UNL     1      -9.986  -4.222  -7.366  1.00  0.00     0.119 A 
ATOM      4  C   UNL     1     -10.033  -3.258  -8.376  1.00  0.00     0.046 A 
ATOM      5  C   UNL     1     -10.724  -3.504  -9.558  1.00  0.00     0.004 A 
ATOM      6  C   UNL     1     -11.366  -4.722  -9.752  1.00  0.00     0.004 A 
ENDROOT
BRANCH   1   7
ATOM      7  C   UNL     1     -12.063  -7.015  -9.048  1.00  0.00     0.036 C 
BRANCH   7   8
ATOM      8  C   UNL     1     -13.348  -6.753  -9.845  1.00  0.00     0.004 C 
BRANCH   8   9
ATOM      9  C   UNL     1     -14.571  -6.720  -8.921  1.00  0.00    -0.003 C 
ATOM     10  C   UNL     1     -15.027  -5.288  -8.662  1.00  0.00     0.004 C 
ENDBRANCH   8   9
ENDBRANCH   7   8
ENDBRANCH   1   7
BRANCH   2  11
ATOM     11  C   UNL     1     -10.651  -6.490  -6.412  1.00  0.00     0.040 C 
BRANCH  11  12
ATOM     12  C   UNL     1     -11.611  -6.091  -5.281  1.00  0.00     0.005 C 
BRANCH  12  13
ATOM     13  C   UNL     1     -13.056  -6.532  -5.550  1.00  0.00    -0.003 C 
ATOM     14  C   UNL     1     -13.206  -8.051  -5.619  1.00  0.00     0.004 C 
ENDBRANCH  12  13
ENDBRANCH  11  12
ENDBRANCH   2  11
BRANCH   3  15
ATOM     15  O   UNL     1      -9.243  -3.912  -6.222  1.00  0.00    -0.508 OA
ATOM     16  H   UNL     1      -8.568  -3.162  -6.169  1.00  0.00     0.293 HD
ENDBRANCH   3  15
TORSDOF 7
ENDMDL
MODEL 8
REMARK VINA RESULT:    -5.144      2.311      4.335
REMARK INTER + INTRA:          -7.634
REMARK INTER:                  -6.697
REMARK INTRA:                  -0.937
REMARK UNBOUND:                -0.535
REMARK SMILES CCCCc1cccc(O)c1CCCC
REMARK SMILES IDX 5 1 11 2 9 3 8 4 7 5 6 6 4 7 3 8 2 9 1 10 12 11 13 12 14 13
REMARK SMILES IDX 15 14 10 15
REMARK H PARENT 10 16
REMARK Flexibility Score: inf
ROOT
ATOM      1  C   UNL     1     -12.772   5.048   6.430  1.00  0.00    -0.041 A 
ATOM      2  C   UNL     1     -11.958   5.789   7.337  1.00  0.00    -0.003 A 
ATOM      3  C   UNL     1     -10.893   5.121   8.002  1.00  0.00     0.119 A 
ATOM      4  C   UNL     1     -10.612   3.785   7.707  1.00  0.00     0.046 A 
ATOM      5  C   UNL     1     -11.383   3.084   6.785  1.00  0.00     0.004 A 
ATOM      6  C   UNL     1     -12.455   3.707   6.155  1.00  0.00     0.004 A 
ENDROOT
BRANCH   1   7
ATOM      7  C   UNL     1     -13.952   5.653   5.698  1.00  0.00     0.036 C 
BRANCH   7   8
ATOM      8  C   UNL     1     -13.872   5.355   4.196  1.00  0.00     0.004 C 
BRANCH   8   9
ATOM      9  C   UNL     1     -14.925   6.154   3.419  1.00  0.00    -0.003 C 
ATOM     10  C   UNL     1     -14.312   6.838   2.202  1.00  0.00     0.004 C 
ENDBRANCH   8   9
ENDBRANCH   7   8
ENDBRANCH   1   7
BRANCH   2  11
ATOM     11  C   UNL     1     -12.240   7.253   7.630  1.00  0.00     0.040 C 
BRANCH  11  12
ATOM     12  C   UNL     1     -11.557   8.158   6.593  1.00  0.00     0.005 C 
BRANCH  12  13
ATOM     13  C   UNL     1     -12.338   9.454   6.334  1.00  0.00    -0.003 C 
ATOM     14  C   UNL     1     -13.494   9.259   5.354  1.00  0.00     0.004 C 
ENDBRANCH  12  13
ENDBRANCH  11  12
ENDBRANCH   2  11
BRANCH   3  15
ATOM     15  O   UNL     1     -10.092   5.746   8.964  1.00  0.00    -0.508 OA
ATOM     16  H   UNL     1      -9.514   5.251   9.629  1.00  0.00     0.293 HD
ENDBRANCH   3  15
TORSDOF 7
ENDMDL
MODEL 9
REMARK VINA RESULT:    -5.103      2.160      4.679
REMARK INTER + INTRA:          -7.576
REMARK INTER:                  -6.267
REMARK INTRA:                  -1.309
REMARK UNBOUND:                -0.535
REMARK SMILES CCCCc1cccc(O)c1CCCC
REMARK SMILES IDX 5 1 11 2 9 3 8 4 7 5 6 6 4 7 3 8 2 9 1 10 12 11 13 12 14 13
REMARK SMILES IDX 15 14 10 15
REMARK H PARENT 10 16
REMARK Flexibility Score: inf
ROOT
ATOM      1  C   UNL     1     -14.121   6.192   6.481  1.00  0.00    -0.041 A 
ATOM      2  C   UNL     1     -13.342   5.023   6.723  1.00  0.00    -0.003 A 
ATOM      3  C   UNL     1     -12.918   4.241   5.614  1.00  0.00     0.119 A 
ATOM      4  C   UNL     1     -13.202   4.661   4.312  1.00  0.00     0.046 A 
ATOM      5  C   UNL     1     -13.923   5.829   4.085  1.00  0.00     0.004 A 
ATOM      6  C   UNL     1     -14.381   6.586   5.157  1.00  0.00     0.004 A 
ENDROOT
BRANCH   1   7
ATOM      7  C   UNL     1     -14.653   7.074   7.591  1.00  0.00     0.036 C 
BRANCH   7   8
ATOM      8  C   UNL     1     -14.279   8.542   7.347  1.00  0.00     0.004 C 
BRANCH   8   9
ATOM      9  C   UNL     1     -12.870   8.845   7.869  1.00  0.00    -0.003 C 
ATOM     10  C   UNL     1     -11.869   8.956   6.724  1.00  0.00     0.004 C 
ENDBRANCH   8   9
ENDBRANCH   7   8
ENDBRANCH   1   7
BRANCH   2  11
ATOM     11  C   UNL     1     -13.000   4.586   8.138  1.00  0.00     0.040 C 
BRANCH  11  12
ATOM     12  C   UNL     1     -11.827   5.407   8.694  1.00  0.00     0.005 C 
BRANCH  12  13
ATOM     13  C   UNL     1     -10.461   4.829   8.298  1.00  0.00    -0.003 C 
ATOM     14  C   UNL     1      -9.779   5.634   7.192  1.00  0.00     0.004 C 
ENDBRANCH  12  13
ENDBRANCH  11  12
ENDBRANCH   2  11
BRANCH   3  15
ATOM     15  O   UNL     1     -12.217   3.040   5.759  1.00  0.00    -0.508 OA
ATOM     16  H   UNL     1     -11.856   2.696   6.638  1.00  0.00     0.293 HD
ENDBRANCH   3  15
TORSDOF 7
ENDMDL
