MODEL 1
REMARK VINA RESULT:    -3.559      0.000      0.000
REMARK INTER + INTRA:          -4.770
REMARK INTER:                  -4.599
REMARK INTRA:                  -0.171
REMARK UNBOUND:                -0.171
REMARK SMILES CCCCCCC(=O)[O-]
REMARK SMILES IDX 5 1 6 2 7 3 8 4 9 5 4 6 3 7 2 8 1 9
REMARK H PARENT
REMARK Flexibility Score: inf
ROOT
ATOM      1  C   UNL     1      21.126  -6.015  43.692  1.00  0.00     0.006 C 
ENDROOT
BRANCH   1   2
ATOM      2  C   UNL     1      19.841  -5.587  42.976  1.00  0.00     0.053 C 
BRANCH   2   3
ATOM      3  C   UNL     1      19.251  -4.380  43.634  1.00  0.00     0.041 C 
ATOM      4  O   UNL     1      18.251  -3.807  43.128  1.00  0.00    -0.550 OA
ATOM      5  O   UNL     1      19.836  -3.859  44.781  1.00  0.00    -0.550 OA
ENDBRANCH   2   3
ENDBRANCH   1   2
BRANCH   1   6
ATOM      6  C   UNL     1      21.476  -7.474  43.365  1.00  0.00     0.000 C 
BRANCH   6   7
ATOM      7  C   UNL     1      20.293  -8.431  43.584  1.00  0.00    -0.000 C 
BRANCH   7   8
ATOM      8  C   UNL     1      20.641  -9.888  43.246  1.00  0.00    -0.003 C 
ATOM      9  C   UNL     1      22.151 -10.101  43.221  1.00  0.00     0.004 C 
ENDBRANCH   7   8
ENDBRANCH   6   7
ENDBRANCH   1   6
TORSDOF 5
ENDMDL
MODEL 2
REMARK VINA RESULT:    -3.399      2.388      4.234
REMARK INTER + INTRA:          -4.564
REMARK INTER:                  -4.110
REMARK INTRA:                  -0.454
REMARK UNBOUND:                -0.171
REMARK SMILES CCCCCCC(=O)[O-]
REMARK SMILES IDX 5 1 6 2 7 3 8 4 9 5 4 6 3 7 2 8 1 9
REMARK H PARENT
REMARK Flexibility Score: inf
ROOT
ATOM      1  C   UNL     1      20.262  -7.254  43.495  1.00  0.00     0.006 C 
ENDROOT
BRANCH   1   2
ATOM      2  C   UNL     1      20.415  -7.395  45.013  1.00  0.00     0.053 C 
BRANCH   2   3
ATOM      3  C   UNL     1      19.139  -7.032  45.704  1.00  0.00     0.041 C 
ATOM      4  O   UNL     1      19.157  -6.613  46.890  1.00  0.00    -0.550 OA
ATOM      5  O   UNL     1      17.923  -7.206  45.054  1.00  0.00    -0.550 OA
ENDBRANCH   2   3
ENDBRANCH   1   2
BRANCH   1   6
ATOM      6  C   UNL     1      20.640  -5.839  43.034  1.00  0.00     0.000 C 
BRANCH   6   7
ATOM      7  C   UNL     1      19.438  -5.055  42.484  1.00  0.00    -0.000 C 
BRANCH   7   8
ATOM      8  C   UNL     1      18.866  -4.057  43.502  1.00  0.00    -0.003 C 
ATOM      9  C   UNL     1      19.917  -3.667  44.538  1.00  0.00     0.004 C 
ENDBRANCH   7   8
ENDBRANCH   6   7
ENDBRANCH   1   6
TORSDOF 5
ENDMDL
MODEL 3
REMARK VINA RESULT:    -3.382      2.285      4.116
REMARK INTER + INTRA:          -4.542
REMARK INTER:                  -4.093
REMARK INTRA:                  -0.450
REMARK UNBOUND:                -0.171
REMARK SMILES CCCCCCC(=O)[O-]
REMARK SMILES IDX 5 1 6 2 7 3 8 4 9 5 4 6 3 7 2 8 1 9
REMARK H PARENT
REMARK Flexibility Score: inf
ROOT
ATOM      1  C   UNL     1      20.866  -6.598  43.224  1.00  0.00     0.006 C 
ENDROOT
BRANCH   1   2
ATOM      2  C   UNL     1      20.306  -7.696  44.134  1.00  0.00     0.053 C 
BRANCH   2   3
ATOM      3  C   UNL     1      18.918  -7.356  44.573  1.00  0.00     0.041 C 
ATOM      4  O   UNL     1      17.965  -7.397  43.751  1.00  0.00    -0.550 OA
ATOM      5  O   UNL     1      18.683  -6.945  45.879  1.00  0.00    -0.550 OA
ENDBRANCH   2   3
ENDBRANCH   1   2
BRANCH   1   6
ATOM      6  C   UNL     1      21.402  -5.420  44.051  1.00  0.00     0.000 C 
BRANCH   6   7
ATOM      7  C   UNL     1      20.646  -4.110  43.774  1.00  0.00    -0.000 C 
BRANCH   7   8
ATOM      8  C   UNL     1      19.667  -4.230  42.597  1.00  0.00    -0.003 C 
ATOM      9  C   UNL     1      18.240  -3.910  43.034  1.00  0.00     0.004 C 
ENDBRANCH   7   8
ENDBRANCH   6   7
ENDBRANCH   1   6
TORSDOF 5
ENDMDL
MODEL 4
REMARK VINA RESULT:    -3.290      2.865      4.366
REMARK INTER + INTRA:          -4.424
REMARK INTER:                  -4.135
REMARK INTRA:                  -0.289
REMARK UNBOUND:                -0.171
REMARK SMILES CCCCCCC(=O)[O-]
REMARK SMILES IDX 5 1 6 2 7 3 8 4 9 5 4 6 3 7 2 8 1 9
REMARK H PARENT
REMARK Flexibility Score: inf
ROOT
ATOM      1  C   UNL     1      18.379  -7.109  45.314  1.00  0.00     0.006 C 
ENDROOT
BRANCH   1   2
ATOM      2  C   UNL     1      19.826  -7.172  45.813  1.00  0.00     0.053 C 
BRANCH   2   3
ATOM      3  C   UNL     1      20.011  -6.279  46.998  1.00  0.00     0.041 C 
ATOM      4  O   UNL     1      19.793  -6.713  48.159  1.00  0.00    -0.550 OA
ATOM      5  O   UNL     1      20.375  -4.951  46.817  1.00  0.00    -0.550 OA
ENDBRANCH   2   3
ENDBRANCH   1   2
BRANCH   1   6
ATOM      6  C   UNL     1      18.331  -6.815  43.807  1.00  0.00     0.000 C 
BRANCH   6   7
ATOM      7  C   UNL     1      19.658  -6.254  43.270  1.00  0.00    -0.000 C 
BRANCH   7   8
ATOM      8  C   UNL     1      19.468  -4.971  42.447  1.00  0.00    -0.003 C 
ATOM      9  C   UNL     1      18.504  -4.012  43.139  1.00  0.00     0.004 C 
ENDBRANCH   7   8
ENDBRANCH   6   7
ENDBRANCH   1   6
TORSDOF 5
ENDMDL
MODEL 5
REMARK VINA RESULT:    -3.281      0.973      1.457
REMARK INTER + INTRA:          -4.411
REMARK INTER:                  -4.215
REMARK INTRA:                  -0.196
REMARK UNBOUND:                -0.171
REMARK SMILES CCCCCCC(=O)[O-]
REMARK SMILES IDX 5 1 6 2 7 3 8 4 9 5 4 6 3 7 2 8 1 9
REMARK H PARENT
REMARK Flexibility Score: inf
ROOT
ATOM      1  C   UNL     1      21.232  -6.439  44.303  1.00  0.00     0.006 C 
ENDROOT
BRANCH   1   2
ATOM      2  C   UNL     1      20.160  -5.755  45.157  1.00  0.00     0.053 C 
BRANCH   2   3
ATOM      3  C   UNL     1      19.859  -4.390  44.626  1.00  0.00     0.041 C 
ATOM      4  O   UNL     1      20.479  -3.387  45.068  1.00  0.00    -0.550 OA
ATOM      5  O   UNL     1      18.859  -4.218  43.677  1.00  0.00    -0.550 OA
ENDBRANCH   2   3
ENDBRANCH   1   2
BRANCH   1   6
ATOM      6  C   UNL     1      20.595  -7.398  43.286  1.00  0.00     0.000 C 
BRANCH   6   7
ATOM      7  C   UNL     1      20.030  -8.668  43.944  1.00  0.00    -0.000 C 
BRANCH   7   8
ATOM      8  C   UNL     1      20.483  -9.953  43.234  1.00  0.00    -0.003 C 
ATOM      9  C   UNL     1      22.003 -10.082  43.249  1.00  0.00     0.004 C 
ENDBRANCH   7   8
ENDBRANCH   6   7
ENDBRANCH   1   6
TORSDOF 5
ENDMDL
MODEL 6
REMARK VINA RESULT:    -3.279      4.210      5.079
REMARK INTER + INTRA:          -4.409
REMARK INTER:                  -4.170
REMARK INTRA:                  -0.239
REMARK UNBOUND:                -0.171
REMARK SMILES CCCCCCC(=O)[O-]
REMARK SMILES IDX 5 1 6 2 7 3 8 4 9 5 4 6 3 7 2 8 1 9
REMARK H PARENT
REMARK Flexibility Score: inf
ROOT
ATOM      1  C   UNL     1      22.657  -3.176  44.744  1.00  0.00     0.006 C 
ENDROOT
BRANCH   1   2
ATOM      2  C   UNL     1      22.065  -1.987  43.981  1.00  0.00     0.053 C 
BRANCH   2   3
ATOM      3  C   UNL     1      22.740  -0.715  44.387  1.00  0.00     0.041 C 
ATOM      4  O   UNL     1      22.383   0.381  43.883  1.00  0.00    -0.550 OA
ATOM      5  O   UNL     1      23.800  -0.747  45.285  1.00  0.00    -0.550 OA
ENDBRANCH   2   3
ENDBRANCH   1   2
BRANCH   1   6
ATOM      6  C   UNL     1      21.651  -4.336  44.817  1.00  0.00     0.000 C 
BRANCH   6   7
ATOM      7  C   UNL     1      20.192  -3.852  44.852  1.00  0.00    -0.000 C 
BRANCH   7   8
ATOM      8  C   UNL     1      19.266  -4.706  43.973  1.00  0.00    -0.003 C 
ATOM      9  C   UNL     1      18.676  -3.880  42.834  1.00  0.00     0.004 C 
ENDBRANCH   7   8
ENDBRANCH   6   7
ENDBRANCH   1   6
TORSDOF 5
ENDMDL
MODEL 7
REMARK VINA RESULT:    -3.278      1.514      2.502
REMARK INTER + INTRA:          -4.407
REMARK INTER:                  -4.033
REMARK INTRA:                  -0.375
REMARK UNBOUND:                -0.171
REMARK SMILES CCCCCCC(=O)[O-]
REMARK SMILES IDX 5 1 6 2 7 3 8 4 9 5 4 6 3 7 2 8 1 9
REMARK H PARENT
REMARK Flexibility Score: inf
ROOT
ATOM      1  C   UNL     1      20.992  -6.061  43.298  1.00  0.00     0.006 C 
ENDROOT
BRANCH   1   2
ATOM      2  C   UNL     1      19.899  -5.280  42.561  1.00  0.00     0.053 C 
BRANCH   2   3
ATOM      3  C   UNL     1      19.288  -4.256  43.463  1.00  0.00     0.041 C 
ATOM      4  O   UNL     1      19.885  -3.898  44.512  1.00  0.00    -0.550 OA
ATOM      5  O   UNL     1      18.034  -3.733  43.172  1.00  0.00    -0.550 OA
ENDBRANCH   2   3
ENDBRANCH   1   2
BRANCH   1   6
ATOM      6  C   UNL     1      20.684  -7.566  43.300  1.00  0.00     0.000 C 
BRANCH   6   7
ATOM      7  C   UNL     1      19.880  -8.004  44.536  1.00  0.00    -0.000 C 
BRANCH   7   8
ATOM      8  C   UNL     1      20.469  -7.461  45.847  1.00  0.00    -0.003 C 
ATOM      9  C   UNL     1      19.423  -6.682  46.638  1.00  0.00     0.004 C 
ENDBRANCH   7   8
ENDBRANCH   6   7
ENDBRANCH   1   6
TORSDOF 5
ENDMDL
MODEL 8
REMARK VINA RESULT:    -3.265      5.901      6.776
REMARK INTER + INTRA:          -4.391
REMARK INTER:                  -4.186
REMARK INTRA:                  -0.205
REMARK UNBOUND:                -0.171
REMARK SMILES CCCCCCC(=O)[O-]
REMARK SMILES IDX 5 1 6 2 7 3 8 4 9 5 4 6 3 7 2 8 1 9
REMARK H PARENT
REMARK Flexibility Score: inf
ROOT
ATOM      1  C   UNL     1      20.240  -7.121  49.660  1.00  0.00     0.006 C 
ENDROOT
BRANCH   1   2
ATOM      2  C   UNL     1      20.931  -7.027  48.296  1.00  0.00     0.053 C 
BRANCH   2   3
ATOM      3  C   UNL     1      20.075  -6.278  47.325  1.00  0.00     0.041 C 
ATOM      4  O   UNL     1      19.057  -6.824  46.825  1.00  0.00    -0.550 OA
ATOM      5  O   UNL     1      20.429  -4.993  46.933  1.00  0.00    -0.550 OA
ENDBRANCH   2   3
ENDBRANCH   1   2
BRANCH   1   6
ATOM      6  C   UNL     1      21.273  -7.192  50.795  1.00  0.00     0.000 C 
BRANCH   6   7
ATOM      7  C   UNL     1      22.590  -6.481  50.442  1.00  0.00    -0.000 C 
BRANCH   7   8
ATOM      8  C   UNL     1      22.910  -5.321  51.396  1.00  0.00    -0.003 C 
ATOM      9  C   UNL     1      23.290  -4.062  50.622  1.00  0.00     0.004 C 
ENDBRANCH   7   8
ENDBRANCH   6   7
ENDBRANCH   1   6
TORSDOF 5
ENDMDL
MODEL 9
REMARK VINA RESULT:    -3.256      7.634      8.167
REMARK INTER + INTRA:          -4.380
REMARK INTER:                  -4.212
REMARK INTRA:                  -0.167
REMARK UNBOUND:                -0.171
REMARK SMILES CCCCCCC(=O)[O-]
REMARK SMILES IDX 5 1 6 2 7 3 8 4 9 5 4 6 3 7 2 8 1 9
REMARK H PARENT
REMARK Flexibility Score: inf
ROOT
ATOM      1  C   UNL     1      24.371  -3.482  50.448  1.00  0.00     0.006 C 
ENDROOT
BRANCH   1   2
ATOM      2  C   UNL     1      23.031  -2.796  50.735  1.00  0.00     0.053 C 
BRANCH   2   3
ATOM      3  C   UNL     1      22.903  -1.540  49.933  1.00  0.00     0.041 C 
ATOM      4  O   UNL     1      23.848  -1.161  49.193  1.00  0.00    -0.550 OA
ATOM      5  O   UNL     1      21.758  -0.760  50.042  1.00  0.00    -0.550 OA
ENDBRANCH   2   3
ENDBRANCH   1   2
BRANCH   1   6
ATOM      6  C   UNL     1      24.277  -4.995  50.696  1.00  0.00     0.000 C 
BRANCH   6   7
ATOM      7  C   UNL     1      22.902  -5.422  51.236  1.00  0.00    -0.000 C 
BRANCH   7   8
ATOM      8  C   UNL     1      22.656  -6.932  51.100  1.00  0.00    -0.003 C 
ATOM      9  C   UNL     1      21.203  -7.221  50.737  1.00  0.00     0.004 C 
ENDBRANCH   7   8
ENDBRANCH   6   7
ENDBRANCH   1   6
TORSDOF 5
ENDMDL
