MODEL 1
REMARK VINA RESULT:    -1.815      0.000      0.000
REMARK INTER + INTRA:          -3.716
REMARK INTER:                  -3.194
REMARK INTRA:                  -0.523
REMARK UNBOUND:                -0.523
REMARK SMILES CCCCCCCCCCCCCCC(=O)[O-]
REMARK SMILES IDX 9 1 10 2 11 3 12 4 13 5 14 6 15 7 16 8 17 9 8 10 7 11 6 12
REMARK SMILES IDX 5 13 4 14 3 15 2 16 1 17
REMARK H PARENT
REMARK Flexibility Score: inf
ROOT
ATOM      1  C   UNL     1      45.412 -26.786   2.804  1.00  0.00     0.000 C 
ENDROOT
BRANCH   1   2
ATOM      2  C   UNL     1      45.086 -28.288   2.827  1.00  0.00     0.000 C 
BRANCH   2   3
ATOM      3  C   UNL     1      46.114 -29.059   3.665  1.00  0.00     0.000 C 
BRANCH   3   4
ATOM      4  C   UNL     1      46.106 -28.582   5.122  1.00  0.00     0.000 C 
BRANCH   4   5
ATOM      5  C   UNL     1      46.112 -29.774   6.091  1.00  0.00     0.006 C 
BRANCH   5   6
ATOM      6  C   UNL     1      46.092 -29.329   7.559  1.00  0.00     0.053 C 
BRANCH   6   7
ATOM      7  C   UNL     1      45.737 -30.458   8.477  1.00  0.00     0.041 C 
ATOM      8  O   UNL     1      45.201 -31.502   8.021  1.00  0.00    -0.550 OA
ATOM      9  O   UNL     1      45.968 -30.342   9.842  1.00  0.00    -0.550 OA
ENDBRANCH   6   7
ENDBRANCH   5   6
ENDBRANCH   4   5
ENDBRANCH   3   4
ENDBRANCH   2   3
ENDBRANCH   1   2
BRANCH   1  10
ATOM     10  C   UNL     1      45.554 -26.233   1.377  1.00  0.00     0.000 C 
BRANCH  10  11
ATOM     11  C   UNL     1      45.238 -24.730   1.293  1.00  0.00    -0.000 C 
BRANCH  11  12
ATOM     12  C   UNL     1      44.840 -24.284  -0.125  1.00  0.00    -0.000 C 
BRANCH  12  13
ATOM     13  C   UNL     1      45.904 -23.411  -0.822  1.00  0.00    -0.000 C 
BRANCH  13  14
ATOM     14  C   UNL     1      46.119 -23.818  -2.290  1.00  0.00    -0.000 C 
BRANCH  14  15
ATOM     15  C   UNL     1      45.011 -24.760  -2.806  1.00  0.00    -0.000 C 
BRANCH  15  16
ATOM     16  C   UNL     1      45.186 -25.172  -4.278  1.00  0.00    -0.003 C 
ATOM     17  C   UNL     1      46.090 -24.222  -5.060  1.00  0.00     0.004 C 
ENDBRANCH  15  16
ENDBRANCH  14  15
ENDBRANCH  13  14
ENDBRANCH  12  13
ENDBRANCH  11  12
ENDBRANCH  10  11
ENDBRANCH   1  10
TORSDOF 13
ENDMDL
MODEL 2
REMARK VINA RESULT:    -1.219      6.466     10.949
REMARK INTER + INTRA:          -2.669
REMARK INTER:                  -2.026
REMARK INTRA:                  -0.643
REMARK UNBOUND:                -0.523
REMARK SMILES CCCCCCCCCCCCCCC(=O)[O-]
REMARK SMILES IDX 9 1 10 2 11 3 12 4 13 5 14 6 15 7 16 8 17 9 8 10 7 11 6 12
REMARK SMILES IDX 5 13 4 14 3 15 2 16 1 17
REMARK H PARENT
REMARK Flexibility Score: inf
ROOT
ATOM      1  C   UNL     1      44.381 -24.780  -0.767  1.00  0.00     0.000 C 
ENDROOT
BRANCH   1   2
ATOM      2  C   UNL     1      44.304 -24.644  -2.296  1.00  0.00     0.000 C 
BRANCH   2   3
ATOM      3  C   UNL     1      45.636 -25.034  -2.949  1.00  0.00     0.000 C 
BRANCH   3   4
ATOM      4  C   UNL     1      45.436 -25.433  -4.416  1.00  0.00     0.000 C 
BRANCH   4   5
ATOM      5  C   UNL     1      46.124 -24.434  -5.357  1.00  0.00     0.006 C 
BRANCH   5   6
ATOM      6  C   UNL     1      45.819 -24.721  -6.832  1.00  0.00     0.053 C 
BRANCH   6   7
ATOM      7  C   UNL     1      45.938 -23.489  -7.675  1.00  0.00     0.041 C 
ATOM      8  O   UNL     1      45.872 -22.349  -7.145  1.00  0.00    -0.550 OA
ATOM      9  O   UNL     1      46.090 -23.601  -9.051  1.00  0.00    -0.550 OA
ENDBRANCH   6   7
ENDBRANCH   5   6
ENDBRANCH   4   5
ENDBRANCH   3   4
ENDBRANCH   2   3
ENDBRANCH   1   2
BRANCH   1  10
ATOM     10  C   UNL     1      45.824 -24.892  -0.254  1.00  0.00     0.000 C 
BRANCH  10  11
ATOM     11  C   UNL     1      45.898 -25.424   1.187  1.00  0.00    -0.000 C 
BRANCH  11  12
ATOM     12  C   UNL     1      45.087 -26.717   1.386  1.00  0.00    -0.000 C 
BRANCH  12  13
ATOM     13  C   UNL     1      44.801 -27.048   2.866  1.00  0.00    -0.000 C 
BRANCH  13  14
ATOM     14  C   UNL     1      45.734 -28.146   3.407  1.00  0.00    -0.000 C 
BRANCH  14  15
ATOM     15  C   UNL     1      46.125 -27.910   4.882  1.00  0.00    -0.000 C 
BRANCH  15  16
ATOM     16  C   UNL     1      45.926 -26.457   5.347  1.00  0.00    -0.003 C 
ATOM     17  C   UNL     1      46.123 -26.280   6.851  1.00  0.00     0.004 C 
ENDBRANCH  15  16
ENDBRANCH  14  15
ENDBRANCH  13  14
ENDBRANCH  12  13
ENDBRANCH  11  12
ENDBRANCH  10  11
ENDBRANCH   1  10
TORSDOF 13
ENDMDL
MODEL 3
REMARK VINA RESULT:    -1.079      2.110      3.631
REMARK INTER + INTRA:          -2.422
REMARK INTER:                  -2.179
REMARK INTRA:                  -0.243
REMARK UNBOUND:                -0.523
REMARK SMILES CCCCCCCCCCCCCCC(=O)[O-]
REMARK SMILES IDX 9 1 10 2 11 3 12 4 13 5 14 6 15 7 16 8 17 9 8 10 7 11 6 12
REMARK SMILES IDX 5 13 4 14 3 15 2 16 1 17
REMARK H PARENT
REMARK Flexibility Score: inf
ROOT
ATOM      1  C   UNL     1      44.814 -25.428  -0.013  1.00  0.00     0.000 C 
ENDROOT
BRANCH   1   2
ATOM      2  C   UNL     1      45.928 -26.476   0.136  1.00  0.00     0.000 C 
BRANCH   2   3
ATOM      3  C   UNL     1      46.125 -26.862   1.608  1.00  0.00     0.000 C 
BRANCH   3   4
ATOM      4  C   UNL     1      44.810 -26.742   2.389  1.00  0.00     0.000 C 
BRANCH   4   5
ATOM      5  C   UNL     1      45.070 -26.312   3.840  1.00  0.00     0.006 C 
BRANCH   5   6
ATOM      6  C   UNL     1      46.104 -27.206   4.534  1.00  0.00     0.053 C 
BRANCH   6   7
ATOM      7  C   UNL     1      46.003 -27.117   6.026  1.00  0.00     0.041 C 
ATOM      8  O   UNL     1      46.018 -25.996   6.598  1.00  0.00    -0.550 OA
ATOM      9  O   UNL     1      45.926 -28.278   6.787  1.00  0.00    -0.550 OA
ENDBRANCH   6   7
ENDBRANCH   5   6
ENDBRANCH   4   5
ENDBRANCH   3   4
ENDBRANCH   2   3
ENDBRANCH   1   2
BRANCH   1  10
ATOM     10  C   UNL     1      45.321 -24.105  -0.607  1.00  0.00     0.000 C 
BRANCH  10  11
ATOM     11  C   UNL     1      46.092 -24.305  -1.922  1.00  0.00    -0.000 C 
BRANCH  11  12
ATOM     12  C   UNL     1      45.582 -25.509  -2.733  1.00  0.00    -0.000 C 
BRANCH  12  13
ATOM     13  C   UNL     1      46.071 -25.523  -4.197  1.00  0.00    -0.000 C 
BRANCH  13  14
ATOM     14  C   UNL     1      46.097 -24.113  -4.815  1.00  0.00    -0.000 C 
BRANCH  14  15
ATOM     15  C   UNL     1      45.466 -24.079  -6.223  1.00  0.00    -0.000 C 
BRANCH  15  16
ATOM     16  C   UNL     1      46.075 -25.101  -7.197  1.00  0.00    -0.003 C 
ATOM     17  C   UNL     1      46.119 -24.599  -8.639  1.00  0.00     0.004 C 
ENDBRANCH  15  16
ENDBRANCH  14  15
ENDBRANCH  13  14
ENDBRANCH  12  13
ENDBRANCH  11  12
ENDBRANCH  10  11
ENDBRANCH   1  10
TORSDOF 13
ENDMDL
MODEL 4
REMARK VINA RESULT:    -0.509      2.124      3.724
REMARK INTER + INTRA:          -1.418
REMARK INTER:                  -0.589
REMARK INTRA:                  -0.829
REMARK UNBOUND:                -0.523
REMARK SMILES CCCCCCCCCCCCCCC(=O)[O-]
REMARK SMILES IDX 9 1 10 2 11 3 12 4 13 5 14 6 15 7 16 8 17 9 8 10 7 11 6 12
REMARK SMILES IDX 5 13 4 14 3 15 2 16 1 17
REMARK H PARENT
REMARK Flexibility Score: inf
ROOT
ATOM      1  C   UNL     1      44.683 -23.872   0.484  1.00  0.00     0.000 C 
ENDROOT
BRANCH   1   2
ATOM      2  C   UNL     1      45.894 -23.965   1.426  1.00  0.00     0.000 C 
BRANCH   2   3
ATOM      3  C   UNL     1      46.125 -25.411   1.881  1.00  0.00     0.000 C 
BRANCH   3   4
ATOM      4  C   UNL     1      44.805 -26.190   1.932  1.00  0.00     0.000 C 
BRANCH   4   5
ATOM      5  C   UNL     1      44.762 -27.121   3.152  1.00  0.00     0.006 C 
BRANCH   5   6
ATOM      6  C   UNL     1      46.009 -26.981   4.034  1.00  0.00     0.053 C 
BRANCH   6   7
ATOM      7  C   UNL     1      46.025 -27.992   5.139  1.00  0.00     0.041 C 
ATOM      8  O   UNL     1      46.005 -29.223   4.874  1.00  0.00    -0.550 OA
ATOM      9  O   UNL     1      46.029 -27.573   6.464  1.00  0.00    -0.550 OA
ENDBRANCH   6   7
ENDBRANCH   5   6
ENDBRANCH   4   5
ENDBRANCH   3   4
ENDBRANCH   2   3
ENDBRANCH   1   2
BRANCH   1  10
ATOM     10  C   UNL     1      44.977 -23.053  -0.782  1.00  0.00     0.000 C 
BRANCH  10  11
ATOM     11  C   UNL     1      44.814 -23.878  -2.070  1.00  0.00    -0.000 C 
BRANCH  11  12
ATOM     12  C   UNL     1      45.876 -24.983  -2.207  1.00  0.00    -0.000 C 
BRANCH  12  13
ATOM     13  C   UNL     1      46.119 -25.433  -3.663  1.00  0.00    -0.000 C 
BRANCH  13  14
ATOM     14  C   UNL     1      45.201 -24.701  -4.658  1.00  0.00    -0.000 C 
BRANCH  14  15
ATOM     15  C   UNL     1      45.950 -23.612  -5.455  1.00  0.00    -0.000 C 
BRANCH  15  16
ATOM     16  C   UNL     1      45.770 -23.729  -6.978  1.00  0.00    -0.003 C 
ATOM     17  C   UNL     1      46.118 -25.115  -7.516  1.00  0.00     0.004 C 
ENDBRANCH  15  16
ENDBRANCH  14  15
ENDBRANCH  13  14
ENDBRANCH  12  13
ENDBRANCH  11  12
ENDBRANCH  10  11
ENDBRANCH   1  10
TORSDOF 13
ENDMDL
MODEL 5
REMARK VINA RESULT:     0.175      3.533      6.318
REMARK INTER + INTRA:          -0.215
REMARK INTER:                  -0.921
REMARK INTRA:                   0.706
REMARK UNBOUND:                -0.523
REMARK SMILES CCCCCCCCCCCCCCC(=O)[O-]
REMARK SMILES IDX 9 1 10 2 11 3 12 4 13 5 14 6 15 7 16 8 17 9 8 10 7 11 6 12
REMARK SMILES IDX 5 13 4 14 3 15 2 16 1 17
REMARK H PARENT
REMARK Flexibility Score: inf
ROOT
ATOM      1  C   UNL     1      44.989 -24.303  -2.863  1.00  0.00     0.000 C 
ENDROOT
BRANCH   1   2
ATOM      2  C   UNL     1      45.185 -24.680  -1.386  1.00  0.00     0.000 C 
BRANCH   2   3
ATOM      3  C   UNL     1      45.100 -23.439  -0.488  1.00  0.00     0.000 C 
BRANCH   3   4
ATOM      4  C   UNL     1      45.992 -23.592   0.749  1.00  0.00     0.000 C 
BRANCH   4   5
ATOM      5  C   UNL     1      46.124 -25.068   1.154  1.00  0.00     0.006 C 
BRANCH   5   6
ATOM      6  C   UNL     1      45.062 -25.486   2.178  1.00  0.00     0.053 C 
BRANCH   6   7
ATOM      7  C   UNL     1      45.220 -26.917   2.589  1.00  0.00     0.041 C 
ATOM      8  O   UNL     1      44.638 -27.831   1.947  1.00  0.00    -0.550 OA
ATOM      9  O   UNL     1      45.985 -27.239   3.704  1.00  0.00    -0.550 OA
ENDBRANCH   6   7
ENDBRANCH   5   6
ENDBRANCH   4   5
ENDBRANCH   3   4
ENDBRANCH   2   3
ENDBRANCH   1   2
BRANCH   1  10
ATOM     10  C   UNL     1      46.096 -24.864  -3.770  1.00  0.00     0.000 C 
BRANCH  10  11
ATOM     11  C   UNL     1      45.540 -25.737  -4.908  1.00  0.00    -0.000 C 
BRANCH  11  12
ATOM     12  C   UNL     1      46.124 -25.366  -6.282  1.00  0.00    -0.000 C 
BRANCH  12  13
ATOM     13  C   UNL     1      45.451 -26.101  -7.461  1.00  0.00    -0.000 C 
BRANCH  13  14
ATOM     14  C   UNL     1      46.087 -25.735  -8.813  1.00  0.00    -0.000 C 
BRANCH  14  15
ATOM     15  C   UNL     1      46.062 -24.215  -9.081  1.00  0.00    -0.000 C 
BRANCH  15  16
ATOM     16  C   UNL     1      46.108 -23.363  -7.801  1.00  0.00    -0.003 C 
ATOM     17  C   UNL     1      46.086 -21.862  -8.082  1.00  0.00     0.004 C 
ENDBRANCH  15  16
ENDBRANCH  14  15
ENDBRANCH  13  14
ENDBRANCH  12  13
ENDBRANCH  11  12
ENDBRANCH  10  11
ENDBRANCH   1  10
TORSDOF 13
ENDMDL
MODEL 6
REMARK VINA RESULT:     0.621      5.998     10.393
REMARK INTER + INTRA:           0.570
REMARK INTER:                   0.554
REMARK INTRA:                   0.016
REMARK UNBOUND:                -0.523
REMARK SMILES CCCCCCCCCCCCCCC(=O)[O-]
REMARK SMILES IDX 9 1 10 2 11 3 12 4 13 5 14 6 15 7 16 8 17 9 8 10 7 11 6 12
REMARK SMILES IDX 5 13 4 14 3 15 2 16 1 17
REMARK H PARENT
REMARK Flexibility Score: inf
ROOT
ATOM      1  C   UNL     1      44.218 -25.364  -3.149  1.00  0.00     0.000 C 
ENDROOT
BRANCH   1   2
ATOM      2  C   UNL     1      45.638 -24.879  -3.482  1.00  0.00     0.000 C 
BRANCH   2   3
ATOM      3  C   UNL     1      45.596 -23.574  -4.289  1.00  0.00     0.000 C 
BRANCH   3   4
ATOM      4  C   UNL     1      45.985 -23.818  -5.752  1.00  0.00     0.000 C 
BRANCH   4   5
ATOM      5  C   UNL     1      45.630 -25.248  -6.185  1.00  0.00     0.006 C 
BRANCH   5   6
ATOM      6  C   UNL     1      46.124 -25.565  -7.602  1.00  0.00     0.053 C 
BRANCH   6   7
ATOM      7  C   UNL     1      46.017 -27.026  -7.914  1.00  0.00     0.041 C 
ATOM      8  O   UNL     1      45.947 -27.416  -9.108  1.00  0.00    -0.550 OA
ATOM      9  O   UNL     1      45.962 -27.954  -6.881  1.00  0.00    -0.550 OA
ENDBRANCH   6   7
ENDBRANCH   5   6
ENDBRANCH   4   5
ENDBRANCH   3   4
ENDBRANCH   2   3
ENDBRANCH   1   2
BRANCH   1  10
ATOM     10  C   UNL     1      43.875 -25.215  -1.659  1.00  0.00     0.000 C 
BRANCH  10  11
ATOM     11  C   UNL     1      44.683 -24.098  -0.976  1.00  0.00    -0.000 C 
BRANCH  11  12
ATOM     12  C   UNL     1      46.101 -24.547  -0.580  1.00  0.00    -0.000 C 
BRANCH  12  13
ATOM     13  C   UNL     1      46.125 -25.783   0.344  1.00  0.00    -0.000 C 
BRANCH  13  14
ATOM     14  C   UNL     1      45.367 -25.540   1.661  1.00  0.00    -0.000 C 
BRANCH  14  15
ATOM     15  C   UNL     1      45.985 -26.315   2.844  1.00  0.00    -0.000 C 
BRANCH  15  16
ATOM     16  C   UNL     1      45.309 -27.669   3.115  1.00  0.00    -0.003 C 
ATOM     17  C   UNL     1      45.947 -28.821   2.342  1.00  0.00     0.004 C 
ENDBRANCH  15  16
ENDBRANCH  14  15
ENDBRANCH  13  14
ENDBRANCH  12  13
ENDBRANCH  11  12
ENDBRANCH  10  11
ENDBRANCH   1  10
TORSDOF 13
ENDMDL
