MODEL 1
REMARK VINA RESULT:    -4.362      0.000      0.000
REMARK INTER + INTRA:          -4.941
REMARK INTER:                  -4.745
REMARK INTRA:                  -0.196
REMARK UNBOUND:                -0.196
REMARK SMILES Cc1ccc(C(C)C)c(O)c1
REMARK SMILES IDX 1 1 2 2 11 3 9 4 5 5 4 6 3 7 10 8 6 10 7 11 8 12
REMARK H PARENT 10 9
REMARK Flexibility Score: inf
ROOT
ATOM      1  C   UNL     1       4.940  14.185   8.062  1.00  0.00     0.044 C 
ATOM      2  C   UNL     1       6.079  13.238   7.821  1.00  0.00    -0.047 A 
ATOM      3  C   UNL     1       7.332  13.727   7.429  1.00  0.00     0.049 A 
ATOM      4  C   UNL     1       8.411  12.852   7.237  1.00  0.00     0.119 A 
ATOM      5  C   UNL     1       8.245  11.465   7.449  1.00  0.00    -0.004 A 
ATOM      6  C   UNL     1       6.985  10.989   7.862  1.00  0.00     0.008 A 
ATOM      7  C   UNL     1       5.916  11.867   8.051  1.00  0.00     0.004 A 
ENDROOT
BRANCH   4   8
ATOM      8  O   UNL     1       9.647  13.363   6.838  1.00  0.00    -0.508 OA
ATOM      9  H   UNL     1       9.817  14.360   6.781  1.00  0.00     0.293 HD
ENDBRANCH   4   8
BRANCH   5  10
ATOM     10  C   UNL     1       9.401  10.496   7.246  1.00  0.00     0.017 C 
ATOM     11  C   UNL     1       9.441   9.976   5.804  1.00  0.00     0.012 C 
ATOM     12  C   UNL     1       9.330   9.337   8.248  1.00  0.00     0.012 C 
ENDBRANCH   5  10
TORSDOF 2
ENDMDL
MODEL 2
REMARK VINA RESULT:    -4.287      1.052      4.058
REMARK INTER + INTRA:          -4.860
REMARK INTER:                  -4.663
REMARK INTRA:                  -0.197
REMARK UNBOUND:                -0.196
REMARK SMILES Cc1ccc(C(C)C)c(O)c1
REMARK SMILES IDX 1 1 2 2 11 3 9 4 5 5 4 6 3 7 10 8 6 10 7 11 8 12
REMARK H PARENT 10 9
REMARK Flexibility Score: inf
ROOT
ATOM      1  C   UNL     1       9.610   8.820   6.254  1.00  0.00     0.044 C 
ATOM      2  C   UNL     1       8.964  10.070   6.774  1.00  0.00    -0.047 A 
ATOM      3  C   UNL     1       9.570  11.316   6.568  1.00  0.00     0.049 A 
ATOM      4  C   UNL     1       8.955  12.493   7.019  1.00  0.00     0.119 A 
ATOM      5  C   UNL     1       7.707  12.432   7.677  1.00  0.00    -0.004 A 
ATOM      6  C   UNL     1       7.098  11.174   7.860  1.00  0.00     0.008 A 
ATOM      7  C   UNL     1       7.717  10.008   7.408  1.00  0.00     0.004 A 
ENDROOT
BRANCH   4   8
ATOM      8  O   UNL     1       9.585  13.721   6.809  1.00  0.00    -0.508 OA
ATOM      9  H   UNL     1      10.086  13.923   5.952  1.00  0.00     0.293 HD
ENDBRANCH   4   8
BRANCH   5  10
ATOM     10  C   UNL     1       7.019  13.695   8.175  1.00  0.00     0.017 C 
ATOM     11  C   UNL     1       6.807  13.648   9.693  1.00  0.00     0.012 C 
ATOM     12  C   UNL     1       5.693  13.927   7.441  1.00  0.00     0.012 C 
ENDBRANCH   5  10
TORSDOF 2
ENDMDL
MODEL 3
REMARK VINA RESULT:    -4.187      1.226      1.451
REMARK INTER + INTRA:          -4.750
REMARK INTER:                  -4.550
REMARK INTRA:                  -0.200
REMARK UNBOUND:                -0.196
REMARK SMILES Cc1ccc(C(C)C)c(O)c1
REMARK SMILES IDX 1 1 2 2 11 3 9 4 5 5 4 6 3 7 10 8 6 10 7 11 8 12
REMARK H PARENT 10 9
REMARK Flexibility Score: inf
ROOT
ATOM      1  C   UNL     1       3.567  12.131   7.903  1.00  0.00     0.044 C 
ATOM      2  C   UNL     1       4.990  11.673   7.782  1.00  0.00    -0.047 A 
ATOM      3  C   UNL     1       6.039  12.597   7.873  1.00  0.00     0.049 A 
ATOM      4  C   UNL     1       7.374  12.172   7.797  1.00  0.00     0.119 A 
ATOM      5  C   UNL     1       7.672  10.801   7.639  1.00  0.00    -0.004 A 
ATOM      6  C   UNL     1       6.609   9.879   7.568  1.00  0.00     0.008 A 
ATOM      7  C   UNL     1       5.284  10.311   7.645  1.00  0.00     0.004 A 
ENDROOT
BRANCH   4   8
ATOM      8  O   UNL     1       8.400  13.114   7.882  1.00  0.00    -0.508 OA
ATOM      9  H   UNL     1       9.042  13.134   8.666  1.00  0.00     0.293 HD
ENDBRANCH   4   8
BRANCH   5  10
ATOM     10  C   UNL     1       9.113  10.315   7.554  1.00  0.00     0.017 C 
ATOM     11  C   UNL     1       9.544  10.117   6.095  1.00  0.00     0.012 C 
ATOM     12  C   UNL     1       9.310   9.030   8.366  1.00  0.00     0.012 C 
ENDBRANCH   5  10
TORSDOF 2
ENDMDL
MODEL 4
REMARK VINA RESULT:    -3.809      1.776      2.509
REMARK INTER + INTRA:          -4.340
REMARK INTER:                  -4.140
REMARK INTRA:                  -0.200
REMARK UNBOUND:                -0.196
REMARK SMILES Cc1ccc(C(C)C)c(O)c1
REMARK SMILES IDX 1 1 2 2 11 3 9 4 5 5 4 6 3 7 10 8 6 10 7 11 8 12
REMARK H PARENT 10 9
REMARK Flexibility Score: inf
ROOT
ATOM      1  C   UNL     1       5.356  14.378   8.211  1.00  0.00     0.044 C 
ATOM      2  C   UNL     1       6.191  13.153   7.979  1.00  0.00    -0.047 A 
ATOM      3  C   UNL     1       5.583  11.897   7.858  1.00  0.00     0.049 A 
ATOM      4  C   UNL     1       6.353  10.753   7.605  1.00  0.00     0.119 A 
ATOM      5  C   UNL     1       7.753  10.859   7.459  1.00  0.00    -0.004 A 
ATOM      6  C   UNL     1       8.351  12.132   7.563  1.00  0.00     0.008 A 
ATOM      7  C   UNL     1       7.577  13.265   7.815  1.00  0.00     0.004 A 
ENDROOT
BRANCH   4   8
ATOM      8  O   UNL     1       5.723   9.512   7.497  1.00  0.00    -0.508 OA
ATOM      9  H   UNL     1       5.124   9.284   6.712  1.00  0.00     0.293 HD
ENDBRANCH   4   8
BRANCH   5  10
ATOM     10  C   UNL     1       8.610   9.632   7.184  1.00  0.00     0.017 C 
ATOM     11  C   UNL     1       9.316   9.153   8.458  1.00  0.00     0.012 C 
ATOM     12  C   UNL     1       9.621   9.905   6.063  1.00  0.00     0.012 C 
ENDBRANCH   5  10
TORSDOF 2
ENDMDL
MODEL 5
REMARK VINA RESULT:    -3.797      1.984      2.728
REMARK INTER + INTRA:          -4.326
REMARK INTER:                  -4.129
REMARK INTRA:                  -0.197
REMARK UNBOUND:                -0.196
REMARK SMILES Cc1ccc(C(C)C)c(O)c1
REMARK SMILES IDX 1 1 2 2 11 3 9 4 5 5 4 6 3 7 10 8 6 10 7 11 8 12
REMARK H PARENT 10 9
REMARK Flexibility Score: inf
ROOT
ATOM      1  C   UNL     1       3.818  14.136   7.491  1.00  0.00     0.044 C 
ATOM      2  C   UNL     1       4.973  13.191   7.642  1.00  0.00    -0.047 A 
ATOM      3  C   UNL     1       4.755  11.807   7.654  1.00  0.00     0.049 A 
ATOM      4  C   UNL     1       5.832  10.915   7.758  1.00  0.00     0.119 A 
ATOM      5  C   UNL     1       7.153  11.407   7.840  1.00  0.00    -0.004 A 
ATOM      6  C   UNL     1       7.361  12.801   7.807  1.00  0.00     0.008 A 
ATOM      7  C   UNL     1       6.283  13.681   7.703  1.00  0.00     0.004 A 
ENDROOT
BRANCH   4   8
ATOM      8  O   UNL     1       5.587   9.541   7.776  1.00  0.00    -0.508 OA
ATOM      9  H   UNL     1       4.688   9.164   8.055  1.00  0.00     0.293 HD
ENDBRANCH   4   8
BRANCH   5  10
ATOM     10  C   UNL     1       8.339  10.459   7.954  1.00  0.00     0.017 C 
ATOM     11  C   UNL     1       9.182  10.774   9.196  1.00  0.00     0.012 C 
ATOM     12  C   UNL     1       9.196  10.494   6.683  1.00  0.00     0.012 C 
ENDBRANCH   5  10
TORSDOF 2
ENDMDL
MODEL 6
REMARK VINA RESULT:    -3.702      9.939     11.561
REMARK INTER + INTRA:          -4.223
REMARK INTER:                  -4.026
REMARK INTRA:                  -0.198
REMARK UNBOUND:                -0.196
REMARK SMILES Cc1ccc(C(C)C)c(O)c1
REMARK SMILES IDX 1 1 2 2 11 3 9 4 5 5 4 6 3 7 10 8 6 10 7 11 8 12
REMARK H PARENT 10 9
REMARK Flexibility Score: inf
ROOT
ATOM      1  C   UNL     1      15.424   6.031   8.825  1.00  0.00     0.044 C 
ATOM      2  C   UNL     1      15.553   6.219  10.307  1.00  0.00    -0.047 A 
ATOM      3  C   UNL     1      16.267   5.291  11.076  1.00  0.00     0.049 A 
ATOM      4  C   UNL     1      16.424   5.478  12.457  1.00  0.00     0.119 A 
ATOM      5  C   UNL     1      15.870   6.615  13.085  1.00  0.00    -0.004 A 
ATOM      6  C   UNL     1      15.170   7.552  12.297  1.00  0.00     0.008 A 
ATOM      7  C   UNL     1      15.020   7.357  10.923  1.00  0.00     0.004 A 
ENDROOT
BRANCH   4   8
ATOM      8  O   UNL     1      17.133   4.534  13.202  1.00  0.00    -0.508 OA
ATOM      9  H   UNL     1      16.819   3.574  13.282  1.00  0.00     0.293 HD
ENDBRANCH   4   8
BRANCH   5  10
ATOM     10  C   UNL     1      16.026   6.840  14.582  1.00  0.00     0.017 C 
ATOM     11  C   UNL     1      14.662   7.021  15.260  1.00  0.00     0.012 C 
ATOM     12  C   UNL     1      16.946   8.034  14.867  1.00  0.00     0.012 C 
ENDBRANCH   5  10
TORSDOF 2
ENDMDL
MODEL 7
REMARK VINA RESULT:    -3.672      2.204      4.990
REMARK INTER + INTRA:          -4.190
REMARK INTER:                  -3.990
REMARK INTRA:                  -0.201
REMARK UNBOUND:                -0.196
REMARK SMILES Cc1ccc(C(C)C)c(O)c1
REMARK SMILES IDX 1 1 2 2 11 3 9 4 5 5 4 6 3 7 10 8 6 10 7 11 8 12
REMARK H PARENT 10 9
REMARK Flexibility Score: inf
ROOT
ATOM      1  C   UNL     1       8.874  10.874   7.957  1.00  0.00     0.044 C 
ATOM      2  C   UNL     1       7.589  11.637   7.835  1.00  0.00    -0.047 A 
ATOM      3  C   UNL     1       6.369  10.955   7.735  1.00  0.00     0.049 A 
ATOM      4  C   UNL     1       5.160  11.662   7.657  1.00  0.00     0.119 A 
ATOM      5  C   UNL     1       5.162  13.074   7.690  1.00  0.00    -0.004 A 
ATOM      6  C   UNL     1       6.393  13.748   7.811  1.00  0.00     0.008 A 
ATOM      7  C   UNL     1       7.592  13.036   7.889  1.00  0.00     0.004 A 
ENDROOT
BRANCH   4   8
ATOM      8  O   UNL     1       3.960  10.958   7.548  1.00  0.00    -0.508 OA
ATOM      9  H   UNL     1       3.155  11.347   7.071  1.00  0.00     0.293 HD
ENDBRANCH   4   8
BRANCH   5  10
ATOM     10  C   UNL     1       3.862  13.863   7.607  1.00  0.00     0.017 C 
ATOM     11  C   UNL     1       4.005  15.066   6.666  1.00  0.00     0.012 C 
ATOM     12  C   UNL     1       3.396  14.304   8.999  1.00  0.00     0.012 C 
ENDBRANCH   5  10
TORSDOF 2
ENDMDL
MODEL 8
REMARK VINA RESULT:    -3.609      2.361      4.548
REMARK INTER + INTRA:          -4.122
REMARK INTER:                  -3.924
REMARK INTRA:                  -0.198
REMARK UNBOUND:                -0.196
REMARK SMILES Cc1ccc(C(C)C)c(O)c1
REMARK SMILES IDX 1 1 2 2 11 3 9 4 5 5 4 6 3 7 10 8 6 10 7 11 8 12
REMARK H PARENT 10 9
REMARK Flexibility Score: inf
ROOT
ATOM      1  C   UNL     1       7.471   6.354   4.756  1.00  0.00     0.044 C 
ATOM      2  C   UNL     1       7.764   7.604   5.531  1.00  0.00    -0.047 A 
ATOM      3  C   UNL     1       8.816   8.444   5.143  1.00  0.00     0.049 A 
ATOM      4  C   UNL     1       9.074   9.633   5.840  1.00  0.00     0.119 A 
ATOM      5  C   UNL     1       8.266  10.000   6.938  1.00  0.00    -0.004 A 
ATOM      6  C   UNL     1       7.199   9.156   7.307  1.00  0.00     0.008 A 
ATOM      7  C   UNL     1       6.949   7.975   6.606  1.00  0.00     0.004 A 
ENDROOT
BRANCH   4   8
ATOM      8  O   UNL     1      10.134  10.449   5.438  1.00  0.00    -0.508 OA
ATOM      9  H   UNL     1      10.303  10.660   4.462  1.00  0.00     0.293 HD
ENDBRANCH   4   8
BRANCH   5  10
ATOM     10  C   UNL     1       8.526  11.286   7.711  1.00  0.00     0.017 C 
ATOM     11  C   UNL     1       9.125  10.989   9.091  1.00  0.00     0.012 C 
ATOM     12  C   UNL     1       7.248  12.124   7.833  1.00  0.00     0.012 C 
ENDBRANCH   5  10
TORSDOF 2
ENDMDL
