MODEL 1
REMARK VINA RESULT:    -3.533      0.000      0.000
REMARK INTER + INTRA:          -6.433
REMARK INTER:                  -6.011
REMARK INTRA:                  -0.422
REMARK UNBOUND:                -0.422
REMARK SMILES CCCCCCCCCCCCCC(=O)[O-]
REMARK SMILES IDX 8 1 9 2 10 3 11 4 12 5 13 6 14 7 15 8 16 9 7 10 6 11 5 12
REMARK SMILES IDX 4 13 3 14 2 15 1 16
REMARK H PARENT
REMARK Flexibility Score: inf
ROOT
ATOM      1  C   UNL     1    -115.166 -98.656  35.367  1.00  0.00     0.000 C 
ENDROOT
BRANCH   1   2
ATOM      2  C   UNL     1    -116.131 -97.907  34.441  1.00  0.00     0.000 C 
BRANCH   2   3
ATOM      3  C   UNL     1    -116.041 -98.437  33.003  1.00  0.00     0.000 C 
BRANCH   3   4
ATOM      4  C   UNL     1    -116.958 -99.659  32.770  1.00  0.00     0.000 C 
BRANCH   4   5
ATOM      5  C   UNL     1    -118.363 -99.284  32.261  1.00  0.00     0.006 C 
BRANCH   5   6
ATOM      6  C   UNL     1    -118.547 -97.787  31.975  1.00  0.00     0.053 C 
BRANCH   6   7
ATOM      7  C   UNL     1    -118.594 -97.503  30.504  1.00  0.00     0.041 C 
ATOM      8  O   UNL     1    -118.312 -96.357  30.068  1.00  0.00    -0.550 OA
ATOM      9  O   UNL     1    -118.967 -98.504  29.616  1.00  0.00    -0.550 OA
ENDBRANCH   6   7
ENDBRANCH   5   6
ENDBRANCH   4   5
ENDBRANCH   3   4
ENDBRANCH   2   3
ENDBRANCH   1   2
BRANCH   1  10
ATOM     10  C   UNL     1    -115.896 -99.763  36.142  1.00  0.00     0.000 C 
BRANCH  10  11
ATOM     11  C   UNL     1    -116.895 -99.207  37.169  1.00  0.00    -0.000 C 
BRANCH  11  12
ATOM     12  C   UNL     1    -116.938-100.034  38.463  1.00  0.00    -0.000 C 
BRANCH  12  13
ATOM     13  C   UNL     1    -117.230 -99.138  39.676  1.00  0.00    -0.000 C 
BRANCH  13  14
ATOM     14  C   UNL     1    -116.836 -99.795  41.008  1.00  0.00    -0.000 C 
BRANCH  14  15
ATOM     15  C   UNL     1    -116.197 -98.803  41.990  1.00  0.00    -0.003 C 
ATOM     16  C   UNL     1    -116.870 -98.874  43.358  1.00  0.00     0.004 C 
ENDBRANCH  14  15
ENDBRANCH  13  14
ENDBRANCH  12  13
ENDBRANCH  11  12
ENDBRANCH  10  11
ENDBRANCH   1  10
TORSDOF 12
ENDMDL
MODEL 2
REMARK VINA RESULT:    -3.513      0.935      1.552
REMARK INTER + INTRA:          -6.398
REMARK INTER:                  -5.861
REMARK INTRA:                  -0.537
REMARK UNBOUND:                -0.422
REMARK SMILES CCCCCCCCCCCCCC(=O)[O-]
REMARK SMILES IDX 8 1 9 2 10 3 11 4 12 5 13 6 14 7 15 8 16 9 7 10 6 11 5 12
REMARK SMILES IDX 4 13 3 14 2 15 1 16
REMARK H PARENT
REMARK Flexibility Score: inf
ROOT
ATOM      1  C   UNL     1    -115.920 -99.357  35.859  1.00  0.00     0.000 C 
ENDROOT
BRANCH   1   2
ATOM      2  C   UNL     1    -116.246-100.115  34.567  1.00  0.00     0.000 C 
BRANCH   2   3
ATOM      3  C   UNL     1    -115.720 -99.361  33.336  1.00  0.00     0.000 C 
BRANCH   3   4
ATOM      4  C   UNL     1    -115.984 -97.842  33.422  1.00  0.00     0.000 C 
BRANCH   4   5
ATOM      5  C   UNL     1    -117.427 -97.447  33.055  1.00  0.00     0.006 C 
BRANCH   5   6
ATOM      6  C   UNL     1    -118.044 -98.297  31.936  1.00  0.00     0.053 C 
BRANCH   6   7
ATOM      7  C   UNL     1    -118.525 -97.452  30.796  1.00  0.00     0.041 C 
ATOM      8  O   UNL     1    -118.910 -97.988  29.724  1.00  0.00    -0.550 OA
ATOM      9  O   UNL     1    -118.529 -96.068  30.912  1.00  0.00    -0.550 OA
ENDBRANCH   6   7
ENDBRANCH   5   6
ENDBRANCH   4   5
ENDBRANCH   3   4
ENDBRANCH   2   3
ENDBRANCH   1   2
BRANCH   1  10
ATOM     10  C   UNL     1    -116.704 -99.935  37.047  1.00  0.00     0.000 C 
BRANCH  10  11
ATOM     11  C   UNL     1    -116.834 -98.940  38.211  1.00  0.00    -0.000 C 
BRANCH  11  12
ATOM     12  C   UNL     1    -117.378 -99.592  39.491  1.00  0.00    -0.000 C 
BRANCH  12  13
ATOM     13  C   UNL     1    -117.379 -98.593  40.657  1.00  0.00    -0.000 C 
BRANCH  13  14
ATOM     14  C   UNL     1    -116.200 -98.805  41.621  1.00  0.00    -0.000 C 
BRANCH  14  15
ATOM     15  C   UNL     1    -116.652 -98.982  43.077  1.00  0.00    -0.003 C 
ATOM     16  C   UNL     1    -117.980 -98.275  43.330  1.00  0.00     0.004 C 
ENDBRANCH  14  15
ENDBRANCH  13  14
ENDBRANCH  12  13
ENDBRANCH  11  12
ENDBRANCH  10  11
ENDBRANCH   1  10
TORSDOF 12
ENDMDL
MODEL 3
REMARK VINA RESULT:    -3.403      4.442      8.416
REMARK INTER + INTRA:          -6.212
REMARK INTER:                  -5.472
REMARK INTRA:                  -0.741
REMARK UNBOUND:                -0.422
REMARK SMILES CCCCCCCCCCCCCC(=O)[O-]
REMARK SMILES IDX 8 1 9 2 10 3 11 4 12 5 13 6 14 7 15 8 16 9 7 10 6 11 5 12
REMARK SMILES IDX 4 13 3 14 2 15 1 16
REMARK H PARENT
REMARK Flexibility Score: inf
ROOT
ATOM      1  C   UNL     1    -115.383 -97.858  34.676  1.00  0.00     0.000 C 
ENDROOT
BRANCH   1   2
ATOM      2  C   UNL     1    -115.409 -99.058  35.630  1.00  0.00     0.000 C 
BRANCH   2   3
ATOM      3  C   UNL     1    -116.805 -99.247  36.242  1.00  0.00     0.000 C 
BRANCH   3   4
ATOM      4  C   UNL     1    -116.761-100.035  37.570  1.00  0.00     0.000 C 
BRANCH   4   5
ATOM      5  C   UNL     1    -116.928 -99.146  38.817  1.00  0.00     0.006 C 
BRANCH   5   6
ATOM      6  C   UNL     1    -117.599 -99.850  40.004  1.00  0.00     0.053 C 
BRANCH   6   7
ATOM      7  C   UNL     1    -117.077 -99.350  41.317  1.00  0.00     0.041 C 
ATOM      8  O   UNL     1    -117.869 -98.914  42.192  1.00  0.00    -0.550 OA
ATOM      9  O   UNL     1    -115.710 -99.349  41.565  1.00  0.00    -0.550 OA
ENDBRANCH   6   7
ENDBRANCH   5   6
ENDBRANCH   4   5
ENDBRANCH   3   4
ENDBRANCH   2   3
ENDBRANCH   1   2
BRANCH   1  10
ATOM     10  C   UNL     1    -116.252 -98.123  33.437  1.00  0.00     0.000 C 
BRANCH  10  11
ATOM     11  C   UNL     1    -116.037 -99.528  32.851  1.00  0.00    -0.000 C 
BRANCH  11  12
ATOM     12  C   UNL     1    -117.313-100.109  32.222  1.00  0.00    -0.000 C 
BRANCH  12  13
ATOM     13  C   UNL     1    -118.396 -99.030  32.083  1.00  0.00    -0.000 C 
BRANCH  13  14
ATOM     14  C   UNL     1    -118.966 -98.941  30.659  1.00  0.00    -0.000 C 
BRANCH  14  15
ATOM     15  C   UNL     1    -119.105 -97.493  30.167  1.00  0.00    -0.003 C 
ATOM     16  C   UNL     1    -118.324 -96.533  31.061  1.00  0.00     0.004 C 
ENDBRANCH  14  15
ENDBRANCH  13  14
ENDBRANCH  12  13
ENDBRANCH  11  12
ENDBRANCH  10  11
ENDBRANCH   1  10
TORSDOF 12
ENDMDL
MODEL 4
REMARK VINA RESULT:    -3.334      3.564      6.939
REMARK INTER + INTRA:          -6.094
REMARK INTER:                  -5.681
REMARK INTRA:                  -0.413
REMARK UNBOUND:                -0.422
REMARK SMILES CCCCCCCCCCCCCC(=O)[O-]
REMARK SMILES IDX 8 1 9 2 10 3 11 4 12 5 13 6 14 7 15 8 16 9 7 10 6 11 5 12
REMARK SMILES IDX 4 13 3 14 2 15 1 16
REMARK H PARENT
REMARK Flexibility Score: inf
ROOT
ATOM      1  C   UNL     1    -116.671 -98.629  42.840  1.00  0.00     0.000 C 
ENDROOT
BRANCH   1   2
ATOM      2  C   UNL     1    -116.408 -99.362  41.520  1.00  0.00     0.000 C 
BRANCH   2   3
ATOM      3  C   UNL     1    -117.431 -98.955  40.448  1.00  0.00     0.000 C 
BRANCH   3   4
ATOM      4  C   UNL     1    -117.275 -99.774  39.148  1.00  0.00     0.000 C 
BRANCH   4   5
ATOM      5  C   UNL     1    -116.812 -98.931  37.944  1.00  0.00     0.006 C 
BRANCH   5   6
ATOM      6  C   UNL     1    -116.471 -99.757  36.696  1.00  0.00     0.053 C 
BRANCH   6   7
ATOM      7  C   UNL     1    -115.940 -98.899  35.588  1.00  0.00     0.041 C 
ATOM      8  O   UNL     1    -114.760 -98.465  35.628  1.00  0.00    -0.550 OA
ATOM      9  O   UNL     1    -116.760 -98.563  34.518  1.00  0.00    -0.550 OA
ENDBRANCH   6   7
ENDBRANCH   5   6
ENDBRANCH   4   5
ENDBRANCH   3   4
ENDBRANCH   2   3
ENDBRANCH   1   2
BRANCH   1  10
ATOM     10  C   UNL     1    -117.665 -99.410  43.713  1.00  0.00     0.000 C 
BRANCH  10  11
ATOM     11  C   UNL     1    -117.909 -98.742  45.076  1.00  0.00    -0.000 C 
BRANCH  11  12
ATOM     12  C   UNL     1    -118.255 -99.754  46.179  1.00  0.00    -0.000 C 
BRANCH  12  13
ATOM     13  C   UNL     1    -117.707 -99.291  47.537  1.00  0.00    -0.000 C 
BRANCH  13  14
ATOM     14  C   UNL     1    -118.514 -98.129  48.137  1.00  0.00    -0.000 C 
BRANCH  14  15
ATOM     15  C   UNL     1    -117.685 -96.843  48.273  1.00  0.00    -0.003 C 
ATOM     16  C   UNL     1    -118.533 -95.609  47.980  1.00  0.00     0.004 C 
ENDBRANCH  14  15
ENDBRANCH  13  14
ENDBRANCH  12  13
ENDBRANCH  11  12
ENDBRANCH  10  11
ENDBRANCH   1  10
TORSDOF 12
ENDMDL
MODEL 5
REMARK VINA RESULT:    -3.324      7.034     11.348
REMARK INTER + INTRA:          -6.078
REMARK INTER:                  -5.584
REMARK INTRA:                  -0.494
REMARK UNBOUND:                -0.422
REMARK SMILES CCCCCCCCCCCCCC(=O)[O-]
REMARK SMILES IDX 8 1 9 2 10 3 11 4 12 5 13 6 14 7 15 8 16 9 7 10 6 11 5 12
REMARK SMILES IDX 4 13 3 14 2 15 1 16
REMARK H PARENT
REMARK Flexibility Score: inf
ROOT
ATOM      1  C   UNL     1    -116.611 -98.773  42.323  1.00  0.00     0.000 C 
ENDROOT
BRANCH   1   2
ATOM      2  C   UNL     1    -117.983 -98.107  42.480  1.00  0.00     0.000 C 
BRANCH   2   3
ATOM      3  C   UNL     1    -118.396 -98.035  43.957  1.00  0.00     0.000 C 
BRANCH   3   4
ATOM      4  C   UNL     1    -117.610 -99.032  44.836  1.00  0.00     0.000 C 
BRANCH   4   5
ATOM      5  C   UNL     1    -118.164 -99.156  46.269  1.00  0.00     0.006 C 
BRANCH   5   6
ATOM      6  C   UNL     1    -118.326 -97.814  46.996  1.00  0.00     0.053 C 
BRANCH   6   7
ATOM      7  C   UNL     1    -117.809 -97.876  48.401  1.00  0.00     0.041 C 
ATOM      8  O   UNL     1    -117.272 -96.866  48.926  1.00  0.00    -0.550 OA
ATOM      9  O   UNL     1    -117.903 -99.058  49.124  1.00  0.00    -0.550 OA
ENDBRANCH   6   7
ENDBRANCH   5   6
ENDBRANCH   4   5
ENDBRANCH   3   4
ENDBRANCH   2   3
ENDBRANCH   1   2
BRANCH   1  10
ATOM     10  C   UNL     1    -116.579 -99.679  41.081  1.00  0.00     0.000 C 
BRANCH  10  11
ATOM     11  C   UNL     1    -117.517 -99.190  39.967  1.00  0.00    -0.000 C 
BRANCH  11  12
ATOM     12  C   UNL     1    -117.280 -99.912  38.632  1.00  0.00    -0.000 C 
BRANCH  12  13
ATOM     13  C   UNL     1    -116.661 -98.960  37.598  1.00  0.00    -0.000 C 
BRANCH  13  14
ATOM     14  C   UNL     1    -116.143 -99.695  36.351  1.00  0.00    -0.000 C 
BRANCH  14  15
ATOM     15  C   UNL     1    -115.258 -98.805  35.466  1.00  0.00    -0.003 C 
ATOM     16  C   UNL     1    -116.025 -98.312  34.242  1.00  0.00     0.004 C 
ENDBRANCH  14  15
ENDBRANCH  13  14
ENDBRANCH  12  13
ENDBRANCH  11  12
ENDBRANCH  10  11
ENDBRANCH   1  10
TORSDOF 12
ENDMDL
MODEL 6
REMARK VINA RESULT:    -3.312      2.015      4.259
REMARK INTER + INTRA:          -6.057
REMARK INTER:                  -5.642
REMARK INTRA:                  -0.415
REMARK UNBOUND:                -0.422
REMARK SMILES CCCCCCCCCCCCCC(=O)[O-]
REMARK SMILES IDX 8 1 9 2 10 3 11 4 12 5 13 6 14 7 15 8 16 9 7 10 6 11 5 12
REMARK SMILES IDX 4 13 3 14 2 15 1 16
REMARK H PARENT
REMARK Flexibility Score: inf
ROOT
ATOM      1  C   UNL     1    -117.608 -99.898  39.697  1.00  0.00     0.000 C 
ENDROOT
BRANCH   1   2
ATOM      2  C   UNL     1    -116.793 -99.339  38.525  1.00  0.00     0.000 C 
BRANCH   2   3
ATOM      3  C   UNL     1    -117.068-100.123  37.235  1.00  0.00     0.000 C 
BRANCH   3   4
ATOM      4  C   UNL     1    -115.959 -99.925  36.179  1.00  0.00     0.000 C 
BRANCH   4   5
ATOM      5  C   UNL     1    -116.013 -98.553  35.481  1.00  0.00     0.006 C 
BRANCH   5   6
ATOM      6  C   UNL     1    -115.753 -98.608  33.969  1.00  0.00     0.053 C 
BRANCH   6   7
ATOM      7  C   UNL     1    -116.476 -97.517  33.239  1.00  0.00     0.041 C 
ATOM      8  O   UNL     1    -116.181 -96.311  33.442  1.00  0.00    -0.550 OA
ATOM      9  O   UNL     1    -117.492 -97.835  32.346  1.00  0.00    -0.550 OA
ENDBRANCH   6   7
ENDBRANCH   5   6
ENDBRANCH   4   5
ENDBRANCH   3   4
ENDBRANCH   2   3
ENDBRANCH   1   2
BRANCH   1  10
ATOM     10  C   UNL     1    -117.792 -98.838  40.794  1.00  0.00     0.000 C 
BRANCH  10  11
ATOM     11  C   UNL     1    -116.522 -98.628  41.633  1.00  0.00    -0.000 C 
BRANCH  11  12
ATOM     12  C   UNL     1    -116.710 -99.028  43.104  1.00  0.00    -0.000 C 
BRANCH  12  13
ATOM     13  C   UNL     1    -117.976 -98.385  43.689  1.00  0.00    -0.000 C 
BRANCH  13  14
ATOM     14  C   UNL     1    -118.581 -99.205  44.840  1.00  0.00    -0.000 C 
BRANCH  14  15
ATOM     15  C   UNL     1    -118.081 -98.746  46.217  1.00  0.00    -0.003 C 
ATOM     16  C   UNL     1    -118.149 -99.883  47.232  1.00  0.00     0.004 C 
ENDBRANCH  14  15
ENDBRANCH  13  14
ENDBRANCH  12  13
ENDBRANCH  11  12
ENDBRANCH  10  11
ENDBRANCH   1  10
TORSDOF 12
ENDMDL
MODEL 7
REMARK VINA RESULT:    -3.070      4.216      8.125
REMARK INTER + INTRA:          -5.645
REMARK INTER:                  -4.930
REMARK INTRA:                  -0.715
REMARK UNBOUND:                -0.422
REMARK SMILES CCCCCCCCCCCCCC(=O)[O-]
REMARK SMILES IDX 8 1 9 2 10 3 11 4 12 5 13 6 14 7 15 8 16 9 7 10 6 11 5 12
REMARK SMILES IDX 4 13 3 14 2 15 1 16
REMARK H PARENT
REMARK Flexibility Score: inf
ROOT
ATOM      1  C   UNL     1    -115.384 -97.616  34.968  1.00  0.00     0.000 C 
ENDROOT
BRANCH   1   2
ATOM      2  C   UNL     1    -115.143 -98.847  35.848  1.00  0.00     0.000 C 
BRANCH   2   3
ATOM      3  C   UNL     1    -116.190 -99.937  35.574  1.00  0.00     0.000 C 
BRANCH   3   4
ATOM      4  C   UNL     1    -117.262-100.014  36.683  1.00  0.00     0.000 C 
BRANCH   4   5
ATOM      5  C   UNL     1    -116.731 -99.633  38.078  1.00  0.00     0.006 C 
BRANCH   5   6
ATOM      6  C   UNL     1    -117.610-100.121  39.238  1.00  0.00     0.053 C 
BRANCH   6   7
ATOM      7  C   UNL     1    -117.283 -99.417  40.519  1.00  0.00     0.041 C 
ATOM      8  O   UNL     1    -118.158 -98.733  41.112  1.00  0.00    -0.550 OA
ATOM      9  O   UNL     1    -116.002 -99.502  41.050  1.00  0.00    -0.550 OA
ENDBRANCH   6   7
ENDBRANCH   5   6
ENDBRANCH   4   5
ENDBRANCH   3   4
ENDBRANCH   2   3
ENDBRANCH   1   2
BRANCH   1  10
ATOM     10  C   UNL     1    -116.454 -97.903  33.902  1.00  0.00     0.000 C 
BRANCH  10  11
ATOM     11  C   UNL     1    -116.377 -96.936  32.710  1.00  0.00    -0.000 C 
BRANCH  11  12
ATOM     12  C   UNL     1    -117.761 -96.462  32.241  1.00  0.00    -0.000 C 
BRANCH  12  13
ATOM     13  C   UNL     1    -117.995 -96.827  30.768  1.00  0.00    -0.000 C 
BRANCH  13  14
ATOM     14  C   UNL     1    -119.125 -97.852  30.583  1.00  0.00    -0.000 C 
BRANCH  14  15
ATOM     15  C   UNL     1    -118.618 -99.302  30.613  1.00  0.00    -0.003 C 
ATOM     16  C   UNL     1    -118.632 -99.859  32.033  1.00  0.00     0.004 C 
ENDBRANCH  14  15
ENDBRANCH  13  14
ENDBRANCH  12  13
ENDBRANCH  11  12
ENDBRANCH  10  11
ENDBRANCH   1  10
TORSDOF 12
ENDMDL
MODEL 8
REMARK VINA RESULT:    -3.031      5.363      9.195
REMARK INTER + INTRA:          -5.578
REMARK INTER:                  -4.969
REMARK INTRA:                  -0.610
REMARK UNBOUND:                -0.422
REMARK SMILES CCCCCCCCCCCCCC(=O)[O-]
REMARK SMILES IDX 8 1 9 2 10 3 11 4 12 5 13 6 14 7 15 8 16 9 7 10 6 11 5 12
REMARK SMILES IDX 4 13 3 14 2 15 1 16
REMARK H PARENT
REMARK Flexibility Score: inf
ROOT
ATOM      1  C   UNL     1    -117.138 -99.954  37.173  1.00  0.00     0.000 C 
ENDROOT
BRANCH   1   2
ATOM      2  C   UNL     1    -117.143-100.125  38.696  1.00  0.00     0.000 C 
BRANCH   2   3
ATOM      3  C   UNL     1    -117.273 -98.769  39.404  1.00  0.00     0.000 C 
BRANCH   3   4
ATOM      4  C   UNL     1    -118.154 -98.849  40.670  1.00  0.00     0.000 C 
BRANCH   4   5
ATOM      5  C   UNL     1    -117.370 -98.632  41.979  1.00  0.00     0.006 C 
BRANCH   5   6
ATOM      6  C   UNL     1    -118.030 -99.257  43.216  1.00  0.00     0.053 C 
BRANCH   6   7
ATOM      7  C   UNL     1    -118.335 -98.231  44.263  1.00  0.00     0.041 C 
ATOM      8  O   UNL     1    -118.948 -97.174  43.960  1.00  0.00    -0.550 OA
ATOM      9  O   UNL     1    -117.924 -98.434  45.575  1.00  0.00    -0.550 OA
ENDBRANCH   6   7
ENDBRANCH   5   6
ENDBRANCH   4   5
ENDBRANCH   3   4
ENDBRANCH   2   3
ENDBRANCH   1   2
BRANCH   1  10
ATOM     10  C   UNL     1    -116.105 -98.901  36.741  1.00  0.00     0.000 C 
BRANCH  10  11
ATOM     11  C   UNL     1    -115.396 -99.270  35.429  1.00  0.00    -0.000 C 
BRANCH  11  12
ATOM     12  C   UNL     1    -116.328 -99.972  34.428  1.00  0.00    -0.000 C 
BRANCH  12  13
ATOM     13  C   UNL     1    -116.175 -99.370  33.023  1.00  0.00    -0.000 C 
BRANCH  13  14
ATOM     14  C   UNL     1    -117.443 -98.644  32.547  1.00  0.00    -0.000 C 
BRANCH  14  15
ATOM     15  C   UNL     1    -117.201 -97.154  32.265  1.00  0.00    -0.003 C 
ATOM     16  C   UNL     1    -116.171 -96.574  33.230  1.00  0.00     0.004 C 
ENDBRANCH  14  15
ENDBRANCH  13  14
ENDBRANCH  12  13
ENDBRANCH  11  12
ENDBRANCH  10  11
ENDBRANCH   1  10
TORSDOF 12
ENDMDL
