MODEL 1
REMARK VINA RESULT:    -6.324      0.000      0.000
REMARK INTER + INTRA:          -7.750
REMARK INTER:                  -7.434
REMARK INTRA:                  -0.317
REMARK UNBOUND:                -0.317
REMARK SMILES O=c1cc(-c2ccc(O)c(O)c2)oc2cc(O)cc(O)c12
REMARK SMILES IDX 4 1 3 2 2 3 1 4 21 5 19 6 18 7 16 8 15 9 14 10 13 11 5 12
REMARK SMILES IDX 6 13 7 14 8 15 12 16 10 17 9 18 11 20 20 22 17 24
REMARK H PARENT 9 19 11 21 20 23 17 25
REMARK Flexibility Score: inf
ROOT
ATOM      1  C   UNL     1    -115.013 -10.201  80.492  1.00  0.00     0.138 A 
ATOM      2  C   UNL     1    -113.756  -9.731  80.897  1.00  0.00     0.100 A 
ATOM      3  C   UNL     1    -112.756  -9.524  79.945  1.00  0.00     0.197 A 
ATOM      4  O   UNL     1    -111.620  -9.161  80.347  1.00  0.00    -0.289 OA
ATOM      5  C   UNL     1    -113.028  -9.760  78.577  1.00  0.00     0.107 A 
ATOM      6  C   UNL     1    -112.101  -9.544  77.515  1.00  0.00     0.134 A 
ATOM      7  C   UNL     1    -112.443  -9.923  76.211  1.00  0.00     0.093 A 
ATOM      8  C   UNL     1    -113.700 -10.452  75.921  1.00  0.00     0.123 A 
ATOM      9  C   UNL     1    -114.636 -10.618  76.944  1.00  0.00     0.094 A 
ATOM     10  C   UNL     1    -114.312 -10.281  78.260  1.00  0.00     0.146 A 
ATOM     11  O   UNL     1    -115.225 -10.467  79.208  1.00  0.00    -0.456 OA
ENDROOT
BRANCH   1  12
ATOM     12  C   UNL     1    -116.112 -10.438  81.463  1.00  0.00     0.021 A 
ATOM     13  C   UNL     1    -116.034  -9.983  82.793  1.00  0.00     0.016 A 
ATOM     14  C   UNL     1    -117.088 -10.210  83.682  1.00  0.00     0.051 A 
ATOM     15  C   UNL     1    -118.237 -10.888  83.257  1.00  0.00     0.157 A 
ATOM     16  C   UNL     1    -117.276 -11.106  81.041  1.00  0.00     0.062 A 
ATOM     17  C   UNL     1    -118.332 -11.334  81.935  1.00  0.00     0.158 A 
BRANCH  15  18
ATOM     18  O   UNL     1    -119.289 -11.118  84.142  1.00  0.00    -0.504 OA
ATOM     19  H   UNL     1    -120.082 -10.490  84.197  1.00  0.00     0.293 HD
ENDBRANCH  15  18
BRANCH  17  20
ATOM     20  O   UNL     1    -119.479 -12.005  81.513  1.00  0.00    -0.504 OA
ATOM     21  H   UNL     1    -120.151 -11.569  80.892  1.00  0.00     0.293 HD
ENDBRANCH  17  20
ENDBRANCH   1  12
BRANCH   6  22
ATOM     22  O   UNL     1    -110.849  -8.943  77.681  1.00  0.00    -0.507 OA
ATOM     23  H   UNL     1    -109.970  -9.436  77.691  1.00  0.00     0.293 HD
ENDBRANCH   6  22
BRANCH   8  24
ATOM     24  O   UNL     1    -114.012 -10.804  74.610  1.00  0.00    -0.508 OA
ATOM     25  H   UNL     1    -113.535 -11.562  74.137  1.00  0.00     0.293 HD
ENDBRANCH   8  24
TORSDOF 5
ENDMDL
MODEL 2
REMARK VINA RESULT:    -6.261      8.566      9.101
REMARK INTER + INTRA:          -7.676
REMARK INTER:                  -7.369
REMARK INTRA:                  -0.307
REMARK UNBOUND:                -0.317
REMARK SMILES O=c1cc(-c2ccc(O)c(O)c2)oc2cc(O)cc(O)c12
REMARK SMILES IDX 4 1 3 2 2 3 1 4 21 5 19 6 18 7 16 8 15 9 14 10 13 11 5 12
REMARK SMILES IDX 6 13 7 14 8 15 12 16 10 17 9 18 11 20 20 22 17 24
REMARK H PARENT 9 19 11 21 20 23 17 25
REMARK Flexibility Score: inf
ROOT
ATOM      1  C   UNL     1    -115.576  -1.837  77.448  1.00  0.00     0.138 A 
ATOM      2  C   UNL     1    -114.863  -1.021  78.337  1.00  0.00     0.100 A 
ATOM      3  C   UNL     1    -113.531  -0.705  78.069  1.00  0.00     0.197 A 
ATOM      4  O   UNL     1    -112.900  -0.021  78.917  1.00  0.00    -0.289 OA
ATOM      5  C   UNL     1    -112.919  -1.185  76.887  1.00  0.00     0.107 A 
ATOM      6  C   UNL     1    -111.580  -0.893  76.489  1.00  0.00     0.134 A 
ATOM      7  C   UNL     1    -111.045  -1.519  75.356  1.00  0.00     0.093 A 
ATOM      8  C   UNL     1    -111.817  -2.377  74.574  1.00  0.00     0.123 A 
ATOM      9  C   UNL     1    -113.145  -2.628  74.924  1.00  0.00     0.094 A 
ATOM     10  C   UNL     1    -113.698  -2.046  76.067  1.00  0.00     0.146 A 
ATOM     11  O   UNL     1    -114.961  -2.320  76.374  1.00  0.00    -0.456 OA
ENDROOT
BRANCH   1  12
ATOM     12  C   UNL     1    -116.995  -2.204  77.685  1.00  0.00     0.021 A 
ATOM     13  C   UNL     1    -117.539  -2.255  78.983  1.00  0.00     0.016 A 
ATOM     14  C   UNL     1    -118.881  -2.593  79.176  1.00  0.00     0.051 A 
ATOM     15  C   UNL     1    -119.704  -2.876  78.079  1.00  0.00     0.157 A 
ATOM     16  C   UNL     1    -117.833  -2.477  76.588  1.00  0.00     0.062 A 
ATOM     17  C   UNL     1    -119.179  -2.816  76.783  1.00  0.00     0.158 A 
BRANCH  15  18
ATOM     18  O   UNL     1    -121.042  -3.214  78.269  1.00  0.00    -0.504 OA
ATOM     19  H   UNL     1    -121.716  -3.154  77.515  1.00  0.00     0.293 HD
ENDBRANCH  15  18
BRANCH  17  20
ATOM     20  O   UNL     1    -120.001  -3.095  75.692  1.00  0.00    -0.504 OA
ATOM     21  H   UNL     1    -120.501  -2.360  75.203  1.00  0.00     0.293 HD
ENDBRANCH  17  20
ENDBRANCH   1  12
BRANCH   6  22
ATOM     22  O   UNL     1    -110.748   0.015  77.151  1.00  0.00    -0.507 OA
ATOM     23  H   UNL     1    -110.300  -0.155  78.038  1.00  0.00     0.293 HD
ENDBRANCH   6  22
BRANCH   8  24
ATOM     24  O   UNL     1    -111.256  -2.970  73.445  1.00  0.00    -0.508 OA
ATOM     25  H   UNL     1    -111.282  -3.974  73.306  1.00  0.00     0.293 HD
ENDBRANCH   8  24
TORSDOF 5
ENDMDL
MODEL 3
REMARK VINA RESULT:    -6.237      1.666      1.746
REMARK INTER + INTRA:          -7.648
REMARK INTER:                  -7.353
REMARK INTRA:                  -0.295
REMARK UNBOUND:                -0.317
REMARK SMILES O=c1cc(-c2ccc(O)c(O)c2)oc2cc(O)cc(O)c12
REMARK SMILES IDX 4 1 3 2 2 3 1 4 21 5 19 6 18 7 16 8 15 9 14 10 13 11 5 12
REMARK SMILES IDX 6 13 7 14 8 15 12 16 10 17 9 18 11 20 20 22 17 24
REMARK H PARENT 9 19 11 21 20 23 17 25
REMARK Flexibility Score: inf
ROOT
ATOM      1  C   UNL     1    -116.060  -9.820  80.860  1.00  0.00     0.138 A 
ATOM      2  C   UNL     1    -115.536  -8.560  81.182  1.00  0.00     0.100 A 
ATOM      3  C   UNL     1    -114.750  -7.880  80.252  1.00  0.00     0.197 A 
ATOM      4  O   UNL     1    -114.244  -6.779  80.593  1.00  0.00    -0.289 OA
ATOM      5  C   UNL     1    -114.514  -8.451  78.979  1.00  0.00     0.107 A 
ATOM      6  C   UNL     1    -113.763  -7.832  77.936  1.00  0.00     0.134 A 
ATOM      7  C   UNL     1    -113.497  -8.544  76.760  1.00  0.00     0.093 A 
ATOM      8  C   UNL     1    -114.005  -9.827  76.564  1.00  0.00     0.123 A 
ATOM      9  C   UNL     1    -114.786 -10.423  77.555  1.00  0.00     0.094 A 
ATOM     10  C   UNL     1    -115.041  -9.752  78.754  1.00  0.00     0.146 A 
ATOM     11  O   UNL     1    -115.777 -10.359  79.679  1.00  0.00    -0.456 OA
ENDROOT
BRANCH   1  12
ATOM     12  C   UNL     1    -116.902 -10.587  81.813  1.00  0.00     0.021 A 
ATOM     13  C   UNL     1    -116.601 -10.643  83.187  1.00  0.00     0.016 A 
ATOM     14  C   UNL     1    -117.417 -11.363  84.063  1.00  0.00     0.051 A 
ATOM     15  C   UNL     1    -118.550 -12.032  83.584  1.00  0.00     0.157 A 
ATOM     16  C   UNL     1    -118.051 -11.250  81.343  1.00  0.00     0.062 A 
ATOM     17  C   UNL     1    -118.869 -11.973  82.223  1.00  0.00     0.158 A 
BRANCH  15  18
ATOM     18  O   UNL     1    -119.366 -12.752  84.455  1.00  0.00    -0.504 OA
ATOM     19  H   UNL     1    -119.081 -12.949  85.407  1.00  0.00     0.293 HD
ENDBRANCH  15  18
BRANCH  17  20
ATOM     20  O   UNL     1    -120.000 -12.636  81.750  1.00  0.00    -0.504 OA
ATOM     21  H   UNL     1    -120.402 -13.422  82.250  1.00  0.00     0.293 HD
ENDBRANCH  17  20
ENDBRANCH   1  12
BRANCH   6  22
ATOM     22  O   UNL     1    -113.280  -6.520  77.994  1.00  0.00    -0.507 OA
ATOM     23  H   UNL     1    -112.972  -5.984  77.198  1.00  0.00     0.293 HD
ENDBRANCH   6  22
BRANCH   8  24
ATOM     24  O   UNL     1    -113.733 -10.500  75.375  1.00  0.00    -0.508 OA
ATOM     25  H   UNL     1    -114.158 -10.221  74.499  1.00  0.00     0.293 HD
ENDBRANCH   8  24
TORSDOF 5
ENDMDL
MODEL 4
REMARK VINA RESULT:    -6.199      8.077      8.752
REMARK INTER + INTRA:          -7.603
REMARK INTER:                  -7.325
REMARK INTRA:                  -0.278
REMARK UNBOUND:                -0.317
REMARK SMILES O=c1cc(-c2ccc(O)c(O)c2)oc2cc(O)cc(O)c12
REMARK SMILES IDX 4 1 3 2 2 3 1 4 21 5 19 6 18 7 16 8 15 9 14 10 13 11 5 12
REMARK SMILES IDX 6 13 7 14 8 15 12 16 10 17 9 18 11 20 20 22 17 24
REMARK H PARENT 9 19 11 21 20 23 17 25
REMARK Flexibility Score: inf
ROOT
ATOM      1  C   UNL     1    -115.165  -2.778  76.966  1.00  0.00     0.138 A 
ATOM      2  C   UNL     1    -114.360  -3.866  77.336  1.00  0.00     0.100 A 
ATOM      3  C   UNL     1    -113.111  -4.035  76.737  1.00  0.00     0.197 A 
ATOM      4  O   UNL     1    -112.439  -5.054  77.045  1.00  0.00    -0.289 OA
ATOM      5  C   UNL     1    -112.653  -3.094  75.786  1.00  0.00     0.107 A 
ATOM      6  C   UNL     1    -111.381  -3.142  75.142  1.00  0.00     0.134 A 
ATOM      7  C   UNL     1    -111.083  -2.219  74.132  1.00  0.00     0.093 A 
ATOM      8  C   UNL     1    -111.985  -1.215  73.785  1.00  0.00     0.123 A 
ATOM      9  C   UNL     1    -113.211  -1.124  74.446  1.00  0.00     0.094 A 
ATOM     10  C   UNL     1    -113.552  -2.051  75.434  1.00  0.00     0.146 A 
ATOM     11  O   UNL     1    -114.734  -1.940  76.030  1.00  0.00    -0.456 OA
ENDROOT
BRANCH   1  12
ATOM     12  C   UNL     1    -116.502  -2.551  77.571  1.00  0.00     0.021 A 
ATOM     13  C   UNL     1    -116.659  -2.314  78.951  1.00  0.00     0.016 A 
ATOM     14  C   UNL     1    -117.928  -2.092  79.492  1.00  0.00     0.051 A 
ATOM     15  C   UNL     1    -119.058  -2.094  78.665  1.00  0.00     0.157 A 
ATOM     16  C   UNL     1    -117.641  -2.537  76.747  1.00  0.00     0.062 A 
ATOM     17  C   UNL     1    -118.915  -2.315  77.291  1.00  0.00     0.158 A 
BRANCH  15  18
ATOM     18  O   UNL     1    -120.325  -1.874  79.202  1.00  0.00    -0.504 OA
ATOM     19  H   UNL     1    -121.166  -2.040  78.662  1.00  0.00     0.293 HD
ENDBRANCH  15  18
BRANCH  17  20
ATOM     20  O   UNL     1    -120.042  -2.312  76.470  1.00  0.00    -0.504 OA
ATOM     21  H   UNL     1    -120.031  -2.746  75.554  1.00  0.00     0.293 HD
ENDBRANCH  17  20
ENDBRANCH   1  12
BRANCH   6  22
ATOM     22  O   UNL     1    -110.372  -4.053  75.472  1.00  0.00    -0.507 OA
ATOM     23  H   UNL     1    -109.424  -3.803  75.705  1.00  0.00     0.293 HD
ENDBRANCH   6  22
BRANCH   8  24
ATOM     24  O   UNL     1    -111.649  -0.304  72.785  1.00  0.00    -0.508 OA
ATOM     25  H   UNL     1    -110.762   0.185  72.789  1.00  0.00     0.293 HD
ENDBRANCH   8  24
TORSDOF 5
ENDMDL
MODEL 5
REMARK VINA RESULT:    -6.128      3.912      6.608
REMARK INTER + INTRA:          -7.520
REMARK INTER:                  -7.222
REMARK INTRA:                  -0.297
REMARK UNBOUND:                -0.317
REMARK SMILES O=c1cc(-c2ccc(O)c(O)c2)oc2cc(O)cc(O)c12
REMARK SMILES IDX 4 1 3 2 2 3 1 4 21 5 19 6 18 7 16 8 15 9 14 10 13 11 5 12
REMARK SMILES IDX 6 13 7 14 8 15 12 16 10 17 9 18 11 20 20 22 17 24
REMARK H PARENT 9 19 11 21 20 23 17 25
REMARK Flexibility Score: inf
ROOT
ATOM      1  C   UNL     1    -110.594  -9.000  77.648  1.00  0.00     0.138 A 
ATOM      2  C   UNL     1    -109.914  -9.312  78.833  1.00  0.00     0.100 A 
ATOM      3  C   UNL     1    -108.615  -8.841  79.029  1.00  0.00     0.197 A 
ATOM      4  O   UNL     1    -108.008  -9.189  80.076  1.00  0.00    -0.289 OA
ATOM      5  C   UNL     1    -108.006  -8.027  78.045  1.00  0.00     0.107 A 
ATOM      6  C   UNL     1    -106.703  -7.456  78.155  1.00  0.00     0.134 A 
ATOM      7  C   UNL     1    -106.159  -6.763  77.066  1.00  0.00     0.093 A 
ATOM      8  C   UNL     1    -106.893  -6.568  75.897  1.00  0.00     0.123 A 
ATOM      9  C   UNL     1    -108.189  -7.075  75.798  1.00  0.00     0.094 A 
ATOM     10  C   UNL     1    -108.747  -7.801  76.854  1.00  0.00     0.146 A 
ATOM     11  O   UNL     1    -109.979  -8.280  76.716  1.00  0.00    -0.456 OA
ENDROOT
BRANCH   1  12
ATOM     12  C   UNL     1    -111.977  -9.475  77.389  1.00  0.00     0.021 A 
ATOM     13  C   UNL     1    -112.964  -9.463  78.393  1.00  0.00     0.016 A 
ATOM     14  C   UNL     1    -114.260  -9.905  78.119  1.00  0.00     0.051 A 
ATOM     15  C   UNL     1    -114.595 -10.360  76.837  1.00  0.00     0.157 A 
ATOM     16  C   UNL     1    -112.326  -9.920  76.101  1.00  0.00     0.062 A 
ATOM     17  C   UNL     1    -113.627 -10.365  75.827  1.00  0.00     0.158 A 
BRANCH  15  18
ATOM     18  O   UNL     1    -115.887 -10.803  76.560  1.00  0.00    -0.504 OA
ATOM     19  H   UNL     1    -116.651 -10.153  76.418  1.00  0.00     0.293 HD
ENDBRANCH  15  18
BRANCH  17  20
ATOM     20  O   UNL     1    -113.964 -10.814  74.550  1.00  0.00    -0.504 OA
ATOM     21  H   UNL     1    -114.886 -11.183  74.344  1.00  0.00     0.293 HD
ENDBRANCH  17  20
ENDBRANCH   1  12
BRANCH   6  22
ATOM     22  O   UNL     1    -105.917  -7.519  79.310  1.00  0.00    -0.507 OA
ATOM     23  H   UNL     1    -105.968  -8.250  80.002  1.00  0.00     0.293 HD
ENDBRANCH   6  22
BRANCH   8  24
ATOM     24  O   UNL     1    -106.326  -5.860  74.839  1.00  0.00    -0.508 OA
ATOM     25  H   UNL     1    -106.578  -6.052  73.877  1.00  0.00     0.293 HD
ENDBRANCH   8  24
TORSDOF 5
ENDMDL
MODEL 6
REMARK VINA RESULT:    -6.112     10.527     12.130
REMARK INTER + INTRA:          -7.501
REMARK INTER:                  -7.204
REMARK INTRA:                  -0.297
REMARK UNBOUND:                -0.317
REMARK SMILES O=c1cc(-c2ccc(O)c(O)c2)oc2cc(O)cc(O)c12
REMARK SMILES IDX 4 1 3 2 2 3 1 4 21 5 19 6 18 7 16 8 15 9 14 10 13 11 5 12
REMARK SMILES IDX 6 13 7 14 8 15 12 16 10 17 9 18 11 20 20 22 17 24
REMARK H PARENT 9 19 11 21 20 23 17 25
REMARK Flexibility Score: inf
ROOT
ATOM      1  C   UNL     1    -109.473  -2.126  74.661  1.00  0.00     0.138 A 
ATOM      2  C   UNL     1    -109.268  -3.435  74.203  1.00  0.00     0.100 A 
ATOM      3  C   UNL     1    -108.003  -3.823  73.761  1.00  0.00     0.197 A 
ATOM      4  O   UNL     1    -107.865  -4.985  73.299  1.00  0.00    -0.289 OA
ATOM      5  C   UNL     1    -106.929  -2.903  73.808  1.00  0.00     0.107 A 
ATOM      6  C   UNL     1    -105.587  -3.199  73.424  1.00  0.00     0.134 A 
ATOM      7  C   UNL     1    -104.633  -2.174  73.403  1.00  0.00     0.093 A 
ATOM      8  C   UNL     1    -104.955  -0.881  73.811  1.00  0.00     0.123 A 
ATOM      9  C   UNL     1    -106.252  -0.591  74.240  1.00  0.00     0.094 A 
ATOM     10  C   UNL     1    -107.235  -1.583  74.240  1.00  0.00     0.146 A 
ATOM     11  O   UNL     1    -108.461  -1.265  74.642  1.00  0.00    -0.456 OA
ENDROOT
BRANCH   1  12
ATOM     12  C   UNL     1    -110.799  -1.661  75.142  1.00  0.00     0.021 A 
ATOM     13  C   UNL     1    -111.994  -2.053  74.509  1.00  0.00     0.016 A 
ATOM     14  C   UNL     1    -113.229  -1.610  74.990  1.00  0.00     0.051 A 
ATOM     15  C   UNL     1    -113.291  -0.775  76.112  1.00  0.00     0.157 A 
ATOM     16  C   UNL     1    -110.872  -0.833  76.277  1.00  0.00     0.062 A 
ATOM     17  C   UNL     1    -112.112  -0.388  76.757  1.00  0.00     0.158 A 
BRANCH  15  18
ATOM     18  O   UNL     1    -114.521  -0.329  76.593  1.00  0.00    -0.504 OA
ATOM     19  H   UNL     1    -114.583   0.365  77.328  1.00  0.00     0.293 HD
ENDBRANCH  15  18
BRANCH  17  20
ATOM     20  O   UNL     1    -112.178   0.440  77.877  1.00  0.00    -0.504 OA
ATOM     21  H   UNL     1    -111.343   0.718  78.381  1.00  0.00     0.293 HD
ENDBRANCH  17  20
ENDBRANCH   1  12
BRANCH   6  22
ATOM     22  O   UNL     1    -105.137  -4.477  73.079  1.00  0.00    -0.507 OA
ATOM     23  H   UNL     1    -105.302  -5.311  73.621  1.00  0.00     0.293 HD
ENDBRANCH   6  22
BRANCH   8  24
ATOM     24  O   UNL     1    -103.977   0.111  73.792  1.00  0.00    -0.508 OA
ATOM     25  H   UNL     1    -103.933   0.827  74.507  1.00  0.00     0.293 HD
ENDBRANCH   8  24
TORSDOF 5
ENDMDL
MODEL 7
REMARK VINA RESULT:    -6.007      9.290     10.906
REMARK INTER + INTRA:          -7.377
REMARK INTER:                  -7.084
REMARK INTRA:                  -0.294
REMARK UNBOUND:                -0.317
REMARK SMILES O=c1cc(-c2ccc(O)c(O)c2)oc2cc(O)cc(O)c12
REMARK SMILES IDX 4 1 3 2 2 3 1 4 21 5 19 6 18 7 16 8 15 9 14 10 13 11 5 12
REMARK SMILES IDX 6 13 7 14 8 15 12 16 10 17 9 18 11 20 20 22 17 24
REMARK H PARENT 9 19 11 21 20 23 17 25
REMARK Flexibility Score: inf
ROOT
ATOM      1  C   UNL     1    -109.406  -3.438  75.684  1.00  0.00     0.138 A 
ATOM      2  C   UNL     1    -109.117  -4.579  76.446  1.00  0.00     0.100 A 
ATOM      3  C   UNL     1    -107.937  -5.286  76.212  1.00  0.00     0.197 A 
ATOM      4  O   UNL     1    -107.737  -6.341  76.870  1.00  0.00    -0.289 OA
ATOM      5  C   UNL     1    -107.027  -4.830  75.231  1.00  0.00     0.107 A 
ATOM      6  C   UNL     1    -105.774  -5.446  74.935  1.00  0.00     0.134 A 
ATOM      7  C   UNL     1    -105.008  -4.973  73.862  1.00  0.00     0.093 A 
ATOM      8  C   UNL     1    -105.419  -3.870  73.114  1.00  0.00     0.123 A 
ATOM      9  C   UNL     1    -106.617  -3.226  73.429  1.00  0.00     0.094 A 
ATOM     10  C   UNL     1    -107.420  -3.695  74.471  1.00  0.00     0.146 A 
ATOM     11  O   UNL     1    -108.560  -3.063  74.730  1.00  0.00    -0.456 OA
ENDROOT
BRANCH   1  12
ATOM     12  C   UNL     1    -110.646  -2.649  75.891  1.00  0.00     0.021 A 
ATOM     13  C   UNL     1    -111.893  -3.271  76.095  1.00  0.00     0.016 A 
ATOM     14  C   UNL     1    -113.043  -2.503  76.299  1.00  0.00     0.051 A 
ATOM     15  C   UNL     1    -112.966  -1.105  76.310  1.00  0.00     0.157 A 
ATOM     16  C   UNL     1    -110.577  -1.244  75.918  1.00  0.00     0.062 A 
ATOM     17  C   UNL     1    -111.731  -0.475  76.122  1.00  0.00     0.158 A 
BRANCH  15  18
ATOM     18  O   UNL     1    -114.112  -0.337  76.511  1.00  0.00    -0.504 OA
ATOM     19  H   UNL     1    -114.676  -0.013  75.735  1.00  0.00     0.293 HD
ENDBRANCH  15  18
BRANCH  17  20
ATOM     20  O   UNL     1    -111.657   0.917  76.138  1.00  0.00    -0.504 OA
ATOM     21  H   UNL     1    -112.109   1.464  76.863  1.00  0.00     0.293 HD
ENDBRANCH  17  20
ENDBRANCH   1  12
BRANCH   6  22
ATOM     22  O   UNL     1    -105.229  -6.501  75.673  1.00  0.00    -0.507 OA
ATOM     23  H   UNL     1    -104.807  -7.325  75.274  1.00  0.00     0.293 HD
ENDBRANCH   6  22
BRANCH   8  24
ATOM     24  O   UNL     1    -104.625  -3.418  72.063  1.00  0.00    -0.508 OA
ATOM     25  H   UNL     1    -103.639  -3.644  72.008  1.00  0.00     0.293 HD
ENDBRANCH   8  24
TORSDOF 5
ENDMDL
MODEL 8
REMARK VINA RESULT:    -5.978      1.765      7.403
REMARK INTER + INTRA:          -7.343
REMARK INTER:                  -7.049
REMARK INTRA:                  -0.294
REMARK UNBOUND:                -0.317
REMARK SMILES O=c1cc(-c2ccc(O)c(O)c2)oc2cc(O)cc(O)c12
REMARK SMILES IDX 4 1 3 2 2 3 1 4 21 5 19 6 18 7 16 8 15 9 14 10 13 11 5 12
REMARK SMILES IDX 6 13 7 14 8 15 12 16 10 17 9 18 11 20 20 22 17 24
REMARK H PARENT 9 19 11 21 20 23 17 25
REMARK Flexibility Score: inf
ROOT
ATOM      1  C   UNL     1    -116.104 -10.331  80.931  1.00  0.00     0.138 A 
ATOM      2  C   UNL     1    -117.351 -10.972  80.944  1.00  0.00     0.100 A 
ATOM      3  C   UNL     1    -118.062 -11.075  82.140  1.00  0.00     0.197 A 
ATOM      4  O   UNL     1    -119.150 -11.709  82.131  1.00  0.00    -0.289 OA
ATOM      5  C   UNL     1    -117.535 -10.506  83.323  1.00  0.00     0.107 A 
ATOM      6  C   UNL     1    -118.191 -10.513  84.590  1.00  0.00     0.134 A 
ATOM      7  C   UNL     1    -117.520 -10.022  85.717  1.00  0.00     0.093 A 
ATOM      8  C   UNL     1    -116.245  -9.468  85.612  1.00  0.00     0.123 A 
ATOM      9  C   UNL     1    -115.616  -9.406  84.368  1.00  0.00     0.094 A 
ATOM     10  C   UNL     1    -116.244  -9.919  83.231  1.00  0.00     0.146 A 
ATOM     11  O   UNL     1    -115.606  -9.854  82.067  1.00  0.00    -0.456 OA
ENDROOT
BRANCH   1  12
ATOM     12  C   UNL     1    -115.306 -10.193  79.686  1.00  0.00     0.021 A 
ATOM     13  C   UNL     1    -113.982  -9.714  79.706  1.00  0.00     0.016 A 
ATOM     14  C   UNL     1    -113.250  -9.605  78.521  1.00  0.00     0.051 A 
ATOM     15  C   UNL     1    -113.823  -9.979  77.299  1.00  0.00     0.157 A 
ATOM     16  C   UNL     1    -115.868 -10.579  78.456  1.00  0.00     0.062 A 
ATOM     17  C   UNL     1    -115.133 -10.469  77.267  1.00  0.00     0.158 A 
BRANCH  15  18
ATOM     18  O   UNL     1    -113.096  -9.870  76.115  1.00  0.00    -0.504 OA
ATOM     19  H   UNL     1    -113.550  -9.676  75.231  1.00  0.00     0.293 HD
ENDBRANCH  15  18
BRANCH  17  20
ATOM     20  O   UNL     1    -115.700 -10.844  76.050  1.00  0.00    -0.504 OA
ATOM     21  H   UNL     1    -116.697 -11.002  75.956  1.00  0.00     0.293 HD
ENDBRANCH  17  20
ENDBRANCH   1  12
BRANCH   6  22
ATOM     22  O   UNL     1    -119.498 -10.967  84.791  1.00  0.00    -0.507 OA
ATOM     23  H   UNL     1    -120.116 -10.640  85.518  1.00  0.00     0.293 HD
ENDBRANCH   6  22
BRANCH   8  24
ATOM     24  O   UNL     1    -115.614  -8.974  86.752  1.00  0.00    -0.508 OA
ATOM     25  H   UNL     1    -114.702  -9.310  87.040  1.00  0.00     0.293 HD
ENDBRANCH   8  24
TORSDOF 5
ENDMDL
MODEL 9
REMARK VINA RESULT:    -5.967      9.726     12.846
REMARK INTER + INTRA:          -7.330
REMARK INTER:                  -7.027
REMARK INTRA:                  -0.302
REMARK UNBOUND:                -0.317
REMARK SMILES O=c1cc(-c2ccc(O)c(O)c2)oc2cc(O)cc(O)c12
REMARK SMILES IDX 4 1 3 2 2 3 1 4 21 5 19 6 18 7 16 8 15 9 14 10 13 11 5 12
REMARK SMILES IDX 6 13 7 14 8 15 12 16 10 17 9 18 11 20 20 22 17 24
REMARK H PARENT 9 19 11 21 20 23 17 25
REMARK Flexibility Score: inf
ROOT
ATOM      1  C   UNL     1    -108.632  -1.875  75.046  1.00  0.00     0.138 A 
ATOM      2  C   UNL     1    -108.627  -0.742  75.872  1.00  0.00     0.100 A 
ATOM      3  C   UNL     1    -109.824  -0.285  76.426  1.00  0.00     0.197 A 
ATOM      4  O   UNL     1    -109.796   0.769  77.113  1.00  0.00    -0.289 OA
ATOM      5  C   UNL     1    -111.027  -0.986  76.175  1.00  0.00     0.107 A 
ATOM      6  C   UNL     1    -112.299  -0.638  76.720  1.00  0.00     0.134 A 
ATOM      7  C   UNL     1    -113.441  -1.337  76.309  1.00  0.00     0.093 A 
ATOM      8  C   UNL     1    -113.349  -2.408  75.422  1.00  0.00     0.123 A 
ATOM      9  C   UNL     1    -112.103  -2.792  74.924  1.00  0.00     0.094 A 
ATOM     10  C   UNL     1    -110.950  -2.094  75.288  1.00  0.00     0.146 A 
ATOM     11  O   UNL     1    -109.784  -2.482  74.782  1.00  0.00    -0.456 OA
ENDROOT
BRANCH   1  12
ATOM     12  C   UNL     1    -107.388  -2.403  74.431  1.00  0.00     0.021 A 
ATOM     13  C   UNL     1    -106.332  -1.552  74.050  1.00  0.00     0.016 A 
ATOM     14  C   UNL     1    -105.168  -2.077  73.484  1.00  0.00     0.051 A 
ATOM     15  C   UNL     1    -105.035  -3.459  73.295  1.00  0.00     0.157 A 
ATOM     16  C   UNL     1    -107.239  -3.790  74.251  1.00  0.00     0.062 A 
ATOM     17  C   UNL     1    -106.071  -4.316  73.682  1.00  0.00     0.158 A 
BRANCH  15  18
ATOM     18  O   UNL     1    -103.875  -3.985  72.730  1.00  0.00    -0.504 OA
ATOM     19  H   UNL     1    -103.900  -4.518  71.868  1.00  0.00     0.293 HD
ENDBRANCH  15  18
BRANCH  17  20
ATOM     20  O   UNL     1    -105.934  -5.691  73.497  1.00  0.00    -0.504 OA
ATOM     21  H   UNL     1    -105.025  -6.141  73.522  1.00  0.00     0.293 HD
ENDBRANCH  17  20
ENDBRANCH   1  12
BRANCH   6  22
ATOM     22  O   UNL     1    -112.491   0.362  77.679  1.00  0.00    -0.507 OA
ATOM     23  H   UNL     1    -112.701   0.196  78.650  1.00  0.00     0.293 HD
ENDBRANCH   6  22
BRANCH   8  24
ATOM     24  O   UNL     1    -114.505  -3.090  75.046  1.00  0.00    -0.508 OA
ATOM     25  H   UNL     1    -115.082  -2.771  74.277  1.00  0.00     0.293 HD
ENDBRANCH   8  24
TORSDOF 5
ENDMDL
