MODEL 1
REMARK VINA RESULT:    -4.730      0.000      0.000
REMARK INTER + INTRA:          -5.696
REMARK INTER:                  -5.559
REMARK INTRA:                  -0.136
REMARK UNBOUND:                -0.136
REMARK SMILES O=C([O-])C=Cc1ccc(O)c(O)c1
REMARK SMILES IDX 6 1 13 2 7 3 11 4 8 5 9 6 5 7 4 8 2 9 1 10 3 11 12 12 10 14
REMARK H PARENT 12 13 10 15
REMARK Flexibility Score: inf
ROOT
ATOM      1  C   UNL     1      17.427  -7.207   8.807  1.00  0.00    -0.022 A 
ATOM      2  C   UNL     1      17.829  -7.916   9.957  1.00  0.00     0.058 A 
ATOM      3  C   UNL     1      16.976  -7.929   7.690  1.00  0.00     0.012 A 
ATOM      4  C   UNL     1      17.804  -9.319   9.975  1.00  0.00     0.157 A 
ATOM      5  C   UNL     1      16.951  -9.326   7.707  1.00  0.00     0.051 A 
ATOM      6  C   UNL     1      17.368 -10.024   8.847  1.00  0.00     0.157 A 
ENDROOT
BRANCH   1   7
ATOM      7  C   UNL     1      17.424  -5.725   8.743  1.00  0.00     0.010 C 
ATOM      8  C   UNL     1      16.331  -4.992   8.493  1.00  0.00     0.025 C 
BRANCH   8   9
ATOM      9  C   UNL     1      16.373  -3.522   8.450  1.00  0.00     0.064 C 
ATOM     10  O   UNL     1      16.556  -2.875   9.514  1.00  0.00    -0.545 OA
ATOM     11  O   UNL     1      16.210  -2.833   7.252  1.00  0.00    -0.545 OA
ENDBRANCH   8   9
ENDBRANCH   1   7
BRANCH   4  12
ATOM     12  O   UNL     1      18.206 -10.017  11.112  1.00  0.00    -0.504 OA
ATOM     13  H   UNL     1      18.899  -9.641  11.748  1.00  0.00     0.293 HD
ENDBRANCH   4  12
BRANCH   6  14
ATOM     14  O   UNL     1      17.346 -11.418   8.868  1.00  0.00    -0.504 OA
ATOM     15  H   UNL     1      17.667 -11.941   9.674  1.00  0.00     0.293 HD
ENDBRANCH   6  14
TORSDOF 4
ENDMDL
MODEL 2
REMARK VINA RESULT:    -4.577      2.956      6.693
REMARK INTER + INTRA:          -5.515
REMARK INTER:                  -5.387
REMARK INTRA:                  -0.128
REMARK UNBOUND:                -0.136
REMARK SMILES O=C([O-])C=Cc1ccc(O)c(O)c1
REMARK SMILES IDX 6 1 13 2 7 3 11 4 8 5 9 6 5 7 4 8 2 9 1 10 3 11 12 12 10 14
REMARK H PARENT 12 13 10 15
REMARK Flexibility Score: inf
ROOT
ATOM      1  C   UNL     1      17.446 -10.607   7.459  1.00  0.00    -0.022 A 
ATOM      2  C   UNL     1      17.596 -10.310   8.829  1.00  0.00     0.058 A 
ATOM      3  C   UNL     1      17.015  -9.592   6.589  1.00  0.00     0.012 A 
ATOM      4  C   UNL     1      17.294  -9.030   9.317  1.00  0.00     0.157 A 
ATOM      5  C   UNL     1      16.713  -8.318   7.076  1.00  0.00     0.051 A 
ATOM      6  C   UNL     1      16.849  -8.034   8.440  1.00  0.00     0.157 A 
ENDROOT
BRANCH   1   7
ATOM      7  C   UNL     1      17.763 -11.941   6.891  1.00  0.00     0.010 C 
ATOM      8  C   UNL     1      19.006 -12.430   6.787  1.00  0.00     0.025 C 
BRANCH   8   9
ATOM      9  C   UNL     1      19.273 -13.764   6.229  1.00  0.00     0.064 C 
ATOM     10  O   UNL     1      18.322 -14.572   6.070  1.00  0.00    -0.545 OA
ATOM     11  O   UNL     1      20.562 -14.150   5.875  1.00  0.00    -0.545 OA
ENDBRANCH   8   9
ENDBRANCH   1   7
BRANCH   4  12
ATOM     12  O   UNL     1      17.440  -8.740  10.672  1.00  0.00    -0.504 OA
ATOM     13  H   UNL     1      17.914  -7.902  10.988  1.00  0.00     0.293 HD
ENDBRANCH   4  12
BRANCH   6  14
ATOM     14  O   UNL     1      16.547  -6.764   8.930  1.00  0.00    -0.504 OA
ATOM     15  H   UNL     1      16.602  -6.551   9.918  1.00  0.00     0.293 HD
ENDBRANCH   6  14
TORSDOF 4
ENDMDL
MODEL 3
REMARK VINA RESULT:    -4.536     13.364     15.631
REMARK INTER + INTRA:          -5.468
REMARK INTER:                  -5.328
REMARK INTRA:                  -0.141
REMARK UNBOUND:                -0.136
REMARK SMILES O=C([O-])C=Cc1ccc(O)c(O)c1
REMARK SMILES IDX 6 1 13 2 7 3 11 4 8 5 9 6 5 7 4 8 2 9 1 10 3 11 12 12 10 14
REMARK H PARENT 12 13 10 15
REMARK Flexibility Score: inf
ROOT
ATOM      1  C   UNL     1      13.263 -15.762  20.975  1.00  0.00    -0.022 A 
ATOM      2  C   UNL     1      13.317 -16.931  21.762  1.00  0.00     0.058 A 
ATOM      3  C   UNL     1      13.734 -14.557  21.521  1.00  0.00     0.012 A 
ATOM      4  C   UNL     1      13.808 -16.884  23.075  1.00  0.00     0.157 A 
ATOM      5  C   UNL     1      14.222 -14.510  22.829  1.00  0.00     0.051 A 
ATOM      6  C   UNL     1      14.257 -15.671  23.610  1.00  0.00     0.157 A 
ENDROOT
BRANCH   1   7
ATOM      7  C   UNL     1      12.764 -15.762  19.578  1.00  0.00     0.010 C 
ATOM      8  C   UNL     1      13.465 -15.295  18.536  1.00  0.00     0.025 C 
BRANCH   8   9
ATOM      9  C   UNL     1      12.935 -15.325  17.165  1.00  0.00     0.064 C 
ATOM     10  O   UNL     1      12.121 -16.226  16.834  1.00  0.00    -0.545 OA
ATOM     11  O   UNL     1      13.320 -14.376  16.224  1.00  0.00    -0.545 OA
ENDBRANCH   8   9
ENDBRANCH   1   7
BRANCH   4  12
ATOM     12  O   UNL     1      13.856 -18.040  23.852  1.00  0.00    -0.504 OA
ATOM     13  H   UNL     1      13.189 -18.208  24.596  1.00  0.00     0.293 HD
ENDBRANCH   4  12
BRANCH   6  14
ATOM     14  O   UNL     1      14.742 -15.628  24.917  1.00  0.00    -0.504 OA
ATOM     15  H   UNL     1      14.899 -16.473  25.452  1.00  0.00     0.293 HD
ENDBRANCH   6  14
TORSDOF 4
ENDMDL
MODEL 4
REMARK VINA RESULT:    -4.469      0.852      1.925
REMARK INTER + INTRA:          -5.388
REMARK INTER:                  -5.264
REMARK INTRA:                  -0.124
REMARK UNBOUND:                -0.136
REMARK SMILES O=C([O-])C=Cc1ccc(O)c(O)c1
REMARK SMILES IDX 6 1 13 2 7 3 11 4 8 5 9 6 5 7 4 8 2 9 1 10 3 11 12 12 10 14
REMARK H PARENT 12 13 10 15
REMARK Flexibility Score: inf
ROOT
ATOM      1  C   UNL     1      17.395  -7.338   8.847  1.00  0.00    -0.022 A 
ATOM      2  C   UNL     1      16.930  -8.017   7.702  1.00  0.00     0.058 A 
ATOM      3  C   UNL     1      17.848  -8.090   9.943  1.00  0.00     0.012 A 
ATOM      4  C   UNL     1      16.897  -9.419   7.670  1.00  0.00     0.157 A 
ATOM      5  C   UNL     1      17.814  -9.487   9.911  1.00  0.00     0.051 A 
ATOM      6  C   UNL     1      17.336 -10.154   8.777  1.00  0.00     0.157 A 
ENDROOT
BRANCH   1   7
ATOM      7  C   UNL     1      17.460  -5.858   8.927  1.00  0.00     0.010 C 
ATOM      8  C   UNL     1      16.450  -5.048   8.578  1.00  0.00     0.025 C 
BRANCH   8   9
ATOM      9  C   UNL     1      16.555  -3.585   8.685  1.00  0.00     0.064 C 
ATOM     10  O   UNL     1      16.860  -3.063   9.789  1.00  0.00    -0.545 OA
ATOM     11  O   UNL     1      16.319  -2.766   7.585  1.00  0.00    -0.545 OA
ENDBRANCH   8   9
ENDBRANCH   1   7
BRANCH   4  12
ATOM     12  O   UNL     1      16.434 -10.087   6.538  1.00  0.00    -0.504 OA
ATOM     13  H   UNL     1      16.848  -9.937   5.626  1.00  0.00     0.293 HD
ENDBRANCH   4  12
BRANCH   6  14
ATOM     14  O   UNL     1      17.299 -11.547   8.741  1.00  0.00    -0.504 OA
ATOM     15  H   UNL     1      18.114 -12.105   8.965  1.00  0.00     0.293 HD
ENDBRANCH   6  14
TORSDOF 4
ENDMDL
MODEL 5
REMARK VINA RESULT:    -4.408      2.956      5.443
REMARK INTER + INTRA:          -5.317
REMARK INTER:                  -5.177
REMARK INTRA:                  -0.140
REMARK UNBOUND:                -0.136
REMARK SMILES O=C([O-])C=Cc1ccc(O)c(O)c1
REMARK SMILES IDX 6 1 13 2 7 3 11 4 8 5 9 6 5 7 4 8 2 9 1 10 3 11 12 12 10 14
REMARK H PARENT 12 13 10 15
REMARK Flexibility Score: inf
ROOT
ATOM      1  C   UNL     1      15.833  -7.958   8.859  1.00  0.00    -0.022 A 
ATOM      2  C   UNL     1      16.092  -6.619   8.501  1.00  0.00     0.058 A 
ATOM      3  C   UNL     1      16.817  -8.676   9.557  1.00  0.00     0.012 A 
ATOM      4  C   UNL     1      17.323  -6.024   8.815  1.00  0.00     0.157 A 
ATOM      5  C   UNL     1      18.044  -8.083   9.868  1.00  0.00     0.051 A 
ATOM      6  C   UNL     1      18.301  -6.758   9.496  1.00  0.00     0.157 A 
ENDROOT
BRANCH   1   7
ATOM      7  C   UNL     1      14.543  -8.629   8.560  1.00  0.00     0.010 C 
ATOM      8  C   UNL     1      14.446  -9.874   8.075  1.00  0.00     0.025 C 
BRANCH   8   9
ATOM      9  C   UNL     1      13.145 -10.504   7.805  1.00  0.00     0.064 C 
ATOM     10  O   UNL     1      12.783 -10.695   6.614  1.00  0.00    -0.545 OA
ATOM     11  O   UNL     1      12.305 -10.891   8.843  1.00  0.00    -0.545 OA
ENDBRANCH   8   9
ENDBRANCH   1   7
BRANCH   4  12
ATOM     12  O   UNL     1      17.579  -4.702   8.456  1.00  0.00    -0.504 OA
ATOM     13  H   UNL     1      18.327  -4.170   8.887  1.00  0.00     0.293 HD
ENDBRANCH   4  12
BRANCH   6  14
ATOM     14  O   UNL     1      19.524  -6.164   9.803  1.00  0.00    -0.504 OA
ATOM     15  H   UNL     1      20.344  -6.311   9.228  1.00  0.00     0.293 HD
ENDBRANCH   6  14
TORSDOF 4
ENDMDL
MODEL 6
REMARK VINA RESULT:    -4.329      2.268      3.254
REMARK INTER + INTRA:          -5.224
REMARK INTER:                  -5.088
REMARK INTRA:                  -0.136
REMARK UNBOUND:                -0.136
REMARK SMILES O=C([O-])C=Cc1ccc(O)c(O)c1
REMARK SMILES IDX 6 1 13 2 7 3 11 4 8 5 9 6 5 7 4 8 2 9 1 10 3 11 12 12 10 14
REMARK H PARENT 12 13 10 15
REMARK Flexibility Score: inf
ROOT
ATOM      1  C   UNL     1      16.665  -9.329   8.606  1.00  0.00    -0.022 A 
ATOM      2  C   UNL     1      17.259 -10.562   8.268  1.00  0.00     0.058 A 
ATOM      3  C   UNL     1      15.293  -9.150   8.367  1.00  0.00     0.012 A 
ATOM      4  C   UNL     1      16.496 -11.582   7.681  1.00  0.00     0.157 A 
ATOM      5  C   UNL     1      14.534 -10.166   7.781  1.00  0.00     0.051 A 
ATOM      6  C   UNL     1      15.133 -11.382   7.434  1.00  0.00     0.157 A 
ENDROOT
BRANCH   1   7
ATOM      7  C   UNL     1      17.426  -8.223   9.239  1.00  0.00     0.010 C 
ATOM      8  C   UNL     1      17.551  -7.002   8.701  1.00  0.00     0.025 C 
BRANCH   8   9
ATOM      9  C   UNL     1      18.306  -5.931   9.370  1.00  0.00     0.064 C 
ATOM     10  O   UNL     1      19.491  -6.142   9.737  1.00  0.00    -0.545 OA
ATOM     11  O   UNL     1      17.730  -4.688   9.609  1.00  0.00    -0.545 OA
ENDBRANCH   8   9
ENDBRANCH   1   7
BRANCH   4  12
ATOM     12  O   UNL     1      17.086 -12.799   7.345  1.00  0.00    -0.504 OA
ATOM     13  H   UNL     1      16.666 -13.684   7.607  1.00  0.00     0.293 HD
ENDBRANCH   4  12
BRANCH   6  14
ATOM     14  O   UNL     1      14.380 -12.398   6.847  1.00  0.00    -0.504 OA
ATOM     15  H   UNL     1      13.709 -12.205   6.114  1.00  0.00     0.293 HD
ENDBRANCH   6  14
TORSDOF 4
ENDMDL
MODEL 7
REMARK VINA RESULT:    -4.291     13.434     15.910
REMARK INTER + INTRA:          -5.180
REMARK INTER:                  -5.054
REMARK INTRA:                  -0.126
REMARK UNBOUND:                -0.136
REMARK SMILES O=C([O-])C=Cc1ccc(O)c(O)c1
REMARK SMILES IDX 6 1 13 2 7 3 11 4 8 5 9 6 5 7 4 8 2 9 1 10 3 11 12 12 10 14
REMARK H PARENT 12 13 10 15
REMARK Flexibility Score: inf
ROOT
ATOM      1  C   UNL     1      13.160 -15.013  21.038  1.00  0.00    -0.022 A 
ATOM      2  C   UNL     1      13.672 -16.018  20.193  1.00  0.00     0.058 A 
ATOM      3  C   UNL     1      12.249 -14.084  20.511  1.00  0.00     0.012 A 
ATOM      4  C   UNL     1      13.297 -16.073  18.843  1.00  0.00     0.157 A 
ATOM      5  C   UNL     1      11.875 -14.139  19.165  1.00  0.00     0.051 A 
ATOM      6  C   UNL     1      12.400 -15.130  18.328  1.00  0.00     0.157 A 
ENDROOT
BRANCH   1   7
ATOM      7  C   UNL     1      13.517 -14.919  22.475  1.00  0.00     0.010 C 
ATOM      8  C   UNL     1      13.980 -15.949  23.197  1.00  0.00     0.025 C 
BRANCH   8   9
ATOM      9  C   UNL     1      14.333 -15.807  24.618  1.00  0.00     0.064 C 
ATOM     10  O   UNL     1      13.430 -15.875  25.492  1.00  0.00    -0.545 OA
ATOM     11  O   UNL     1      15.650 -15.597  25.013  1.00  0.00    -0.545 OA
ENDBRANCH   8   9
ENDBRANCH   1   7
BRANCH   4  12
ATOM     12  O   UNL     1      13.807 -17.066  18.009  1.00  0.00    -0.504 OA
ATOM     13  H   UNL     1      13.340 -17.958  17.898  1.00  0.00     0.293 HD
ENDBRANCH   4  12
BRANCH   6  14
ATOM     14  O   UNL     1      12.032 -15.186  16.985  1.00  0.00    -0.504 OA
ATOM     15  H   UNL     1      12.720 -15.132  16.243  1.00  0.00     0.293 HD
ENDBRANCH   6  14
TORSDOF 4
ENDMDL
MODEL 8
REMARK VINA RESULT:    -4.253      2.302      6.177
REMARK INTER + INTRA:          -5.135
REMARK INTER:                  -4.991
REMARK INTRA:                  -0.144
REMARK UNBOUND:                -0.136
REMARK SMILES O=C([O-])C=Cc1ccc(O)c(O)c1
REMARK SMILES IDX 6 1 13 2 7 3 11 4 8 5 9 6 5 7 4 8 2 9 1 10 3 11 12 12 10 14
REMARK H PARENT 12 13 10 15
REMARK Flexibility Score: inf
ROOT
ATOM      1  C   UNL     1      16.650  -9.206   8.378  1.00  0.00    -0.022 A 
ATOM      2  C   UNL     1      16.519  -7.928   7.797  1.00  0.00     0.058 A 
ATOM      3  C   UNL     1      17.445  -9.349   9.527  1.00  0.00     0.012 A 
ATOM      4  C   UNL     1      17.193  -6.825   8.343  1.00  0.00     0.157 A 
ATOM      5  C   UNL     1      18.116  -8.251  10.070  1.00  0.00     0.051 A 
ATOM      6  C   UNL     1      17.995  -6.988   9.479  1.00  0.00     0.157 A 
ENDROOT
BRANCH   1   7
ATOM      7  C   UNL     1      15.950 -10.401   7.846  1.00  0.00     0.010 C 
ATOM      8  C   UNL     1      16.518 -11.610   7.736  1.00  0.00     0.025 C 
BRANCH   8   9
ATOM      9  C   UNL     1      15.781 -12.770   7.213  1.00  0.00     0.064 C 
ATOM     10  O   UNL     1      14.524 -12.784   7.268  1.00  0.00    -0.545 OA
ATOM     11  O   UNL     1      16.451 -13.856   6.659  1.00  0.00    -0.545 OA
ENDBRANCH   8   9
ENDBRANCH   1   7
BRANCH   4  12
ATOM     12  O   UNL     1      17.065  -5.564   7.765  1.00  0.00    -0.504 OA
ATOM     13  H   UNL     1      16.189  -5.250   7.364  1.00  0.00     0.293 HD
ENDBRANCH   4  12
BRANCH   6  14
ATOM     14  O   UNL     1      18.665  -5.890  10.016  1.00  0.00    -0.504 OA
ATOM     15  H   UNL     1      18.319  -4.946   9.894  1.00  0.00     0.293 HD
ENDBRANCH   6  14
TORSDOF 4
ENDMDL
MODEL 9
REMARK VINA RESULT:    -4.173      1.027      5.872
REMARK INTER + INTRA:          -5.041
REMARK INTER:                  -4.908
REMARK INTRA:                  -0.133
REMARK UNBOUND:                -0.136
REMARK SMILES O=C([O-])C=Cc1ccc(O)c(O)c1
REMARK SMILES IDX 6 1 13 2 7 3 11 4 8 5 9 6 5 7 4 8 2 9 1 10 3 11 12 12 10 14
REMARK H PARENT 12 13 10 15
REMARK Flexibility Score: inf
ROOT
ATOM      1  C   UNL     1      17.236  -5.810   8.813  1.00  0.00    -0.022 A 
ATOM      2  C   UNL     1      17.229  -4.688   9.666  1.00  0.00     0.058 A 
ATOM      3  C   UNL     1      16.774  -5.663   7.495  1.00  0.00     0.012 A 
ATOM      4  C   UNL     1      16.745  -3.451   9.212  1.00  0.00     0.157 A 
ATOM      5  C   UNL     1      16.292  -4.431   7.044  1.00  0.00     0.051 A 
ATOM      6  C   UNL     1      16.273  -3.325   7.901  1.00  0.00     0.157 A 
ENDROOT
BRANCH   1   7
ATOM      7  C   UNL     1      17.747  -7.135   9.242  1.00  0.00     0.010 C 
ATOM      8  C   UNL     1      16.980  -8.229   9.355  1.00  0.00     0.025 C 
BRANCH   8   9
ATOM      9  C   UNL     1      17.533  -9.526   9.773  1.00  0.00     0.064 C 
ATOM     10  O   UNL     1      18.241  -9.595  10.811  1.00  0.00    -0.545 OA
ATOM     11  O   UNL     1      17.288 -10.681   9.037  1.00  0.00    -0.545 OA
ENDBRANCH   8   9
ENDBRANCH   1   7
BRANCH   4  12
ATOM     12  O   UNL     1      16.736  -2.344  10.058  1.00  0.00    -0.504 OA
ATOM     13  H   UNL     1      15.878  -1.997  10.470  1.00  0.00     0.293 HD
ENDBRANCH   4  12
BRANCH   6  14
ATOM     14  O   UNL     1      15.791  -2.095   7.454  1.00  0.00    -0.504 OA
ATOM     15  H   UNL     1      16.220  -1.223   7.738  1.00  0.00     0.293 HD
ENDBRANCH   6  14
TORSDOF 4
ENDMDL
