MODEL 1
REMARK VINA RESULT:    -4.184      0.000      0.000
REMARK INTER + INTRA:          -8.062
REMARK INTER:                  -6.630
REMARK INTRA:                  -1.432
REMARK UNBOUND:                -1.432
REMARK SMILES CCCCCCCCCCCC(=O)[O-]
REMARK SMILES IDX 7 1 8 2 9 3 10 4 11 5 12 6 13 7 14 8 6 9 5 10 4 11 3 12 2 13
REMARK SMILES IDX 1 14
REMARK H PARENT
REMARK Flexibility Score: inf
ROOT
ATOM      1  C   UNL     1     -48.071 -47.141  17.647  1.00  0.00     0.000 C 
ENDROOT
BRANCH   1   2
ATOM      2  C   UNL     1     -47.480 -48.207  18.592  1.00  0.00     0.000 C 
BRANCH   2   3
ATOM      3  C   UNL     1     -48.472 -48.798  19.609  1.00  0.00     0.000 C 
BRANCH   3   4
ATOM      4  C   UNL     1     -49.941 -48.595  19.199  1.00  0.00     0.006 C 
BRANCH   4   5
ATOM      5  C   UNL     1     -50.906 -49.385  20.091  1.00  0.00     0.053 C 
BRANCH   5   6
ATOM      6  C   UNL     1     -51.441 -50.599  19.394  1.00  0.00     0.041 C 
ATOM      7  O   UNL     1     -51.526 -50.624  18.138  1.00  0.00    -0.550 OA
ATOM      8  O   UNL     1     -51.869 -51.692  20.135  1.00  0.00    -0.550 OA
ENDBRANCH   5   6
ENDBRANCH   4   5
ENDBRANCH   3   4
ENDBRANCH   2   3
ENDBRANCH   1   2
BRANCH   1   9
ATOM      9  C   UNL     1     -47.768 -47.351  16.151  1.00  0.00     0.000 C 
BRANCH   9  10
ATOM     10  C   UNL     1     -47.366 -48.787  15.767  1.00  0.00    -0.000 C 
BRANCH  10  11
ATOM     11  C   UNL     1     -48.509 -49.564  15.091  1.00  0.00    -0.000 C 
BRANCH  11  12
ATOM     12  C   UNL     1     -48.909 -50.822  15.891  1.00  0.00    -0.000 C 
BRANCH  12  13
ATOM     13  C   UNL     1     -47.744 -51.447  16.677  1.00  0.00    -0.003 C 
ATOM     14  C   UNL     1     -48.167 -51.997  18.038  1.00  0.00     0.004 C 
ENDBRANCH  12  13
ENDBRANCH  11  12
ENDBRANCH  10  11
ENDBRANCH   9  10
ENDBRANCH   1   9
TORSDOF 10
ENDMDL
MODEL 2
REMARK VINA RESULT:    -4.112      2.469      4.894
REMARK INTER + INTRA:          -7.948
REMARK INTER:                  -6.855
REMARK INTRA:                  -1.093
REMARK UNBOUND:                -1.432
REMARK SMILES CCCCCCCCCCCC(=O)[O-]
REMARK SMILES IDX 7 1 8 2 9 3 10 4 11 5 12 6 13 7 14 8 6 9 5 10 4 11 3 12 2 13
REMARK SMILES IDX 1 14
REMARK H PARENT
REMARK Flexibility Score: inf
ROOT
ATOM      1  C   UNL     1     -48.341 -48.043  18.419  1.00  0.00     0.000 C 
ENDROOT
BRANCH   1   2
ATOM      2  C   UNL     1     -47.360 -49.229  18.327  1.00  0.00     0.000 C 
BRANCH   2   3
ATOM      3  C   UNL     1     -47.375 -49.985  16.987  1.00  0.00     0.000 C 
BRANCH   3   4
ATOM      4  C   UNL     1     -48.310 -51.206  17.001  1.00  0.00     0.006 C 
BRANCH   4   5
ATOM      5  C   UNL     1     -49.632 -50.932  16.271  1.00  0.00     0.053 C 
BRANCH   5   6
ATOM      6  C   UNL     1     -49.443 -50.864  14.786  1.00  0.00     0.041 C 
ATOM      7  O   UNL     1     -49.544 -49.764  14.184  1.00  0.00    -0.550 OA
ATOM      8  O   UNL     1     -49.182 -52.023  14.066  1.00  0.00    -0.550 OA
ENDBRANCH   5   6
ENDBRANCH   4   5
ENDBRANCH   3   4
ENDBRANCH   2   3
ENDBRANCH   1   2
BRANCH   1   9
ATOM      9  C   UNL     1     -49.618 -48.311  19.240  1.00  0.00     0.000 C 
BRANCH   9  10
ATOM     10  C   UNL     1     -49.508 -49.467  20.250  1.00  0.00    -0.000 C 
BRANCH  10  11
ATOM     11  C   UNL     1     -50.782 -50.328  20.309  1.00  0.00    -0.000 C 
BRANCH  11  12
ATOM     12  C   UNL     1     -52.036 -49.543  19.868  1.00  0.00    -0.000 C 
BRANCH  12  13
ATOM     13  C   UNL     1     -53.041 -49.299  21.007  1.00  0.00    -0.003 C 
ATOM     14  C   UNL     1     -52.640 -48.145  21.923  1.00  0.00     0.004 C 
ENDBRANCH  12  13
ENDBRANCH  11  12
ENDBRANCH  10  11
ENDBRANCH   9  10
ENDBRANCH   1   9
TORSDOF 10
ENDMDL
MODEL 3
REMARK VINA RESULT:    -4.086     12.987     14.559
REMARK INTER + INTRA:          -7.907
REMARK INTER:                  -7.078
REMARK INTRA:                  -0.829
REMARK UNBOUND:                -1.432
REMARK SMILES CCCCCCCCCCCC(=O)[O-]
REMARK SMILES IDX 7 1 8 2 9 3 10 4 11 5 12 6 13 7 14 8 6 9 5 10 4 11 3 12 2 13
REMARK SMILES IDX 1 14
REMARK H PARENT
REMARK Flexibility Score: inf
ROOT
ATOM      1  C   UNL     1     -42.669 -49.266  27.995  1.00  0.00     0.000 C 
ENDROOT
BRANCH   1   2
ATOM      2  C   UNL     1     -42.919 -49.421  29.509  1.00  0.00     0.000 C 
BRANCH   2   3
ATOM      3  C   UNL     1     -41.769 -50.074  30.296  1.00  0.00     0.000 C 
BRANCH   3   4
ATOM      4  C   UNL     1     -42.246 -50.783  31.575  1.00  0.00     0.006 C 
BRANCH   4   5
ATOM      5  C   UNL     1     -43.753 -51.072  31.549  1.00  0.00     0.053 C 
BRANCH   5   6
ATOM      6  C   UNL     1     -44.246 -51.569  32.873  1.00  0.00     0.041 C 
ATOM      7  O   UNL     1     -43.432 -51.813  33.803  1.00  0.00    -0.550 OA
ATOM      8  O   UNL     1     -45.603 -51.787  33.071  1.00  0.00    -0.550 OA
ENDBRANCH   5   6
ENDBRANCH   4   5
ENDBRANCH   3   4
ENDBRANCH   2   3
ENDBRANCH   1   2
BRANCH   1   9
ATOM      9  C   UNL     1     -41.219 -48.918  27.603  1.00  0.00     0.000 C 
BRANCH   9  10
ATOM     10  C   UNL     1     -41.022 -47.496  27.047  1.00  0.00    -0.000 C 
BRANCH  10  11
ATOM     11  C   UNL     1     -40.406 -46.533  28.077  1.00  0.00    -0.000 C 
BRANCH  11  12
ATOM     12  C   UNL     1     -39.526 -47.271  29.109  1.00  0.00    -0.000 C 
BRANCH  12  13
ATOM     13  C   UNL     1     -38.020 -47.181  28.809  1.00  0.00    -0.003 C 
ATOM     14  C   UNL     1     -37.335 -48.545  28.769  1.00  0.00     0.004 C 
ENDBRANCH  12  13
ENDBRANCH  11  12
ENDBRANCH  10  11
ENDBRANCH   9  10
ENDBRANCH   1   9
TORSDOF 10
ENDMDL
MODEL 4
REMARK VINA RESULT:    -4.072      2.777      5.938
REMARK INTER + INTRA:          -7.884
REMARK INTER:                  -7.297
REMARK INTRA:                  -0.587
REMARK UNBOUND:                -1.432
REMARK SMILES CCCCCCCCCCCC(=O)[O-]
REMARK SMILES IDX 7 1 8 2 9 3 10 4 11 5 12 6 13 7 14 8 6 9 5 10 4 11 3 12 2 13
REMARK SMILES IDX 1 14
REMARK H PARENT
REMARK Flexibility Score: inf
ROOT
ATOM      1  C   UNL     1     -50.160 -49.330  19.199  1.00  0.00     0.000 C 
ENDROOT
BRANCH   1   2
ATOM      2  C   UNL     1     -48.898 -50.209  19.072  1.00  0.00     0.000 C 
BRANCH   2   3
ATOM      3  C   UNL     1     -47.799 -49.643  18.155  1.00  0.00     0.000 C 
BRANCH   3   4
ATOM      4  C   UNL     1     -47.556 -50.511  16.909  1.00  0.00     0.006 C 
BRANCH   4   5
ATOM      5  C   UNL     1     -48.337 -50.007  15.689  1.00  0.00     0.053 C 
BRANCH   5   6
ATOM      6  C   UNL     1     -49.374 -50.993  15.247  1.00  0.00     0.041 C 
ATOM      7  O   UNL     1     -50.473 -51.075  15.857  1.00  0.00    -0.550 OA
ATOM      8  O   UNL     1     -49.116 -51.840  14.177  1.00  0.00    -0.550 OA
ENDBRANCH   5   6
ENDBRANCH   4   5
ENDBRANCH   3   4
ENDBRANCH   2   3
ENDBRANCH   1   2
BRANCH   1   9
ATOM      9  C   UNL     1     -51.495 -50.066  18.975  1.00  0.00     0.000 C 
BRANCH   9  10
ATOM     10  C   UNL     1     -52.724 -49.384  19.604  1.00  0.00    -0.000 C 
BRANCH  10  11
ATOM     11  C   UNL     1     -52.643 -49.309  21.138  1.00  0.00    -0.000 C 
BRANCH  11  12
ATOM     12  C   UNL     1     -53.993 -48.911  21.773  1.00  0.00    -0.000 C 
BRANCH  12  13
ATOM     13  C   UNL     1     -54.946 -48.201  20.797  1.00  0.00    -0.003 C 
ATOM     14  C   UNL     1     -56.419 -48.455  21.106  1.00  0.00     0.004 C 
ENDBRANCH  12  13
ENDBRANCH  11  12
ENDBRANCH  10  11
ENDBRANCH   9  10
ENDBRANCH   1   9
TORSDOF 10
ENDMDL
MODEL 5
REMARK VINA RESULT:    -4.049      2.735      5.937
REMARK INTER + INTRA:          -7.848
REMARK INTER:                  -7.388
REMARK INTRA:                  -0.460
REMARK UNBOUND:                -1.432
REMARK SMILES CCCCCCCCCCCC(=O)[O-]
REMARK SMILES IDX 7 1 8 2 9 3 10 4 11 5 12 6 13 7 14 8 6 9 5 10 4 11 3 12 2 13
REMARK SMILES IDX 1 14
REMARK H PARENT
REMARK Flexibility Score: inf
ROOT
ATOM      1  C   UNL     1     -50.267 -50.235  18.643  1.00  0.00     0.000 C 
ENDROOT
BRANCH   1   2
ATOM      2  C   UNL     1     -48.848 -50.839  18.618  1.00  0.00     0.000 C 
BRANCH   2   3
ATOM      3  C   UNL     1     -47.733 -49.865  18.198  1.00  0.00     0.000 C 
BRANCH   3   4
ATOM      4  C   UNL     1     -47.805 -49.480  16.711  1.00  0.00     0.006 C 
BRANCH   4   5
ATOM      5  C   UNL     1     -48.080 -50.692  15.811  1.00  0.00     0.053 C 
BRANCH   5   6
ATOM      6  C   UNL     1     -49.338 -50.519  15.016  1.00  0.00     0.041 C 
ATOM      7  O   UNL     1     -49.416 -49.619  14.139  1.00  0.00    -0.550 OA
ATOM      8  O   UNL     1     -50.433 -51.337  15.262  1.00  0.00    -0.550 OA
ENDBRANCH   5   6
ENDBRANCH   4   5
ENDBRANCH   3   4
ENDBRANCH   2   3
ENDBRANCH   1   2
BRANCH   1   9
ATOM      9  C   UNL     1     -50.525 -49.214  19.768  1.00  0.00     0.000 C 
BRANCH   9  10
ATOM     10  C   UNL     1     -51.551 -49.659  20.826  1.00  0.00    -0.000 C 
BRANCH  10  11
ATOM     11  C   UNL     1     -52.969 -49.138  20.536  1.00  0.00    -0.000 C 
BRANCH  11  12
ATOM     12  C   UNL     1     -53.727 -48.765  21.828  1.00  0.00    -0.000 C 
BRANCH  12  13
ATOM     13  C   UNL     1     -53.941 -47.252  22.000  1.00  0.00    -0.003 C 
ATOM     14  C   UNL     1     -55.308 -46.781  21.510  1.00  0.00     0.004 C 
ENDBRANCH  12  13
ENDBRANCH  11  12
ENDBRANCH  10  11
ENDBRANCH   9  10
ENDBRANCH   1   9
TORSDOF 10
ENDMDL
MODEL 6
REMARK VINA RESULT:    -4.038      1.450      2.479
REMARK INTER + INTRA:          -7.831
REMARK INTER:                  -6.766
REMARK INTRA:                  -1.064
REMARK UNBOUND:                -1.432
REMARK SMILES CCCCCCCCCCCC(=O)[O-]
REMARK SMILES IDX 7 1 8 2 9 3 10 4 11 5 12 6 13 7 14 8 6 9 5 10 4 11 3 12 2 13
REMARK SMILES IDX 1 14
REMARK H PARENT
REMARK Flexibility Score: inf
ROOT
ATOM      1  C   UNL     1     -49.335 -48.280  18.988  1.00  0.00     0.000 C 
ENDROOT
BRANCH   1   2
ATOM      2  C   UNL     1     -49.651 -48.261  20.498  1.00  0.00     0.000 C 
BRANCH   2   3
ATOM      3  C   UNL     1     -50.090 -49.613  21.088  1.00  0.00     0.000 C 
BRANCH   3   4
ATOM      4  C   UNL     1     -51.576 -49.921  20.835  1.00  0.00     0.006 C 
BRANCH   4   5
ATOM      5  C   UNL     1     -51.770 -50.997  19.759  1.00  0.00     0.053 C 
BRANCH   5   6
ATOM      6  C   UNL     1     -52.160 -50.401  18.441  1.00  0.00     0.041 C 
ATOM      7  O   UNL     1     -53.093 -49.558  18.377  1.00  0.00    -0.550 OA
ATOM      8  O   UNL     1     -51.510 -50.798  17.280  1.00  0.00    -0.550 OA
ENDBRANCH   5   6
ENDBRANCH   4   5
ENDBRANCH   3   4
ENDBRANCH   2   3
ENDBRANCH   1   2
BRANCH   1   9
ATOM      9  C   UNL     1     -47.849 -48.092  18.628  1.00  0.00     0.000 C 
BRANCH   9  10
ATOM     10  C   UNL     1     -47.121 -49.377  18.190  1.00  0.00    -0.000 C 
BRANCH  10  11
ATOM     11  C   UNL     1     -48.064 -50.588  18.084  1.00  0.00    -0.000 C 
BRANCH  11  12
ATOM     12  C   UNL     1     -47.959 -51.288  16.712  1.00  0.00    -0.000 C 
BRANCH  12  13
ATOM     13  C   UNL     1     -47.861 -50.309  15.529  1.00  0.00    -0.003 C 
ATOM     14  C   UNL     1     -49.124 -50.278  14.671  1.00  0.00     0.004 C 
ENDBRANCH  12  13
ENDBRANCH  11  12
ENDBRANCH  10  11
ENDBRANCH   9  10
ENDBRANCH   1   9
TORSDOF 10
ENDMDL
MODEL 7
REMARK VINA RESULT:    -4.030      1.243      2.813
REMARK INTER + INTRA:          -7.818
REMARK INTER:                  -6.818
REMARK INTRA:                  -0.999
REMARK UNBOUND:                -1.432
REMARK SMILES CCCCCCCCCCCC(=O)[O-]
REMARK SMILES IDX 7 1 8 2 9 3 10 4 11 5 12 6 13 7 14 8 6 9 5 10 4 11 3 12 2 13
REMARK SMILES IDX 1 14
REMARK H PARENT
REMARK Flexibility Score: inf
ROOT
ATOM      1  C   UNL     1     -48.969 -49.573  19.523  1.00  0.00     0.000 C 
ENDROOT
BRANCH   1   2
ATOM      2  C   UNL     1     -49.506 -48.127  19.564  1.00  0.00     0.000 C 
BRANCH   2   3
ATOM      3  C   UNL     1     -50.265 -47.751  20.849  1.00  0.00     0.000 C 
BRANCH   3   4
ATOM      4  C   UNL     1     -51.123 -48.905  21.395  1.00  0.00     0.006 C 
BRANCH   4   5
ATOM      5  C   UNL     1     -52.481 -49.002  20.690  1.00  0.00     0.053 C 
BRANCH   5   6
ATOM      6  C   UNL     1     -52.480 -50.055  19.623  1.00  0.00     0.041 C 
ATOM      7  O   UNL     1     -52.113 -51.229  19.891  1.00  0.00    -0.550 OA
ATOM      8  O   UNL     1     -52.860 -49.730  18.328  1.00  0.00    -0.550 OA
ENDBRANCH   5   6
ENDBRANCH   4   5
ENDBRANCH   3   4
ENDBRANCH   2   3
ENDBRANCH   1   2
BRANCH   1   9
ATOM      9  C   UNL     1     -49.062 -50.267  18.150  1.00  0.00     0.000 C 
BRANCH   9  10
ATOM     10  C   UNL     1     -47.716 -50.731  17.565  1.00  0.00    -0.000 C 
BRANCH  10  11
ATOM     11  C   UNL     1     -47.674 -50.644  16.029  1.00  0.00    -0.000 C 
BRANCH  11  12
ATOM     12  C   UNL     1     -48.153 -49.272  15.510  1.00  0.00    -0.000 C 
BRANCH  12  13
ATOM     13  C   UNL     1     -47.160 -48.130  15.784  1.00  0.00    -0.003 C 
ATOM     14  C   UNL     1     -47.786 -46.962  16.543  1.00  0.00     0.004 C 
ENDBRANCH  12  13
ENDBRANCH  11  12
ENDBRANCH  10  11
ENDBRANCH   9  10
ENDBRANCH   1   9
TORSDOF 10
ENDMDL
MODEL 8
REMARK VINA RESULT:    -4.019      1.915      2.721
REMARK INTER + INTRA:          -7.801
REMARK INTER:                  -6.753
REMARK INTRA:                  -1.047
REMARK UNBOUND:                -1.432
REMARK SMILES CCCCCCCCCCCC(=O)[O-]
REMARK SMILES IDX 7 1 8 2 9 3 10 4 11 5 12 6 13 7 14 8 6 9 5 10 4 11 3 12 2 13
REMARK SMILES IDX 1 14
REMARK H PARENT
REMARK Flexibility Score: inf
ROOT
ATOM      1  C   UNL     1     -48.494 -49.097  19.200  1.00  0.00     0.000 C 
ENDROOT
BRANCH   1   2
ATOM      2  C   UNL     1     -49.380 -50.352  19.342  1.00  0.00     0.000 C 
BRANCH   2   3
ATOM      3  C   UNL     1     -50.809 -50.206  18.791  1.00  0.00     0.000 C 
BRANCH   3   4
ATOM      4  C   UNL     1     -51.886 -50.638  19.800  1.00  0.00     0.006 C 
BRANCH   4   5
ATOM      5  C   UNL     1     -51.885 -49.762  21.059  1.00  0.00     0.053 C 
BRANCH   5   6
ATOM      6  C   UNL     1     -53.171 -49.008  21.213  1.00  0.00     0.041 C 
ATOM      7  O   UNL     1     -53.884 -48.758  20.206  1.00  0.00    -0.550 OA
ATOM      8  O   UNL     1     -53.567 -48.560  22.466  1.00  0.00    -0.550 OA
ENDBRANCH   5   6
ENDBRANCH   4   5
ENDBRANCH   3   4
ENDBRANCH   2   3
ENDBRANCH   1   2
BRANCH   1   9
ATOM      9  C   UNL     1     -47.319 -49.234  18.212  1.00  0.00     0.000 C 
BRANCH   9  10
ATOM     10  C   UNL     1     -47.424 -48.354  16.954  1.00  0.00    -0.000 C 
BRANCH  10  11
ATOM     11  C   UNL     1     -47.846 -49.148  15.705  1.00  0.00    -0.000 C 
BRANCH  11  12
ATOM     12  C   UNL     1     -47.696 -50.671  15.907  1.00  0.00    -0.000 C 
BRANCH  12  13
ATOM     13  C   UNL     1     -49.021 -51.441  15.775  1.00  0.00    -0.003 C 
ATOM     14  C   UNL     1     -50.016 -50.764  14.835  1.00  0.00     0.004 C 
ENDBRANCH  12  13
ENDBRANCH  11  12
ENDBRANCH  10  11
ENDBRANCH   9  10
ENDBRANCH   1   9
TORSDOF 10
ENDMDL
MODEL 9
REMARK VINA RESULT:    -3.981      2.765      3.773
REMARK INTER + INTRA:          -7.741
REMARK INTER:                  -7.044
REMARK INTRA:                  -0.697
REMARK UNBOUND:                -1.432
REMARK SMILES CCCCCCCCCCCC(=O)[O-]
REMARK SMILES IDX 7 1 8 2 9 3 10 4 11 5 12 6 13 7 14 8 6 9 5 10 4 11 3 12 2 13
REMARK SMILES IDX 1 14
REMARK H PARENT
REMARK Flexibility Score: inf
ROOT
ATOM      1  C   UNL     1     -50.064 -49.464  19.361  1.00  0.00     0.000 C 
ENDROOT
BRANCH   1   2
ATOM      2  C   UNL     1     -51.530 -49.421  19.838  1.00  0.00     0.000 C 
BRANCH   2   3
ATOM      3  C   UNL     1     -51.793 -48.510  21.051  1.00  0.00     0.000 C 
BRANCH   3   4
ATOM      4  C   UNL     1     -53.129 -48.816  21.749  1.00  0.00     0.006 C 
BRANCH   4   5
ATOM      5  C   UNL     1     -54.162 -47.701  21.539  1.00  0.00     0.053 C 
BRANCH   5   6
ATOM      6  C   UNL     1     -55.242 -48.116  20.588  1.00  0.00     0.041 C 
ATOM      7  O   UNL     1     -54.952 -48.485  19.420  1.00  0.00    -0.550 OA
ATOM      8  O   UNL     1     -56.572 -48.069  20.984  1.00  0.00    -0.550 OA
ENDBRANCH   5   6
ENDBRANCH   4   5
ENDBRANCH   3   4
ENDBRANCH   2   3
ENDBRANCH   1   2
BRANCH   1   9
ATOM      9  C   UNL     1     -49.379 -48.091  19.225  1.00  0.00     0.000 C 
BRANCH   9  10
ATOM     10  C   UNL     1     -47.843 -48.140  19.127  1.00  0.00    -0.000 C 
BRANCH  10  11
ATOM     11  C   UNL     1     -47.337 -49.343  18.312  1.00  0.00    -0.000 C 
BRANCH  11  12
ATOM     12  C   UNL     1     -47.374 -49.074  16.793  1.00  0.00    -0.000 C 
BRANCH  12  13
ATOM     13  C   UNL     1     -47.822 -50.289  15.964  1.00  0.00    -0.003 C 
ATOM     14  C   UNL     1     -48.129 -51.517  16.819  1.00  0.00     0.004 C 
ENDBRANCH  12  13
ENDBRANCH  11  12
ENDBRANCH  10  11
ENDBRANCH   9  10
ENDBRANCH   1   9
TORSDOF 10
ENDMDL
