MODEL 1
REMARK VINA RESULT:    -6.224      0.000      0.000
REMARK INTER + INTRA:          -6.406
REMARK INTER:                  -6.406
REMARK INTRA:                   0.000
REMARK UNBOUND:                 0.000
REMARK SMILES O=c1ccc2ccc(O)cc2o1
REMARK SMILES IDX 6 1 7 2 8 3 10 4 11 5 5 6 4 7 3 8 2 9 1 10 12 11 9 12
REMARK H PARENT 9 13
REMARK Flexibility Score: inf
ROOT
ATOM      1  C   UNL     1     -30.021  -3.162 -18.452  1.00  0.00     0.016 A 
ATOM      2  C   UNL     1     -29.874  -2.634 -19.739  1.00  0.00     0.047 A 
ATOM      3  C   UNL     1     -30.999  -2.373 -20.530  1.00  0.00     0.119 A 
ATOM      4  C   UNL     1     -32.282  -2.641 -20.031  1.00  0.00     0.094 A 
ATOM      5  C   UNL     1     -32.440  -3.168 -18.744  1.00  0.00     0.142 A 
ATOM      6  C   UNL     1     -31.302  -3.430 -17.950  1.00  0.00     0.018 A 
ATOM      7  C   UNL     1     -31.491  -3.957 -16.668  1.00  0.00     0.019 A 
ATOM      8  C   UNL     1     -32.787  -4.206 -16.216  1.00  0.00     0.094 A 
ATOM      9  C   UNL     1     -33.867  -3.922 -17.058  1.00  0.00     0.336 A 
ATOM     10  O   UNL     1     -35.043  -4.139 -16.667  1.00  0.00    -0.246 OA
ATOM     11  O   UNL     1     -33.658  -3.420 -18.274  1.00  0.00    -0.423 OA
ENDROOT
BRANCH   3  12
ATOM     12  O   UNL     1     -30.832  -1.848 -21.809  1.00  0.00    -0.508 OA
ATOM     13  H   UNL     1     -31.377  -2.183 -22.594  1.00  0.00     0.293 HD
ENDBRANCH   3  12
TORSDOF 1
ENDMDL
MODEL 2
REMARK VINA RESULT:    -6.218      7.731     10.003
REMARK INTER + INTRA:          -6.400
REMARK INTER:                  -6.400
REMARK INTRA:                   0.000
REMARK UNBOUND:                 0.000
REMARK SMILES O=c1ccc2ccc(O)cc2o1
REMARK SMILES IDX 6 1 7 2 8 3 10 4 11 5 5 6 4 7 3 8 2 9 1 10 12 11 9 12
REMARK H PARENT 9 13
REMARK Flexibility Score: inf
ROOT
ATOM      1  C   UNL     1     -38.940  -8.983 -13.556  1.00  0.00     0.016 A 
ATOM      2  C   UNL     1     -40.333  -8.859 -13.553  1.00  0.00     0.047 A 
ATOM      3  C   UNL     1     -40.932  -7.606 -13.377  1.00  0.00     0.119 A 
ATOM      4  C   UNL     1     -40.132  -6.468 -13.201  1.00  0.00     0.094 A 
ATOM      5  C   UNL     1     -38.738  -6.581 -13.202  1.00  0.00     0.142 A 
ATOM      6  C   UNL     1     -38.138  -7.847 -13.381  1.00  0.00     0.018 A 
ATOM      7  C   UNL     1     -36.742  -7.929 -13.378  1.00  0.00     0.019 A 
ATOM      8  C   UNL     1     -35.989  -6.769 -13.200  1.00  0.00     0.094 A 
ATOM      9  C   UNL     1     -36.652  -5.549 -13.028  1.00  0.00     0.336 A 
ATOM     10  O   UNL     1     -35.990  -4.491 -12.867  1.00  0.00    -0.246 OA
ATOM     11  O   UNL     1     -37.982  -5.499 -13.036  1.00  0.00    -0.423 OA
ENDROOT
BRANCH   3  12
ATOM     12  O   UNL     1     -42.321  -7.504 -13.376  1.00  0.00    -0.508 OA
ATOM     13  H   UNL     1     -42.905  -8.220 -13.792  1.00  0.00     0.293 HD
ENDBRANCH   3  12
TORSDOF 1
ENDMDL
MODEL 3
REMARK VINA RESULT:    -6.140      1.417      1.634
REMARK INTER + INTRA:          -6.320
REMARK INTER:                  -6.320
REMARK INTRA:                   0.000
REMARK UNBOUND:                 0.000
REMARK SMILES O=c1ccc2ccc(O)cc2o1
REMARK SMILES IDX 6 1 7 2 8 3 10 4 11 5 5 6 4 7 3 8 2 9 1 10 12 11 9 12
REMARK H PARENT 9 13
REMARK Flexibility Score: inf
ROOT
ATOM      1  C   UNL     1     -31.433  -2.835 -17.958  1.00  0.00     0.016 A 
ATOM      2  C   UNL     1     -31.550  -2.210 -19.203  1.00  0.00     0.047 A 
ATOM      3  C   UNL     1     -32.634  -2.501 -20.041  1.00  0.00     0.119 A 
ATOM      4  C   UNL     1     -33.607  -3.423 -19.631  1.00  0.00     0.094 A 
ATOM      5  C   UNL     1     -33.498  -4.053 -18.387  1.00  0.00     0.142 A 
ATOM      6  C   UNL     1     -32.404  -3.757 -17.545  1.00  0.00     0.018 A 
ATOM      7  C   UNL     1     -32.322  -4.402 -16.307  1.00  0.00     0.019 A 
ATOM      8  C   UNL     1     -33.315  -5.311 -15.942  1.00  0.00     0.094 A 
ATOM      9  C   UNL     1     -34.370  -5.555 -16.828  1.00  0.00     0.336 A 
ATOM     10  O   UNL     1     -35.276  -6.372 -16.516  1.00  0.00    -0.246 OA
ATOM     11  O   UNL     1     -34.424  -4.927 -18.000  1.00  0.00    -0.423 OA
ENDROOT
BRANCH   3  12
ATOM     12  O   UNL     1     -32.733  -1.869 -21.279  1.00  0.00    -0.508 OA
ATOM     13  H   UNL     1     -31.995  -1.269 -21.627  1.00  0.00     0.293 HD
ENDBRANCH   3  12
TORSDOF 1
ENDMDL
MODEL 4
REMARK VINA RESULT:    -5.838      7.302      9.411
REMARK INTER + INTRA:          -6.008
REMARK INTER:                  -6.008
REMARK INTRA:                   0.000
REMARK UNBOUND:                 0.000
REMARK SMILES O=c1ccc2ccc(O)cc2o1
REMARK SMILES IDX 6 1 7 2 8 3 10 4 11 5 5 6 4 7 3 8 2 9 1 10 12 11 9 12
REMARK H PARENT 9 13
REMARK Flexibility Score: inf
ROOT
ATOM      1  C   UNL     1     -37.063  -8.560 -13.400  1.00  0.00     0.016 A 
ATOM      2  C   UNL     1     -38.246  -9.305 -13.391  1.00  0.00     0.047 A 
ATOM      3  C   UNL     1     -39.489  -8.660 -13.351  1.00  0.00     0.119 A 
ATOM      4  C   UNL     1     -39.548  -7.259 -13.321  1.00  0.00     0.094 A 
ATOM      5  C   UNL     1     -38.370  -6.506 -13.330  1.00  0.00     0.142 A 
ATOM      6  C   UNL     1     -37.119  -7.160 -13.370  1.00  0.00     0.018 A 
ATOM      7  C   UNL     1     -35.958  -6.380 -13.379  1.00  0.00     0.019 A 
ATOM      8  C   UNL     1     -36.068  -4.990 -13.348  1.00  0.00     0.094 A 
ATOM      9  C   UNL     1     -37.341  -4.410 -13.310  1.00  0.00     0.336 A 
ATOM     10  O   UNL     1     -37.461  -3.158 -13.282  1.00  0.00    -0.246 OA
ATOM     11  O   UNL     1     -38.430  -5.177 -13.302  1.00  0.00    -0.423 OA
ENDROOT
BRANCH   3  12
ATOM     12  O   UNL     1     -40.656  -9.420 -13.341  1.00  0.00    -0.508 OA
ATOM     13  H   UNL     1     -40.738 -10.258 -12.778  1.00  0.00     0.293 HD
ENDBRANCH   3  12
TORSDOF 1
ENDMDL
MODEL 5
REMARK VINA RESULT:    -5.715      7.395      8.946
REMARK INTER + INTRA:          -5.882
REMARK INTER:                  -5.882
REMARK INTRA:                   0.000
REMARK UNBOUND:                 0.000
REMARK SMILES O=c1ccc2ccc(O)cc2o1
REMARK SMILES IDX 6 1 7 2 8 3 10 4 11 5 5 6 4 7 3 8 2 9 1 10 12 11 9 12
REMARK H PARENT 9 13
REMARK Flexibility Score: inf
ROOT
ATOM      1  C   UNL     1     -36.016  -6.579 -13.341  1.00  0.00     0.016 A 
ATOM      2  C   UNL     1     -35.962  -5.190 -13.188  1.00  0.00     0.047 A 
ATOM      3  C   UNL     1     -37.142  -4.446 -13.057  1.00  0.00     0.119 A 
ATOM      4  C   UNL     1     -38.384  -5.096 -13.080  1.00  0.00     0.094 A 
ATOM      5  C   UNL     1     -38.448  -6.485 -13.233  1.00  0.00     0.142 A 
ATOM      6  C   UNL     1     -37.257  -7.231 -13.364  1.00  0.00     0.018 A 
ATOM      7  C   UNL     1     -37.352  -8.618 -13.515  1.00  0.00     0.019 A 
ATOM      8  C   UNL     1     -38.610  -9.219 -13.532  1.00  0.00     0.094 A 
ATOM      9  C   UNL     1     -39.748  -8.417 -13.396  1.00  0.00     0.336 A 
ATOM     10  O   UNL     1     -40.892  -8.940 -13.408  1.00  0.00    -0.246 OA
ATOM     11  O   UNL     1     -39.629  -7.098 -13.254  1.00  0.00    -0.423 OA
ENDROOT
BRANCH   3  12
ATOM     12  O   UNL     1     -37.067  -3.063 -12.906  1.00  0.00    -0.508 OA
ATOM     13  H   UNL     1     -36.514  -2.491 -13.533  1.00  0.00     0.293 HD
ENDBRANCH   3  12
TORSDOF 1
ENDMDL
MODEL 6
REMARK VINA RESULT:    -5.699      8.349      9.683
REMARK INTER + INTRA:          -5.865
REMARK INTER:                  -5.865
REMARK INTRA:                   0.000
REMARK UNBOUND:                 0.000
REMARK SMILES O=c1ccc2ccc(O)cc2o1
REMARK SMILES IDX 6 1 7 2 8 3 10 4 11 5 5 6 4 7 3 8 2 9 1 10 12 11 9 12
REMARK H PARENT 9 13
REMARK Flexibility Score: inf
ROOT
ATOM      1  C   UNL     1     -39.690  -8.479 -13.480  1.00  0.00     0.016 A 
ATOM      2  C   UNL     1     -38.669  -9.167 -14.142  1.00  0.00     0.047 A 
ATOM      3  C   UNL     1     -37.438  -8.545 -14.386  1.00  0.00     0.119 A 
ATOM      4  C   UNL     1     -37.227  -7.224 -13.966  1.00  0.00     0.094 A 
ATOM      5  C   UNL     1     -38.243  -6.527 -13.302  1.00  0.00     0.142 A 
ATOM      6  C   UNL     1     -39.482  -7.158 -13.058  1.00  0.00     0.018 A 
ATOM      7  C   UNL     1     -40.478  -6.437 -12.392  1.00  0.00     0.019 A 
ATOM      8  C   UNL     1     -40.221  -5.125 -11.993  1.00  0.00     0.094 A 
ATOM      9  C   UNL     1     -38.969  -4.564 -12.269  1.00  0.00     0.336 A 
ATOM     10  O   UNL     1     -38.718  -3.383 -11.916  1.00  0.00    -0.246 OA
ATOM     11  O   UNL     1     -38.039  -5.274 -12.904  1.00  0.00    -0.423 OA
ENDROOT
BRANCH   3  12
ATOM     12  O   UNL     1     -36.434  -9.248 -15.049  1.00  0.00    -0.508 OA
ATOM     13  H   UNL     1     -36.646 -10.035 -15.650  1.00  0.00     0.293 HD
ENDBRANCH   3  12
TORSDOF 1
ENDMDL
MODEL 7
REMARK VINA RESULT:    -5.610      6.663      9.663
REMARK INTER + INTRA:          -5.773
REMARK INTER:                  -5.773
REMARK INTRA:                   0.000
REMARK UNBOUND:                 0.000
REMARK SMILES O=c1ccc2ccc(O)cc2o1
REMARK SMILES IDX 6 1 7 2 8 3 10 4 11 5 5 6 4 7 3 8 2 9 1 10 12 11 9 12
REMARK H PARENT 9 13
REMARK Flexibility Score: inf
ROOT
ATOM      1  C   UNL     1     -39.998  -6.449 -13.004  1.00  0.00     0.016 A 
ATOM      2  C   UNL     1     -40.467  -7.766 -12.994  1.00  0.00     0.047 A 
ATOM      3  C   UNL     1     -39.628  -8.820 -13.375  1.00  0.00     0.119 A 
ATOM      4  C   UNL     1     -38.309  -8.555 -13.771  1.00  0.00     0.094 A 
ATOM      5  C   UNL     1     -37.830  -7.240 -13.784  1.00  0.00     0.142 A 
ATOM      6  C   UNL     1     -38.679  -6.181 -13.398  1.00  0.00     0.018 A 
ATOM      7  C   UNL     1     -38.173  -4.877 -13.421  1.00  0.00     0.019 A 
ATOM      8  C   UNL     1     -36.854  -4.664 -13.822  1.00  0.00     0.094 A 
ATOM      9  C   UNL     1     -36.070  -5.762 -14.190  1.00  0.00     0.336 A 
ATOM     10  O   UNL     1     -34.878  -5.590 -14.554  1.00  0.00    -0.246 OA
ATOM     11  O   UNL     1     -36.578  -6.993 -14.159  1.00  0.00    -0.423 OA
ENDROOT
BRANCH   3  12
ATOM     12  O   UNL     1     -40.115 -10.125 -13.359  1.00  0.00    -0.508 OA
ATOM     13  H   UNL     1     -39.561 -10.901 -13.702  1.00  0.00     0.293 HD
ENDBRANCH   3  12
TORSDOF 1
ENDMDL
MODEL 8
REMARK VINA RESULT:    -5.520      7.188      9.095
REMARK INTER + INTRA:          -5.681
REMARK INTER:                  -5.681
REMARK INTRA:                   0.000
REMARK UNBOUND:                 0.000
REMARK SMILES O=c1ccc2ccc(O)cc2o1
REMARK SMILES IDX 6 1 7 2 8 3 10 4 11 5 5 6 4 7 3 8 2 9 1 10 12 11 9 12
REMARK H PARENT 9 13
REMARK Flexibility Score: inf
ROOT
ATOM      1  C   UNL     1     -38.499  -4.404 -12.611  1.00  0.00     0.016 A 
ATOM      2  C   UNL     1     -37.173  -3.990 -12.770  1.00  0.00     0.047 A 
ATOM      3  C   UNL     1     -36.191  -4.901 -13.178  1.00  0.00     0.119 A 
ATOM      4  C   UNL     1     -36.538  -6.236 -13.430  1.00  0.00     0.094 A 
ATOM      5  C   UNL     1     -37.862  -6.660 -13.274  1.00  0.00     0.142 A 
ATOM      6  C   UNL     1     -38.849  -5.738 -12.862  1.00  0.00     0.018 A 
ATOM      7  C   UNL     1     -40.164  -6.190 -12.716  1.00  0.00     0.019 A 
ATOM      8  C   UNL     1     -40.461  -7.527 -12.978  1.00  0.00     0.094 A 
ATOM      9  C   UNL     1     -39.431  -8.384 -13.382  1.00  0.00     0.336 A 
ATOM     10  O   UNL     1     -39.679  -9.594 -13.624  1.00  0.00    -0.246 OA
ATOM     11  O   UNL     1     -38.188  -7.927 -13.514  1.00  0.00    -0.423 OA
ENDROOT
BRANCH   3  12
ATOM     12  O   UNL     1     -34.875  -4.470 -13.329  1.00  0.00    -0.508 OA
ATOM     13  H   UNL     1     -34.327  -4.154 -12.538  1.00  0.00     0.293 HD
ENDBRANCH   3  12
TORSDOF 1
ENDMDL
MODEL 9
REMARK VINA RESULT:    -5.435      8.599      9.879
REMARK INTER + INTRA:          -5.593
REMARK INTER:                  -5.593
REMARK INTRA:                   0.000
REMARK UNBOUND:                 0.000
REMARK SMILES O=c1ccc2ccc(O)cc2o1
REMARK SMILES IDX 6 1 7 2 8 3 10 4 11 5 5 6 4 7 3 8 2 9 1 10 12 11 9 12
REMARK H PARENT 9 13
REMARK Flexibility Score: inf
ROOT
ATOM      1  C   UNL     1     -40.425  -6.301 -12.237  1.00  0.00     0.016 A 
ATOM      2  C   UNL     1     -40.156  -4.984 -11.849  1.00  0.00     0.047 A 
ATOM      3  C   UNL     1     -38.939  -4.381 -12.191  1.00  0.00     0.119 A 
ATOM      4  C   UNL     1     -37.984  -5.099 -12.925  1.00  0.00     0.094 A 
ATOM      5  C   UNL     1     -38.245  -6.416 -13.317  1.00  0.00     0.142 A 
ATOM      6  C   UNL     1     -39.472  -7.021 -12.971  1.00  0.00     0.018 A 
ATOM      7  C   UNL     1     -39.704  -8.339 -13.377  1.00  0.00     0.019 A 
ATOM      8  C   UNL     1     -38.724  -9.012 -14.106  1.00  0.00     0.094 A 
ATOM      9  C   UNL     1     -37.531  -8.349 -14.413  1.00  0.00     0.336 A 
ATOM     10  O   UNL     1     -36.635  -8.940 -15.070  1.00  0.00    -0.246 OA
ATOM     11  O   UNL     1     -37.336  -7.094 -14.014  1.00  0.00    -0.423 OA
ENDROOT
BRANCH   3  12
ATOM     12  O   UNL     1     -38.690  -3.068 -11.795  1.00  0.00    -0.508 OA
ATOM     13  H   UNL     1     -38.521  -2.831 -10.824  1.00  0.00     0.293 HD
ENDBRANCH   3  12
TORSDOF 1
ENDMDL
