MODEL 1
REMARK VINA RESULT:    -4.413      0.000      0.000
REMARK INTER + INTRA:          -5.222
REMARK INTER:                  -5.058
REMARK INTRA:                  -0.164
REMARK UNBOUND:                -0.164
REMARK SMILES CC=Cc1ccc(O)c(OC)c1
REMARK SMILES IDX 4 1 12 2 9 3 7 4 6 5 5 6 3 7 1 8 2 9 10 10 11 11 8 12
REMARK H PARENT 8 13
REMARK Flexibility Score: inf
ROOT
ATOM      1  C   UNL     1       9.267 -29.518  15.723  1.00  0.00    -0.022 A 
ATOM      2  C   UNL     1       8.353 -30.556  15.966  1.00  0.00     0.058 A 
ATOM      3  C   UNL     1       7.863 -30.798  17.266  1.00  0.00     0.161 A 
ATOM      4  C   UNL     1       8.289 -29.983  18.323  1.00  0.00     0.157 A 
ATOM      5  C   UNL     1       9.188 -28.937  18.084  1.00  0.00     0.051 A 
ATOM      6  C   UNL     1       9.672 -28.701  16.796  1.00  0.00     0.012 A 
ENDROOT
BRANCH   1   7
ATOM      7  C   UNL     1       9.744 -29.302  14.333  1.00  0.00     0.003 C 
ATOM      8  C   UNL     1       9.603 -29.405  11.875  1.00  0.00     0.035 C 
ATOM      9  C   UNL     1       9.060 -29.670  13.243  1.00  0.00    -0.030 C 
ENDBRANCH   1   7
BRANCH   3  10
ATOM     10  O   UNL     1       6.956 -31.833  17.543  1.00  0.00    -0.493 OA
ATOM     11  C   UNL     1       7.135 -33.190  17.152  1.00  0.00     0.278 C 
ENDBRANCH   3  10
BRANCH   4  12
ATOM     12  O   UNL     1       7.809 -30.217  19.610  1.00  0.00    -0.504 OA
ATOM     13  H   UNL     1       7.515 -29.458  20.213  1.00  0.00     0.293 HD
ENDBRANCH   4  12
TORSDOF 3
ENDMDL
MODEL 2
REMARK VINA RESULT:    -4.330      2.156      4.457
REMARK INTER + INTRA:          -5.127
REMARK INTER:                  -4.954
REMARK INTRA:                  -0.173
REMARK UNBOUND:                -0.164
REMARK SMILES CC=Cc1ccc(O)c(OC)c1
REMARK SMILES IDX 4 1 12 2 9 3 7 4 6 5 5 6 3 7 1 8 2 9 10 10 11 11 8 12
REMARK H PARENT 8 13
REMARK Flexibility Score: inf
ROOT
ATOM      1  C   UNL     1       7.509 -31.318  16.578  1.00  0.00    -0.022 A 
ATOM      2  C   UNL     1       8.099 -30.863  15.387  1.00  0.00     0.058 A 
ATOM      3  C   UNL     1       8.939 -29.730  15.384  1.00  0.00     0.161 A 
ATOM      4  C   UNL     1       9.193 -29.060  16.587  1.00  0.00     0.157 A 
ATOM      5  C   UNL     1       8.621 -29.518  17.780  1.00  0.00     0.051 A 
ATOM      6  C   UNL     1       7.790 -30.639  17.780  1.00  0.00     0.012 A 
ENDROOT
BRANCH   1   7
ATOM      7  C   UNL     1       6.640 -32.521  16.526  1.00  0.00     0.003 C 
ATOM      8  C   UNL     1       5.959 -34.819  17.096  1.00  0.00     0.035 C 
ATOM      9  C   UNL     1       6.893 -33.654  17.191  1.00  0.00    -0.030 C 
ENDBRANCH   1   7
BRANCH   3  10
ATOM     10  O   UNL     1       9.536 -29.245  14.209  1.00  0.00    -0.493 OA
ATOM     11  C   UNL     1      10.712 -29.786  13.619  1.00  0.00     0.278 C 
ENDBRANCH   3  10
BRANCH   4  12
ATOM     12  O   UNL     1      10.022 -27.940  16.590  1.00  0.00    -0.504 OA
ATOM     13  H   UNL     1      11.010 -28.011  16.806  1.00  0.00     0.293 HD
ENDBRANCH   4  12
TORSDOF 3
ENDMDL
MODEL 3
REMARK VINA RESULT:    -4.312      1.938      3.163
REMARK INTER + INTRA:          -5.107
REMARK INTER:                  -4.954
REMARK INTRA:                  -0.153
REMARK UNBOUND:                -0.164
REMARK SMILES CC=Cc1ccc(O)c(OC)c1
REMARK SMILES IDX 4 1 12 2 9 3 7 4 6 5 5 6 3 7 1 8 2 9 10 10 11 11 8 12
REMARK H PARENT 8 13
REMARK Flexibility Score: inf
ROOT
ATOM      1  C   UNL     1       7.362 -30.222  15.826  1.00  0.00    -0.022 A 
ATOM      2  C   UNL     1       8.563 -29.497  15.907  1.00  0.00     0.058 A 
ATOM      3  C   UNL     1       9.108 -29.139  17.156  1.00  0.00     0.161 A 
ATOM      4  C   UNL     1       8.446 -29.522  18.330  1.00  0.00     0.157 A 
ATOM      5  C   UNL     1       7.257 -30.257  18.257  1.00  0.00     0.051 A 
ATOM      6  C   UNL     1       6.719 -30.610  17.017  1.00  0.00     0.012 A 
ENDROOT
BRANCH   1   7
ATOM      7  C   UNL     1       6.837 -30.580  14.484  1.00  0.00     0.003 C 
ATOM      8  C   UNL     1       6.646 -30.405  12.034  1.00  0.00     0.035 C 
ATOM      9  C   UNL     1       7.212 -29.976  13.350  1.00  0.00    -0.030 C 
ENDBRANCH   1   7
BRANCH   3  10
ATOM     10  O   UNL     1      10.301 -28.408  17.270  1.00  0.00    -0.493 OA
ATOM     11  C   UNL     1      11.128 -28.036  16.173  1.00  0.00     0.278 C 
ENDBRANCH   3  10
BRANCH   4  12
ATOM     12  O   UNL     1       8.979 -29.171  19.569  1.00  0.00    -0.504 OA
ATOM     13  H   UNL     1       9.106 -29.855  20.305  1.00  0.00     0.293 HD
ENDBRANCH   4  12
TORSDOF 3
ENDMDL
MODEL 4
REMARK VINA RESULT:    -4.086      1.774      4.392
REMARK INTER + INTRA:          -4.847
REMARK INTER:                  -4.730
REMARK INTRA:                  -0.117
REMARK UNBOUND:                -0.164
REMARK SMILES CC=Cc1ccc(O)c(OC)c1
REMARK SMILES IDX 4 1 12 2 9 3 7 4 6 5 5 6 3 7 1 8 2 9 10 10 11 11 8 12
REMARK H PARENT 8 13
REMARK Flexibility Score: inf
ROOT
ATOM      1  C   UNL     1       7.582 -31.668  16.046  1.00  0.00    -0.022 A 
ATOM      2  C   UNL     1       7.625 -30.917  17.232  1.00  0.00     0.058 A 
ATOM      3  C   UNL     1       8.361 -29.716  17.300  1.00  0.00     0.161 A 
ATOM      4  C   UNL     1       9.047 -29.266  16.165  1.00  0.00     0.157 A 
ATOM      5  C   UNL     1       8.996 -30.002  14.976  1.00  0.00     0.051 A 
ATOM      6  C   UNL     1       8.267 -31.191  14.912  1.00  0.00     0.012 A 
ENDROOT
BRANCH   1   7
ATOM      7  C   UNL     1       6.785 -32.920  16.027  1.00  0.00     0.003 C 
ATOM      8  C   UNL     1       5.886 -35.018  16.957  1.00  0.00     0.035 C 
ATOM      9  C   UNL     1       6.725 -33.783  17.049  1.00  0.00    -0.030 C 
ENDBRANCH   1   7
BRANCH   3  10
ATOM     10  O   UNL     1       8.431 -28.947  18.473  1.00  0.00    -0.493 OA
ATOM     11  C   UNL     1       9.475 -29.037  19.436  1.00  0.00     0.278 C 
ENDBRANCH   3  10
BRANCH   4  12
ATOM     12  O   UNL     1       9.777 -28.080  16.226  1.00  0.00    -0.504 OA
ATOM     13  H   UNL     1       9.969 -27.619  17.108  1.00  0.00     0.293 HD
ENDBRANCH   4  12
TORSDOF 3
ENDMDL
MODEL 5
REMARK VINA RESULT:    -3.969      1.780      2.789
REMARK INTER + INTRA:          -4.713
REMARK INTER:                  -4.543
REMARK INTRA:                  -0.171
REMARK UNBOUND:                -0.164
REMARK SMILES CC=Cc1ccc(O)c(OC)c1
REMARK SMILES IDX 4 1 12 2 9 3 7 4 6 5 5 6 3 7 1 8 2 9 10 10 11 11 8 12
REMARK H PARENT 8 13
REMARK Flexibility Score: inf
ROOT
ATOM      1  C   UNL     1       8.039 -30.158  15.528  1.00  0.00    -0.022 A 
ATOM      2  C   UNL     1       8.688 -29.502  16.587  1.00  0.00     0.058 A 
ATOM      3  C   UNL     1       7.988 -29.157  17.761  1.00  0.00     0.161 A 
ATOM      4  C   UNL     1       6.630 -29.483  17.872  1.00  0.00     0.157 A 
ATOM      5  C   UNL     1       5.981 -30.150  16.827  1.00  0.00     0.051 A 
ATOM      6  C   UNL     1       6.677 -30.490  15.665  1.00  0.00     0.012 A 
ENDROOT
BRANCH   1   7
ATOM      7  C   UNL     1       8.826 -30.505  14.318  1.00  0.00     0.003 C 
ATOM      8  C   UNL     1      10.725 -30.337  12.756  1.00  0.00     0.035 C 
ATOM      9  C   UNL     1       9.983 -29.920  13.986  1.00  0.00    -0.030 C 
ENDBRANCH   1   7
BRANCH   3  10
ATOM     10  O   UNL     1       8.606 -28.493  18.833  1.00  0.00    -0.493 OA
ATOM     11  C   UNL     1       9.650 -29.043  19.629  1.00  0.00     0.278 C 
ENDBRANCH   3  10
BRANCH   4  12
ATOM     12  O   UNL     1       5.932 -29.144  19.030  1.00  0.00    -0.504 OA
ATOM     13  H   UNL     1       4.923 -29.220  19.082  1.00  0.00     0.293 HD
ENDBRANCH   4  12
TORSDOF 3
ENDMDL
MODEL 6
REMARK VINA RESULT:    -3.913      2.726      4.982
REMARK INTER + INTRA:          -4.649
REMARK INTER:                  -4.494
REMARK INTRA:                  -0.154
REMARK UNBOUND:                -0.164
REMARK SMILES CC=Cc1ccc(O)c(OC)c1
REMARK SMILES IDX 4 1 12 2 9 3 7 4 6 5 5 6 3 7 1 8 2 9 10 10 11 11 8 12
REMARK H PARENT 8 13
REMARK Flexibility Score: inf
ROOT
ATOM      1  C   UNL     1       7.604 -29.928  16.663  1.00  0.00    -0.022 A 
ATOM      2  C   UNL     1       8.476 -29.619  15.606  1.00  0.00     0.058 A 
ATOM      3  C   UNL     1       8.094 -29.837  14.267  1.00  0.00     0.161 A 
ATOM      4  C   UNL     1       6.823 -30.358  13.991  1.00  0.00     0.157 A 
ATOM      5  C   UNL     1       5.944 -30.654  15.039  1.00  0.00     0.051 A 
ATOM      6  C   UNL     1       6.326 -30.438  16.365  1.00  0.00     0.012 A 
ENDROOT
BRANCH   1   7
ATOM      7  C   UNL     1       8.055 -29.670  18.054  1.00  0.00     0.003 C 
ATOM      8  C   UNL     1       9.577 -28.818  19.794  1.00  0.00     0.035 C 
ATOM      9  C   UNL     1       9.200 -29.052  18.365  1.00  0.00    -0.030 C 
ENDBRANCH   1   7
BRANCH   3  10
ATOM     10  O   UNL     1       8.945 -29.546  13.189  1.00  0.00    -0.493 OA
ATOM     11  C   UNL     1      10.349 -29.339  13.302  1.00  0.00     0.278 C 
ENDBRANCH   3  10
BRANCH   4  12
ATOM     12  O   UNL     1       6.439 -30.576  12.669  1.00  0.00    -0.504 OA
ATOM     13  H   UNL     1       7.053 -30.352  11.894  1.00  0.00     0.293 HD
ENDBRANCH   4  12
TORSDOF 3
ENDMDL
MODEL 7
REMARK VINA RESULT:    -3.909      2.435      3.515
REMARK INTER + INTRA:          -4.645
REMARK INTER:                  -4.472
REMARK INTRA:                  -0.173
REMARK UNBOUND:                -0.164
REMARK SMILES CC=Cc1ccc(O)c(OC)c1
REMARK SMILES IDX 4 1 12 2 9 3 7 4 6 5 5 6 3 7 1 8 2 9 10 10 11 11 8 12
REMARK H PARENT 8 13
REMARK Flexibility Score: inf
ROOT
ATOM      1  C   UNL     1       7.422 -31.535  15.855  1.00  0.00    -0.022 A 
ATOM      2  C   UNL     1       8.500 -30.904  16.498  1.00  0.00     0.058 A 
ATOM      3  C   UNL     1       8.280 -29.860  17.420  1.00  0.00     0.161 A 
ATOM      4  C   UNL     1       6.969 -29.458  17.704  1.00  0.00     0.157 A 
ATOM      5  C   UNL     1       5.889 -30.094  17.078  1.00  0.00     0.051 A 
ATOM      6  C   UNL     1       6.110 -31.126  16.164  1.00  0.00     0.012 A 
ENDROOT
BRANCH   1   7
ATOM      7  C   UNL     1       7.710 -32.634  14.899  1.00  0.00     0.003 C 
ATOM      8  C   UNL     1       9.144 -34.062  13.494  1.00  0.00     0.035 C 
ATOM      9  C   UNL     1       8.934 -32.928  14.447  1.00  0.00    -0.030 C 
ENDBRANCH   1   7
BRANCH   3  10
ATOM     10  O   UNL     1       9.336 -29.204  18.073  1.00  0.00    -0.493 OA
ATOM     11  C   UNL     1      10.114 -28.159  17.500  1.00  0.00     0.278 C 
ENDBRANCH   3  10
BRANCH   4  12
ATOM     12  O   UNL     1       6.745 -28.427  18.614  1.00  0.00    -0.504 OA
ATOM     13  H   UNL     1       5.939 -28.427  19.229  1.00  0.00     0.293 HD
ENDBRANCH   4  12
TORSDOF 3
ENDMDL
MODEL 8
REMARK VINA RESULT:    -3.740      2.651      4.544
REMARK INTER + INTRA:          -4.450
REMARK INTER:                  -4.298
REMARK INTRA:                  -0.152
REMARK UNBOUND:                -0.164
REMARK SMILES CC=Cc1ccc(O)c(OC)c1
REMARK SMILES IDX 4 1 12 2 9 3 7 4 6 5 5 6 3 7 1 8 2 9 10 10 11 11 8 12
REMARK H PARENT 8 13
REMARK Flexibility Score: inf
ROOT
ATOM      1  C   UNL     1       8.662 -30.935  14.405  1.00  0.00    -0.022 A 
ATOM      2  C   UNL     1       8.867 -30.132  15.540  1.00  0.00     0.058 A 
ATOM      3  C   UNL     1       9.878 -29.150  15.557  1.00  0.00     0.161 A 
ATOM      4  C   UNL     1      10.680 -28.970  14.423  1.00  0.00     0.157 A 
ATOM      5  C   UNL     1      10.471 -29.756  13.283  1.00  0.00     0.051 A 
ATOM      6  C   UNL     1       9.469 -30.728  13.270  1.00  0.00     0.012 A 
ENDROOT
BRANCH   1   7
ATOM      7  C   UNL     1       7.577 -31.948  14.439  1.00  0.00     0.003 C 
ATOM      8  C   UNL     1       5.977 -33.483  15.514  1.00  0.00     0.035 C 
ATOM      9  C   UNL     1       7.082 -32.475  15.565  1.00  0.00    -0.030 C 
ENDBRANCH   1   7
BRANCH   3  10
ATOM     10  O   UNL     1      10.113 -28.338  16.678  1.00  0.00    -0.493 OA
ATOM     11  C   UNL     1       9.607 -28.597  17.983  1.00  0.00     0.278 C 
ENDBRANCH   3  10
BRANCH   4  12
ATOM     12  O   UNL     1      11.681 -28.001  14.433  1.00  0.00    -0.504 OA
ATOM     13  H   UNL     1      11.732 -27.298  15.161  1.00  0.00     0.293 HD
ENDBRANCH   4  12
TORSDOF 3
ENDMDL
MODEL 9
REMARK VINA RESULT:    -3.711      3.168      5.038
REMARK INTER + INTRA:          -4.417
REMARK INTER:                  -4.258
REMARK INTRA:                  -0.159
REMARK UNBOUND:                -0.164
REMARK SMILES CC=Cc1ccc(O)c(OC)c1
REMARK SMILES IDX 4 1 12 2 9 3 7 4 6 5 5 6 3 7 1 8 2 9 10 10 11 11 8 12
REMARK H PARENT 8 13
REMARK Flexibility Score: inf
ROOT
ATOM      1  C   UNL     1       8.565 -31.411  15.111  1.00  0.00    -0.022 A 
ATOM      2  C   UNL     1       9.418 -31.626  14.016  1.00  0.00     0.058 A 
ATOM      3  C   UNL     1      10.273 -30.603  13.555  1.00  0.00     0.161 A 
ATOM      4  C   UNL     1      10.274 -29.364  14.207  1.00  0.00     0.157 A 
ATOM      5  C   UNL     1       9.437 -29.149  15.308  1.00  0.00     0.051 A 
ATOM      6  C   UNL     1       8.591 -30.163  15.762  1.00  0.00     0.012 A 
ENDROOT
BRANCH   1   7
ATOM      7  C   UNL     1       7.692 -32.525  15.560  1.00  0.00     0.003 C 
ATOM      8  C   UNL     1       6.617 -34.004  17.212  1.00  0.00     0.035 C 
ATOM      9  C   UNL     1       7.527 -32.876  16.840  1.00  0.00    -0.030 C 
ENDBRANCH   1   7
BRANCH   3  10
ATOM     10  O   UNL     1      11.131 -30.783  12.459  1.00  0.00    -0.493 OA
ATOM     11  C   UNL     1      11.443 -32.044  11.876  1.00  0.00     0.278 C 
ENDBRANCH   3  10
BRANCH   4  12
ATOM     12  O   UNL     1      11.117 -28.349  13.756  1.00  0.00    -0.504 OA
ATOM     13  H   UNL     1      11.310 -27.529  14.321  1.00  0.00     0.293 HD
ENDBRANCH   4  12
TORSDOF 3
ENDMDL
