MODEL 1
REMARK VINA RESULT:    -4.555      0.000      0.000
REMARK INTER + INTRA:          -5.839
REMARK INTER:                  -5.621
REMARK INTRA:                  -0.219
REMARK UNBOUND:                -0.219
REMARK SMILES [NH3+][C@@H](Cc1ccc(O)cc1)C(=O)[O-]
REMARK SMILES IDX 3 1 2 2 1 3 11 7 12 8 13 9 4 10 5 11 10 12 6 13 9 14 7 15
REMARK SMILES IDX 8 16
REMARK H PARENT 1 4 1 5 1 6 8 17
REMARK Flexibility Score: inf
ROOT
ATOM      1  C   UNL     1      -3.318  -6.081   4.929  1.00  0.00     0.107 C 
ENDROOT
BRANCH   1   2
ATOM      2  C   UNL     1      -4.722  -5.946   4.306  1.00  0.00     0.232 C 
BRANCH   2   3
ATOM      3  N   UNL     1      -5.692  -6.834   4.963  1.00  0.00    -0.350 N 
ATOM      4  H   UNL     1      -5.990  -6.424   5.878  1.00  0.00     0.345 HD
ATOM      5  H   UNL     1      -6.545  -6.933   4.365  1.00  0.00     0.345 HD
ATOM      6  H   UNL     1      -5.276  -7.780   5.127  1.00  0.00     0.345 HD
ENDBRANCH   2   3
BRANCH   2   7
ATOM      7  C   UNL     1      -4.657  -6.244   2.832  1.00  0.00     0.099 C 
ATOM      8  O   UNL     1      -3.545  -6.367   2.253  1.00  0.00    -0.544 OA
ATOM      9  O   UNL     1      -5.829  -6.364   2.096  1.00  0.00    -0.544 OA
ENDBRANCH   2   7
ENDBRANCH   1   2
BRANCH   1  10
ATOM     10  C   UNL     1      -2.901  -4.828   5.656  1.00  0.00    -0.041 A 
ATOM     11  C   UNL     1      -1.713  -4.806   6.402  1.00  0.00     0.008 A 
ATOM     12  C   UNL     1      -3.678  -3.661   5.564  1.00  0.00     0.008 A 
ATOM     13  C   UNL     1      -1.312  -3.637   7.058  1.00  0.00     0.046 A 
ATOM     14  C   UNL     1      -3.276  -2.493   6.220  1.00  0.00     0.046 A 
ATOM     15  C   UNL     1      -2.094  -2.478   6.968  1.00  0.00     0.115 A 
BRANCH  15  16
ATOM     16  O   UNL     1      -1.706  -1.308   7.616  1.00  0.00    -0.508 OA
ATOM     17  H   UNL     1      -2.384  -0.696   8.058  1.00  0.00     0.293 HD
ENDBRANCH  15  16
ENDBRANCH   1  10
TORSDOF 5
ENDMDL
MODEL 2
REMARK VINA RESULT:    -4.546     12.132     13.729
REMARK INTER + INTRA:          -5.827
REMARK INTER:                  -5.670
REMARK INTRA:                  -0.158
REMARK UNBOUND:                -0.219
REMARK SMILES [NH3+][C@@H](Cc1ccc(O)cc1)C(=O)[O-]
REMARK SMILES IDX 3 1 2 2 1 3 11 7 12 8 13 9 4 10 5 11 10 12 6 13 9 14 7 15
REMARK SMILES IDX 8 16
REMARK H PARENT 1 4 1 5 1 6 8 17
REMARK Flexibility Score: inf
ROOT
ATOM      1  C   UNL     1       4.772   3.724   6.772  1.00  0.00     0.107 C 
ENDROOT
BRANCH   1   2
ATOM      2  C   UNL     1       6.021   3.207   7.515  1.00  0.00     0.232 C 
BRANCH   2   3
ATOM      3  N   UNL     1       6.698   2.144   6.758  1.00  0.00    -0.350 N 
ATOM      4  H   UNL     1       7.307   1.582   7.397  1.00  0.00     0.345 HD
ATOM      5  H   UNL     1       5.988   1.496   6.343  1.00  0.00     0.345 HD
ATOM      6  H   UNL     1       7.283   2.549   5.991  1.00  0.00     0.345 HD
ENDBRANCH   2   3
BRANCH   2   7
ATOM      7  C   UNL     1       5.631   2.708   8.881  1.00  0.00     0.099 C 
ATOM      8  O   UNL     1       4.649   1.931   9.021  1.00  0.00    -0.544 OA
ATOM      9  O   UNL     1       6.343   3.121  10.000  1.00  0.00    -0.544 OA
ENDBRANCH   2   7
ENDBRANCH   1   2
BRANCH   1  10
ATOM     10  C   UNL     1       5.048   5.011   6.037  1.00  0.00    -0.041 A 
ATOM     11  C   UNL     1       5.542   4.982   4.723  1.00  0.00     0.008 A 
ATOM     12  C   UNL     1       4.780   6.249   6.644  1.00  0.00     0.008 A 
ATOM     13  C   UNL     1       5.776   6.174   4.030  1.00  0.00     0.046 A 
ATOM     14  C   UNL     1       5.014   7.440   5.950  1.00  0.00     0.046 A 
ATOM     15  C   UNL     1       5.513   7.406   4.643  1.00  0.00     0.115 A 
BRANCH  15  16
ATOM     16  O   UNL     1       5.742   8.600   3.963  1.00  0.00    -0.508 OA
ATOM     17  H   UNL     1       6.427   8.663   3.218  1.00  0.00     0.293 HD
ENDBRANCH  15  16
ENDBRANCH   1  10
TORSDOF 5
ENDMDL
MODEL 3
REMARK VINA RESULT:    -4.511      1.196      1.916
REMARK INTER + INTRA:          -5.784
REMARK INTER:                  -5.603
REMARK INTRA:                  -0.181
REMARK UNBOUND:                -0.219
REMARK SMILES [NH3+][C@@H](Cc1ccc(O)cc1)C(=O)[O-]
REMARK SMILES IDX 3 1 2 2 1 3 11 7 12 8 13 9 4 10 5 11 10 12 6 13 9 14 7 15
REMARK SMILES IDX 8 16
REMARK H PARENT 1 4 1 5 1 6 8 17
REMARK Flexibility Score: inf
ROOT
ATOM      1  C   UNL     1      -3.586  -5.650   4.740  1.00  0.00     0.107 C 
ENDROOT
BRANCH   1   2
ATOM      2  C   UNL     1      -5.000  -6.053   5.208  1.00  0.00     0.232 C 
BRANCH   2   3
ATOM      3  N   UNL     1      -4.993  -6.532   6.598  1.00  0.00    -0.350 N 
ATOM      4  H   UNL     1      -4.487  -7.445   6.659  1.00  0.00     0.345 HD
ATOM      5  H   UNL     1      -4.488  -5.846   7.207  1.00  0.00     0.345 HD
ATOM      6  H   UNL     1      -5.969  -6.654   6.953  1.00  0.00     0.345 HD
ENDBRANCH   2   3
BRANCH   2   7
ATOM      7  C   UNL     1      -5.556  -7.112   4.295  1.00  0.00     0.099 C 
ATOM      8  O   UNL     1      -5.763  -8.280   4.721  1.00  0.00    -0.544 OA
ATOM      9  O   UNL     1      -5.825  -6.812   2.965  1.00  0.00    -0.544 OA
ENDBRANCH   2   7
ENDBRANCH   1   2
BRANCH   1  10
ATOM     10  C   UNL     1      -3.042  -4.488   5.532  1.00  0.00    -0.041 A 
ATOM     11  C   UNL     1      -3.724  -3.261   5.546  1.00  0.00     0.008 A 
ATOM     12  C   UNL     1      -1.868  -4.632   6.290  1.00  0.00     0.008 A 
ATOM     13  C   UNL     1      -3.234  -2.189   6.299  1.00  0.00     0.046 A 
ATOM     14  C   UNL     1      -1.380  -3.559   7.043  1.00  0.00     0.046 A 
ATOM     15  C   UNL     1      -2.059  -2.336   7.049  1.00  0.00     0.115 A 
BRANCH  15  16
ATOM     16  O   UNL     1      -1.561  -1.276   7.803  1.00  0.00    -0.508 OA
ATOM     17  H   UNL     1      -2.081  -0.891   8.584  1.00  0.00     0.293 HD
ENDBRANCH  15  16
ENDBRANCH   1  10
TORSDOF 5
ENDMDL
MODEL 4
REMARK VINA RESULT:    -4.507     12.169     14.362
REMARK INTER + INTRA:          -5.779
REMARK INTER:                  -5.662
REMARK INTRA:                  -0.117
REMARK UNBOUND:                -0.219
REMARK SMILES [NH3+][C@@H](Cc1ccc(O)cc1)C(=O)[O-]
REMARK SMILES IDX 3 1 2 2 1 3 11 7 12 8 13 9 4 10 5 11 10 12 6 13 9 14 7 15
REMARK SMILES IDX 8 16
REMARK H PARENT 1 4 1 5 1 6 8 17
REMARK Flexibility Score: inf
ROOT
ATOM      1  C   UNL     1       4.637   5.945   6.795  1.00  0.00     0.107 C 
ENDROOT
BRANCH   1   2
ATOM      2  C   UNL     1       5.786   6.974   6.769  1.00  0.00     0.232 C 
BRANCH   2   3
ATOM      3  N   UNL     1       6.999   6.446   7.411  1.00  0.00    -0.350 N 
ATOM      4  H   UNL     1       7.546   7.228   7.838  1.00  0.00     0.345 HD
ATOM      5  H   UNL     1       6.735   5.785   8.178  1.00  0.00     0.345 HD
ATOM      6  H   UNL     1       7.598   5.945   6.716  1.00  0.00     0.345 HD
ENDBRANCH   2   3
BRANCH   2   7
ATOM      7  C   UNL     1       5.348   8.244   7.448  1.00  0.00     0.099 C 
ATOM      8  O   UNL     1       5.967   9.323   7.247  1.00  0.00    -0.544 OA
ATOM      9  O   UNL     1       4.266   8.228   8.319  1.00  0.00    -0.544 OA
ENDBRANCH   2   7
ENDBRANCH   1   2
BRANCH   1  10
ATOM     10  C   UNL     1       5.074   4.602   6.267  1.00  0.00    -0.041 A 
ATOM     11  C   UNL     1       5.396   4.447   4.910  1.00  0.00     0.008 A 
ATOM     12  C   UNL     1       5.197   3.503   7.133  1.00  0.00     0.008 A 
ATOM     13  C   UNL     1       5.824   3.208   4.422  1.00  0.00     0.046 A 
ATOM     14  C   UNL     1       5.625   2.265   6.645  1.00  0.00     0.046 A 
ATOM     15  C   UNL     1       5.938   2.113   5.290  1.00  0.00     0.115 A 
BRANCH  15  16
ATOM     16  O   UNL     1       6.364   0.874   4.817  1.00  0.00    -0.508 OA
ATOM     17  H   UNL     1       5.925   0.433   4.016  1.00  0.00     0.293 HD
ENDBRANCH  15  16
ENDBRANCH   1  10
TORSDOF 5
ENDMDL
MODEL 5
REMARK VINA RESULT:    -4.495      4.079      5.138
REMARK INTER + INTRA:          -5.765
REMARK INTER:                  -5.561
REMARK INTRA:                  -0.204
REMARK UNBOUND:                -0.219
REMARK SMILES [NH3+][C@@H](Cc1ccc(O)cc1)C(=O)[O-]
REMARK SMILES IDX 3 1 2 2 1 3 11 7 12 8 13 9 4 10 5 11 10 12 6 13 9 14 7 15
REMARK SMILES IDX 8 16
REMARK H PARENT 1 4 1 5 1 6 8 17
REMARK Flexibility Score: inf
ROOT
ATOM      1  C   UNL     1      -3.849  -2.835   7.714  1.00  0.00     0.107 C 
ENDROOT
BRANCH   1   2
ATOM      2  C   UNL     1      -4.525  -3.876   8.630  1.00  0.00     0.232 C 
BRANCH   2   3
ATOM      3  N   UNL     1      -5.760  -4.402   8.031  1.00  0.00    -0.350 N 
ATOM      4  H   UNL     1      -6.375  -4.804   8.774  1.00  0.00     0.345 HD
ATOM      5  H   UNL     1      -6.287  -3.627   7.565  1.00  0.00     0.345 HD
ATOM      6  H   UNL     1      -5.543  -5.143   7.325  1.00  0.00     0.345 HD
ENDBRANCH   2   3
BRANCH   2   7
ATOM      7  C   UNL     1      -4.819  -3.259   9.972  1.00  0.00     0.099 C 
ATOM      8  O   UNL     1      -3.982  -3.342  10.911  1.00  0.00    -0.544 OA
ATOM      9  O   UNL     1      -6.029  -2.611  10.189  1.00  0.00    -0.544 OA
ENDBRANCH   2   7
ENDBRANCH   1   2
BRANCH   1  10
ATOM     10  C   UNL     1      -2.478  -3.280   7.274  1.00  0.00    -0.041 A 
ATOM     11  C   UNL     1      -1.505  -2.329   6.926  1.00  0.00     0.008 A 
ATOM     12  C   UNL     1      -2.148  -4.645   7.241  1.00  0.00     0.008 A 
ATOM     13  C   UNL     1      -0.224  -2.738   6.540  1.00  0.00     0.046 A 
ATOM     14  C   UNL     1      -0.867  -5.052   6.856  1.00  0.00     0.046 A 
ATOM     15  C   UNL     1       0.097  -4.102   6.503  1.00  0.00     0.115 A 
BRANCH  15  16
ATOM     16  O   UNL     1       1.369  -4.522   6.121  1.00  0.00    -0.508 OA
ATOM     17  H   UNL     1       2.198  -4.220   6.620  1.00  0.00     0.293 HD
ENDBRANCH  15  16
ENDBRANCH   1  10
TORSDOF 5
ENDMDL
MODEL 6
REMARK VINA RESULT:    -4.494      0.151      1.352
REMARK INTER + INTRA:          -5.764
REMARK INTER:                  -5.539
REMARK INTRA:                  -0.225
REMARK UNBOUND:                -0.219
REMARK SMILES [NH3+][C@@H](Cc1ccc(O)cc1)C(=O)[O-]
REMARK SMILES IDX 3 1 2 2 1 3 11 7 12 8 13 9 4 10 5 11 10 12 6 13 9 14 7 15
REMARK SMILES IDX 8 16
REMARK H PARENT 1 4 1 5 1 6 8 17
REMARK Flexibility Score: inf
ROOT
ATOM      1  C   UNL     1      -3.461  -6.221   5.028  1.00  0.00     0.107 C 
ENDROOT
BRANCH   1   2
ATOM      2  C   UNL     1      -4.804  -5.996   4.301  1.00  0.00     0.232 C 
BRANCH   2   3
ATOM      3  N   UNL     1      -5.872  -6.830   4.871  1.00  0.00    -0.350 N 
ATOM      4  H   UNL     1      -6.640  -6.953   4.173  1.00  0.00     0.345 HD
ATOM      5  H   UNL     1      -5.497  -7.779   5.103  1.00  0.00     0.345 HD
ATOM      6  H   UNL     1      -6.260  -6.393   5.739  1.00  0.00     0.345 HD
ENDBRANCH   2   3
BRANCH   2   7
ATOM      7  C   UNL     1      -4.643  -6.286   2.833  1.00  0.00     0.099 C 
ATOM      8  O   UNL     1      -3.496  -6.419   2.329  1.00  0.00    -0.544 OA
ATOM      9  O   UNL     1      -5.765  -6.387   2.019  1.00  0.00    -0.544 OA
ENDBRANCH   2   7
ENDBRANCH   1   2
BRANCH   1  10
ATOM     10  C   UNL     1      -2.961  -4.962   5.688  1.00  0.00    -0.041 A 
ATOM     11  C   UNL     1      -3.710  -3.777   5.607  1.00  0.00     0.008 A 
ATOM     12  C   UNL     1      -1.762  -4.970   6.420  1.00  0.00     0.008 A 
ATOM     13  C   UNL     1      -3.260  -2.613   6.239  1.00  0.00     0.046 A 
ATOM     14  C   UNL     1      -1.314  -3.805   7.051  1.00  0.00     0.046 A 
ATOM     15  C   UNL     1      -2.060  -2.625   6.962  1.00  0.00     0.115 A 
BRANCH  15  16
ATOM     16  O   UNL     1      -1.601  -1.472   7.596  1.00  0.00    -0.508 OA
ATOM     17  H   UNL     1      -1.971  -1.178   8.493  1.00  0.00     0.293 HD
ENDBRANCH  15  16
ENDBRANCH   1  10
TORSDOF 5
ENDMDL
MODEL 7
REMARK VINA RESULT:    -4.317     12.310     14.296
REMARK INTER + INTRA:          -5.546
REMARK INTER:                  -5.442
REMARK INTRA:                  -0.104
REMARK UNBOUND:                -0.219
REMARK SMILES [NH3+][C@@H](Cc1ccc(O)cc1)C(=O)[O-]
REMARK SMILES IDX 3 1 2 2 1 3 11 7 12 8 13 9 4 10 5 11 10 12 6 13 9 14 7 15
REMARK SMILES IDX 8 16
REMARK H PARENT 1 4 1 5 1 6 8 17
REMARK Flexibility Score: inf
ROOT
ATOM      1  C   UNL     1       4.547   6.238   6.671  1.00  0.00     0.107 C 
ENDROOT
BRANCH   1   2
ATOM      2  C   UNL     1       5.715   7.234   6.821  1.00  0.00     0.232 C 
BRANCH   2   3
ATOM      3  N   UNL     1       5.454   8.216   7.883  1.00  0.00    -0.350 N 
ATOM      4  H   UNL     1       5.864   9.142   7.623  1.00  0.00     0.345 HD
ATOM      5  H   UNL     1       4.423   8.346   8.002  1.00  0.00     0.345 HD
ATOM      6  H   UNL     1       5.867   7.898   8.791  1.00  0.00     0.345 HD
ENDBRANCH   2   3
BRANCH   2   7
ATOM      7  C   UNL     1       5.958   7.936   5.511  1.00  0.00     0.099 C 
ATOM      8  O   UNL     1       7.121   8.293   5.183  1.00  0.00    -0.544 OA
ATOM      9  O   UNL     1       4.892   8.213   4.664  1.00  0.00    -0.544 OA
ENDBRANCH   2   7
ENDBRANCH   1   2
BRANCH   1  10
ATOM     10  C   UNL     1       5.018   4.886   6.199  1.00  0.00    -0.041 A 
ATOM     11  C   UNL     1       5.190   3.838   7.117  1.00  0.00     0.008 A 
ATOM     12  C   UNL     1       5.254   4.651   4.834  1.00  0.00     0.008 A 
ATOM     13  C   UNL     1       5.604   2.576   6.679  1.00  0.00     0.046 A 
ATOM     14  C   UNL     1       5.668   3.388   4.398  1.00  0.00     0.046 A 
ATOM     15  C   UNL     1       5.845   2.349   5.318  1.00  0.00     0.115 A 
BRANCH  15  16
ATOM     16  O   UNL     1       6.257   1.096   4.869  1.00  0.00    -0.508 OA
ATOM     17  H   UNL     1       6.418   0.913   3.885  1.00  0.00     0.293 HD
ENDBRANCH  15  16
ENDBRANCH   1  10
TORSDOF 5
ENDMDL
MODEL 8
REMARK VINA RESULT:    -4.271      2.465      5.377
REMARK INTER + INTRA:          -5.488
REMARK INTER:                  -5.291
REMARK INTRA:                  -0.198
REMARK UNBOUND:                -0.219
REMARK SMILES [NH3+][C@@H](Cc1ccc(O)cc1)C(=O)[O-]
REMARK SMILES IDX 3 1 2 2 1 3 11 7 12 8 13 9 4 10 5 11 10 12 6 13 9 14 7 15
REMARK SMILES IDX 8 16
REMARK H PARENT 1 4 1 5 1 6 8 17
REMARK Flexibility Score: inf
ROOT
ATOM      1  C   UNL     1      -2.205  -4.332   7.361  1.00  0.00     0.107 C 
ENDROOT
BRANCH   1   2
ATOM      2  C   UNL     1      -1.320  -3.281   6.659  1.00  0.00     0.232 C 
BRANCH   2   3
ATOM      3  N   UNL     1       0.003  -3.180   7.292  1.00  0.00    -0.350 N 
ATOM      4  H   UNL     1       0.614  -3.965   6.971  1.00  0.00     0.345 HD
ATOM      5  H   UNL     1       0.462  -2.282   7.013  1.00  0.00     0.345 HD
ATOM      6  H   UNL     1      -0.082  -3.213   8.335  1.00  0.00     0.345 HD
ENDBRANCH   2   3
BRANCH   2   7
ATOM      7  C   UNL     1      -2.009  -1.943   6.673  1.00  0.00     0.099 C 
ATOM      8  O   UNL     1      -1.864  -1.159   7.650  1.00  0.00    -0.544 OA
ATOM      9  O   UNL     1      -2.828  -1.572   5.614  1.00  0.00    -0.544 OA
ENDBRANCH   2   7
ENDBRANCH   1   2
BRANCH   1  10
ATOM     10  C   UNL     1      -2.677  -5.399   6.407  1.00  0.00    -0.041 A 
ATOM     11  C   UNL     1      -2.398  -6.750   6.665  1.00  0.00     0.008 A 
ATOM     12  C   UNL     1      -3.428  -5.056   5.270  1.00  0.00     0.008 A 
ATOM     13  C   UNL     1      -2.854  -7.744   5.793  1.00  0.00     0.046 A 
ATOM     14  C   UNL     1      -3.884  -6.051   4.400  1.00  0.00     0.046 A 
ATOM     15  C   UNL     1      -3.598  -7.396   4.658  1.00  0.00     0.115 A 
BRANCH  15  16
ATOM     16  O   UNL     1      -4.058  -8.376   3.782  1.00  0.00    -0.508 OA
ATOM     17  H   UNL     1      -4.900  -8.243   3.233  1.00  0.00     0.293 HD
ENDBRANCH  15  16
ENDBRANCH   1  10
TORSDOF 5
ENDMDL
MODEL 9
REMARK VINA RESULT:    -4.234      2.614      3.209
REMARK INTER + INTRA:          -5.443
REMARK INTER:                  -5.221
REMARK INTRA:                  -0.222
REMARK UNBOUND:                -0.219
REMARK SMILES [NH3+][C@@H](Cc1ccc(O)cc1)C(=O)[O-]
REMARK SMILES IDX 3 1 2 2 1 3 11 7 12 8 13 9 4 10 5 11 10 12 6 13 9 14 7 15
REMARK SMILES IDX 8 16
REMARK H PARENT 1 4 1 5 1 6 8 17
REMARK Flexibility Score: inf
ROOT
ATOM      1  C   UNL     1      -1.178  -6.425   7.119  1.00  0.00     0.107 C 
ENDROOT
BRANCH   1   2
ATOM      2  C   UNL     1      -2.501  -7.218   7.132  1.00  0.00     0.232 C 
BRANCH   2   3
ATOM      3  N   UNL     1      -2.518  -8.222   8.205  1.00  0.00    -0.350 N 
ATOM      4  H   UNL     1      -2.802  -9.152   7.820  1.00  0.00     0.345 HD
ATOM      5  H   UNL     1      -1.558  -8.325   8.611  1.00  0.00     0.345 HD
ATOM      6  H   UNL     1      -3.183  -7.944   8.963  1.00  0.00     0.345 HD
ENDBRANCH   2   3
BRANCH   2   7
ATOM      7  C   UNL     1      -2.712  -7.879   5.796  1.00  0.00     0.099 C 
ATOM      8  O   UNL     1      -3.572  -7.433   4.990  1.00  0.00    -0.544 OA
ATOM      9  O   UNL     1      -1.971  -9.003   5.452  1.00  0.00    -0.544 OA
ENDBRANCH   2   7
ENDBRANCH   1   2
BRANCH   1  10
ATOM     10  C   UNL     1      -1.415  -4.936   7.120  1.00  0.00    -0.041 A 
ATOM     11  C   UNL     1      -2.655  -4.419   7.525  1.00  0.00     0.008 A 
ATOM     12  C   UNL     1      -0.387  -4.052   6.752  1.00  0.00     0.008 A 
ATOM     13  C   UNL     1      -2.870  -3.037   7.550  1.00  0.00     0.046 A 
ATOM     14  C   UNL     1      -0.604  -2.670   6.778  1.00  0.00     0.046 A 
ATOM     15  C   UNL     1      -1.844  -2.160   7.175  1.00  0.00     0.115 A 
BRANCH  15  16
ATOM     16  O   UNL     1      -2.045  -0.781   7.196  1.00  0.00    -0.508 OA
ATOM     17  H   UNL     1      -1.600  -0.171   6.520  1.00  0.00     0.293 HD
ENDBRANCH  15  16
ENDBRANCH   1  10
TORSDOF 5
ENDMDL
