MODEL 1
REMARK VINA RESULT:    -5.448      0.000      0.000
REMARK INTER + INTRA:         -18.589
REMARK INTER:                 -14.366
REMARK INTRA:                  -4.223
REMARK UNBOUND:                -4.223
REMARK SMILES CCCCCCCCCCCCCCCCCCCCCCCCCCCCCC(=O)[O-]
REMARK SMILES IDX 16 1 17 2 18 3 19 4 20 5 21 6 22 7 23 8 24 9 25 10 26 11
REMARK SMILES IDX 27 12 28 13 29 14 30 15 31 16 32 17 15 18 14 19 13 20 12 21
REMARK SMILES IDX 11 22 10 23 9 24 8 25 7 26 6 27 5 28 4 29 3 30 2 31 1 32
REMARK H PARENT
REMARK Flexibility Score: inf
ROOT
ATOM      1  C   UNL     1       0.864  13.945  25.543  1.00  0.00     0.000 C 
ENDROOT
BRANCH   1   2
ATOM      2  C   UNL     1       0.432  12.877  26.570  1.00  0.00     0.000 C 
BRANCH   2   3
ATOM      3  C   UNL     1      -1.092  12.705  26.733  1.00  0.00     0.000 C 
BRANCH   3   4
ATOM      4  C   UNL     1      -1.861  12.448  25.425  1.00  0.00     0.000 C 
BRANCH   4   5
ATOM      5  C   UNL     1      -2.979  11.403  25.589  1.00  0.00     0.000 C 
BRANCH   5   6
ATOM      6  C   UNL     1      -3.805  11.216  24.307  1.00  0.00     0.000 C 
BRANCH   6   7
ATOM      7  C   UNL     1      -3.051  11.659  23.043  1.00  0.00     0.000 C 
BRANCH   7   8
ATOM      8  C   UNL     1      -3.880  11.380  21.782  1.00  0.00     0.000 C 
BRANCH   8   9
ATOM      9  C   UNL     1      -4.059   9.878  21.504  1.00  0.00     0.000 C 
BRANCH   9  10
ATOM     10  C   UNL     1      -2.934   9.267  20.642  1.00  0.00     0.000 C 
BRANCH  10  11
ATOM     11  C   UNL     1      -1.966   8.411  21.477  1.00  0.00     0.000 C 
BRANCH  11  12
ATOM     12  C   UNL     1      -2.572   7.967  22.819  1.00  0.00     0.000 C 
BRANCH  12  13
ATOM     13  C   UNL     1      -1.667   8.304  24.017  1.00  0.00     0.006 C 
BRANCH  13  14
ATOM     14  C   UNL     1      -0.451   9.147  23.607  1.00  0.00     0.053 C 
BRANCH  14  15
ATOM     15  C   UNL     1       0.455   9.424  24.767  1.00  0.00     0.041 C 
ATOM     16  O   UNL     1       1.650   9.768  24.568  1.00  0.00    -0.550 OA
ATOM     17  O   UNL     1      -0.041   9.367  26.065  1.00  0.00    -0.550 OA
ENDBRANCH  14  15
ENDBRANCH  13  14
ENDBRANCH  12  13
ENDBRANCH  11  12
ENDBRANCH  10  11
ENDBRANCH   9  10
ENDBRANCH   8   9
ENDBRANCH   7   8
ENDBRANCH   6   7
ENDBRANCH   5   6
ENDBRANCH   4   5
ENDBRANCH   3   4
ENDBRANCH   2   3
ENDBRANCH   1   2
BRANCH   1  18
ATOM     18  C   UNL     1       2.354  13.912  25.140  1.00  0.00     0.000 C 
BRANCH  18  19
ATOM     19  C   UNL     1       2.752  14.907  24.033  1.00  0.00     0.000 C 
BRANCH  19  20
ATOM     20  C   UNL     1       1.621  15.888  23.679  1.00  0.00     0.000 C 
BRANCH  20  21
ATOM     21  C   UNL     1       2.083  17.355  23.680  1.00  0.00     0.000 C 
BRANCH  21  22
ATOM     22  C   UNL     1       2.963  17.768  24.874  1.00  0.00     0.000 C 
BRANCH  22  23
ATOM     23  C   UNL     1       4.039  18.818  24.525  1.00  0.00     0.000 C 
BRANCH  23  24
ATOM     24  C   UNL     1       4.592  18.649  23.100  1.00  0.00    -0.000 C 
BRANCH  24  25
ATOM     25  C   UNL     1       4.995  19.983  22.450  1.00  0.00    -0.000 C 
BRANCH  25  26
ATOM     26  C   UNL     1       3.943  21.099  22.626  1.00  0.00    -0.000 C 
BRANCH  26  27
ATOM     27  C   UNL     1       2.794  20.982  21.608  1.00  0.00    -0.000 C 
BRANCH  27  28
ATOM     28  C   UNL     1       1.458  20.601  22.265  1.00  0.00    -0.000 C 
BRANCH  28  29
ATOM     29  C   UNL     1       1.276  21.235  23.651  1.00  0.00    -0.000 C 
BRANCH  29  30
ATOM     30  C   UNL     1       0.330  20.390  24.516  1.00  0.00    -0.000 C 
BRANCH  30  31
ATOM     31  C   UNL     1       0.337  20.821  25.990  1.00  0.00    -0.003 C 
ATOM     32  C   UNL     1       1.714  20.693  26.640  1.00  0.00     0.004 C 
ENDBRANCH  30  31
ENDBRANCH  29  30
ENDBRANCH  28  29
ENDBRANCH  27  28
ENDBRANCH  26  27
ENDBRANCH  25  26
ENDBRANCH  24  25
ENDBRANCH  23  24
ENDBRANCH  22  23
ENDBRANCH  21  22
ENDBRANCH  20  21
ENDBRANCH  19  20
ENDBRANCH  18  19
ENDBRANCH   1  18
TORSDOF 28
ENDMDL
MODEL 2
REMARK VINA RESULT:    -5.395      2.787     10.058
REMARK INTER + INTRA:         -18.449
REMARK INTER:                 -14.655
REMARK INTRA:                  -3.794
REMARK UNBOUND:                -4.223
REMARK SMILES CCCCCCCCCCCCCCCCCCCCCCCCCCCCCC(=O)[O-]
REMARK SMILES IDX 16 1 17 2 18 3 19 4 20 5 21 6 22 7 23 8 24 9 25 10 26 11
REMARK SMILES IDX 27 12 28 13 29 14 30 15 31 16 32 17 15 18 14 19 13 20 12 21
REMARK SMILES IDX 11 22 10 23 9 24 8 25 7 26 6 27 5 28 4 29 3 30 2 31 1 32
REMARK H PARENT
REMARK Flexibility Score: inf
ROOT
ATOM      1  C   UNL     1       1.586  10.070  25.071  1.00  0.00     0.000 C 
ENDROOT
BRANCH   1   2
ATOM      2  C   UNL     1       1.761  11.381  25.867  1.00  0.00     0.000 C 
BRANCH   2   3
ATOM      3  C   UNL     1       0.446  12.073  26.284  1.00  0.00     0.000 C 
BRANCH   3   4
ATOM      4  C   UNL     1       0.566  13.580  26.566  1.00  0.00     0.000 C 
BRANCH   4   5
ATOM      5  C   UNL     1       0.690  14.417  25.280  1.00  0.00     0.000 C 
BRANCH   5   6
ATOM      6  C   UNL     1       1.656  15.602  25.437  1.00  0.00     0.000 C 
BRANCH   6   7
ATOM      7  C   UNL     1       2.308  16.016  24.108  1.00  0.00     0.000 C 
BRANCH   7   8
ATOM      8  C   UNL     1       3.071  17.340  24.259  1.00  0.00     0.000 C 
BRANCH   8   9
ATOM      9  C   UNL     1       4.142  17.541  23.174  1.00  0.00     0.000 C 
BRANCH   9  10
ATOM     10  C   UNL     1       4.761  18.955  23.166  1.00  0.00     0.000 C 
BRANCH  10  11
ATOM     11  C   UNL     1       3.801  20.009  23.743  1.00  0.00     0.000 C 
BRANCH  11  12
ATOM     12  C   UNL     1       3.311  21.010  22.683  1.00  0.00     0.000 C 
BRANCH  12  13
ATOM     13  C   UNL     1       1.784  21.195  22.706  1.00  0.00     0.006 C 
BRANCH  13  14
ATOM     14  C   UNL     1       1.040  19.933  22.246  1.00  0.00     0.053 C 
BRANCH  14  15
ATOM     15  C   UNL     1       0.007  19.498  23.239  1.00  0.00     0.041 C 
ATOM     16  O   UNL     1      -1.125  19.109  22.846  1.00  0.00    -0.550 OA
ATOM     17  O   UNL     1       0.318  19.460  24.594  1.00  0.00    -0.550 OA
ENDBRANCH  14  15
ENDBRANCH  13  14
ENDBRANCH  12  13
ENDBRANCH  11  12
ENDBRANCH  10  11
ENDBRANCH   9  10
ENDBRANCH   8   9
ENDBRANCH   7   8
ENDBRANCH   6   7
ENDBRANCH   5   6
ENDBRANCH   4   5
ENDBRANCH   3   4
ENDBRANCH   2   3
ENDBRANCH   1   2
BRANCH   1  18
ATOM     18  C   UNL     1       0.226   9.362  25.252  1.00  0.00     0.000 C 
BRANCH  18  19
ATOM     19  C   UNL     1      -0.552   9.103  23.947  1.00  0.00     0.000 C 
BRANCH  19  20
ATOM     20  C   UNL     1      -1.757   8.168  24.148  1.00  0.00     0.000 C 
BRANCH  20  21
ATOM     21  C   UNL     1      -2.607   8.010  22.875  1.00  0.00     0.000 C 
BRANCH  21  22
ATOM     22  C   UNL     1      -1.892   8.363  21.558  1.00  0.00     0.000 C 
BRANCH  22  23
ATOM     23  C   UNL     1      -2.762   9.168  20.570  1.00  0.00     0.000 C 
BRANCH  23  24
ATOM     24  C   UNL     1      -3.865   9.976  21.274  1.00  0.00    -0.000 C 
BRANCH  24  25
ATOM     25  C   UNL     1      -3.434  11.415  21.607  1.00  0.00    -0.000 C 
BRANCH  25  26
ATOM     26  C   UNL     1      -3.805  11.856  23.039  1.00  0.00    -0.000 C 
BRANCH  26  27
ATOM     27  C   UNL     1      -2.571  11.971  23.952  1.00  0.00    -0.000 C 
BRANCH  27  28
ATOM     28  C   UNL     1      -2.891  11.661  25.422  1.00  0.00    -0.000 C 
BRANCH  28  29
ATOM     29  C   UNL     1      -3.825  10.453  25.584  1.00  0.00    -0.000 C 
BRANCH  29  30
ATOM     30  C   UNL     1      -4.010  10.103  27.068  1.00  0.00    -0.000 C 
BRANCH  30  31
ATOM     31  C   UNL     1      -2.681   9.772  27.765  1.00  0.00    -0.003 C 
ATOM     32  C   UNL     1      -2.207  10.884  28.699  1.00  0.00     0.004 C 
ENDBRANCH  30  31
ENDBRANCH  29  30
ENDBRANCH  28  29
ENDBRANCH  27  28
ENDBRANCH  26  27
ENDBRANCH  25  26
ENDBRANCH  24  25
ENDBRANCH  23  24
ENDBRANCH  22  23
ENDBRANCH  21  22
ENDBRANCH  20  21
ENDBRANCH  19  20
ENDBRANCH  18  19
ENDBRANCH   1  18
TORSDOF 28
ENDMDL
MODEL 3
REMARK VINA RESULT:    -5.290      3.059     10.626
REMARK INTER + INTRA:         -18.172
REMARK INTER:                 -13.927
REMARK INTRA:                  -4.245
REMARK UNBOUND:                -4.223
REMARK SMILES CCCCCCCCCCCCCCCCCCCCCCCCCCCCCC(=O)[O-]
REMARK SMILES IDX 16 1 17 2 18 3 19 4 20 5 21 6 22 7 23 8 24 9 25 10 26 11
REMARK SMILES IDX 27 12 28 13 29 14 30 15 31 16 32 17 15 18 14 19 13 20 12 21
REMARK SMILES IDX 11 22 10 23 9 24 8 25 7 26 6 27 5 28 4 29 3 30 2 31 1 32
REMARK H PARENT
REMARK Flexibility Score: inf
ROOT
ATOM      1  C   UNL     1       1.562  14.735  25.586  1.00  0.00     0.000 C 
ENDROOT
BRANCH   1   2
ATOM      2  C   UNL     1       2.166  15.095  24.212  1.00  0.00     0.000 C 
BRANCH   2   3
ATOM      3  C   UNL     1       1.948  16.556  23.765  1.00  0.00     0.000 C 
BRANCH   3   4
ATOM      4  C   UNL     1       3.236  17.354  23.500  1.00  0.00     0.000 C 
BRANCH   4   5
ATOM      5  C   UNL     1       3.589  18.310  24.654  1.00  0.00     0.000 C 
BRANCH   5   6
ATOM      6  C   UNL     1       2.535  18.303  25.772  1.00  0.00     0.000 C 
BRANCH   6   7
ATOM      7  C   UNL     1       1.985  19.704  26.079  1.00  0.00     0.000 C 
BRANCH   7   8
ATOM      8  C   UNL     1       0.473  19.770  25.822  1.00  0.00     0.000 C 
BRANCH   8   9
ATOM      9  C   UNL     1       0.117  20.557  24.549  1.00  0.00     0.000 C 
BRANCH   9  10
ATOM     10  C   UNL     1       0.178  19.712  23.259  1.00  0.00     0.000 C 
BRANCH  10  11
ATOM     11  C   UNL     1       1.267  20.210  22.293  1.00  0.00     0.000 C 
BRANCH  11  12
ATOM     12  C   UNL     1       1.889  21.545  22.737  1.00  0.00     0.000 C 
BRANCH  12  13
ATOM     13  C   UNL     1       2.971  22.045  21.764  1.00  0.00     0.006 C 
BRANCH  13  14
ATOM     14  C   UNL     1       4.383  21.926  22.355  1.00  0.00     0.053 C 
BRANCH  14  15
ATOM     15  C   UNL     1       4.993  20.586  22.081  1.00  0.00     0.041 C 
ATOM     16  O   UNL     1       4.604  19.903  21.096  1.00  0.00    -0.550 OA
ATOM     17  O   UNL     1       6.037  20.123  22.874  1.00  0.00    -0.550 OA
ENDBRANCH  14  15
ENDBRANCH  13  14
ENDBRANCH  12  13
ENDBRANCH  11  12
ENDBRANCH  10  11
ENDBRANCH   9  10
ENDBRANCH   8   9
ENDBRANCH   7   8
ENDBRANCH   6   7
ENDBRANCH   5   6
ENDBRANCH   4   5
ENDBRANCH   3   4
ENDBRANCH   2   3
ENDBRANCH   1   2
BRANCH   1  18
ATOM     18  C   UNL     1       0.518  13.598  25.573  1.00  0.00     0.000 C 
BRANCH  18  19
ATOM     19  C   UNL     1      -0.178  13.337  26.923  1.00  0.00     0.000 C 
BRANCH  19  20
ATOM     20  C   UNL     1      -1.690  13.091  26.775  1.00  0.00     0.000 C 
BRANCH  20  21
ATOM     21  C   UNL     1      -2.059  12.448  25.426  1.00  0.00     0.000 C 
BRANCH  21  22
ATOM     22  C   UNL     1      -3.253  11.478  25.465  1.00  0.00     0.000 C 
BRANCH  22  23
ATOM     23  C   UNL     1      -3.901  11.226  24.087  1.00  0.00     0.000 C 
BRANCH  23  24
ATOM     24  C   UNL     1      -3.123  11.889  22.938  1.00  0.00    -0.000 C 
BRANCH  24  25
ATOM     25  C   UNL     1      -3.578  11.407  21.550  1.00  0.00    -0.000 C 
BRANCH  25  26
ATOM     26  C   UNL     1      -3.825   9.886  21.474  1.00  0.00    -0.000 C 
BRANCH  26  27
ATOM     27  C   UNL     1      -2.513   9.085  21.392  1.00  0.00    -0.000 C 
BRANCH  27  28
ATOM     28  C   UNL     1      -2.466   7.921  22.394  1.00  0.00    -0.000 C 
BRANCH  28  29
ATOM     29  C   UNL     1      -1.926   8.343  23.768  1.00  0.00    -0.000 C 
BRANCH  29  30
ATOM     30  C   UNL     1      -0.635   9.161  23.616  1.00  0.00    -0.000 C 
BRANCH  30  31
ATOM     31  C   UNL     1       0.005   9.507  24.969  1.00  0.00    -0.003 C 
ATOM     32  C   UNL     1      -0.790   8.968  26.158  1.00  0.00     0.004 C 
ENDBRANCH  30  31
ENDBRANCH  29  30
ENDBRANCH  28  29
ENDBRANCH  27  28
ENDBRANCH  26  27
ENDBRANCH  25  26
ENDBRANCH  24  25
ENDBRANCH  23  24
ENDBRANCH  22  23
ENDBRANCH  21  22
ENDBRANCH  20  21
ENDBRANCH  19  20
ENDBRANCH  18  19
ENDBRANCH   1  18
TORSDOF 28
ENDMDL
MODEL 4
REMARK VINA RESULT:    -5.282      1.072      2.596
REMARK INTER + INTRA:         -18.152
REMARK INTER:                 -14.273
REMARK INTRA:                  -3.879
REMARK UNBOUND:                -4.223
REMARK SMILES CCCCCCCCCCCCCCCCCCCCCCCCCCCCCC(=O)[O-]
REMARK SMILES IDX 16 1 17 2 18 3 19 4 20 5 21 6 22 7 23 8 24 9 25 10 26 11
REMARK SMILES IDX 27 12 28 13 29 14 30 15 31 16 32 17 15 18 14 19 13 20 12 21
REMARK SMILES IDX 11 22 10 23 9 24 8 25 7 26 6 27 5 28 4 29 3 30 2 31 1 32
REMARK H PARENT
REMARK Flexibility Score: inf
ROOT
ATOM      1  C   UNL     1       0.244  14.103  25.491  1.00  0.00     0.000 C 
ENDROOT
BRANCH   1   2
ATOM      2  C   UNL     1      -0.260  13.559  26.844  1.00  0.00     0.000 C 
BRANCH   2   3
ATOM      3  C   UNL     1      -1.755  13.181  26.881  1.00  0.00     0.000 C 
BRANCH   3   4
ATOM      4  C   UNL     1      -2.045  11.700  27.181  1.00  0.00     0.000 C 
BRANCH   4   5
ATOM      5  C   UNL     1      -2.911  11.033  26.096  1.00  0.00     0.000 C 
BRANCH   5   6
ATOM      6  C   UNL     1      -2.807  11.744  24.738  1.00  0.00     0.000 C 
BRANCH   6   7
ATOM      7  C   UNL     1      -3.961  11.383  23.789  1.00  0.00     0.000 C 
BRANCH   7   8
ATOM      8  C   UNL     1      -3.686  11.897  22.369  1.00  0.00     0.000 C 
BRANCH   8   9
ATOM      9  C   UNL     1      -2.927  10.878  21.501  1.00  0.00     0.000 C 
BRANCH   9  10
ATOM     10  C   UNL     1      -3.276   9.409  21.819  1.00  0.00     0.000 C 
BRANCH  10  11
ATOM     11  C   UNL     1      -2.020   8.561  22.083  1.00  0.00     0.000 C 
BRANCH  11  12
ATOM     12  C   UNL     1      -1.586   8.584  23.558  1.00  0.00     0.000 C 
BRANCH  12  13
ATOM     13  C   UNL     1      -0.198   9.217  23.756  1.00  0.00     0.006 C 
BRANCH  13  14
ATOM     14  C   UNL     1       0.188   9.316  25.239  1.00  0.00     0.053 C 
BRANCH  14  15
ATOM     15  C   UNL     1       1.603   9.772  25.420  1.00  0.00     0.041 C 
ATOM     16  O   UNL     1       2.505   8.939  25.701  1.00  0.00    -0.550 OA
ATOM     17  O   UNL     1       1.935  11.106  25.212  1.00  0.00    -0.550 OA
ENDBRANCH  14  15
ENDBRANCH  13  14
ENDBRANCH  12  13
ENDBRANCH  11  12
ENDBRANCH  10  11
ENDBRANCH   9  10
ENDBRANCH   8   9
ENDBRANCH   7   8
ENDBRANCH   6   7
ENDBRANCH   5   6
ENDBRANCH   4   5
ENDBRANCH   3   4
ENDBRANCH   2   3
ENDBRANCH   1   2
BRANCH   1  18
ATOM     18  C   UNL     1       1.690  14.644  25.492  1.00  0.00     0.000 C 
BRANCH  18  19
ATOM     19  C   UNL     1       2.256  14.992  24.101  1.00  0.00     0.000 C 
BRANCH  19  20
ATOM     20  C   UNL     1       2.055  16.471  23.730  1.00  0.00     0.000 C 
BRANCH  20  21
ATOM     21  C   UNL     1       3.341  17.302  23.879  1.00  0.00     0.000 C 
BRANCH  21  22
ATOM     22  C   UNL     1       3.300  18.389  24.969  1.00  0.00     0.000 C 
BRANCH  22  23
ATOM     23  C   UNL     1       2.335  18.074  26.131  1.00  0.00     0.000 C 
BRANCH  23  24
ATOM     24  C   UNL     1       1.377  19.238  26.437  1.00  0.00    -0.000 C 
BRANCH  24  25
ATOM     25  C   UNL     1       1.756  20.536  25.703  1.00  0.00    -0.000 C 
BRANCH  25  26
ATOM     26  C   UNL     1       0.635  21.082  24.794  1.00  0.00    -0.000 C 
BRANCH  26  27
ATOM     27  C   UNL     1       0.264  20.098  23.669  1.00  0.00    -0.000 C 
BRANCH  27  28
ATOM     28  C   UNL     1       1.287  20.096  22.522  1.00  0.00    -0.000 C 
BRANCH  28  29
ATOM     29  C   UNL     1       1.953  21.465  22.320  1.00  0.00    -0.000 C 
BRANCH  29  30
ATOM     30  C   UNL     1       3.481  21.345  22.412  1.00  0.00    -0.000 C 
BRANCH  30  31
ATOM     31  C   UNL     1       4.037  20.213  21.535  1.00  0.00    -0.003 C 
ATOM     32  C   UNL     1       4.192  20.618  20.070  1.00  0.00     0.004 C 
ENDBRANCH  30  31
ENDBRANCH  29  30
ENDBRANCH  28  29
ENDBRANCH  27  28
ENDBRANCH  26  27
ENDBRANCH  25  26
ENDBRANCH  24  25
ENDBRANCH  23  24
ENDBRANCH  22  23
ENDBRANCH  21  22
ENDBRANCH  20  21
ENDBRANCH  19  20
ENDBRANCH  18  19
ENDBRANCH   1  18
TORSDOF 28
ENDMDL
MODEL 5
REMARK VINA RESULT:    -5.269      3.458     10.607
REMARK INTER + INTRA:         -18.115
REMARK INTER:                 -14.038
REMARK INTRA:                  -4.078
REMARK UNBOUND:                -4.223
REMARK SMILES CCCCCCCCCCCCCCCCCCCCCCCCCCCCCC(=O)[O-]
REMARK SMILES IDX 16 1 17 2 18 3 19 4 20 5 21 6 22 7 23 8 24 9 25 10 26 11
REMARK SMILES IDX 27 12 28 13 29 14 30 15 31 16 32 17 15 18 14 19 13 20 12 21
REMARK SMILES IDX 11 22 10 23 9 24 8 25 7 26 6 27 5 28 4 29 3 30 2 31 1 32
REMARK H PARENT
REMARK Flexibility Score: inf
ROOT
ATOM      1  C   UNL     1       0.886  13.068  25.885  1.00  0.00     0.000 C 
ENDROOT
BRANCH   1   2
ATOM      2  C   UNL     1       0.729  14.516  25.375  1.00  0.00     0.000 C 
BRANCH   2   3
ATOM      3  C   UNL     1       1.951  15.428  25.610  1.00  0.00     0.000 C 
BRANCH   3   4
ATOM      4  C   UNL     1       3.276  14.902  25.030  1.00  0.00     0.000 C 
BRANCH   4   5
ATOM      5  C   UNL     1       3.568  15.451  23.622  1.00  0.00     0.000 C 
BRANCH   5   6
ATOM      6  C   UNL     1       3.035  16.878  23.422  1.00  0.00     0.000 C 
BRANCH   6   7
ATOM      7  C   UNL     1       4.155  17.929  23.365  1.00  0.00     0.000 C 
BRANCH   7   8
ATOM      8  C   UNL     1       4.087  18.873  24.574  1.00  0.00     0.000 C 
BRANCH   8   9
ATOM      9  C   UNL     1       2.719  18.843  25.278  1.00  0.00     0.000 C 
BRANCH   9  10
ATOM     10  C   UNL     1       1.828  20.061  24.955  1.00  0.00     0.000 C 
BRANCH  10  11
ATOM     11  C   UNL     1       0.598  19.671  24.118  1.00  0.00     0.000 C 
BRANCH  11  12
ATOM     12  C   UNL     1       0.791  19.938  22.616  1.00  0.00     0.000 C 
BRANCH  12  13
ATOM     13  C   UNL     1       1.672  21.169  22.343  1.00  0.00     0.006 C 
BRANCH  13  14
ATOM     14  C   UNL     1       2.836  20.851  21.395  1.00  0.00     0.053 C 
BRANCH  14  15
ATOM     15  C   UNL     1       4.087  21.579  21.780  1.00  0.00     0.041 C 
ATOM     16  O   UNL     1       4.992  21.778  20.926  1.00  0.00    -0.550 OA
ATOM     17  O   UNL     1       4.223  22.098  23.063  1.00  0.00    -0.550 OA
ENDBRANCH  14  15
ENDBRANCH  13  14
ENDBRANCH  12  13
ENDBRANCH  11  12
ENDBRANCH  10  11
ENDBRANCH   9  10
ENDBRANCH   8   9
ENDBRANCH   7   8
ENDBRANCH   6   7
ENDBRANCH   5   6
ENDBRANCH   4   5
ENDBRANCH   3   4
ENDBRANCH   2   3
ENDBRANCH   1   2
BRANCH   1  18
ATOM     18  C   UNL     1      -0.115  12.639  26.979  1.00  0.00     0.000 C 
BRANCH  18  19
ATOM     19  C   UNL     1      -1.507  13.292  26.880  1.00  0.00     0.000 C 
BRANCH  19  20
ATOM     20  C   UNL     1      -2.646  12.260  26.817  1.00  0.00     0.000 C 
BRANCH  20  21
ATOM     21  C   UNL     1      -2.794  11.620  25.426  1.00  0.00     0.000 C 
BRANCH  21  22
ATOM     22  C   UNL     1      -4.157  10.961  25.146  1.00  0.00     0.000 C 
BRANCH  22  23
ATOM     23  C   UNL     1      -4.603  11.048  23.671  1.00  0.00     0.000 C 
BRANCH  23  24
ATOM     24  C   UNL     1      -3.763  12.047  22.857  1.00  0.00    -0.000 C 
BRANCH  24  25
ATOM     25  C   UNL     1      -3.134  11.418  21.602  1.00  0.00    -0.000 C 
BRANCH  25  26
ATOM     26  C   UNL     1      -3.720  10.036  21.243  1.00  0.00    -0.000 C 
BRANCH  26  27
ATOM     27  C   UNL     1      -2.727   8.892  21.519  1.00  0.00    -0.000 C 
BRANCH  27  28
ATOM     28  C   UNL     1      -3.018   8.162  22.839  1.00  0.00    -0.000 C 
BRANCH  28  29
ATOM     29  C   UNL     1      -1.771   8.017  23.723  1.00  0.00    -0.000 C 
BRANCH  29  30
ATOM     30  C   UNL     1      -0.810   9.195  23.505  1.00  0.00    -0.000 C 
BRANCH  30  31
ATOM     31  C   UNL     1      -0.041   9.571  24.781  1.00  0.00    -0.003 C 
ATOM     32  C   UNL     1       1.474   9.561  24.586  1.00  0.00     0.004 C 
ENDBRANCH  30  31
ENDBRANCH  29  30
ENDBRANCH  28  29
ENDBRANCH  27  28
ENDBRANCH  26  27
ENDBRANCH  25  26
ENDBRANCH  24  25
ENDBRANCH  23  24
ENDBRANCH  22  23
ENDBRANCH  21  22
ENDBRANCH  20  21
ENDBRANCH  19  20
ENDBRANCH  18  19
ENDBRANCH   1  18
TORSDOF 28
ENDMDL
MODEL 6
REMARK VINA RESULT:    -5.256      2.909     10.449
REMARK INTER + INTRA:         -18.083
REMARK INTER:                 -14.281
REMARK INTRA:                  -3.801
REMARK UNBOUND:                -4.223
REMARK SMILES CCCCCCCCCCCCCCCCCCCCCCCCCCCCCC(=O)[O-]
REMARK SMILES IDX 16 1 17 2 18 3 19 4 20 5 21 6 22 7 23 8 24 9 25 10 26 11
REMARK SMILES IDX 27 12 28 13 29 14 30 15 31 16 32 17 15 18 14 19 13 20 12 21
REMARK SMILES IDX 11 22 10 23 9 24 8 25 7 26 6 27 5 28 4 29 3 30 2 31 1 32
REMARK H PARENT
REMARK Flexibility Score: inf
ROOT
ATOM      1  C   UNL     1       0.517  12.634  26.452  1.00  0.00     0.000 C 
ENDROOT
BRANCH   1   2
ATOM      2  C   UNL     1       1.376  13.641  25.658  1.00  0.00     0.000 C 
BRANCH   2   3
ATOM      3  C   UNL     1       0.599  14.826  25.049  1.00  0.00     0.000 C 
BRANCH   3   4
ATOM      4  C   UNL     1       1.448  15.799  24.211  1.00  0.00     0.000 C 
BRANCH   4   5
ATOM      5  C   UNL     1       2.797  16.132  24.874  1.00  0.00     0.000 C 
BRANCH   5   6
ATOM      6  C   UNL     1       3.972  16.069  23.886  1.00  0.00     0.000 C 
BRANCH   6   7
ATOM      7  C   UNL     1       4.275  17.428  23.235  1.00  0.00     0.000 C 
BRANCH   7   8
ATOM      8  C   UNL     1       4.129  18.569  24.252  1.00  0.00     0.000 C 
BRANCH   8   9
ATOM      9  C   UNL     1       4.350  19.958  23.628  1.00  0.00     0.000 C 
BRANCH   9  10
ATOM     10  C   UNL     1       3.512  20.207  22.355  1.00  0.00     0.000 C 
BRANCH  10  11
ATOM     11  C   UNL     1       2.214  20.975  22.659  1.00  0.00     0.000 C 
BRANCH  11  12
ATOM     12  C   UNL     1       0.952  20.146  22.369  1.00  0.00     0.000 C 
BRANCH  12  13
ATOM     13  C   UNL     1       0.528  19.275  23.564  1.00  0.00     0.006 C 
BRANCH  13  14
ATOM     14  C   UNL     1      -0.021  20.112  24.727  1.00  0.00     0.053 C 
BRANCH  14  15
ATOM     15  C   UNL     1       0.922  20.141  25.890  1.00  0.00     0.041 C 
ATOM     16  O   UNL     1       1.333  21.242  26.344  1.00  0.00    -0.550 OA
ATOM     17  O   UNL     1       1.292  18.955  26.514  1.00  0.00    -0.550 OA
ENDBRANCH  14  15
ENDBRANCH  13  14
ENDBRANCH  12  13
ENDBRANCH  11  12
ENDBRANCH  10  11
ENDBRANCH   9  10
ENDBRANCH   8   9
ENDBRANCH   7   8
ENDBRANCH   6   7
ENDBRANCH   5   6
ENDBRANCH   4   5
ENDBRANCH   3   4
ENDBRANCH   2   3
ENDBRANCH   1   2
BRANCH   1  18
ATOM     18  C   UNL     1      -0.974  12.580  26.056  1.00  0.00     0.000 C 
BRANCH  18  19
ATOM     19  C   UNL     1      -1.957  13.021  27.158  1.00  0.00     0.000 C 
BRANCH  19  20
ATOM     20  C   UNL     1      -2.936  11.906  27.564  1.00  0.00     0.000 C 
BRANCH  20  21
ATOM     21  C   UNL     1      -2.223  10.663  28.123  1.00  0.00     0.000 C 
BRANCH  21  22
ATOM     22  C   UNL     1      -2.412   9.372  27.305  1.00  0.00     0.000 C 
BRANCH  22  23
ATOM     23  C   UNL     1      -3.507   9.473  26.221  1.00  0.00     0.000 C 
BRANCH  23  24
ATOM     24  C   UNL     1      -3.044   8.926  24.860  1.00  0.00    -0.000 C 
BRANCH  24  25
ATOM     25  C   UNL     1      -1.513   8.846  24.735  1.00  0.00    -0.000 C 
BRANCH  25  26
ATOM     26  C   UNL     1      -1.007   8.926  23.279  1.00  0.00    -0.000 C 
BRANCH  26  27
ATOM     27  C   UNL     1      -1.877   8.102  22.313  1.00  0.00    -0.000 C 
BRANCH  27  28
ATOM     28  C   UNL     1      -2.184   8.851  21.007  1.00  0.00    -0.000 C 
BRANCH  28  29
ATOM     29  C   UNL     1      -3.690   8.980  20.737  1.00  0.00    -0.000 C 
BRANCH  29  30
ATOM     30  C   UNL     1      -4.303  10.095  21.596  1.00  0.00    -0.000 C 
BRANCH  30  31
ATOM     31  C   UNL     1      -3.483  11.393  21.549  1.00  0.00    -0.003 C 
ATOM     32  C   UNL     1      -3.132  11.925  22.938  1.00  0.00     0.004 C 
ENDBRANCH  30  31
ENDBRANCH  29  30
ENDBRANCH  28  29
ENDBRANCH  27  28
ENDBRANCH  26  27
ENDBRANCH  25  26
ENDBRANCH  24  25
ENDBRANCH  23  24
ENDBRANCH  22  23
ENDBRANCH  21  22
ENDBRANCH  20  21
ENDBRANCH  19  20
ENDBRANCH  18  19
ENDBRANCH   1  18
TORSDOF 28
ENDMDL
MODEL 7
REMARK VINA RESULT:    -5.244      3.004     10.329
REMARK INTER + INTRA:         -18.050
REMARK INTER:                 -14.438
REMARK INTRA:                  -3.612
REMARK UNBOUND:                -4.223
REMARK SMILES CCCCCCCCCCCCCCCCCCCCCCCCCCCCCC(=O)[O-]
REMARK SMILES IDX 16 1 17 2 18 3 19 4 20 5 21 6 22 7 23 8 24 9 25 10 26 11
REMARK SMILES IDX 27 12 28 13 29 14 30 15 31 16 32 17 15 18 14 19 13 20 12 21
REMARK SMILES IDX 11 22 10 23 9 24 8 25 7 26 6 27 5 28 4 29 3 30 2 31 1 32
REMARK H PARENT
REMARK Flexibility Score: inf
ROOT
ATOM      1  C   UNL     1       0.247  13.653  26.205  1.00  0.00     0.000 C 
ENDROOT
BRANCH   1   2
ATOM      2  C   UNL     1       1.371  14.657  25.871  1.00  0.00     0.000 C 
BRANCH   2   3
ATOM      3  C   UNL     1       1.477  15.048  24.382  1.00  0.00     0.000 C 
BRANCH   3   4
ATOM      4  C   UNL     1       2.086  16.435  24.115  1.00  0.00     0.000 C 
BRANCH   4   5
ATOM      5  C   UNL     1       3.549  16.360  23.641  1.00  0.00     0.000 C 
BRANCH   5   6
ATOM      6  C   UNL     1       4.069  17.707  23.114  1.00  0.00     0.000 C 
BRANCH   6   7
ATOM      7  C   UNL     1       5.220  18.272  23.961  1.00  0.00     0.000 C 
BRANCH   7   8
ATOM      8  C   UNL     1       5.014  19.767  24.241  1.00  0.00     0.000 C 
BRANCH   8   9
ATOM      9  C   UNL     1       3.530  20.171  24.268  1.00  0.00     0.000 C 
BRANCH   9  10
ATOM     10  C   UNL     1       3.187  21.338  23.318  1.00  0.00     0.000 C 
BRANCH  10  11
ATOM     11  C   UNL     1       1.705  21.333  22.908  1.00  0.00     0.000 C 
BRANCH  11  12
ATOM     12  C   UNL     1       1.171  19.919  22.624  1.00  0.00     0.000 C 
BRANCH  12  13
ATOM     13  C   UNL     1       0.197  19.425  23.707  1.00  0.00     0.006 C 
BRANCH  13  14
ATOM     14  C   UNL     1      -0.653  20.564  24.286  1.00  0.00     0.053 C 
BRANCH  14  15
ATOM     15  C   UNL     1      -0.609  20.591  25.783  1.00  0.00     0.041 C 
ATOM     16  O   UNL     1      -1.677  20.525  26.449  1.00  0.00    -0.550 OA
ATOM     17  O   UNL     1       0.615  20.621  26.442  1.00  0.00    -0.550 OA
ENDBRANCH  14  15
ENDBRANCH  13  14
ENDBRANCH  12  13
ENDBRANCH  11  12
ENDBRANCH  10  11
ENDBRANCH   9  10
ENDBRANCH   8   9
ENDBRANCH   7   8
ENDBRANCH   6   7
ENDBRANCH   5   6
ENDBRANCH   4   5
ENDBRANCH   3   4
ENDBRANCH   2   3
ENDBRANCH   1   2
BRANCH   1  18
ATOM     18  C   UNL     1       0.713  12.211  26.497  1.00  0.00     0.000 C 
BRANCH  18  19
ATOM     19  C   UNL     1       1.797  11.671  25.544  1.00  0.00     0.000 C 
BRANCH  19  20
ATOM     20  C   UNL     1       1.684  10.154  25.313  1.00  0.00     0.000 C 
BRANCH  20  21
ATOM     21  C   UNL     1       0.248   9.630  25.489  1.00  0.00     0.000 C 
BRANCH  21  22
ATOM     22  C   UNL     1      -0.461   9.203  24.191  1.00  0.00     0.000 C 
BRANCH  22  23
ATOM     23  C   UNL     1      -1.728   8.352  24.420  1.00  0.00     0.000 C 
BRANCH  23  24
ATOM     24  C   UNL     1      -2.444   7.991  23.108  1.00  0.00    -0.000 C 
BRANCH  24  25
ATOM     25  C   UNL     1      -1.709   8.511  21.861  1.00  0.00    -0.000 C 
BRANCH  25  26
ATOM     26  C   UNL     1      -2.654   8.944  20.720  1.00  0.00    -0.000 C 
BRANCH  26  27
ATOM     27  C   UNL     1      -3.754   9.904  21.208  1.00  0.00    -0.000 C 
BRANCH  27  28
ATOM     28  C   UNL     1      -3.229  11.326  21.462  1.00  0.00    -0.000 C 
BRANCH  28  29
ATOM     29  C   UNL     1      -4.044  12.078  22.524  1.00  0.00    -0.000 C 
BRANCH  29  30
ATOM     30  C   UNL     1      -3.935  11.381  23.887  1.00  0.00    -0.000 C 
BRANCH  30  31
ATOM     31  C   UNL     1      -2.753  11.899  24.721  1.00  0.00    -0.003 C 
ATOM     32  C   UNL     1      -2.877  11.557  26.205  1.00  0.00     0.004 C 
ENDBRANCH  30  31
ENDBRANCH  29  30
ENDBRANCH  28  29
ENDBRANCH  27  28
ENDBRANCH  26  27
ENDBRANCH  25  26
ENDBRANCH  24  25
ENDBRANCH  23  24
ENDBRANCH  22  23
ENDBRANCH  21  22
ENDBRANCH  20  21
ENDBRANCH  19  20
ENDBRANCH  18  19
ENDBRANCH   1  18
TORSDOF 28
ENDMDL
MODEL 8
REMARK VINA RESULT:    -5.222      2.927     10.423
REMARK INTER + INTRA:         -17.992
REMARK INTER:                 -14.201
REMARK INTRA:                  -3.791
REMARK UNBOUND:                -4.223
REMARK SMILES CCCCCCCCCCCCCCCCCCCCCCCCCCCCCC(=O)[O-]
REMARK SMILES IDX 16 1 17 2 18 3 19 4 20 5 21 6 22 7 23 8 24 9 25 10 26 11
REMARK SMILES IDX 27 12 28 13 29 14 30 15 31 16 32 17 15 18 14 19 13 20 12 21
REMARK SMILES IDX 11 22 10 23 9 24 8 25 7 26 6 27 5 28 4 29 3 30 2 31 1 32
REMARK H PARENT
REMARK Flexibility Score: inf
ROOT
ATOM      1  C   UNL     1      -0.636  12.240  27.176  1.00  0.00     0.000 C 
ENDROOT
BRANCH   1   2
ATOM      2  C   UNL     1       0.498  12.690  26.231  1.00  0.00     0.000 C 
BRANCH   2   3
ATOM      3  C   UNL     1       0.464  14.180  25.831  1.00  0.00     0.000 C 
BRANCH   3   4
ATOM      4  C   UNL     1       1.838  14.808  25.542  1.00  0.00     0.000 C 
BRANCH   4   5
ATOM      5  C   UNL     1       2.105  14.985  24.037  1.00  0.00     0.000 C 
BRANCH   5   6
ATOM      6  C   UNL     1       2.229  16.461  23.628  1.00  0.00     0.000 C 
BRANCH   6   7
ATOM      7  C   UNL     1       3.472  17.140  24.223  1.00  0.00     0.000 C 
BRANCH   7   8
ATOM      8  C   UNL     1       4.238  17.926  23.149  1.00  0.00     0.000 C 
BRANCH   8   9
ATOM      9  C   UNL     1       4.785  19.268  23.665  1.00  0.00     0.000 C 
BRANCH   9  10
ATOM     10  C   UNL     1       3.756  20.417  23.618  1.00  0.00     0.000 C 
BRANCH  10  11
ATOM     11  C   UNL     1       2.890  20.366  22.348  1.00  0.00     0.000 C 
BRANCH  11  12
ATOM     12  C   UNL     1       1.395  20.576  22.638  1.00  0.00     0.000 C 
BRANCH  12  13
ATOM     13  C   UNL     1       0.939  19.877  23.931  1.00  0.00     0.006 C 
BRANCH  13  14
ATOM     14  C   UNL     1       0.104  20.802  24.827  1.00  0.00     0.053 C 
BRANCH  14  15
ATOM     15  C   UNL     1      -1.348  20.435  24.812  1.00  0.00     0.041 C 
ATOM     16  O   UNL     1      -2.094  20.764  25.773  1.00  0.00    -0.550 OA
ATOM     17  O   UNL     1      -1.890  19.789  23.706  1.00  0.00    -0.550 OA
ENDBRANCH  14  15
ENDBRANCH  13  14
ENDBRANCH  12  13
ENDBRANCH  11  12
ENDBRANCH  10  11
ENDBRANCH   9  10
ENDBRANCH   8   9
ENDBRANCH   7   8
ENDBRANCH   6   7
ENDBRANCH   5   6
ENDBRANCH   4   5
ENDBRANCH   3   4
ENDBRANCH   2   3
ENDBRANCH   1   2
BRANCH   1  18
ATOM     18  C   UNL     1      -1.984  12.969  26.986  1.00  0.00     0.000 C 
BRANCH  18  19
ATOM     19  C   UNL     1      -3.225  12.055  26.997  1.00  0.00     0.000 C 
BRANCH  19  20
ATOM     20  C   UNL     1      -3.097  10.865  26.030  1.00  0.00     0.000 C 
BRANCH  20  21
ATOM     21  C   UNL     1      -3.742  11.139  24.660  1.00  0.00     0.000 C 
BRANCH  21  22
ATOM     22  C   UNL     1      -2.863  11.918  23.664  1.00  0.00     0.000 C 
BRANCH  22  23
ATOM     23  C   UNL     1      -3.353  11.838  22.202  1.00  0.00     0.000 C 
BRANCH  23  24
ATOM     24  C   UNL     1      -4.240  10.609  21.941  1.00  0.00    -0.000 C 
BRANCH  24  25
ATOM     25  C   UNL     1      -3.638   9.643  20.907  1.00  0.00    -0.000 C 
BRANCH  25  26
ATOM     26  C   UNL     1      -2.452   8.817  21.449  1.00  0.00    -0.000 C 
BRANCH  26  27
ATOM     27  C   UNL     1      -2.845   7.962  22.667  1.00  0.00    -0.000 C 
BRANCH  27  28
ATOM     28  C   UNL     1      -1.891   8.153  23.857  1.00  0.00    -0.000 C 
BRANCH  28  29
ATOM     29  C   UNL     1      -0.663   9.003  23.502  1.00  0.00    -0.000 C 
BRANCH  29  30
ATOM     30  C   UNL     1       0.089   9.428  24.771  1.00  0.00    -0.000 C 
BRANCH  30  31
ATOM     31  C   UNL     1       1.599   9.585  24.537  1.00  0.00    -0.003 C 
ATOM     32  C   UNL     1       2.422   9.379  25.807  1.00  0.00     0.004 C 
ENDBRANCH  30  31
ENDBRANCH  29  30
ENDBRANCH  28  29
ENDBRANCH  27  28
ENDBRANCH  26  27
ENDBRANCH  25  26
ENDBRANCH  24  25
ENDBRANCH  23  24
ENDBRANCH  22  23
ENDBRANCH  21  22
ENDBRANCH  20  21
ENDBRANCH  19  20
ENDBRANCH  18  19
ENDBRANCH   1  18
TORSDOF 28
ENDMDL
MODEL 9
REMARK VINA RESULT:    -5.173      2.022      3.327
REMARK INTER + INTRA:         -17.863
REMARK INTER:                 -14.108
REMARK INTRA:                  -3.755
REMARK UNBOUND:                -4.223
REMARK SMILES CCCCCCCCCCCCCCCCCCCCCCCCCCCCCC(=O)[O-]
REMARK SMILES IDX 16 1 17 2 18 3 19 4 20 5 21 6 22 7 23 8 24 9 25 10 26 11
REMARK SMILES IDX 27 12 28 13 29 14 30 15 31 16 32 17 15 18 14 19 13 20 12 21
REMARK SMILES IDX 11 22 10 23 9 24 8 25 7 26 6 27 5 28 4 29 3 30 2 31 1 32
REMARK H PARENT
REMARK Flexibility Score: inf
ROOT
ATOM      1  C   UNL     1       1.445  12.498  25.770  1.00  0.00     0.000 C 
ENDROOT
BRANCH   1   2
ATOM      2  C   UNL     1       0.267  12.846  26.704  1.00  0.00     0.000 C 
BRANCH   2   3
ATOM      3  C   UNL     1      -1.128  12.787  26.048  1.00  0.00     0.000 C 
BRANCH   3   4
ATOM      4  C   UNL     1      -2.261  12.304  26.970  1.00  0.00     0.000 C 
BRANCH   4   5
ATOM      5  C   UNL     1      -1.755  11.405  28.112  1.00  0.00     0.000 C 
BRANCH   5   6
ATOM      6  C   UNL     1      -2.489  10.056  28.173  1.00  0.00     0.000 C 
BRANCH   6   7
ATOM      7  C   UNL     1      -2.615   9.386  26.796  1.00  0.00     0.000 C 
BRANCH   7   8
ATOM      8  C   UNL     1      -1.258   8.846  26.321  1.00  0.00     0.000 C 
BRANCH   8   9
ATOM      9  C   UNL     1      -0.919   9.266  24.880  1.00  0.00     0.000 C 
BRANCH   9  10
ATOM     10  C   UNL     1      -1.750   8.531  23.807  1.00  0.00     0.000 C 
BRANCH  10  11
ATOM     11  C   UNL     1      -1.211   8.780  22.389  1.00  0.00     0.000 C 
BRANCH  11  12
ATOM     12  C   UNL     1      -2.274   8.553  21.301  1.00  0.00     0.000 C 
BRANCH  12  13
ATOM     13  C   UNL     1      -3.538   9.401  21.522  1.00  0.00     0.006 C 
BRANCH  13  14
ATOM     14  C   UNL     1      -3.270  10.901  21.336  1.00  0.00     0.053 C 
BRANCH  14  15
ATOM     15  C   UNL     1      -3.899  11.721  22.420  1.00  0.00     0.041 C 
ATOM     16  O   UNL     1      -4.808  12.548  22.142  1.00  0.00    -0.550 OA
ATOM     17  O   UNL     1      -3.528  11.523  23.746  1.00  0.00    -0.550 OA
ENDBRANCH  14  15
ENDBRANCH  13  14
ENDBRANCH  12  13
ENDBRANCH  11  12
ENDBRANCH  10  11
ENDBRANCH   9  10
ENDBRANCH   8   9
ENDBRANCH   7   8
ENDBRANCH   6   7
ENDBRANCH   5   6
ENDBRANCH   4   5
ENDBRANCH   3   4
ENDBRANCH   2   3
ENDBRANCH   1   2
BRANCH   1  18
ATOM     18  C   UNL     1       2.144  13.705  25.108  1.00  0.00     0.000 C 
BRANCH  18  19
ATOM     19  C   UNL     1       1.577  15.083  25.502  1.00  0.00     0.000 C 
BRANCH  19  20
ATOM     20  C   UNL     1       2.611  16.213  25.365  1.00  0.00     0.000 C 
BRANCH  20  21
ATOM     21  C   UNL     1       3.329  16.202  24.004  1.00  0.00     0.000 C 
BRANCH  21  22
ATOM     22  C   UNL     1       3.520  17.583  23.351  1.00  0.00     0.000 C 
BRANCH  22  23
ATOM     23  C   UNL     1       4.876  18.247  23.676  1.00  0.00     0.000 C 
BRANCH  23  24
ATOM     24  C   UNL     1       4.836  19.777  23.528  1.00  0.00    -0.000 C 
BRANCH  24  25
ATOM     25  C   UNL     1       4.601  20.503  24.864  1.00  0.00    -0.000 C 
BRANCH  25  26
ATOM     26  C   UNL     1       3.674  21.731  24.746  1.00  0.00    -0.000 C 
BRANCH  26  27
ATOM     27  C   UNL     1       2.391  21.577  25.583  1.00  0.00    -0.000 C 
BRANCH  27  28
ATOM     28  C   UNL     1       2.295  20.207  26.273  1.00  0.00    -0.000 C 
BRANCH  28  29
ATOM     29  C   UNL     1       0.983  19.475  25.957  1.00  0.00    -0.000 C 
BRANCH  29  30
ATOM     30  C   UNL     1       0.271  20.126  24.763  1.00  0.00    -0.000 C 
BRANCH  30  31
ATOM     31  C   UNL     1       0.501  19.359  23.451  1.00  0.00    -0.003 C 
ATOM     32  C   UNL     1       1.131  20.224  22.360  1.00  0.00     0.004 C 
ENDBRANCH  30  31
ENDBRANCH  29  30
ENDBRANCH  28  29
ENDBRANCH  27  28
ENDBRANCH  26  27
ENDBRANCH  25  26
ENDBRANCH  24  25
ENDBRANCH  23  24
ENDBRANCH  22  23
ENDBRANCH  21  22
ENDBRANCH  20  21
ENDBRANCH  19  20
ENDBRANCH  18  19
ENDBRANCH   1  18
TORSDOF 28
ENDMDL
