MODEL 1
REMARK VINA RESULT:    -4.364      0.000      0.000
REMARK INTER + INTRA:          -4.784
REMARK INTER:                  -4.619
REMARK INTRA:                  -0.164
REMARK UNBOUND:                -0.164
REMARK SMILES CC1=CC=C(C(C)C)CC1
REMARK SMILES IDX 1 1 2 2 3 3 4 4 5 5 9 6 10 7 6 8 7 9 8 10
REMARK H PARENT
REMARK Flexibility Score: inf
ROOT
ATOM      1  C   UNL     1     161.970 163.475 198.114  1.00  0.00     0.039 C 
ATOM      2  C   UNL     1     163.327 163.117 198.645  1.00  0.00    -0.073 C 
ATOM      3  C   UNL     1     164.088 162.227 197.989  1.00  0.00    -0.001 C 
ATOM      4  C   UNL     1     165.425 161.859 198.495  1.00  0.00    -0.001 C 
ATOM      5  C   UNL     1     165.818 162.215 199.732  1.00  0.00    -0.067 C 
ATOM      6  C   UNL     1     164.824 162.902 200.650  1.00  0.00     0.035 C 
ATOM      7  C   UNL     1     163.881 163.822 199.861  1.00  0.00     0.035 C 
ENDROOT
BRANCH   5   8
ATOM      8  C   UNL     1     167.221 161.884 200.211  1.00  0.00     0.009 C 
ATOM      9  C   UNL     1     168.270 162.593 199.347  1.00  0.00     0.012 C 
ATOM     10  C   UNL     1     167.399 162.235 201.693  1.00  0.00     0.012 C 
ENDBRANCH   5   8
TORSDOF 1
ENDMDL
MODEL 2
REMARK VINA RESULT:    -4.357      6.360      7.979
REMARK INTER + INTRA:          -4.776
REMARK INTER:                  -4.612
REMARK INTRA:                  -0.164
REMARK UNBOUND:                -0.164
REMARK SMILES CC1=CC=C(C(C)C)CC1
REMARK SMILES IDX 1 1 2 2 3 3 4 4 5 5 9 6 10 7 6 8 7 9 8 10
REMARK H PARENT
REMARK Flexibility Score: inf
ROOT
ATOM      1  C   UNL     1     169.984 168.494 198.130  1.00  0.00     0.039 C 
ATOM      2  C   UNL     1     168.626 168.866 198.650  1.00  0.00    -0.073 C 
ATOM      3  C   UNL     1     167.888 169.779 198.001  1.00  0.00    -0.001 C 
ATOM      4  C   UNL     1     166.552 170.162 198.496  1.00  0.00    -0.001 C 
ATOM      5  C   UNL     1     166.137 169.792 199.722  1.00  0.00    -0.067 C 
ATOM      6  C   UNL     1     167.108 169.073 200.640  1.00  0.00     0.035 C 
ATOM      7  C   UNL     1     168.045 168.151 199.848  1.00  0.00     0.035 C 
ENDROOT
BRANCH   5   8
ATOM      8  C   UNL     1     164.734 170.138 200.189  1.00  0.00     0.009 C 
ATOM      9  C   UNL     1     163.684 169.439 199.319  1.00  0.00     0.012 C 
ATOM     10  C   UNL     1     164.541 169.794 201.670  1.00  0.00     0.012 C 
ENDBRANCH   5   8
TORSDOF 1
ENDMDL
MODEL 3
REMARK VINA RESULT:    -4.272      6.320      7.431
REMARK INTER + INTRA:          -4.686
REMARK INTER:                  -4.513
REMARK INTRA:                  -0.173
REMARK UNBOUND:                -0.164
REMARK SMILES CC1=CC=C(C(C)C)CC1
REMARK SMILES IDX 1 1 2 2 3 3 4 4 5 5 9 6 10 7 6 8 7 9 8 10
REMARK H PARENT
REMARK Flexibility Score: inf
ROOT
ATOM      1  C   UNL     1     163.466 168.966 197.853  1.00  0.00     0.039 C 
ATOM      2  C   UNL     1     163.585 169.030 199.348  1.00  0.00    -0.073 C 
ATOM      3  C   UNL     1     164.507 169.825 199.912  1.00  0.00    -0.001 C 
ATOM      4  C   UNL     1     164.643 169.900 201.379  1.00  0.00    -0.001 C 
ATOM      5  C   UNL     1     164.022 169.013 202.178  1.00  0.00    -0.067 C 
ATOM      6  C   UNL     1     163.269 167.857 201.546  1.00  0.00     0.035 C 
ATOM      7  C   UNL     1     162.611 168.277 200.224  1.00  0.00     0.035 C 
ENDROOT
BRANCH   5   8
ATOM      8  C   UNL     1     164.120 169.146 203.688  1.00  0.00     0.009 C 
ATOM      9  C   UNL     1     164.317 170.612 204.092  1.00  0.00     0.012 C 
ATOM     10  C   UNL     1     162.892 168.545 204.379  1.00  0.00     0.012 C 
ENDBRANCH   5   8
TORSDOF 1
ENDMDL
MODEL 4
REMARK VINA RESULT:    -4.263      3.238      4.552
REMARK INTER + INTRA:          -4.677
REMARK INTER:                  -4.504
REMARK INTRA:                  -0.173
REMARK UNBOUND:                -0.164
REMARK SMILES CC1=CC=C(C(C)C)CC1
REMARK SMILES IDX 1 1 2 2 3 3 4 4 5 5 9 6 10 7 6 8 7 9 8 10
REMARK H PARENT
REMARK Flexibility Score: inf
ROOT
ATOM      1  C   UNL     1     168.522 163.021 197.878  1.00  0.00     0.039 C 
ATOM      2  C   UNL     1     168.413 162.960 199.373  1.00  0.00    -0.073 C 
ATOM      3  C   UNL     1     167.503 162.157 199.945  1.00  0.00    -0.001 C 
ATOM      4  C   UNL     1     167.378 162.083 201.414  1.00  0.00    -0.001 C 
ATOM      5  C   UNL     1     167.996 162.978 202.206  1.00  0.00    -0.067 C 
ATOM      6  C   UNL     1     168.732 164.141 201.566  1.00  0.00     0.035 C 
ATOM      7  C   UNL     1     169.386 163.725 200.241  1.00  0.00     0.035 C 
ENDROOT
BRANCH   5   8
ATOM      8  C   UNL     1     167.910 162.848 203.717  1.00  0.00     0.009 C 
ATOM      9  C   UNL     1     167.670 161.389 204.123  1.00  0.00     0.012 C 
ATOM     10  C   UNL     1     169.164 163.410 204.396  1.00  0.00     0.012 C 
ENDBRANCH   5   8
TORSDOF 1
ENDMDL
MODEL 5
REMARK VINA RESULT:    -4.206      6.099      6.896
REMARK INTER + INTRA:          -4.617
REMARK INTER:                  -4.451
REMARK INTRA:                  -0.165
REMARK UNBOUND:                -0.164
REMARK SMILES CC1=CC=C(C(C)C)CC1
REMARK SMILES IDX 1 1 2 2 3 3 4 4 5 5 9 6 10 7 6 8 7 9 8 10
REMARK H PARENT
REMARK Flexibility Score: inf
ROOT
ATOM      1  C   UNL     1     162.076 168.734 199.540  1.00  0.00     0.039 C 
ATOM      2  C   UNL     1     163.564 168.909 199.633  1.00  0.00    -0.073 C 
ATOM      3  C   UNL     1     164.118 169.324 200.782  1.00  0.00    -0.001 C 
ATOM      4  C   UNL     1     165.578 169.505 200.894  1.00  0.00    -0.001 C 
ATOM      5  C   UNL     1     166.363 169.490 199.801  1.00  0.00    -0.067 C 
ATOM      6  C   UNL     1     165.714 169.402 198.432  1.00  0.00     0.035 C 
ATOM      7  C   UNL     1     164.451 168.530 198.469  1.00  0.00     0.035 C 
ENDROOT
BRANCH   5   8
ATOM      8  C   UNL     1     167.870 169.612 199.942  1.00  0.00     0.009 C 
ATOM      9  C   UNL     1     168.434 168.451 200.768  1.00  0.00     0.012 C 
ATOM     10  C   UNL     1     168.551 169.695 198.571  1.00  0.00     0.012 C 
ENDBRANCH   5   8
TORSDOF 1
ENDMDL
MODEL 6
REMARK VINA RESULT:    -4.206      0.988      4.225
REMARK INTER + INTRA:          -4.616
REMARK INTER:                  -4.472
REMARK INTRA:                  -0.144
REMARK UNBOUND:                -0.164
REMARK SMILES CC1=CC=C(C(C)C)CC1
REMARK SMILES IDX 1 1 2 2 3 3 4 4 5 5 9 6 10 7 6 8 7 9 8 10
REMARK H PARENT
REMARK Flexibility Score: inf
ROOT
ATOM      1  C   UNL     1     167.912 163.040 202.934  1.00  0.00     0.039 C 
ATOM      2  C   UNL     1     166.929 162.728 201.845  1.00  0.00    -0.073 C 
ATOM      3  C   UNL     1     167.355 162.179 200.697  1.00  0.00    -0.001 C 
ATOM      4  C   UNL     1     166.405 161.866 199.611  1.00  0.00    -0.001 C 
ATOM      5  C   UNL     1     165.142 162.330 199.642  1.00  0.00    -0.067 C 
ATOM      6  C   UNL     1     164.736 163.282 200.752  1.00  0.00     0.035 C 
ATOM      7  C   UNL     1     165.449 162.939 202.068  1.00  0.00     0.035 C 
ENDROOT
BRANCH   5   8
ATOM      8  C   UNL     1     164.160 161.943 198.550  1.00  0.00     0.009 C 
ATOM      9  C   UNL     1     163.020 162.964 198.458  1.00  0.00     0.012 C 
ATOM     10  C   UNL     1     164.866 161.783 197.199  1.00  0.00     0.012 C 
ENDBRANCH   5   8
TORSDOF 1
ENDMDL
MODEL 7
REMARK VINA RESULT:    -4.206      6.898      7.619
REMARK INTER + INTRA:          -4.616
REMARK INTER:                  -4.471
REMARK INTRA:                  -0.145
REMARK UNBOUND:                -0.164
REMARK SMILES CC1=CC=C(C(C)C)CC1
REMARK SMILES IDX 1 1 2 2 3 3 4 4 5 5 9 6 10 7 6 8 7 9 8 10
REMARK H PARENT
REMARK Flexibility Score: inf
ROOT
ATOM      1  C   UNL     1     164.113 169.005 202.957  1.00  0.00     0.039 C 
ATOM      2  C   UNL     1     165.079 169.311 201.850  1.00  0.00    -0.073 C 
ATOM      3  C   UNL     1     164.633 169.837 200.699  1.00  0.00    -0.001 C 
ATOM      4  C   UNL     1     165.565 170.143 199.597  1.00  0.00    -0.001 C 
ATOM      5  C   UNL     1     166.833 169.693 199.619  1.00  0.00    -0.067 C 
ATOM      6  C   UNL     1     167.264 168.764 200.739  1.00  0.00     0.035 C 
ATOM      7  C   UNL     1     166.564 169.120 202.058  1.00  0.00     0.035 C 
ENDROOT
BRANCH   5   8
ATOM      8  C   UNL     1     167.797 170.073 198.509  1.00  0.00     0.009 C 
ATOM      9  C   UNL     1     168.970 169.088 198.447  1.00  0.00     0.012 C 
ATOM     10  C   UNL     1     167.080 170.162 197.157  1.00  0.00     0.012 C 
ENDBRANCH   5   8
TORSDOF 1
ENDMDL
MODEL 8
REMARK VINA RESULT:    -4.132      6.626      7.878
REMARK INTER + INTRA:          -4.538
REMARK INTER:                  -4.396
REMARK INTRA:                  -0.142
REMARK UNBOUND:                -0.164
REMARK SMILES CC1=CC=C(C(C)C)CC1
REMARK SMILES IDX 1 1 2 2 3 3 4 4 5 5 9 6 10 7 6 8 7 9 8 10
REMARK H PARENT
REMARK Flexibility Score: inf
ROOT
ATOM      1  C   UNL     1     169.020 169.083 198.402  1.00  0.00     0.039 C 
ATOM      2  C   UNL     1     167.861 169.282 199.335  1.00  0.00    -0.073 C 
ATOM      3  C   UNL     1     167.901 168.762 200.571  1.00  0.00    -0.001 C 
ATOM      4  C   UNL     1     166.771 168.943 201.503  1.00  0.00    -0.001 C 
ATOM      5  C   UNL     1     165.590 169.423 201.073  1.00  0.00    -0.067 C 
ATOM      6  C   UNL     1     165.392 169.666 199.588  1.00  0.00     0.035 C 
ATOM      7  C   UNL     1     166.691 170.146 198.925  1.00  0.00     0.035 C 
ENDROOT
BRANCH   5   8
ATOM      8  C   UNL     1     164.460 169.665 202.059  1.00  0.00     0.009 C 
ATOM      9  C   UNL     1     163.534 168.446 202.134  1.00  0.00     0.012 C 
ATOM     10  C   UNL     1     165.002 170.033 203.445  1.00  0.00     0.012 C 
ENDBRANCH   5   8
TORSDOF 1
ENDMDL
MODEL 9
REMARK VINA RESULT:    -4.126      6.560      7.076
REMARK INTER + INTRA:          -4.532
REMARK INTER:                  -4.389
REMARK INTRA:                  -0.142
REMARK UNBOUND:                -0.164
REMARK SMILES CC1=CC=C(C(C)C)CC1
REMARK SMILES IDX 1 1 2 2 3 3 4 4 5 5 9 6 10 7 6 8 7 9 8 10
REMARK H PARENT
REMARK Flexibility Score: inf
ROOT
ATOM      1  C   UNL     1     162.238 168.627 199.958  1.00  0.00     0.039 C 
ATOM      2  C   UNL     1     163.551 169.011 199.341  1.00  0.00    -0.073 C 
ATOM      3  C   UNL     1     163.889 168.532 198.134  1.00  0.00    -0.001 C 
ATOM      4  C   UNL     1     165.177 168.895 197.511  1.00  0.00    -0.001 C 
ATOM      5  C   UNL     1     166.139 169.513 198.221  1.00  0.00    -0.067 C 
ATOM      6  C   UNL     1     165.930 169.729 199.708  1.00  0.00     0.035 C 
ATOM      7  C   UNL     1     164.455 170.009 200.029  1.00  0.00     0.035 C 
ENDROOT
BRANCH   5   8
ATOM      8  C   UNL     1     167.431 169.938 197.546  1.00  0.00     0.009 C 
ATOM      9  C   UNL     1     168.609 169.846 198.522  1.00  0.00     0.012 C 
ATOM     10  C   UNL     1     167.697 169.111 196.283  1.00  0.00     0.012 C 
ENDBRANCH   5   8
TORSDOF 1
ENDMDL
