MODEL 1
REMARK VINA RESULT:    -5.672      0.000      0.000
REMARK INTER + INTRA:          -6.486
REMARK INTER:                  -6.335
REMARK INTRA:                  -0.151
REMARK UNBOUND:                -0.151
REMARK SMILES C=CCc1ccc2c(c1)OCO2
REMARK SMILES IDX 3 1 2 2 1 3 4 4 9 5 5 6 8 7 6 8 7 9 10 10 12 11 11 12
REMARK H PARENT
REMARK Flexibility Score: inf
ROOT
ATOM      1  C   UNL     1      11.385  19.740  -2.499  1.00  0.00     0.062 C 
ENDROOT
BRANCH   1   2
ATOM      2  C   UNL     1      11.469  19.644  -3.997  1.00  0.00    -0.030 C 
ATOM      3  C   UNL     1      10.632  18.875  -4.699  1.00  0.00     0.004 C 
ENDBRANCH   1   2
BRANCH   1   4
ATOM      4  C   UNL     1      12.317  20.802  -1.980  1.00  0.00    -0.040 A 
ATOM      5  C   UNL     1      12.470  22.014  -2.689  1.00  0.00     0.054 A 
ATOM      6  C   UNL     1      13.012  20.611  -0.757  1.00  0.00     0.008 A 
ATOM      7  C   UNL     1      13.321  22.979  -2.157  1.00  0.00     0.166 A 
ATOM      8  C   UNL     1      13.862  21.612  -0.255  1.00  0.00     0.051 A 
ATOM      9  C   UNL     1      13.988  22.786  -0.991  1.00  0.00     0.165 A 
ATOM     10  O   UNL     1      13.631  24.227  -2.662  1.00  0.00    -0.454 OA
ATOM     11  O   UNL     1      14.752  23.902  -0.707  1.00  0.00    -0.454 OA
ATOM     12  C   UNL     1      14.551  24.856  -1.759  1.00  0.00     0.468 C 
ENDBRANCH   1   4
TORSDOF 2
ENDMDL
MODEL 2
REMARK VINA RESULT:    -5.563      2.662      4.978
REMARK INTER + INTRA:          -6.364
REMARK INTER:                  -6.177
REMARK INTRA:                  -0.187
REMARK UNBOUND:                -0.151
REMARK SMILES C=CCc1ccc2c(c1)OCO2
REMARK SMILES IDX 3 1 2 2 1 3 4 4 9 5 5 6 8 7 6 8 7 9 10 10 12 11 11 12
REMARK H PARENT
REMARK Flexibility Score: inf
ROOT
ATOM      1  C   UNL     1      13.405  22.587  -0.418  1.00  0.00     0.062 C 
ENDROOT
BRANCH   1   2
ATOM      2  C   UNL     1      14.884  22.850  -0.458  1.00  0.00    -0.030 C 
ATOM      3  C   UNL     1      15.776  21.855  -0.454  1.00  0.00     0.004 C 
ENDBRANCH   1   2
BRANCH   1   4
ATOM      4  C   UNL     1      12.949  21.910  -1.682  1.00  0.00    -0.040 A 
ATOM      5  C   UNL     1      12.108  20.777  -1.611  1.00  0.00     0.054 A 
ATOM      6  C   UNL     1      13.324  22.428  -2.949  1.00  0.00     0.008 A 
ATOM      7  C   UNL     1      11.687  20.200  -2.807  1.00  0.00     0.166 A 
ATOM      8  C   UNL     1      12.877  21.813  -4.132  1.00  0.00     0.051 A 
ATOM      9  C   UNL     1      12.057  20.696  -4.014  1.00  0.00     0.165 A 
ATOM     10  O   UNL     1      10.874  19.099  -2.991  1.00  0.00    -0.454 OA
ATOM     11  O   UNL     1      11.495  19.931  -5.018  1.00  0.00    -0.454 OA
ATOM     12  C   UNL     1      10.724  18.889  -4.402  1.00  0.00     0.468 C 
ENDBRANCH   1   4
TORSDOF 2
ENDMDL
MODEL 3
REMARK VINA RESULT:    -5.293      1.567      1.852
REMARK INTER + INTRA:          -6.063
REMARK INTER:                  -5.879
REMARK INTRA:                  -0.184
REMARK UNBOUND:                -0.151
REMARK SMILES C=CCc1ccc2c(c1)OCO2
REMARK SMILES IDX 3 1 2 2 1 3 4 4 9 5 5 6 8 7 6 8 7 9 10 10 12 11 11 12
REMARK H PARENT
REMARK Flexibility Score: inf
ROOT
ATOM      1  C   UNL     1      12.199  20.212  -4.645  1.00  0.00     0.062 C 
ENDROOT
BRANCH   1   2
ATOM      2  C   UNL     1      11.328  19.008  -4.420  1.00  0.00    -0.030 C 
ATOM      3  C   UNL     1      10.143  18.875  -5.023  1.00  0.00     0.004 C 
ENDBRANCH   1   2
BRANCH   1   4
ATOM      4  C   UNL     1      12.622  20.817  -3.334  1.00  0.00    -0.040 A 
ATOM      5  C   UNL     1      13.949  21.267  -3.161  1.00  0.00     0.054 A 
ATOM      6  C   UNL     1      11.682  20.978  -2.283  1.00  0.00     0.008 A 
ATOM      7  C   UNL     1      14.289  21.847  -1.940  1.00  0.00     0.166 A 
ATOM      8  C   UNL     1      12.067  21.569  -1.066  1.00  0.00     0.051 A 
ATOM      9  C   UNL     1      13.387  21.990  -0.937  1.00  0.00     0.165 A 
ATOM     10  O   UNL     1      15.509  22.353  -1.538  1.00  0.00    -0.454 OA
ATOM     11  O   UNL     1      13.996  22.593   0.147  1.00  0.00    -0.454 OA
ATOM     12  C   UNL     1      15.366  22.845  -0.198  1.00  0.00     0.468 C 
ENDBRANCH   1   4
TORSDOF 2
ENDMDL
MODEL 4
REMARK VINA RESULT:    -5.216      2.454      4.691
REMARK INTER + INTRA:          -5.976
REMARK INTER:                  -6.008
REMARK INTRA:                   0.032
REMARK UNBOUND:                -0.151
REMARK SMILES C=CCc1ccc2c(c1)OCO2
REMARK SMILES IDX 3 1 2 2 1 3 4 4 9 5 5 6 8 7 6 8 7 9 10 10 12 11 11 12
REMARK H PARENT
REMARK Flexibility Score: inf
ROOT
ATOM      1  C   UNL     1      14.644  23.328  -1.162  1.00  0.00     0.062 C 
ENDROOT
BRANCH   1   2
ATOM      2  C   UNL     1      14.348  24.704  -1.687  1.00  0.00    -0.030 C 
ATOM      3  C   UNL     1      13.584  24.896  -2.766  1.00  0.00     0.004 C 
ENDBRANCH   1   2
BRANCH   1   4
ATOM      4  C   UNL     1      13.705  22.315  -1.760  1.00  0.00    -0.040 A 
ATOM      5  C   UNL     1      14.141  21.489  -2.819  1.00  0.00     0.054 A 
ATOM      6  C   UNL     1      12.396  22.155  -1.236  1.00  0.00     0.008 A 
ATOM      7  C   UNL     1      13.247  20.547  -3.323  1.00  0.00     0.166 A 
ATOM      8  C   UNL     1      11.525  21.191  -1.775  1.00  0.00     0.051 A 
ATOM      9  C   UNL     1      11.994  20.405  -2.822  1.00  0.00     0.165 A 
ATOM     10  O   UNL     1      13.439  19.639  -4.345  1.00  0.00    -0.454 OA
ATOM     11  O   UNL     1      11.335  19.401  -3.506  1.00  0.00    -0.454 OA
ATOM     12  C   UNL     1      12.232  18.880  -4.498  1.00  0.00     0.468 C 
ENDBRANCH   1   4
TORSDOF 2
ENDMDL
MODEL 5
REMARK VINA RESULT:    -5.180      2.469      4.391
REMARK INTER + INTRA:          -5.937
REMARK INTER:                  -5.937
REMARK INTRA:                   0.001
REMARK UNBOUND:                -0.151
REMARK SMILES C=CCc1ccc2c(c1)OCO2
REMARK SMILES IDX 3 1 2 2 1 3 4 4 9 5 5 6 8 7 6 8 7 9 10 10 12 11 11 12
REMARK H PARENT
REMARK Flexibility Score: inf
ROOT
ATOM      1  C   UNL     1      13.738  24.684  -2.657  1.00  0.00     0.062 C 
ENDROOT
BRANCH   1   2
ATOM      2  C   UNL     1      12.887  25.262  -3.753  1.00  0.00    -0.030 C 
ATOM      3  C   UNL     1      13.307  25.306  -5.020  1.00  0.00     0.004 C 
ENDBRANCH   1   2
BRANCH   1   4
ATOM      4  C   UNL     1      13.301  23.283  -2.325  1.00  0.00    -0.040 A 
ATOM      5  C   UNL     1      12.951  22.389  -3.361  1.00  0.00     0.054 A 
ATOM      6  C   UNL     1      13.279  22.839  -0.977  1.00  0.00     0.008 A 
ATOM      7  C   UNL     1      12.580  21.093  -3.008  1.00  0.00     0.166 A 
ATOM      8  C   UNL     1      12.898  21.522  -0.664  1.00  0.00     0.051 A 
ATOM      9  C   UNL     1      12.554  20.679  -1.716  1.00  0.00     0.165 A 
ATOM     10  O   UNL     1      12.198  20.053  -3.832  1.00  0.00    -0.454 OA
ATOM     11  O   UNL     1      12.153  19.358  -1.664  1.00  0.00    -0.454 OA
ATOM     12  C   UNL     1      11.913  18.915  -3.008  1.00  0.00     0.468 C 
ENDBRANCH   1   4
TORSDOF 2
ENDMDL
MODEL 6
REMARK VINA RESULT:    -3.608      1.676      2.057
REMARK INTER + INTRA:          -4.181
REMARK INTER:                  -4.196
REMARK INTRA:                   0.016
REMARK UNBOUND:                -0.151
REMARK SMILES C=CCc1ccc2c(c1)OCO2
REMARK SMILES IDX 3 1 2 2 1 3 4 4 9 5 5 6 8 7 6 8 7 9 10 10 12 11 11 12
REMARK H PARENT
REMARK Flexibility Score: inf
ROOT
ATOM      1  C   UNL     1      12.341  20.696  -4.521  1.00  0.00     0.062 C 
ENDROOT
BRANCH   1   2
ATOM      2  C   UNL     1      11.882  19.275  -4.358  1.00  0.00    -0.030 C 
ATOM      3  C   UNL     1      11.106  18.900  -3.336  1.00  0.00     0.004 C 
ENDBRANCH   1   2
BRANCH   1   4
ATOM      4  C   UNL     1      12.989  21.196  -3.259  1.00  0.00    -0.040 A 
ATOM      5  C   UNL     1      12.201  21.793  -2.249  1.00  0.00     0.054 A 
ATOM      6  C   UNL     1      14.385  21.033  -3.056  1.00  0.00     0.008 A 
ATOM      7  C   UNL     1      12.839  22.215  -1.086  1.00  0.00     0.166 A 
ATOM      8  C   UNL     1      14.989  21.475  -1.865  1.00  0.00     0.051 A 
ATOM      9  C   UNL     1      14.175  22.063  -0.903  1.00  0.00     0.165 A 
ATOM     10  O   UNL     1      12.288  22.821   0.026  1.00  0.00    -0.454 OA
ATOM     11  O   UNL     1      14.531  22.567   0.334  1.00  0.00    -0.454 OA
ATOM     12  C   UNL     1      13.344  23.066   0.967  1.00  0.00     0.468 C 
ENDBRANCH   1   4
TORSDOF 2
ENDMDL
MODEL 7
REMARK VINA RESULT:    -3.302      1.127      2.127
REMARK INTER + INTRA:          -3.838
REMARK INTER:                  -3.662
REMARK INTRA:                  -0.176
REMARK UNBOUND:                -0.151
REMARK SMILES C=CCc1ccc2c(c1)OCO2
REMARK SMILES IDX 3 1 2 2 1 3 4 4 9 5 5 6 8 7 6 8 7 9 10 10 12 11 11 12
REMARK H PARENT
REMARK Flexibility Score: inf
ROOT
ATOM      1  C   UNL     1      12.837  20.034  -2.135  1.00  0.00     0.062 C 
ENDROOT
BRANCH   1   2
ATOM      2  C   UNL     1      11.364  19.878  -2.387  1.00  0.00    -0.030 C 
ATOM      3  C   UNL     1      10.880  18.880  -3.131  1.00  0.00     0.004 C 
ENDBRANCH   1   2
BRANCH   1   4
ATOM      4  C   UNL     1      13.205  21.488  -2.008  1.00  0.00    -0.040 A 
ATOM      5  C   UNL     1      14.236  21.880  -1.125  1.00  0.00     0.054 A 
ATOM      6  C   UNL     1      12.553  22.465  -2.804  1.00  0.00     0.008 A 
ATOM      7  C   UNL     1      14.562  23.232  -1.061  1.00  0.00     0.166 A 
ATOM      8  C   UNL     1      12.914  23.821  -2.709  1.00  0.00     0.051 A 
ATOM      9  C   UNL     1      13.928  24.162  -1.820  1.00  0.00     0.165 A 
ATOM     10  O   UNL     1      15.520  23.850  -0.282  1.00  0.00    -0.454 OA
ATOM     11  O   UNL     1      14.455  25.411  -1.553  1.00  0.00    -0.454 OA
ATOM     12  C   UNL     1      15.485  25.256  -0.566  1.00  0.00     0.468 C 
ENDBRANCH   1   4
TORSDOF 2
ENDMDL
MODEL 8
REMARK VINA RESULT:    -2.728     16.619     18.471
REMARK INTER + INTRA:          -3.198
REMARK INTER:                  -3.045
REMARK INTRA:                  -0.153
REMARK UNBOUND:                -0.151
REMARK SMILES C=CCc1ccc2c(c1)OCO2
REMARK SMILES IDX 3 1 2 2 1 3 4 4 9 5 5 6 8 7 6 8 7 9 10 10 12 11 11 12
REMARK H PARENT
REMARK Flexibility Score: inf
ROOT
ATOM      1  C   UNL     1      21.055  26.391  14.464  1.00  0.00     0.062 C 
ENDROOT
BRANCH   1   2
ATOM      2  C   UNL     1      19.732  26.656  15.124  1.00  0.00    -0.030 C 
ATOM      3  C   UNL     1      19.166  27.866  15.106  1.00  0.00     0.004 C 
ENDBRANCH   1   2
BRANCH   1   4
ATOM      4  C   UNL     1      21.088  25.009  13.869  1.00  0.00    -0.040 A 
ATOM      5  C   UNL     1      21.045  23.877  14.712  1.00  0.00     0.054 A 
ATOM      6  C   UNL     1      21.117  24.836  12.460  1.00  0.00     0.008 A 
ATOM      7  C   UNL     1      21.049  22.618  14.116  1.00  0.00     0.166 A 
ATOM      8  C   UNL     1      21.120  23.546  11.900  1.00  0.00     0.051 A 
ATOM      9  C   UNL     1      21.085  22.460  12.769  1.00  0.00     0.165 A 
ATOM     10  O   UNL     1      21.015  21.378  14.724  1.00  0.00    -0.454 OA
ATOM     11  O   UNL     1      21.078  21.113  12.463  1.00  0.00    -0.454 OA
ATOM     12  C   UNL     1      21.033  20.379  13.695  1.00  0.00     0.468 C 
ENDBRANCH   1   4
TORSDOF 2
ENDMDL
