MODEL 1
REMARK VINA RESULT:    -3.460      0.000      0.000
REMARK INTER + INTRA:          -4.092
REMARK INTER:                  -4.067
REMARK INTRA:                  -0.025
REMARK UNBOUND:                -0.025
REMARK SMILES CCCCC(=O)[O-]
REMARK SMILES IDX 4 1 5 2 6 3 7 4 3 5 2 6 1 7
REMARK H PARENT
REMARK Flexibility Score: inf
ROOT
ATOM      1  C   UNL     1      -4.354 -10.461  -4.892  1.00  0.00     0.053 C 
ENDROOT
BRANCH   1   2
ATOM      2  C   UNL     1      -3.891  -9.524  -5.965  1.00  0.00     0.041 C 
ATOM      3  O   UNL     1      -3.034  -8.638  -5.707  1.00  0.00    -0.550 OA
ATOM      4  O   UNL     1      -4.383  -9.649  -7.258  1.00  0.00    -0.550 OA
ENDBRANCH   1   2
BRANCH   1   5
ATOM      5  C   UNL     1      -4.611 -11.870  -5.441  1.00  0.00     0.006 C 
BRANCH   5   6
ATOM      6  C   UNL     1      -6.090 -12.095  -5.793  1.00  0.00    -0.003 C 
ATOM      7  C   UNL     1      -7.002 -11.279  -4.882  1.00  0.00     0.004 C 
ENDBRANCH   5   6
ENDBRANCH   1   5
TORSDOF 3
ENDMDL
MODEL 2
REMARK VINA RESULT:    -3.289     19.644     20.513
REMARK INTER + INTRA:          -3.891
REMARK INTER:                  -3.847
REMARK INTRA:                  -0.044
REMARK UNBOUND:                -0.025
REMARK SMILES CCCCC(=O)[O-]
REMARK SMILES IDX 4 1 5 2 6 3 7 4 3 5 2 6 1 7
REMARK H PARENT
REMARK Flexibility Score: inf
ROOT
ATOM      1  C   UNL     1       8.266  -7.785 -21.436  1.00  0.00     0.053 C 
ENDROOT
BRANCH   1   2
ATOM      2  C   UNL     1       7.678  -6.795 -22.394  1.00  0.00     0.041 C 
ATOM      3  O   UNL     1       8.323  -5.761 -22.714  1.00  0.00    -0.550 OA
ATOM      4  O   UNL     1       6.431  -7.029 -22.958  1.00  0.00    -0.550 OA
ENDBRANCH   1   2
BRANCH   1   5
ATOM      5  C   UNL     1       7.178  -8.583 -20.706  1.00  0.00     0.006 C 
BRANCH   5   6
ATOM      6  C   UNL     1       7.704  -9.922 -20.168  1.00  0.00    -0.003 C 
ATOM      7  C   UNL     1       8.899 -10.411 -20.981  1.00  0.00     0.004 C 
ENDBRANCH   5   6
ENDBRANCH   1   5
TORSDOF 3
ENDMDL
MODEL 3
REMARK VINA RESULT:    -3.220      2.308      3.620
REMARK INTER + INTRA:          -3.810
REMARK INTER:                  -3.727
REMARK INTRA:                  -0.083
REMARK UNBOUND:                -0.025
REMARK SMILES CCCCC(=O)[O-]
REMARK SMILES IDX 4 1 5 2 6 3 7 4 3 5 2 6 1 7
REMARK H PARENT
REMARK Flexibility Score: inf
ROOT
ATOM      1  C   UNL     1      -4.400 -11.134  -6.551  1.00  0.00     0.053 C 
ENDROOT
BRANCH   1   2
ATOM      2  C   UNL     1      -5.390 -11.744  -5.607  1.00  0.00     0.041 C 
ATOM      3  O   UNL     1      -5.055 -12.713  -4.875  1.00  0.00    -0.550 OA
ATOM      4  O   UNL     1      -6.673 -11.222  -5.512  1.00  0.00    -0.550 OA
ENDBRANCH   1   2
BRANCH   1   5
ATOM      5  C   UNL     1      -4.186  -9.642  -6.264  1.00  0.00     0.006 C 
BRANCH   5   6
ATOM      6  C   UNL     1      -3.572  -9.401  -4.877  1.00  0.00    -0.003 C 
ATOM      7  C   UNL     1      -2.573  -8.248  -4.911  1.00  0.00     0.004 C 
ENDBRANCH   5   6
ENDBRANCH   1   5
TORSDOF 3
ENDMDL
MODEL 4
REMARK VINA RESULT:    -3.192      2.373      3.886
REMARK INTER + INTRA:          -3.777
REMARK INTER:                  -3.761
REMARK INTRA:                  -0.016
REMARK UNBOUND:                -0.025
REMARK SMILES CCCCC(=O)[O-]
REMARK SMILES IDX 4 1 5 2 6 3 7 4 3 5 2 6 1 7
REMARK H PARENT
REMARK Flexibility Score: inf
ROOT
ATOM      1  C   UNL     1      -4.695 -10.666  -6.262  1.00  0.00     0.053 C 
ENDROOT
BRANCH   1   2
ATOM      2  C   UNL     1      -5.621 -11.629  -5.585  1.00  0.00     0.041 C 
ATOM      3  O   UNL     1      -6.865 -11.429  -5.599  1.00  0.00    -0.550 OA
ATOM      4  O   UNL     1      -5.114 -12.763  -4.965  1.00  0.00    -0.550 OA
ENDBRANCH   1   2
BRANCH   1   5
ATOM      5  C   UNL     1      -3.887  -9.847  -5.248  1.00  0.00     0.006 C 
BRANCH   5   6
ATOM      6  C   UNL     1      -3.189  -8.642  -5.899  1.00  0.00    -0.003 C 
ATOM      7  C   UNL     1      -2.366  -7.866  -4.877  1.00  0.00     0.004 C 
ENDBRANCH   5   6
ENDBRANCH   1   5
TORSDOF 3
ENDMDL
MODEL 5
REMARK VINA RESULT:    -3.043     19.313     20.405
REMARK INTER + INTRA:          -3.602
REMARK INTER:                  -3.583
REMARK INTRA:                  -0.018
REMARK UNBOUND:                -0.025
REMARK SMILES CCCCC(=O)[O-]
REMARK SMILES IDX 4 1 5 2 6 3 7 4 3 5 2 6 1 7
REMARK H PARENT
REMARK Flexibility Score: inf
ROOT
ATOM      1  C   UNL     1       7.236  -8.610 -20.820  1.00  0.00     0.053 C 
ENDROOT
BRANCH   1   2
ATOM      2  C   UNL     1       8.102  -9.699 -20.265  1.00  0.00     0.041 C 
ATOM      3  O   UNL     1       8.343  -9.751 -19.030  1.00  0.00    -0.550 OA
ATOM      4  O   UNL     1       8.618 -10.675 -21.108  1.00  0.00    -0.550 OA
ENDBRANCH   1   2
BRANCH   1   5
ATOM      5  C   UNL     1       8.042  -7.621 -21.670  1.00  0.00     0.006 C 
BRANCH   5   6
ATOM      6  C   UNL     1       7.165  -6.886 -22.695  1.00  0.00    -0.003 C 
ATOM      7  C   UNL     1       7.664  -5.464 -22.927  1.00  0.00     0.004 C 
ENDBRANCH   5   6
ENDBRANCH   1   5
TORSDOF 3
ENDMDL
MODEL 6
REMARK VINA RESULT:    -2.705      2.311      2.912
REMARK INTER + INTRA:          -3.204
REMARK INTER:                  -3.172
REMARK INTRA:                  -0.032
REMARK UNBOUND:                -0.025
REMARK SMILES CCCCC(=O)[O-]
REMARK SMILES IDX 4 1 5 2 6 3 7 4 3 5 2 6 1 7
REMARK H PARENT
REMARK Flexibility Score: inf
ROOT
ATOM      1  C   UNL     1      -3.173  -8.646  -5.012  1.00  0.00     0.053 C 
ENDROOT
BRANCH   1   2
ATOM      2  C   UNL     1      -2.331  -7.411  -5.109  1.00  0.00     0.041 C 
ATOM      3  O   UNL     1      -2.835  -6.280  -4.876  1.00  0.00    -0.550 OA
ATOM      4  O   UNL     1      -0.983  -7.511  -5.425  1.00  0.00    -0.550 OA
ENDBRANCH   1   2
BRANCH   1   5
ATOM      5  C   UNL     1      -3.644  -9.122  -6.392  1.00  0.00     0.006 C 
BRANCH   5   6
ATOM      6  C   UNL     1      -4.372 -10.473  -6.323  1.00  0.00    -0.003 C 
ATOM      7  C   UNL     1      -4.582 -10.911  -4.877  1.00  0.00     0.004 C 
ENDBRANCH   5   6
ENDBRANCH   1   5
TORSDOF 3
ENDMDL
MODEL 7
REMARK VINA RESULT:    -2.209     19.776     20.706
REMARK INTER + INTRA:          -2.622
REMARK INTER:                  -2.627
REMARK INTRA:                   0.005
REMARK UNBOUND:                -0.025
REMARK SMILES CCCCC(=O)[O-]
REMARK SMILES IDX 4 1 5 2 6 3 7 4 3 5 2 6 1 7
REMARK H PARENT
REMARK Flexibility Score: inf
ROOT
ATOM      1  C   UNL     1      -8.182 -19.211 -24.994  1.00  0.00     0.053 C 
ENDROOT
BRANCH   1   2
ATOM      2  C   UNL     1      -6.802 -19.790 -25.063  1.00  0.00     0.041 C 
ATOM      3  O   UNL     1      -5.796 -19.032 -25.064  1.00  0.00    -0.550 OA
ATOM      4  O   UNL     1      -6.626 -21.167 -25.094  1.00  0.00    -0.550 OA
ENDBRANCH   1   2
BRANCH   1   5
ATOM      5  C   UNL     1      -8.196 -17.861 -24.266  1.00  0.00     0.006 C 
BRANCH   5   6
ATOM      6  C   UNL     1      -7.919 -18.010 -22.763  1.00  0.00    -0.003 C 
ATOM      7  C   UNL     1      -9.137 -18.566 -22.032  1.00  0.00     0.004 C 
ENDBRANCH   5   6
ENDBRANCH   1   5
TORSDOF 3
ENDMDL
