MODEL 1
REMARK VINA RESULT:    -4.157      0.000      0.000
REMARK INTER + INTRA:          -6.795
REMARK INTER:                  -6.344
REMARK INTRA:                  -0.451
REMARK UNBOUND:                -0.451
REMARK SMILES CCCCCCCCCCC(=O)[O-]
REMARK SMILES IDX 7 1 8 2 9 3 10 4 11 5 12 6 13 7 6 8 5 9 4 10 3 11 2 12 1 13
REMARK H PARENT
REMARK Flexibility Score: inf
ROOT
ATOM      1  C   UNL     1     -24.075  27.077   8.586  1.00  0.00     0.000 C 
ENDROOT
BRANCH   1   2
ATOM      2  C   UNL     1     -23.908  25.797   7.750  1.00  0.00     0.000 C 
BRANCH   2   3
ATOM      3  C   UNL     1     -23.012  24.755   8.440  1.00  0.00     0.006 C 
BRANCH   3   4
ATOM      4  C   UNL     1     -22.288  25.317   9.670  1.00  0.00     0.053 C 
BRANCH   4   5
ATOM      5  C   UNL     1     -22.614  24.506  10.883  1.00  0.00     0.041 C 
ATOM      6  O   UNL     1     -21.868  23.551  11.226  1.00  0.00    -0.550 OA
ATOM      7  O   UNL     1     -23.768  24.773  11.609  1.00  0.00    -0.550 OA
ENDBRANCH   4   5
ENDBRANCH   3   4
ENDBRANCH   2   3
ENDBRANCH   1   2
BRANCH   1   8
ATOM      8  C   UNL     1     -24.125  28.345   7.718  1.00  0.00     0.000 C 
BRANCH   8   9
ATOM      9  C   UNL     1     -23.380  29.532   8.358  1.00  0.00    -0.000 C 
BRANCH   9  10
ATOM     10  C   UNL     1     -23.712  30.870   7.680  1.00  0.00    -0.000 C 
BRANCH  10  11
ATOM     11  C   UNL     1     -22.464  31.728   7.422  1.00  0.00    -0.000 C 
BRANCH  11  12
ATOM     12  C   UNL     1     -21.443  31.566   8.553  1.00  0.00    -0.003 C 
ATOM     13  C   UNL     1     -20.016  31.701   8.032  1.00  0.00     0.004 C 
ENDBRANCH  11  12
ENDBRANCH  10  11
ENDBRANCH   9  10
ENDBRANCH   8   9
ENDBRANCH   1   8
TORSDOF 9
ENDMDL
MODEL 2
REMARK VINA RESULT:    -3.542     11.981     13.109
REMARK INTER + INTRA:          -5.857
REMARK INTER:                  -5.126
REMARK INTRA:                  -0.731
REMARK UNBOUND:                -0.451
REMARK SMILES CCCCCCCCCCC(=O)[O-]
REMARK SMILES IDX 7 1 8 2 9 3 10 4 11 5 12 6 13 7 6 8 5 9 4 10 3 11 2 12 1 13
REMARK H PARENT
REMARK Flexibility Score: inf
ROOT
ATOM      1  C   UNL     1     -19.335  29.976  22.653  1.00  0.00     0.000 C 
ENDROOT
BRANCH   1   2
ATOM      2  C   UNL     1     -19.013  29.263  21.329  1.00  0.00     0.000 C 
BRANCH   2   3
ATOM      3  C   UNL     1     -19.822  29.821  20.147  1.00  0.00     0.006 C 
BRANCH   3   4
ATOM      4  C   UNL     1     -20.417  28.718  19.261  1.00  0.00     0.053 C 
BRANCH   4   5
ATOM      5  C   UNL     1     -21.884  28.580  19.514  1.00  0.00     0.041 C 
ATOM      6  O   UNL     1     -22.552  29.566  19.923  1.00  0.00    -0.550 OA
ATOM      7  O   UNL     1     -22.506  27.349  19.347  1.00  0.00    -0.550 OA
ENDBRANCH   4   5
ENDBRANCH   3   4
ENDBRANCH   2   3
ENDBRANCH   1   2
BRANCH   1   8
ATOM      8  C   UNL     1     -20.499  30.971  22.518  1.00  0.00     0.000 C 
BRANCH   8   9
ATOM      9  C   UNL     1     -20.146  32.373  23.048  1.00  0.00    -0.000 C 
BRANCH   9  10
ATOM     10  C   UNL     1     -21.115  33.454  22.545  1.00  0.00    -0.000 C 
BRANCH  10  11
ATOM     11  C   UNL     1     -22.143  32.908  21.543  1.00  0.00    -0.000 C 
BRANCH  11  12
ATOM     12  C   UNL     1     -22.713  34.034  20.673  1.00  0.00    -0.003 C 
ATOM     13  C   UNL     1     -21.692  35.149  20.475  1.00  0.00     0.004 C 
ENDBRANCH  11  12
ENDBRANCH  10  11
ENDBRANCH   9  10
ENDBRANCH   8   9
ENDBRANCH   1   8
TORSDOF 9
ENDMDL
MODEL 3
REMARK VINA RESULT:    -3.529     12.962     14.562
REMARK INTER + INTRA:          -5.836
REMARK INTER:                  -4.738
REMARK INTRA:                  -1.098
REMARK UNBOUND:                -0.451
REMARK SMILES CCCCCCCCCCC(=O)[O-]
REMARK SMILES IDX 7 1 8 2 9 3 10 4 11 5 12 6 13 7 6 8 5 9 4 10 3 11 2 12 1 13
REMARK H PARENT
REMARK Flexibility Score: inf
ROOT
ATOM      1  C   UNL     1     -18.843  32.163  23.675  1.00  0.00     0.000 C 
ENDROOT
BRANCH   1   2
ATOM      2  C   UNL     1     -20.090  32.924  23.193  1.00  0.00     0.000 C 
BRANCH   2   3
ATOM      3  C   UNL     1     -21.268  31.986  22.882  1.00  0.00     0.006 C 
BRANCH   3   4
ATOM      4  C   UNL     1     -21.826  32.183  21.466  1.00  0.00     0.053 C 
BRANCH   4   5
ATOM      5  C   UNL     1     -22.916  31.197  21.192  1.00  0.00     0.041 C 
ATOM      6  O   UNL     1     -22.928  30.085  21.785  1.00  0.00    -0.550 OA
ATOM      7  O   UNL     1     -23.892  31.483  20.247  1.00  0.00    -0.550 OA
ENDBRANCH   4   5
ENDBRANCH   3   4
ENDBRANCH   2   3
ENDBRANCH   1   2
BRANCH   1   8
ATOM      8  C   UNL     1     -19.085  30.649  23.793  1.00  0.00     0.000 C 
BRANCH   8   9
ATOM      9  C   UNL     1     -17.840  29.819  23.428  1.00  0.00    -0.000 C 
BRANCH   9  10
ATOM     10  C   UNL     1     -18.068  28.923  22.201  1.00  0.00    -0.000 C 
BRANCH  10  11
ATOM     11  C   UNL     1     -19.516  28.978  21.689  1.00  0.00    -0.000 C 
BRANCH  11  12
ATOM     12  C   UNL     1     -19.579  29.597  20.289  1.00  0.00    -0.003 C 
ATOM     13  C   UNL     1     -20.465  28.774  19.360  1.00  0.00     0.004 C 
ENDBRANCH  11  12
ENDBRANCH  10  11
ENDBRANCH   9  10
ENDBRANCH   8   9
ENDBRANCH   1   8
TORSDOF 9
ENDMDL
MODEL 4
REMARK VINA RESULT:    -3.526     12.490     14.265
REMARK INTER + INTRA:          -5.833
REMARK INTER:                  -5.067
REMARK INTRA:                  -0.766
REMARK UNBOUND:                -0.451
REMARK SMILES CCCCCCCCCCC(=O)[O-]
REMARK SMILES IDX 7 1 8 2 9 3 10 4 11 5 12 6 13 7 6 8 5 9 4 10 3 11 2 12 1 13
REMARK H PARENT
REMARK Flexibility Score: inf
ROOT
ATOM      1  C   UNL     1     -20.365  31.168  22.427  1.00  0.00     0.000 C 
ENDROOT
BRANCH   1   2
ATOM      2  C   UNL     1     -20.115  32.516  23.125  1.00  0.00     0.000 C 
BRANCH   2   3
ATOM      3  C   UNL     1     -21.029  33.633  22.594  1.00  0.00     0.006 C 
BRANCH   3   4
ATOM      4  C   UNL     1     -22.004  33.140  21.517  1.00  0.00     0.053 C 
BRANCH   4   5
ATOM      5  C   UNL     1     -22.492  34.287  20.691  1.00  0.00     0.041 C 
ATOM      6  O   UNL     1     -23.725  34.431  20.474  1.00  0.00    -0.550 OA
ATOM      7  O   UNL     1     -21.585  35.169  20.119  1.00  0.00    -0.550 OA
ENDBRANCH   4   5
ENDBRANCH   3   4
ENDBRANCH   2   3
ENDBRANCH   1   2
BRANCH   1   8
ATOM      8  C   UNL     1     -19.217  30.169  22.648  1.00  0.00     0.000 C 
BRANCH   8   9
ATOM      9  C   UNL     1     -18.988  29.252  21.432  1.00  0.00    -0.000 C 
BRANCH   9  10
ATOM     10  C   UNL     1     -19.713  29.750  20.172  1.00  0.00    -0.000 C 
BRANCH  10  11
ATOM     11  C   UNL     1     -20.371  28.611  19.378  1.00  0.00    -0.000 C 
BRANCH  11  12
ATOM     12  C   UNL     1     -21.855  28.900  19.131  1.00  0.00    -0.003 C 
ATOM     13  C   UNL     1     -22.621  29.017  20.444  1.00  0.00     0.004 C 
ENDBRANCH  11  12
ENDBRANCH  10  11
ENDBRANCH   9  10
ENDBRANCH   8   9
ENDBRANCH   1   8
TORSDOF 9
ENDMDL
MODEL 5
REMARK VINA RESULT:    -3.498     12.017     13.108
REMARK INTER + INTRA:          -5.790
REMARK INTER:                  -5.177
REMARK INTRA:                  -0.613
REMARK UNBOUND:                -0.451
REMARK SMILES CCCCCCCCCCC(=O)[O-]
REMARK SMILES IDX 7 1 8 2 9 3 10 4 11 5 12 6 13 7 6 8 5 9 4 10 3 11 2 12 1 13
REMARK H PARENT
REMARK Flexibility Score: inf
ROOT
ATOM      1  C   UNL     1     -20.741  31.046  21.900  1.00  0.00     0.000 C 
ENDROOT
BRANCH   1   2
ATOM      2  C   UNL     1     -19.808  29.905  21.459  1.00  0.00     0.000 C 
BRANCH   2   3
ATOM      3  C   UNL     1     -19.848  29.664  19.941  1.00  0.00     0.006 C 
BRANCH   3   4
ATOM      4  C   UNL     1     -20.351  28.262  19.575  1.00  0.00     0.053 C 
BRANCH   4   5
ATOM      5  C   UNL     1     -21.845  28.213  19.628  1.00  0.00     0.041 C 
ATOM      6  O   UNL     1     -22.527  29.142  19.121  1.00  0.00    -0.550 OA
ATOM      7  O   UNL     1     -22.484  27.168  20.282  1.00  0.00    -0.550 OA
ENDBRANCH   4   5
ENDBRANCH   3   4
ENDBRANCH   2   3
ENDBRANCH   1   2
BRANCH   1   8
ATOM      8  C   UNL     1     -20.239  31.761  23.165  1.00  0.00     0.000 C 
BRANCH   8   9
ATOM      9  C   UNL     1     -20.320  33.295  23.050  1.00  0.00    -0.000 C 
BRANCH   9  10
ATOM     10  C   UNL     1     -21.652  33.771  22.448  1.00  0.00    -0.000 C 
BRANCH  10  11
ATOM     11  C   UNL     1     -21.480  34.977  21.512  1.00  0.00    -0.000 C 
BRANCH  11  12
ATOM     12  C   UNL     1     -22.344  34.824  20.256  1.00  0.00    -0.003 C 
ATOM     13  C   UNL     1     -23.394  33.732  20.438  1.00  0.00     0.004 C 
ENDBRANCH  11  12
ENDBRANCH  10  11
ENDBRANCH   9  10
ENDBRANCH   8   9
ENDBRANCH   1   8
TORSDOF 9
ENDMDL
MODEL 6
REMARK VINA RESULT:    -3.455      5.649      9.242
REMARK INTER + INTRA:          -5.723
REMARK INTER:                  -5.229
REMARK INTRA:                  -0.494
REMARK UNBOUND:                -0.451
REMARK SMILES CCCCCCCCCCC(=O)[O-]
REMARK SMILES IDX 7 1 8 2 9 3 10 4 11 5 12 6 13 7 6 8 5 9 4 10 3 11 2 12 1 13
REMARK H PARENT
REMARK Flexibility Score: inf
ROOT
ATOM      1  C   UNL     1     -20.221  24.148  13.906  1.00  0.00     0.000 C 
ENDROOT
BRANCH   1   2
ATOM      2  C   UNL     1     -20.296  22.955  12.937  1.00  0.00     0.000 C 
BRANCH   2   3
ATOM      3  C   UNL     1     -21.618  22.916  12.153  1.00  0.00     0.006 C 
BRANCH   3   4
ATOM      4  C   UNL     1     -22.428  24.211  12.289  1.00  0.00     0.053 C 
BRANCH   4   5
ATOM      5  C   UNL     1     -22.408  24.977  11.005  1.00  0.00     0.041 C 
ATOM      6  O   UNL     1     -22.843  26.158  10.966  1.00  0.00    -0.550 OA
ATOM      7  O   UNL     1     -21.955  24.371   9.840  1.00  0.00    -0.550 OA
ENDBRANCH   4   5
ENDBRANCH   3   4
ENDBRANCH   2   3
ENDBRANCH   1   2
BRANCH   1   8
ATOM      8  C   UNL     1     -19.582  23.773  15.253  1.00  0.00     0.000 C 
BRANCH   8   9
ATOM      9  C   UNL     1     -20.628  23.449  16.336  1.00  0.00    -0.000 C 
BRANCH   9  10
ATOM     10  C   UNL     1     -20.015  23.371  17.743  1.00  0.00    -0.000 C 
BRANCH  10  11
ATOM     11  C   UNL     1     -18.499  23.120  17.715  1.00  0.00    -0.000 C 
BRANCH  11  12
ATOM     12  C   UNL     1     -17.902  23.210  19.123  1.00  0.00    -0.003 C 
ATOM     13  C   UNL     1     -18.682  24.191  19.992  1.00  0.00     0.004 C 
ENDBRANCH  11  12
ENDBRANCH  10  11
ENDBRANCH   9  10
ENDBRANCH   8   9
ENDBRANCH   1   8
TORSDOF 9
ENDMDL
MODEL 7
REMARK VINA RESULT:    -3.452     13.614     15.319
REMARK INTER + INTRA:          -5.720
REMARK INTER:                  -4.800
REMARK INTRA:                  -0.920
REMARK UNBOUND:                -0.451
REMARK SMILES CCCCCCCCCCC(=O)[O-]
REMARK SMILES IDX 7 1 8 2 9 3 10 4 11 5 12 6 13 7 6 8 5 9 4 10 3 11 2 12 1 13
REMARK H PARENT
REMARK Flexibility Score: inf
ROOT
ATOM      1  C   UNL     1     -19.479  32.739  23.363  1.00  0.00     0.000 C 
ENDROOT
BRANCH   1   2
ATOM      2  C   UNL     1     -20.844  32.071  23.125  1.00  0.00     0.000 C 
BRANCH   2   3
ATOM      3  C   UNL     1     -21.580  32.653  21.907  1.00  0.00     0.006 C 
BRANCH   3   4
ATOM      4  C   UNL     1     -21.487  34.182  21.832  1.00  0.00     0.053 C 
BRANCH   4   5
ATOM      5  C   UNL     1     -22.492  34.720  20.864  1.00  0.00     0.041 C 
ATOM      6  O   UNL     1     -22.649  35.963  20.740  1.00  0.00    -0.550 OA
ATOM      7  O   UNL     1     -23.290  33.849  20.134  1.00  0.00    -0.550 OA
ENDBRANCH   4   5
ENDBRANCH   3   4
ENDBRANCH   2   3
ENDBRANCH   1   2
BRANCH   1   8
ATOM      8  C   UNL     1     -18.454  31.779  23.989  1.00  0.00     0.000 C 
BRANCH   8   9
ATOM      9  C   UNL     1     -18.851  30.300  23.825  1.00  0.00    -0.000 C 
BRANCH   9  10
ATOM     10  C   UNL     1     -17.714  29.446  23.242  1.00  0.00    -0.000 C 
BRANCH  10  11
ATOM     11  C   UNL     1     -18.043  28.897  21.845  1.00  0.00    -0.000 C 
BRANCH  11  12
ATOM     12  C   UNL     1     -19.544  28.995  21.557  1.00  0.00    -0.003 C 
ATOM     13  C   UNL     1     -19.806  29.683  20.220  1.00  0.00     0.004 C 
ENDBRANCH  11  12
ENDBRANCH  10  11
ENDBRANCH   9  10
ENDBRANCH   8   9
ENDBRANCH   1   8
TORSDOF 9
ENDMDL
MODEL 8
REMARK VINA RESULT:    -3.404     12.356     14.111
REMARK INTER + INTRA:          -5.646
REMARK INTER:                  -5.123
REMARK INTRA:                  -0.523
REMARK UNBOUND:                -0.451
REMARK SMILES CCCCCCCCCCC(=O)[O-]
REMARK SMILES IDX 7 1 8 2 9 3 10 4 11 5 12 6 13 7 6 8 5 9 4 10 3 11 2 12 1 13
REMARK H PARENT
REMARK Flexibility Score: inf
ROOT
ATOM      1  C   UNL     1     -22.625  31.836  21.499  1.00  0.00     0.000 C 
ENDROOT
BRANCH   1   2
ATOM      2  C   UNL     1     -23.625  32.320  20.434  1.00  0.00     0.000 C 
BRANCH   2   3
ATOM      3  C   UNL     1     -23.823  33.844  20.462  1.00  0.00     0.006 C 
BRANCH   3   4
ATOM      4  C   UNL     1     -22.554  34.615  20.076  1.00  0.00     0.053 C 
BRANCH   4   5
ATOM      5  C   UNL     1     -22.150  35.540  21.179  1.00  0.00     0.041 C 
ATOM      6  O   UNL     1     -21.462  35.113  22.144  1.00  0.00    -0.550 OA
ATOM      7  O   UNL     1     -22.573  36.863  21.168  1.00  0.00    -0.550 OA
ENDBRANCH   4   5
ENDBRANCH   3   4
ENDBRANCH   2   3
ENDBRANCH   1   2
BRANCH   1   8
ATOM      8  C   UNL     1     -21.936  30.519  21.104  1.00  0.00     0.000 C 
BRANCH   8   9
ATOM      9  C   UNL     1     -20.456  30.474  21.529  1.00  0.00    -0.000 C 
BRANCH   9  10
ATOM     10  C   UNL     1     -19.601  29.607  20.592  1.00  0.00    -0.000 C 
BRANCH  10  11
ATOM     11  C   UNL     1     -20.439  28.872  19.535  1.00  0.00    -0.000 C 
BRANCH  11  12
ATOM     12  C   UNL     1     -20.378  27.356  19.742  1.00  0.00    -0.003 C 
ATOM     13  C   UNL     1     -19.623  27.003  21.020  1.00  0.00     0.004 C 
ENDBRANCH  11  12
ENDBRANCH  10  11
ENDBRANCH   9  10
ENDBRANCH   8   9
ENDBRANCH   1   8
TORSDOF 9
ENDMDL
MODEL 9
REMARK VINA RESULT:    -3.363     11.605     12.592
REMARK INTER + INTRA:          -5.583
REMARK INTER:                  -4.748
REMARK INTRA:                  -0.835
REMARK UNBOUND:                -0.451
REMARK SMILES CCCCCCCCCCC(=O)[O-]
REMARK SMILES IDX 7 1 8 2 9 3 10 4 11 5 12 6 13 7 6 8 5 9 4 10 3 11 2 12 1 13
REMARK H PARENT
REMARK Flexibility Score: inf
ROOT
ATOM      1  C   UNL     1     -20.758  31.302  21.826  1.00  0.00     0.000 C 
ENDROOT
BRANCH   1   2
ATOM      2  C   UNL     1     -19.986  30.000  21.547  1.00  0.00     0.000 C 
BRANCH   2   3
ATOM      3  C   UNL     1     -19.903  29.674  20.047  1.00  0.00     0.006 C 
BRANCH   3   4
ATOM      4  C   UNL     1     -20.280  28.220  19.734  1.00  0.00     0.053 C 
BRANCH   4   5
ATOM      5  C   UNL     1     -21.731  28.121  19.385  1.00  0.00     0.041 C 
ATOM      6  O   UNL     1     -22.356  29.137  18.981  1.00  0.00    -0.550 OA
ATOM      7  O   UNL     1     -22.406  26.919  19.551  1.00  0.00    -0.550 OA
ENDBRANCH   4   5
ENDBRANCH   3   4
ENDBRANCH   2   3
ENDBRANCH   1   2
BRANCH   1   8
ATOM      8  C   UNL     1     -22.254  31.056  22.080  1.00  0.00     0.000 C 
BRANCH   8   9
ATOM      9  C   UNL     1     -23.154  31.741  21.035  1.00  0.00    -0.000 C 
BRANCH   9  10
ATOM     10  C   UNL     1     -23.513  33.184  21.422  1.00  0.00    -0.000 C 
BRANCH  10  11
ATOM     11  C   UNL     1     -23.279  34.180  20.275  1.00  0.00    -0.000 C 
BRANCH  11  12
ATOM     12  C   UNL     1     -21.899  34.835  20.391  1.00  0.00    -0.003 C 
ATOM     13  C   UNL     1     -21.493  35.013  21.851  1.00  0.00     0.004 C 
ENDBRANCH  11  12
ENDBRANCH  10  11
ENDBRANCH   9  10
ENDBRANCH   8   9
ENDBRANCH   1   8
TORSDOF 9
ENDMDL
