MODEL 1
REMARK VINA RESULT:    -5.403      0.000      0.000
REMARK INTER + INTRA:         -12.061
REMARK INTER:                 -10.140
REMARK INTRA:                  -1.920
REMARK UNBOUND:                -1.920
REMARK SMILES O=C([O-])CCCCCCCCCCCCCCC(=O)[O-]
REMARK SMILES IDX 10 1 9 2 8 3 7 4 6 5 5 6 4 7 2 8 1 9 3 10 11 11 12 12 13 13
REMARK SMILES IDX 14 14 15 15 16 16 17 17 18 18 19 19 20 20
REMARK H PARENT
REMARK Flexibility Score: inf
ROOT
ATOM      1  C   UNL     1      13.885  15.473  36.519  1.00  0.00     0.000 C 
ENDROOT
BRANCH   1   2
ATOM      2  C   UNL     1      13.289  16.314  35.373  1.00  0.00     0.000 C 
BRANCH   2   3
ATOM      3  C   UNL     1      13.261  17.836  35.620  1.00  0.00     0.000 C 
BRANCH   3   4
ATOM      4  C   UNL     1      11.855  18.452  35.738  1.00  0.00     0.000 C 
BRANCH   4   5
ATOM      5  C   UNL     1      10.733  17.417  35.553  1.00  0.00     0.000 C 
BRANCH   5   6
ATOM      6  C   UNL     1      10.101  16.987  36.887  1.00  0.00     0.006 C 
BRANCH   6   7
ATOM      7  C   UNL     1      10.252  18.049  37.983  1.00  0.00     0.053 C 
BRANCH   7   8
ATOM      8  C   UNL     1       8.952  18.757  38.205  1.00  0.00     0.041 C 
ATOM      9  O   UNL     1       8.165  18.952  37.241  1.00  0.00    -0.550 OA
ATOM     10  O   UNL     1       8.632  19.244  39.465  1.00  0.00    -0.550 OA
ENDBRANCH   7   8
ENDBRANCH   6   7
ENDBRANCH   5   6
ENDBRANCH   4   5
ENDBRANCH   3   4
ENDBRANCH   2   3
ENDBRANCH   1   2
BRANCH   1  11
ATOM     11  C   UNL     1      14.017  16.206  37.867  1.00  0.00     0.000 C 
BRANCH  11  12
ATOM     12  C   UNL     1      15.470  16.271  38.369  1.00  0.00     0.000 C 
BRANCH  12  13
ATOM     13  C   UNL     1      16.471  16.576  37.243  1.00  0.00     0.000 C 
BRANCH  13  14
ATOM     14  C   UNL     1      16.754  18.081  37.094  1.00  0.00     0.000 C 
BRANCH  14  15
ATOM     15  C   UNL     1      16.860  18.518  35.624  1.00  0.00     0.000 C 
BRANCH  15  16
ATOM     16  C   UNL     1      17.206  17.355  34.682  1.00  0.00     0.006 C 
BRANCH  16  17
ATOM     17  C   UNL     1      18.615  17.518  34.105  1.00  0.00     0.053 C 
BRANCH  17  18
ATOM     18  C   UNL     1      19.407  16.263  34.295  1.00  0.00     0.041 C 
ATOM     19  O   UNL     1      18.833  15.196  34.637  1.00  0.00    -0.550 OA
ATOM     20  O   UNL     1      20.789  16.283  34.144  1.00  0.00    -0.550 OA
ENDBRANCH  17  18
ENDBRANCH  16  17
ENDBRANCH  15  16
ENDBRANCH  14  15
ENDBRANCH  13  14
ENDBRANCH  12  13
ENDBRANCH  11  12
ENDBRANCH   1  11
TORSDOF 15
ENDMDL
MODEL 2
REMARK VINA RESULT:    -5.192      2.090      3.697
REMARK INTER + INTRA:         -11.665
REMARK INTER:                  -9.898
REMARK INTRA:                  -1.767
REMARK UNBOUND:                -1.920
REMARK SMILES O=C([O-])CCCCCCCCCCCCCCC(=O)[O-]
REMARK SMILES IDX 10 1 9 2 8 3 7 4 6 5 5 6 4 7 2 8 1 9 3 10 11 11 12 12 13 13
REMARK SMILES IDX 14 14 15 15 16 16 17 17 18 18 19 19 20 20
REMARK H PARENT
REMARK Flexibility Score: inf
ROOT
ATOM      1  C   UNL     1      16.049  18.126  37.795  1.00  0.00     0.000 C 
ENDROOT
BRANCH   1   2
ATOM      2  C   UNL     1      15.375  16.984  38.582  1.00  0.00     0.000 C 
BRANCH   2   3
ATOM      3  C   UNL     1      15.654  15.564  38.050  1.00  0.00     0.000 C 
BRANCH   3   4
ATOM      4  C   UNL     1      14.446  14.861  37.403  1.00  0.00     0.000 C 
BRANCH   4   5
ATOM      5  C   UNL     1      13.357  15.846  36.947  1.00  0.00     0.000 C 
BRANCH   5   6
ATOM      6  C   UNL     1      13.587  16.359  35.516  1.00  0.00     0.006 C 
BRANCH   6   7
ATOM      7  C   UNL     1      13.166  17.824  35.338  1.00  0.00     0.053 C 
BRANCH   7   8
ATOM      8  C   UNL     1      11.686  17.963  35.501  1.00  0.00     0.041 C 
ATOM      9  O   UNL     1      10.903  17.235  34.835  1.00  0.00    -0.550 OA
ATOM     10  O   UNL     1      11.167  18.931  36.351  1.00  0.00    -0.550 OA
ENDBRANCH   7   8
ENDBRANCH   6   7
ENDBRANCH   5   6
ENDBRANCH   4   5
ENDBRANCH   3   4
ENDBRANCH   2   3
ENDBRANCH   1   2
BRANCH   1  11
ATOM     11  C   UNL     1      17.200  17.689  36.869  1.00  0.00     0.000 C 
BRANCH  11  12
ATOM     12  C   UNL     1      16.899  17.951  35.383  1.00  0.00     0.000 C 
BRANCH  12  13
ATOM     13  C   UNL     1      17.487  16.870  34.463  1.00  0.00     0.000 C 
BRANCH  13  14
ATOM     14  C   UNL     1      18.655  17.392  33.607  1.00  0.00     0.000 C 
BRANCH  14  15
ATOM     15  C   UNL     1      19.073  18.821  33.990  1.00  0.00     0.000 C 
BRANCH  15  16
ATOM     16  C   UNL     1      20.554  18.919  34.388  1.00  0.00     0.006 C 
BRANCH  16  17
ATOM     17  C   UNL     1      21.133  17.534  34.692  1.00  0.00     0.053 C 
BRANCH  17  18
ATOM     18  C   UNL     1      22.299  17.247  33.800  1.00  0.00     0.041 C 
ATOM     19  O   UNL     1      22.114  16.911  32.601  1.00  0.00    -0.550 OA
ATOM     20  O   UNL     1      23.592  17.299  34.309  1.00  0.00    -0.550 OA
ENDBRANCH  17  18
ENDBRANCH  16  17
ENDBRANCH  15  16
ENDBRANCH  14  15
ENDBRANCH  13  14
ENDBRANCH  12  13
ENDBRANCH  11  12
ENDBRANCH   1  11
TORSDOF 15
ENDMDL
MODEL 3
REMARK VINA RESULT:    -5.192      1.965      8.331
REMARK INTER + INTRA:         -11.665
REMARK INTER:                  -9.626
REMARK INTRA:                  -2.039
REMARK UNBOUND:                -1.920
REMARK SMILES O=C([O-])CCCCCCCCCCCCCCC(=O)[O-]
REMARK SMILES IDX 10 1 9 2 8 3 7 4 6 5 5 6 4 7 2 8 1 9 3 10 11 11 12 12 13 13
REMARK SMILES IDX 14 14 15 15 16 16 17 17 18 18 19 19 20 20
REMARK H PARENT
REMARK Flexibility Score: inf
ROOT
ATOM      1  C   UNL     1      16.691  17.763  37.534  1.00  0.00     0.000 C 
ENDROOT
BRANCH   1   2
ATOM      2  C   UNL     1      16.526  18.464  36.171  1.00  0.00     0.000 C 
BRANCH   2   3
ATOM      3  C   UNL     1      16.975  17.639  34.948  1.00  0.00     0.000 C 
BRANCH   3   4
ATOM      4  C   UNL     1      17.573  16.258  35.277  1.00  0.00     0.000 C 
BRANCH   4   5
ATOM      5  C   UNL     1      18.958  16.042  34.646  1.00  0.00     0.000 C 
BRANCH   5   6
ATOM      6  C   UNL     1      19.624  17.360  34.219  1.00  0.00     0.006 C 
BRANCH   6   7
ATOM      7  C   UNL     1      21.074  17.476  34.706  1.00  0.00     0.053 C 
BRANCH   7   8
ATOM      8  C   UNL     1      22.021  17.358  33.555  1.00  0.00     0.041 C 
ATOM      9  O   UNL     1      21.588  17.091  32.403  1.00  0.00    -0.550 OA
ATOM     10  O   UNL     1      23.388  17.494  33.762  1.00  0.00    -0.550 OA
ENDBRANCH   7   8
ENDBRANCH   6   7
ENDBRANCH   5   6
ENDBRANCH   4   5
ENDBRANCH   3   4
ENDBRANCH   2   3
ENDBRANCH   1   2
BRANCH   1  11
ATOM     11  C   UNL     1      15.594  18.080  38.567  1.00  0.00     0.000 C 
BRANCH  11  12
ATOM     12  C   UNL     1      14.556  16.952  38.697  1.00  0.00     0.000 C 
BRANCH  12  13
ATOM     13  C   UNL     1      15.109  15.587  38.259  1.00  0.00     0.000 C 
BRANCH  13  14
ATOM     14  C   UNL     1      14.397  15.032  37.013  1.00  0.00     0.000 C 
BRANCH  14  15
ATOM     15  C   UNL     1      13.164  15.862  36.620  1.00  0.00     0.000 C 
BRANCH  15  16
ATOM     16  C   UNL     1      13.368  16.648  35.316  1.00  0.00     0.006 C 
BRANCH  16  17
ATOM     17  C   UNL     1      12.837  18.079  35.450  1.00  0.00     0.053 C 
BRANCH  17  18
ATOM     18  C   UNL     1      11.341  18.085  35.448  1.00  0.00     0.041 C 
ATOM     19  O   UNL     1      10.708  18.802  36.268  1.00  0.00    -0.550 OA
ATOM     20  O   UNL     1      10.643  17.259  34.575  1.00  0.00    -0.550 OA
ENDBRANCH  17  18
ENDBRANCH  16  17
ENDBRANCH  15  16
ENDBRANCH  14  15
ENDBRANCH  13  14
ENDBRANCH  12  13
ENDBRANCH  11  12
ENDBRANCH   1  11
TORSDOF 15
ENDMDL
MODEL 4
REMARK VINA RESULT:    -5.159      2.967      4.143
REMARK INTER + INTRA:         -11.604
REMARK INTER:                 -10.061
REMARK INTRA:                  -1.542
REMARK UNBOUND:                -1.920
REMARK SMILES O=C([O-])CCCCCCCCCCCCCCC(=O)[O-]
REMARK SMILES IDX 10 1 9 2 8 3 7 4 6 5 5 6 4 7 2 8 1 9 3 10 11 11 12 12 13 13
REMARK SMILES IDX 14 14 15 15 16 16 17 17 18 18 19 19 20 20
REMARK H PARENT
REMARK Flexibility Score: inf
ROOT
ATOM      1  C   UNL     1      13.192  17.889  35.842  1.00  0.00     0.000 C 
ENDROOT
BRANCH   1   2
ATOM      2  C   UNL     1      11.858  18.505  35.374  1.00  0.00     0.000 C 
BRANCH   2   3
ATOM      3  C   UNL     1      10.616  18.076  36.180  1.00  0.00     0.000 C 
BRANCH   3   4
ATOM      4  C   UNL     1       9.654  17.128  35.440  1.00  0.00     0.000 C 
BRANCH   4   5
ATOM      5  C   UNL     1       9.794  17.210  33.911  1.00  0.00     0.000 C 
BRANCH   5   6
ATOM      6  C   UNL     1       8.698  18.071  33.263  1.00  0.00     0.006 C 
BRANCH   6   7
ATOM      7  C   UNL     1       9.268  19.212  32.411  1.00  0.00     0.053 C 
BRANCH   7   8
ATOM      8  C   UNL     1       9.094  18.912  30.956  1.00  0.00     0.041 C 
ATOM      9  O   UNL     1       9.635  17.893  30.450  1.00  0.00    -0.550 OA
ATOM     10  O   UNL     1       8.377  19.783  30.146  1.00  0.00    -0.550 OA
ENDBRANCH   7   8
ENDBRANCH   6   7
ENDBRANCH   5   6
ENDBRANCH   4   5
ENDBRANCH   3   4
ENDBRANCH   2   3
ENDBRANCH   1   2
BRANCH   1  11
ATOM     11  C   UNL     1      13.418  16.425  35.420  1.00  0.00     0.000 C 
BRANCH  11  12
ATOM     12  C   UNL     1      13.851  15.529  36.593  1.00  0.00     0.000 C 
BRANCH  12  13
ATOM     13  C   UNL     1      13.931  16.294  37.923  1.00  0.00     0.000 C 
BRANCH  13  14
ATOM     14  C   UNL     1      15.374  16.439  38.438  1.00  0.00     0.000 C 
BRANCH  14  15
ATOM     15  C   UNL     1      15.880  17.889  38.372  1.00  0.00     0.000 C 
BRANCH  15  16
ATOM     16  C   UNL     1      16.533  18.230  37.024  1.00  0.00     0.006 C 
BRANCH  16  17
ATOM     17  C   UNL     1      17.322  17.035  36.479  1.00  0.00     0.053 C 
BRANCH  17  18
ATOM     18  C   UNL     1      18.093  17.428  35.260  1.00  0.00     0.041 C 
ATOM     19  O   UNL     1      19.300  17.774  35.356  1.00  0.00    -0.550 OA
ATOM     20  O   UNL     1      17.464  17.463  34.020  1.00  0.00    -0.550 OA
ENDBRANCH  17  18
ENDBRANCH  16  17
ENDBRANCH  15  16
ENDBRANCH  14  15
ENDBRANCH  13  14
ENDBRANCH  12  13
ENDBRANCH  11  12
ENDBRANCH   1  11
TORSDOF 15
ENDMDL
MODEL 5
REMARK VINA RESULT:    -5.156      5.584      8.426
REMARK INTER + INTRA:         -11.598
REMARK INTER:                  -9.546
REMARK INTRA:                  -2.052
REMARK UNBOUND:                -1.920
REMARK SMILES O=C([O-])CCCCCCCCCCCCCCC(=O)[O-]
REMARK SMILES IDX 10 1 9 2 8 3 7 4 6 5 5 6 4 7 2 8 1 9 3 10 11 11 12 12 13 13
REMARK SMILES IDX 14 14 15 15 16 16 17 17 18 18 19 19 20 20
REMARK H PARENT
REMARK Flexibility Score: inf
ROOT
ATOM      1  C   UNL     1      10.312  18.918  33.403  1.00  0.00     0.000 C 
ENDROOT
BRANCH   1   2
ATOM      2  C   UNL     1       8.986  18.347  33.945  1.00  0.00     0.000 C 
BRANCH   2   3
ATOM      3  C   UNL     1       8.174  19.305  34.839  1.00  0.00     0.000 C 
BRANCH   3   4
ATOM      4  C   UNL     1       9.002  20.391  35.552  1.00  0.00     0.000 C 
BRANCH   4   5
ATOM      5  C   UNL     1       8.780  20.407  37.073  1.00  0.00     0.000 C 
BRANCH   5   6
ATOM      6  C   UNL     1       8.393  19.027  37.628  1.00  0.00     0.006 C 
BRANCH   6   7
ATOM      7  C   UNL     1       9.570  18.310  38.302  1.00  0.00     0.053 C 
BRANCH   7   8
ATOM      8  C   UNL     1      10.345  17.520  37.295  1.00  0.00     0.041 C 
ATOM      9  O   UNL     1       9.912  16.409  36.892  1.00  0.00    -0.550 OA
ATOM     10  O   UNL     1      11.570  17.989  36.837  1.00  0.00    -0.550 OA
ENDBRANCH   7   8
ENDBRANCH   6   7
ENDBRANCH   5   6
ENDBRANCH   4   5
ENDBRANCH   3   4
ENDBRANCH   2   3
ENDBRANCH   1   2
BRANCH   1  11
ATOM     11  C   UNL     1      10.352  19.143  31.880  1.00  0.00     0.000 C 
BRANCH  11  12
ATOM     12  C   UNL     1       9.033  18.757  31.188  1.00  0.00     0.000 C 
BRANCH  12  13
ATOM     13  C   UNL     1       8.363  19.950  30.487  1.00  0.00     0.000 C 
BRANCH  13  14
ATOM     14  C   UNL     1       7.992  21.079  31.465  1.00  0.00     0.000 C 
BRANCH  14  15
ATOM     15  C   UNL     1       8.559  22.441  31.035  1.00  0.00     0.000 C 
BRANCH  15  16
ATOM     16  C   UNL     1       9.665  22.947  31.974  1.00  0.00     0.006 C 
BRANCH  16  17
ATOM     17  C   UNL     1       9.079  23.408  33.312  1.00  0.00     0.053 C 
BRANCH  17  18
ATOM     18  C   UNL     1       9.726  24.680  33.758  1.00  0.00     0.041 C 
ATOM     19  O   UNL     1       9.700  25.015  34.972  1.00  0.00    -0.550 OA
ATOM     20  O   UNL     1      10.315  25.525  32.824  1.00  0.00    -0.550 OA
ENDBRANCH  17  18
ENDBRANCH  16  17
ENDBRANCH  15  16
ENDBRANCH  14  15
ENDBRANCH  13  14
ENDBRANCH  12  13
ENDBRANCH  11  12
ENDBRANCH   1  11
TORSDOF 15
ENDMDL
MODEL 6
REMARK VINA RESULT:    -5.085      4.588      7.159
REMARK INTER + INTRA:         -11.464
REMARK INTER:                  -9.755
REMARK INTRA:                  -1.709
REMARK UNBOUND:                -1.920
REMARK SMILES O=C([O-])CCCCCCCCCCCCCCC(=O)[O-]
REMARK SMILES IDX 10 1 9 2 8 3 7 4 6 5 5 6 4 7 2 8 1 9 3 10 11 11 12 12 13 13
REMARK SMILES IDX 14 14 15 15 16 16 17 17 18 18 19 19 20 20
REMARK H PARENT
REMARK Flexibility Score: inf
ROOT
ATOM      1  C   UNL     1       9.826  18.875  32.025  1.00  0.00     0.000 C 
ENDROOT
BRANCH   1   2
ATOM      2  C   UNL     1       9.079  18.650  30.695  1.00  0.00     0.000 C 
BRANCH   2   3
ATOM      3  C   UNL     1       8.331  19.880  30.144  1.00  0.00     0.000 C 
BRANCH   3   4
ATOM      4  C   UNL     1       7.996  20.962  31.188  1.00  0.00     0.000 C 
BRANCH   4   5
ATOM      5  C   UNL     1       8.391  22.376  30.730  1.00  0.00     0.000 C 
BRANCH   5   6
ATOM      6  C   UNL     1       9.408  23.039  31.673  1.00  0.00     0.006 C 
BRANCH   6   7
ATOM      7  C   UNL     1       9.368  22.456  33.091  1.00  0.00     0.053 C 
BRANCH   7   8
ATOM      8  C   UNL     1      10.730  21.995  33.504  1.00  0.00     0.041 C 
ATOM      9  O   UNL     1      11.730  22.246  32.781  1.00  0.00    -0.550 OA
ATOM     10  O   UNL     1      10.889  21.245  34.662  1.00  0.00    -0.550 OA
ENDBRANCH   7   8
ENDBRANCH   6   7
ENDBRANCH   5   6
ENDBRANCH   4   5
ENDBRANCH   3   4
ENDBRANCH   2   3
ENDBRANCH   1   2
BRANCH   1  11
ATOM     11  C   UNL     1       9.351  17.995  33.196  1.00  0.00     0.000 C 
BRANCH  11  12
ATOM     12  C   UNL     1       8.263  18.674  34.047  1.00  0.00     0.000 C 
BRANCH  12  13
ATOM     13  C   UNL     1       8.032  17.961  35.388  1.00  0.00     0.000 C 
BRANCH  13  14
ATOM     14  C   UNL     1       8.882  16.687  35.536  1.00  0.00     0.000 C 
BRANCH  14  15
ATOM     15  C   UNL     1       9.710  16.678  36.832  1.00  0.00     0.000 C 
BRANCH  15  16
ATOM     16  C   UNL     1      10.934  17.604  36.761  1.00  0.00     0.006 C 
BRANCH  16  17
ATOM     17  C   UNL     1      12.018  17.011  35.857  1.00  0.00     0.053 C 
BRANCH  17  18
ATOM     18  C   UNL     1      13.080  16.350  36.677  1.00  0.00     0.041 C 
ATOM     19  O   UNL     1      13.812  15.459  36.170  1.00  0.00    -0.550 OA
ATOM     20  O   UNL     1      13.229  16.680  38.019  1.00  0.00    -0.550 OA
ENDBRANCH  17  18
ENDBRANCH  16  17
ENDBRANCH  15  16
ENDBRANCH  14  15
ENDBRANCH  13  14
ENDBRANCH  12  13
ENDBRANCH  11  12
ENDBRANCH   1  11
TORSDOF 15
ENDMDL
MODEL 7
REMARK VINA RESULT:    -5.031      1.151      8.770
REMARK INTER + INTRA:         -11.364
REMARK INTER:                 -10.003
REMARK INTRA:                  -1.361
REMARK UNBOUND:                -1.920
REMARK SMILES O=C([O-])CCCCCCCCCCCCCCC(=O)[O-]
REMARK SMILES IDX 10 1 9 2 8 3 7 4 6 5 5 6 4 7 2 8 1 9 3 10 11 11 12 12 13 13
REMARK SMILES IDX 14 14 15 15 16 16 17 17 18 18 19 19 20 20
REMARK H PARENT
REMARK Flexibility Score: inf
ROOT
ATOM      1  C   UNL     1      15.385  17.357  38.746  1.00  0.00     0.000 C 
ENDROOT
BRANCH   1   2
ATOM      2  C   UNL     1      16.136  18.259  37.747  1.00  0.00     0.000 C 
BRANCH   2   3
ATOM      3  C   UNL     1      17.021  17.517  36.726  1.00  0.00     0.000 C 
BRANCH   3   4
ATOM      4  C   UNL     1      17.249  18.261  35.397  1.00  0.00     0.000 C 
BRANCH   4   5
ATOM      5  C   UNL     1      17.868  17.366  34.311  1.00  0.00     0.000 C 
BRANCH   5   6
ATOM      6  C   UNL     1      19.123  16.626  34.800  1.00  0.00     0.006 C 
BRANCH   6   7
ATOM      7  C   UNL     1      20.386  17.496  34.736  1.00  0.00     0.053 C 
BRANCH   7   8
ATOM      8  C   UNL     1      21.429  16.838  33.890  1.00  0.00     0.041 C 
ATOM      9  O   UNL     1      22.241  16.024  34.404  1.00  0.00    -0.550 OA
ATOM     10  O   UNL     1      21.537  17.160  32.543  1.00  0.00    -0.550 OA
ENDBRANCH   7   8
ENDBRANCH   6   7
ENDBRANCH   5   6
ENDBRANCH   4   5
ENDBRANCH   3   4
ENDBRANCH   2   3
ENDBRANCH   1   2
BRANCH   1  11
ATOM     11  C   UNL     1      13.965  16.946  38.314  1.00  0.00     0.000 C 
BRANCH  11  12
ATOM     12  C   UNL     1      13.950  15.657  37.473  1.00  0.00     0.000 C 
BRANCH  12  13
ATOM     13  C   UNL     1      13.744  15.932  35.975  1.00  0.00     0.000 C 
BRANCH  13  14
ATOM     14  C   UNL     1      13.227  17.355  35.700  1.00  0.00     0.000 C 
BRANCH  14  15
ATOM     15  C   UNL     1      11.712  17.393  35.445  1.00  0.00     0.000 C 
BRANCH  15  16
ATOM     16  C   UNL     1      10.973  18.345  36.398  1.00  0.00     0.006 C 
BRANCH  16  17
ATOM     17  C   UNL     1      10.233  17.563  37.488  1.00  0.00     0.053 C 
BRANCH  17  18
ATOM     18  C   UNL     1       9.269  18.452  38.208  1.00  0.00     0.041 C 
ATOM     19  O   UNL     1       8.378  19.071  37.568  1.00  0.00    -0.550 OA
ATOM     20  O   UNL     1       9.385  18.637  39.580  1.00  0.00    -0.550 OA
ENDBRANCH  17  18
ENDBRANCH  16  17
ENDBRANCH  15  16
ENDBRANCH  14  15
ENDBRANCH  13  14
ENDBRANCH  12  13
ENDBRANCH  11  12
ENDBRANCH   1  11
TORSDOF 15
ENDMDL
MODEL 8
REMARK VINA RESULT:    -4.998      1.561      2.398
REMARK INTER + INTRA:         -11.301
REMARK INTER:                 -10.101
REMARK INTRA:                  -1.201
REMARK UNBOUND:                -1.920
REMARK SMILES O=C([O-])CCCCCCCCCCCCCCC(=O)[O-]
REMARK SMILES IDX 10 1 9 2 8 3 7 4 6 5 5 6 4 7 2 8 1 9 3 10 11 11 12 12 13 13
REMARK SMILES IDX 14 14 15 15 16 16 17 17 18 18 19 19 20 20
REMARK H PARENT
REMARK Flexibility Score: inf
ROOT
ATOM      1  C   UNL     1      15.689  16.237  38.290  1.00  0.00     0.000 C 
ENDROOT
BRANCH   1   2
ATOM      2  C   UNL     1      14.292  15.662  37.980  1.00  0.00     0.000 C 
BRANCH   2   3
ATOM      3  C   UNL     1      13.919  15.610  36.485  1.00  0.00     0.000 C 
BRANCH   3   4
ATOM      4  C   UNL     1      12.785  16.563  36.062  1.00  0.00     0.000 C 
BRANCH   4   5
ATOM      5  C   UNL     1      12.016  17.143  37.261  1.00  0.00     0.000 C 
BRANCH   5   6
ATOM      6  C   UNL     1      10.503  17.233  37.003  1.00  0.00     0.006 C 
BRANCH   6   7
ATOM      7  C   UNL     1       9.780  18.118  38.026  1.00  0.00     0.053 C 
BRANCH   7   8
ATOM      8  C   UNL     1       8.567  18.741  37.411  1.00  0.00     0.041 C 
ATOM      9  O   UNL     1       7.876  18.095  36.579  1.00  0.00    -0.550 OA
ATOM     10  O   UNL     1       8.225  20.051  37.720  1.00  0.00    -0.550 OA
ENDBRANCH   7   8
ENDBRANCH   6   7
ENDBRANCH   5   6
ENDBRANCH   4   5
ENDBRANCH   3   4
ENDBRANCH   2   3
ENDBRANCH   1   2
BRANCH   1  11
ATOM     11  C   UNL     1      15.775  17.775  38.293  1.00  0.00     0.000 C 
BRANCH  11  12
ATOM     12  C   UNL     1      16.363  18.340  36.988  1.00  0.00     0.000 C 
BRANCH  12  13
ATOM     13  C   UNL     1      17.291  17.341  36.278  1.00  0.00     0.000 C 
BRANCH  13  14
ATOM     14  C   UNL     1      17.150  17.388  34.746  1.00  0.00     0.000 C 
BRANCH  14  15
ATOM     15  C   UNL     1      18.508  17.467  34.031  1.00  0.00     0.000 C 
BRANCH  15  16
ATOM     16  C   UNL     1      19.660  17.826  34.983  1.00  0.00     0.006 C 
BRANCH  16  17
ATOM     17  C   UNL     1      20.911  17.002  34.664  1.00  0.00     0.053 C 
BRANCH  17  18
ATOM     18  C   UNL     1      21.900  17.825  33.901  1.00  0.00     0.041 C 
ATOM     19  O   UNL     1      21.751  18.011  32.664  1.00  0.00    -0.550 OA
ATOM     20  O   UNL     1      23.017  18.344  34.545  1.00  0.00    -0.550 OA
ENDBRANCH  17  18
ENDBRANCH  16  17
ENDBRANCH  15  16
ENDBRANCH  14  15
ENDBRANCH  13  14
ENDBRANCH  12  13
ENDBRANCH  11  12
ENDBRANCH   1  11
TORSDOF 15
ENDMDL
MODEL 9
REMARK VINA RESULT:    -4.955      6.313      7.914
REMARK INTER + INTRA:         -11.221
REMARK INTER:                  -9.074
REMARK INTRA:                  -2.147
REMARK UNBOUND:                -1.920
REMARK SMILES O=C([O-])CCCCCCCCCCCCCCC(=O)[O-]
REMARK SMILES IDX 10 1 9 2 8 3 7 4 6 5 5 6 4 7 2 8 1 9 3 10 11 11 12 12 13 13
REMARK SMILES IDX 14 14 15 15 16 16 17 17 18 18 19 19 20 20
REMARK H PARENT
REMARK Flexibility Score: inf
ROOT
ATOM      1  C   UNL     1       8.629  18.136  33.138  1.00  0.00     0.000 C 
ENDROOT
BRANCH   1   2
ATOM      2  C   UNL     1       9.706  17.479  34.024  1.00  0.00     0.000 C 
BRANCH   2   3
ATOM      3  C   UNL     1       9.461  17.581  35.543  1.00  0.00     0.000 C 
BRANCH   3   4
ATOM      4  C   UNL     1       7.998  17.840  35.951  1.00  0.00     0.000 C 
BRANCH   4   5
ATOM      5  C   UNL     1       7.878  18.680  37.234  1.00  0.00     0.000 C 
BRANCH   5   6
ATOM      6  C   UNL     1       9.136  18.598  38.113  1.00  0.00     0.006 C 
BRANCH   6   7
ATOM      7  C   UNL     1       9.505  19.947  38.744  1.00  0.00     0.053 C 
BRANCH   7   8
ATOM      8  C   UNL     1      10.171  19.738  40.067  1.00  0.00     0.041 C 
ATOM      9  O   UNL     1      11.299  20.250  40.296  1.00  0.00    -0.550 OA
ATOM     10  O   UNL     1       9.570  18.939  41.030  1.00  0.00    -0.550 OA
ENDBRANCH   7   8
ENDBRANCH   6   7
ENDBRANCH   5   6
ENDBRANCH   4   5
ENDBRANCH   3   4
ENDBRANCH   2   3
ENDBRANCH   1   2
BRANCH   1  11
ATOM     11  C   UNL     1       9.089  18.504  31.715  1.00  0.00     0.000 C 
BRANCH  11  12
ATOM     12  C   UNL     1       8.746  19.955  31.335  1.00  0.00     0.000 C 
BRANCH  12  13
ATOM     13  C   UNL     1       8.974  20.938  32.494  1.00  0.00     0.000 C 
BRANCH  13  14
ATOM     14  C   UNL     1      10.467  21.162  32.796  1.00  0.00     0.000 C 
BRANCH  14  15
ATOM     15  C   UNL     1      10.761  21.218  34.304  1.00  0.00     0.000 C 
BRANCH  15  16
ATOM     16  C   UNL     1       9.485  21.196  35.159  1.00  0.00     0.006 C 
BRANCH  16  17
ATOM     17  C   UNL     1       9.372  22.466  36.008  1.00  0.00     0.053 C 
BRANCH  17  18
ATOM     18  C   UNL     1       9.339  23.680  35.134  1.00  0.00     0.041 C 
ATOM     19  O   UNL     1      10.271  24.525  35.186  1.00  0.00    -0.550 OA
ATOM     20  O   UNL     1       8.252  23.904  34.296  1.00  0.00    -0.550 OA
ENDBRANCH  17  18
ENDBRANCH  16  17
ENDBRANCH  15  16
ENDBRANCH  14  15
ENDBRANCH  13  14
ENDBRANCH  12  13
ENDBRANCH  11  12
ENDBRANCH   1  11
TORSDOF 15
ENDMDL
