MODEL 1
REMARK VINA RESULT:    -3.732      0.000      0.000
REMARK INTER + INTRA:          -4.964
REMARK INTER:                  -5.695
REMARK INTRA:                   0.731
REMARK UNBOUND:                 0.731
REMARK SMILES CC1=CCC[C@H](C)C(=O)C[C@@H](C(C)C)C(=O)C1
REMARK SMILES IDX 8 1 9 2 6 3 7 4 5 5 4 6 3 7 2 8 1 9 10 11 11 12 15 13 16 14
REMARK SMILES IDX 17 15 12 17 13 18 14 19
REMARK H PARENT
REMARK Flexibility Score: 70.00
ROOT
ATOM      1  C   UNL     1      -0.465  29.212  51.582  1.00  0.00     0.136 C 
ATOM      2  O   UNL     1      -1.011  28.238  51.081  1.00  0.00    -0.299 OA
ENDROOT
BRANCH   1   3
ATOM      3  C   UNL     1      -0.718  30.589  51.014  1.00  0.00     0.053 C 
ATOM      4  C   UNL     1      -0.737  30.535  49.481  1.00  0.00     0.016 C 
BRANCH   3   5
ATOM      5  C   UNL     1      -2.032  31.184  51.555  1.00  0.00     0.015 C 
BRANCH   5   6
ATOM      6  C   UNL     1      -3.057  30.102  51.961  1.00  0.00     0.028 C 
BRANCH   6   7
ATOM      7  C   UNL     1      -3.378  30.166  53.437  1.00  0.00    -0.028 C 
ATOM      8  C   UNL     1      -3.066  29.249  54.385  1.00  0.00    -0.070 CG0
ATOM      9  C   UNL     1      -3.456  29.565  55.809  1.00  0.00     0.039 C 
ATOM     10  G   UNL     1      -2.377  27.922  54.114  1.00  0.00     0.000 G0
ENDBRANCH   6   7
ENDBRANCH   5   6
ENDBRANCH   3   5
ENDBRANCH   1   3
BRANCH   1  11
ATOM     11  C   UNL     1       0.515  29.035  52.720  1.00  0.00     0.087 C 
BRANCH  11  12
ATOM     12  C   UNL     1       0.238  27.783  53.587  1.00  0.00     0.066 C 
BRANCH  12  13
ATOM     13  C   UNL     1      -0.927  27.955  54.553  1.00  0.00     0.140 C 
ATOM     14  O   UNL     1      -0.672  28.189  55.726  1.00  0.00    -0.299 OA
BRANCH  13  15
ATOM     15  C   UNL     1      -2.376  27.921  54.122  1.00  0.00     0.106 CG0
ATOM     16  G   UNL     1      -3.064  29.246  54.403  1.00  0.00     0.000 G0
ENDBRANCH  13  15
ENDBRANCH  12  13
BRANCH  12  17
ATOM     17  C   UNL     1       1.530  27.247  54.278  1.00  0.00    -0.006 C 
ATOM     18  C   UNL     1       2.784  27.581  53.454  1.00  0.00     0.008 C 
ATOM     19  C   UNL     1       1.498  25.742  54.590  1.00  0.00     0.008 C 
ENDBRANCH  12  17
ENDBRANCH  11  12
ENDBRANCH   1  11
TORSDOF 1
ENDMDL
MODEL 2
REMARK VINA RESULT:    -3.452      8.197     10.024
REMARK INTER + INTRA:          -4.538
REMARK INTER:                  -4.712
REMARK INTRA:                   0.174
REMARK UNBOUND:                 0.731
REMARK SMILES CC1=CCC[C@H](C)C(=O)C[C@@H](C(C)C)C(=O)C1
REMARK SMILES IDX 8 1 9 2 6 3 7 4 5 5 4 6 3 7 2 8 1 9 10 11 11 12 15 13 16 14
REMARK SMILES IDX 17 15 12 17 13 18 14 19
REMARK H PARENT
REMARK Flexibility Score: 70.00
ROOT
ATOM      1  C   UNL     1      -1.461  31.587  60.765  1.00  0.00     0.136 C 
ATOM      2  O   UNL     1      -0.662  31.412  59.854  1.00  0.00    -0.299 OA
ENDROOT
BRANCH   1   3
ATOM      3  C   UNL     1      -2.882  31.091  60.622  1.00  0.00     0.053 C 
ATOM      4  C   UNL     1      -3.220  30.117  61.757  1.00  0.00     0.016 C 
BRANCH   3   5
ATOM      5  C   UNL     1      -3.882  32.263  60.592  1.00  0.00     0.015 C 
BRANCH   5   6
ATOM      6  C   UNL     1      -3.734  33.145  59.333  1.00  0.00     0.028 C 
BRANCH   6   7
ATOM      7  C   UNL     1      -3.868  34.614  59.665  1.00  0.00    -0.028 C 
ATOM      8  C   UNL     1      -2.866  35.514  59.819  1.00  0.00    -0.070 CG0
ATOM      9  C   UNL     1      -3.259  36.944  60.104  1.00  0.00     0.039 C 
ATOM     10  G   UNL     1      -1.385  35.183  59.749  1.00  0.00     0.000 G0
ENDBRANCH   6   7
ENDBRANCH   5   6
ENDBRANCH   3   5
ENDBRANCH   1   3
BRANCH   1  11
ATOM     11  C   UNL     1      -1.054  32.357  62.001  1.00  0.00     0.087 C 
BRANCH  11  12
ATOM     12  C   UNL     1      -1.572  33.815  62.020  1.00  0.00     0.066 C 
BRANCH  12  13
ATOM     13  C   UNL     1      -0.825  34.742  61.069  1.00  0.00     0.140 C 
ATOM     14  O   UNL     1       0.304  35.094  61.377  1.00  0.00    -0.299 OA
BRANCH  13  15
ATOM     15  C   UNL     1      -1.383  35.188  59.736  1.00  0.00     0.106 CG0
ATOM     16  G   UNL     1      -2.861  35.523  59.844  1.00  0.00     0.000 G0
ENDBRANCH  13  15
ENDBRANCH  12  13
BRANCH  12  17
ATOM     17  C   UNL     1      -1.676  34.384  63.469  1.00  0.00    -0.006 C 
ATOM     18  C   UNL     1      -1.143  33.379  64.503  1.00  0.00     0.008 C 
ATOM     19  C   UNL     1      -3.091  34.839  63.866  1.00  0.00     0.008 C 
ENDBRANCH  12  17
ENDBRANCH  11  12
ENDBRANCH   1  11
TORSDOF 1
ENDMDL
MODEL 3
REMARK VINA RESULT:    -3.439      1.581      3.838
REMARK INTER + INTRA:          -4.518
REMARK INTER:                  -4.799
REMARK INTRA:                   0.282
REMARK UNBOUND:                 0.731
REMARK SMILES CC1=CCC[C@H](C)C(=O)C[C@@H](C(C)C)C(=O)C1
REMARK SMILES IDX 8 1 9 2 6 3 7 4 5 5 4 6 3 7 2 8 1 9 10 11 11 12 15 13 16 14
REMARK SMILES IDX 17 15 12 17 13 18 14 19
REMARK H PARENT
REMARK Flexibility Score: 70.00
ROOT
ATOM      1  C   UNL     1      -2.207  28.508  55.137  1.00  0.00     0.136 C 
ATOM      2  O   UNL     1      -1.825  28.455  56.298  1.00  0.00    -0.299 OA
ENDROOT
BRANCH   1   3
ATOM      3  C   UNL     1      -3.445  29.303  54.791  1.00  0.00     0.053 C 
ATOM      4  C   UNL     1      -4.054  29.915  56.059  1.00  0.00     0.016 C 
BRANCH   3   5
ATOM      5  C   UNL     1      -3.134  30.398  53.752  1.00  0.00     0.015 C 
BRANCH   5   6
ATOM      6  C   UNL     1      -3.806  30.137  52.386  1.00  0.00     0.028 C 
BRANCH   6   7
ATOM      7  C   UNL     1      -2.985  30.696  51.247  1.00  0.00    -0.028 C 
ATOM      8  C   UNL     1      -1.858  30.167  50.712  1.00  0.00    -0.070 CG0
ATOM      9  C   UNL     1      -1.242  30.892  49.539  1.00  0.00     0.039 C 
ATOM     10  G   UNL     1      -1.161  28.917  51.220  1.00  0.00     0.000 G0
ENDBRANCH   6   7
ENDBRANCH   5   6
ENDBRANCH   3   5
ENDBRANCH   1   3
BRANCH   1  11
ATOM     11  C   UNL     1      -1.489  27.726  54.060  1.00  0.00     0.087 C 
BRANCH  11  12
ATOM     12  C   UNL     1      -0.143  28.357  53.631  1.00  0.00     0.066 C 
BRANCH  12  13
ATOM     13  C   UNL     1      -0.249  29.238  52.393  1.00  0.00     0.140 C 
ATOM     14  O   UNL     1       0.471  30.225  52.324  1.00  0.00    -0.299 OA
BRANCH  13  15
ATOM     15  C   UNL     1      -1.146  28.916  51.218  1.00  0.00     0.106 CG0
ATOM     16  G   UNL     1      -1.843  30.163  50.701  1.00  0.00     0.000 G0
ENDBRANCH  13  15
ENDBRANCH  12  13
BRANCH  12  17
ATOM     17  C   UNL     1       0.998  27.298  53.530  1.00  0.00    -0.006 C 
ATOM     18  C   UNL     1       0.562  25.949  54.122  1.00  0.00     0.008 C 
ATOM     19  C   UNL     1       2.326  27.741  54.167  1.00  0.00     0.008 C 
ENDBRANCH  12  17
ENDBRANCH  11  12
ENDBRANCH   1  11
TORSDOF 1
ENDMDL
MODEL 4
REMARK VINA RESULT:    -3.256      7.873     10.369
REMARK INTER + INTRA:          -4.239
REMARK INTER:                  -4.428
REMARK INTRA:                   0.189
REMARK UNBOUND:                 0.731
REMARK SMILES CC1=CCC[C@H](C)C(=O)C[C@@H](C(C)C)C(=O)C1
REMARK SMILES IDX 8 1 9 2 6 3 7 4 5 5 4 6 3 7 2 8 1 9 10 11 11 12 15 13 16 14
REMARK SMILES IDX 17 15 12 17 13 18 14 19
REMARK H PARENT
REMARK Flexibility Score: 70.00
ROOT
ATOM      1  C   UNL     1      -1.014  32.183  60.762  1.00  0.00     0.136 C 
ATOM      2  O   UNL     1      -0.075  32.043  59.990  1.00  0.00    -0.299 OA
ENDROOT
BRANCH   1   3
ATOM      3  C   UNL     1      -2.317  31.465  60.495  1.00  0.00     0.053 C 
ATOM      4  C   UNL     1      -2.198  30.604  59.230  1.00  0.00     0.016 C 
BRANCH   3   5
ATOM      5  C   UNL     1      -2.740  30.606  61.702  1.00  0.00     0.015 C 
BRANCH   5   6
ATOM      6  C   UNL     1      -4.074  31.069  62.328  1.00  0.00     0.028 C 
BRANCH   6   7
ATOM      7  C   UNL     1      -3.849  31.834  63.613  1.00  0.00    -0.028 C 
ATOM      8  C   UNL     1      -3.773  33.178  63.764  1.00  0.00    -0.070 CG0
ATOM      9  C   UNL     1      -3.588  33.708  65.166  1.00  0.00     0.039 C 
ATOM     10  G   UNL     1      -3.836  34.183  62.626  1.00  0.00     0.000 G0
ENDBRANCH   6   7
ENDBRANCH   5   6
ENDBRANCH   3   5
ENDBRANCH   1   3
BRANCH   1  11
ATOM     11  C   UNL     1      -0.900  33.122  61.941  1.00  0.00     0.087 C 
BRANCH  11  12
ATOM     12  C   UNL     1      -1.386  34.560  61.636  1.00  0.00     0.066 C 
BRANCH  12  13
ATOM     13  C   UNL     1      -2.571  34.997  62.488  1.00  0.00     0.140 C 
ATOM     14  O   UNL     1      -2.507  36.081  63.051  1.00  0.00    -0.299 OA
BRANCH  13  15
ATOM     15  C   UNL     1      -3.845  34.193  62.614  1.00  0.00     0.106 CG0
ATOM     16  G   UNL     1      -3.749  33.187  63.748  1.00  0.00     0.000 G0
ENDBRANCH  13  15
ENDBRANCH  12  13
BRANCH  12  17
ATOM     17  C   UNL     1      -1.612  34.794  60.110  1.00  0.00    -0.006 C 
ATOM     18  C   UNL     1      -0.477  35.631  59.499  1.00  0.00     0.008 C 
ATOM     19  C   UNL     1      -2.970  35.428  59.766  1.00  0.00     0.008 C 
ENDBRANCH  12  17
ENDBRANCH  11  12
ENDBRANCH   1  11
TORSDOF 1
ENDMDL
MODEL 5
REMARK VINA RESULT:    -3.069      7.777     10.018
REMARK INTER + INTRA:          -3.952
REMARK INTER:                  -4.396
REMARK INTRA:                   0.443
REMARK UNBOUND:                 0.731
REMARK SMILES CC1=CCC[C@H](C)C(=O)C[C@@H](C(C)C)C(=O)C1
REMARK SMILES IDX 8 1 9 2 6 3 7 4 5 5 4 6 3 7 2 8 1 9 10 11 11 12 15 13 16 14
REMARK SMILES IDX 17 15 12 17 13 18 14 19
REMARK H PARENT
REMARK Flexibility Score: 70.00
ROOT
ATOM      1  C   UNL     1      -0.920  33.421  62.384  1.00  0.00     0.136 C 
ATOM      2  O   UNL     1       0.017  32.874  62.950  1.00  0.00    -0.299 OA
ENDROOT
BRANCH   1   3
ATOM      3  C   UNL     1      -2.071  33.969  63.196  1.00  0.00     0.053 C 
ATOM      4  C   UNL     1      -1.892  33.610  64.677  1.00  0.00     0.016 C 
BRANCH   3   5
ATOM      5  C   UNL     1      -2.206  35.493  63.017  1.00  0.00     0.015 C 
BRANCH   5   6
ATOM      6  C   UNL     1      -3.630  35.924  62.601  1.00  0.00     0.028 C 
BRANCH   6   7
ATOM      7  C   UNL     1      -3.760  36.035  61.099  1.00  0.00    -0.028 C 
ATOM      8  C   UNL     1      -3.986  35.030  60.219  1.00  0.00    -0.070 CG0
ATOM      9  C   UNL     1      -4.125  35.403  58.762  1.00  0.00     0.039 C 
ATOM     10  G   UNL     1      -4.084  33.560  60.589  1.00  0.00     0.000 G0
ENDBRANCH   6   7
ENDBRANCH   5   6
ENDBRANCH   3   5
ENDBRANCH   1   3
BRANCH   1  11
ATOM     11  C   UNL     1      -0.965  33.489  60.874  1.00  0.00     0.087 C 
BRANCH  11  12
ATOM     12  C   UNL     1      -1.749  32.322  60.225  1.00  0.00     0.066 C 
BRANCH  12  13
ATOM     13  C   UNL     1      -3.144  32.712  59.752  1.00  0.00     0.140 C 
ATOM     14  O   UNL     1      -3.532  32.271  58.679  1.00  0.00    -0.299 OA
BRANCH  13  15
ATOM     15  C   UNL     1      -4.093  33.558  60.571  1.00  0.00     0.106 CG0
ATOM     16  G   UNL     1      -3.980  35.026  60.200  1.00  0.00     0.000 G0
ENDBRANCH  13  15
ENDBRANCH  12  13
BRANCH  12  17
ATOM     17  C   UNL     1      -1.744  31.042  61.116  1.00  0.00    -0.006 C 
ATOM     18  C   UNL     1      -1.212  29.825  60.342  1.00  0.00     0.008 C 
ATOM     19  C   UNL     1      -3.108  30.705  61.742  1.00  0.00     0.008 C 
ENDBRANCH  12  17
ENDBRANCH  11  12
ENDBRANCH   1  11
TORSDOF 1
ENDMDL
MODEL 6
REMARK VINA RESULT:    -3.007      8.184     10.368
REMARK INTER + INTRA:          -3.859
REMARK INTER:                  -4.212
REMARK INTRA:                   0.353
REMARK UNBOUND:                 0.731
REMARK SMILES CC1=CCC[C@H](C)C(=O)C[C@@H](C(C)C)C(=O)C1
REMARK SMILES IDX 8 1 9 2 6 3 7 4 5 5 4 6 3 7 2 8 1 9 10 11 11 12 15 13 16 14
REMARK SMILES IDX 17 15 12 17 13 18 14 19
REMARK H PARENT
REMARK Flexibility Score: 70.00
ROOT
ATOM      1  C   UNL     1      -1.191  34.882  60.414  1.00  0.00     0.136 C 
ATOM      2  O   UNL     1      -0.173  35.258  60.979  1.00  0.00    -0.299 OA
ENDROOT
BRANCH   1   3
ATOM      3  C   UNL     1      -2.288  35.874  60.105  1.00  0.00     0.053 C 
ATOM      4  C   UNL     1      -3.462  35.168  59.416  1.00  0.00     0.016 C 
BRANCH   3   5
ATOM      5  C   UNL     1      -2.760  36.601  61.379  1.00  0.00     0.015 C 
BRANCH   5   6
ATOM      6  C   UNL     1      -3.507  35.669  62.358  1.00  0.00     0.028 C 
BRANCH   6   7
ATOM      7  C   UNL     1      -2.743  35.493  63.650  1.00  0.00    -0.028 C 
ATOM      8  C   UNL     1      -2.357  34.327  64.222  1.00  0.00    -0.070 CG0
ATOM      9  C   UNL     1      -1.557  34.414  65.500  1.00  0.00     0.039 C 
ATOM     10  G   UNL     1      -2.692  32.946  63.685  1.00  0.00     0.000 G0
ENDBRANCH   6   7
ENDBRANCH   5   6
ENDBRANCH   3   5
ENDBRANCH   1   3
BRANCH   1  11
ATOM     11  C   UNL     1      -1.386  33.418  60.088  1.00  0.00     0.087 C 
BRANCH  11  12
ATOM     12  C   UNL     1      -2.362  32.695  61.047  1.00  0.00     0.066 C 
BRANCH  12  13
ATOM     13  C   UNL     1      -1.851  32.596  62.478  1.00  0.00     0.140 C 
ATOM     14  O   UNL     1      -0.684  32.274  62.652  1.00  0.00    -0.299 OA
BRANCH  13  15
ATOM     15  C   UNL     1      -2.692  32.942  63.687  1.00  0.00     0.106 CG0
ATOM     16  G   UNL     1      -2.334  34.315  64.229  1.00  0.00     0.000 G0
ENDBRANCH  13  15
ENDBRANCH  12  13
BRANCH  12  17
ATOM     17  C   UNL     1      -2.844  31.326  60.475  1.00  0.00    -0.006 C 
ATOM     18  C   UNL     1      -2.070  30.155  61.103  1.00  0.00     0.008 C 
ATOM     19  C   UNL     1      -2.781  31.228  58.942  1.00  0.00     0.008 C 
ENDBRANCH  12  17
ENDBRANCH  11  12
ENDBRANCH   1  11
TORSDOF 1
ENDMDL
MODEL 7
REMARK VINA RESULT:    -2.908      8.009      9.138
REMARK INTER + INTRA:          -3.708
REMARK INTER:                  -4.111
REMARK INTRA:                   0.403
REMARK UNBOUND:                 0.731
REMARK SMILES CC1=CCC[C@H](C)C(=O)C[C@@H](C(C)C)C(=O)C1
REMARK SMILES IDX 8 1 9 2 6 3 7 4 5 5 4 6 3 7 2 8 1 9 10 11 11 12 15 13 16 14
REMARK SMILES IDX 17 15 12 17 13 18 14 19
REMARK H PARENT
REMARK Flexibility Score: 70.00
ROOT
ATOM      1  C   UNL     1      -0.563  36.474  58.649  1.00  0.00     0.136 C 
ATOM      2  O   UNL     1       0.152  36.473  57.655  1.00  0.00    -0.299 OA
ENDROOT
BRANCH   1   3
ATOM      3  C   UNL     1      -1.861  37.248  58.638  1.00  0.00     0.053 C 
ATOM      4  C   UNL     1      -1.650  38.628  58.003  1.00  0.00     0.016 C 
BRANCH   3   5
ATOM      5  C   UNL     1      -2.968  36.471  57.899  1.00  0.00     0.015 C 
BRANCH   5   6
ATOM      6  C   UNL     1      -4.037  35.896  58.856  1.00  0.00     0.028 C 
BRANCH   6   7
ATOM      7  C   UNL     1      -4.114  34.389  58.761  1.00  0.00    -0.028 C 
ATOM      8  C   UNL     1      -3.849  33.492  59.741  1.00  0.00    -0.070 CG0
ATOM      9  C   UNL     1      -4.046  32.031  59.413  1.00  0.00     0.039 C 
ATOM     10  G   UNL     1      -3.349  33.847  61.131  1.00  0.00     0.000 G0
ENDBRANCH   6   7
ENDBRANCH   5   6
ENDBRANCH   3   5
ENDBRANCH   1   3
BRANCH   1  11
ATOM     11  C   UNL     1      -0.120  35.764  59.908  1.00  0.00     0.087 C 
BRANCH  11  12
ATOM     12  C   UNL     1      -0.941  34.490  60.222  1.00  0.00     0.066 C 
BRANCH  12  13
ATOM     13  C   UNL     1      -2.150  34.746  61.113  1.00  0.00     0.140 C 
ATOM     14  O   UNL     1      -2.165  35.769  61.783  1.00  0.00    -0.299 OA
BRANCH  13  15
ATOM     15  C   UNL     1      -3.358  33.837  61.156  1.00  0.00     0.106 CG0
ATOM     16  G   UNL     1      -3.832  33.488  59.756  1.00  0.00     0.000 G0
ENDBRANCH  13  15
ENDBRANCH  12  13
BRANCH  12  17
ATOM     17  C   UNL     1      -0.043  33.322  60.734  1.00  0.00    -0.006 C 
ATOM     18  C   UNL     1      -0.449  31.984  60.096  1.00  0.00     0.008 C 
ATOM     19  C   UNL     1      -0.007  33.180  62.265  1.00  0.00     0.008 C 
ENDBRANCH  12  17
ENDBRANCH  11  12
ENDBRANCH   1  11
TORSDOF 1
ENDMDL
MODEL 8
REMARK VINA RESULT:    -2.802      8.089     11.109
REMARK INTER + INTRA:          -3.545
REMARK INTER:                  -3.836
REMARK INTRA:                   0.291
REMARK UNBOUND:                 0.731
REMARK SMILES CC1=CCC[C@H](C)C(=O)C[C@@H](C(C)C)C(=O)C1
REMARK SMILES IDX 8 1 9 2 6 3 7 4 5 5 4 6 3 7 2 8 1 9 10 11 11 12 15 13 16 14
REMARK SMILES IDX 17 15 12 17 13 18 14 19
REMARK H PARENT
REMARK Flexibility Score: 70.00
ROOT
ATOM      1  C   UNL     1      -2.829  35.139  63.466  1.00  0.00     0.136 C 
ATOM      2  O   UNL     1      -3.624  35.659  64.238  1.00  0.00    -0.299 OA
ENDROOT
BRANCH   1   3
ATOM      3  C   UNL     1      -2.213  33.802  63.812  1.00  0.00     0.053 C 
ATOM      4  C   UNL     1      -1.365  33.923  65.084  1.00  0.00     0.016 C 
BRANCH   3   5
ATOM      5  C   UNL     1      -3.293  32.716  63.976  1.00  0.00     0.015 C 
BRANCH   5   6
ATOM      6  C   UNL     1      -3.608  31.979  62.655  1.00  0.00     0.028 C 
BRANCH   6   7
ATOM      7  C   UNL     1      -2.346  31.529  61.956  1.00  0.00    -0.028 C 
ATOM      8  C   UNL     1      -1.881  31.947  60.753  1.00  0.00    -0.070 CG0
ATOM      9  C   UNL     1      -0.562  31.380  60.286  1.00  0.00     0.039 C 
ATOM     10  G   UNL     1      -2.601  32.921  59.837  1.00  0.00     0.000 G0
ENDBRANCH   6   7
ENDBRANCH   5   6
ENDBRANCH   3   5
ENDBRANCH   1   3
BRANCH   1  11
ATOM     11  C   UNL     1      -2.407  35.858  62.205  1.00  0.00     0.087 C 
BRANCH  11  12
ATOM     12  C   UNL     1      -3.084  35.312  60.925  1.00  0.00     0.066 C 
BRANCH  12  13
ATOM     13  C   UNL     1      -2.206  34.353  60.131  1.00  0.00     0.140 C 
ATOM     14  O   UNL     1      -1.106  34.746  59.768  1.00  0.00    -0.299 OA
BRANCH  13  15
ATOM     15  C   UNL     1      -2.596  32.923  59.832  1.00  0.00     0.106 CG0
ATOM     16  G   UNL     1      -1.869  31.952  60.746  1.00  0.00     0.000 G0
ENDBRANCH  13  15
ENDBRANCH  12  13
BRANCH  12  17
ATOM     17  C   UNL     1      -3.691  36.450  60.048  1.00  0.00    -0.006 C 
ATOM     18  C   UNL     1      -2.909  36.623  58.736  1.00  0.00     0.008 C 
ATOM     19  C   UNL     1      -3.806  37.805  60.767  1.00  0.00     0.008 C 
ENDBRANCH  12  17
ENDBRANCH  11  12
ENDBRANCH   1  11
TORSDOF 1
ENDMDL
MODEL 9
REMARK VINA RESULT:    -2.785      2.118      4.823
REMARK INTER + INTRA:          -3.520
REMARK INTER:                  -4.763
REMARK INTRA:                   1.242
REMARK UNBOUND:                 0.731
REMARK SMILES CC1=CCC[C@H](C)C(=O)C[C@@H](C(C)C)C(=O)C1
REMARK SMILES IDX 8 1 9 2 6 3 7 4 5 5 4 6 3 7 2 8 1 9 10 11 11 12 15 13 16 14
REMARK SMILES IDX 17 15 12 17 13 18 14 19
REMARK H PARENT
REMARK Flexibility Score: 70.00
ROOT
ATOM      1  C   UNL     1      -3.079  30.330  52.729  1.00  0.00     0.136 C 
ATOM      2  O   UNL     1      -4.115  30.750  53.227  1.00  0.00    -0.299 OA
ENDROOT
BRANCH   1   3
ATOM      3  C   UNL     1      -2.412  29.103  53.307  1.00  0.00     0.053 C 
ATOM      4  C   UNL     1      -2.934  28.835  54.725  1.00  0.00     0.016 C 
BRANCH   3   5
ATOM      5  C   UNL     1      -2.627  27.872  52.405  1.00  0.00     0.015 C 
BRANCH   5   6
ATOM      6  C   UNL     1      -1.313  27.346  51.787  1.00  0.00     0.028 C 
BRANCH   6   7
ATOM      7  C   UNL     1      -0.188  27.340  52.797  1.00  0.00    -0.028 C 
ATOM      8  C   UNL     1       0.856  28.201  52.865  1.00  0.00    -0.070 CG0
ATOM      9  C   UNL     1       1.832  28.017  54.002  1.00  0.00     0.039 C 
ATOM     10  G   UNL     1       1.126  29.317  51.870  1.00  0.00     0.000 G0
ENDBRANCH   6   7
ENDBRANCH   5   6
ENDBRANCH   3   5
ENDBRANCH   1   3
BRANCH   1  11
ATOM     11  C   UNL     1      -2.427  31.072  51.584  1.00  0.00     0.087 C 
BRANCH  11  12
ATOM     12  C   UNL     1      -1.190  30.346  51.001  1.00  0.00     0.066 C 
BRANCH  12  13
ATOM     13  C   UNL     1       0.029  30.388  51.914  1.00  0.00     0.140 C 
ATOM     14  O   UNL     1       0.086  31.270  52.759  1.00  0.00    -0.299 OA
BRANCH  13  15
ATOM     15  C   UNL     1       1.132  29.354  51.874  1.00  0.00     0.106 CG0
ATOM     16  G   UNL     1       0.858  28.220  52.847  1.00  0.00     0.000 G0
ENDBRANCH  13  15
ENDBRANCH  12  13
BRANCH  12  17
ATOM     17  C   UNL     1      -0.874  30.800  49.542  1.00  0.00    -0.006 C 
ATOM     18  C   UNL     1      -2.155  31.196  48.791  1.00  0.00     0.008 C 
ATOM     19  C   UNL     1      -0.087  29.767  48.719  1.00  0.00     0.008 C 
ENDBRANCH  12  17
ENDBRANCH  11  12
ENDBRANCH   1  11
TORSDOF 1
ENDMDL
