MODEL 1
REMARK VINA RESULT:    -4.992      0.000      0.000
REMARK INTER + INTRA:          -5.296
REMARK INTER:                  -5.284
REMARK INTRA:                  -0.012
REMARK UNBOUND:                -0.012
REMARK SMILES O=Cc1ccccc1
REMARK SMILES IDX 6 1 5 2 4 3 3 4 8 5 7 6 2 7 1 8
REMARK H PARENT
REMARK Flexibility Score: inf
ROOT
ATOM      1  C   UNL     1     -13.369  -0.225 -10.204  1.00  0.00     0.000 A 
ATOM      2  C   UNL     1     -14.317   0.784 -10.014  1.00  0.00     0.001 A 
ATOM      3  C   UNL     1     -13.915   2.052  -9.581  1.00  0.00     0.011 A 
ATOM      4  C   UNL     1     -12.558   2.319  -9.336  1.00  0.00     0.014 A 
ATOM      5  C   UNL     1     -11.610   1.298  -9.529  1.00  0.00     0.011 A 
ATOM      6  C   UNL     1     -12.017   0.032  -9.963  1.00  0.00     0.001 A 
ENDROOT
BRANCH   4   7
ATOM      7  C   UNL     1     -12.151   3.660  -8.879  1.00  0.00     0.260 C 
ATOM      8  O   UNL     1     -11.156   3.816  -8.121  1.00  0.00    -0.298 OA
ENDBRANCH   4   7
TORSDOF 1
ENDMDL
MODEL 2
REMARK VINA RESULT:    -4.989      0.021      1.713
REMARK INTER + INTRA:          -5.292
REMARK INTER:                  -5.280
REMARK INTRA:                  -0.013
REMARK UNBOUND:                -0.012
REMARK SMILES O=Cc1ccccc1
REMARK SMILES IDX 6 1 5 2 4 3 3 4 8 5 7 6 2 7 1 8
REMARK H PARENT
REMARK Flexibility Score: inf
ROOT
ATOM      1  C   UNL     1     -13.356  -0.222 -10.211  1.00  0.00     0.000 A 
ATOM      2  C   UNL     1     -12.008   0.053  -9.972  1.00  0.00     0.001 A 
ATOM      3  C   UNL     1     -11.618   1.325  -9.539  1.00  0.00     0.011 A 
ATOM      4  C   UNL     1     -12.578   2.331  -9.340  1.00  0.00     0.014 A 
ATOM      5  C   UNL     1     -13.934   2.045  -9.583  1.00  0.00     0.011 A 
ATOM      6  C   UNL     1     -14.318   0.772 -10.016  1.00  0.00     0.001 A 
ENDROOT
BRANCH   4   7
ATOM      7  C   UNL     1     -12.150   3.665  -8.883  1.00  0.00     0.260 C 
ATOM      8  O   UNL     1     -11.144   3.805  -8.136  1.00  0.00    -0.298 OA
ENDBRANCH   4   7
TORSDOF 1
ENDMDL
MODEL 3
REMARK VINA RESULT:    -4.733      2.125      3.113
REMARK INTER + INTRA:          -5.021
REMARK INTER:                  -5.011
REMARK INTRA:                  -0.010
REMARK UNBOUND:                -0.012
REMARK SMILES O=Cc1ccccc1
REMARK SMILES IDX 6 1 5 2 4 3 3 4 8 5 7 6 2 7 1 8
REMARK H PARENT
REMARK Flexibility Score: inf
ROOT
ATOM      1  C   UNL     1     -14.263   1.661  -9.695  1.00  0.00     0.000 A 
ATOM      2  C   UNL     1     -14.294   0.341 -10.151  1.00  0.00     0.001 A 
ATOM      3  C   UNL     1     -13.107  -0.392 -10.258  1.00  0.00     0.011 A 
ATOM      4  C   UNL     1     -11.879   0.192  -9.907  1.00  0.00     0.014 A 
ATOM      5  C   UNL     1     -11.856   1.522  -9.449  1.00  0.00     0.011 A 
ATOM      6  C   UNL     1     -13.046   2.251  -9.344  1.00  0.00     0.001 A 
ENDROOT
BRANCH   4   7
ATOM      7  C   UNL     1     -10.638  -0.595 -10.026  1.00  0.00     0.260 C 
ATOM      8  O   UNL     1     -10.484  -1.668  -9.382  1.00  0.00    -0.298 OA
ENDBRANCH   4   7
TORSDOF 1
ENDMDL
MODEL 4
REMARK VINA RESULT:    -4.728      2.119      3.226
REMARK INTER + INTRA:          -5.016
REMARK INTER:                  -5.007
REMARK INTRA:                  -0.009
REMARK UNBOUND:                -0.012
REMARK SMILES O=Cc1ccccc1
REMARK SMILES IDX 6 1 5 2 4 3 3 4 8 5 7 6 2 7 1 8
REMARK H PARENT
REMARK Flexibility Score: inf
ROOT
ATOM      1  C   UNL     1     -14.286   1.613  -9.681  1.00  0.00     0.000 A 
ATOM      2  C   UNL     1     -13.066   2.203  -9.345  1.00  0.00     0.001 A 
ATOM      3  C   UNL     1     -11.877   1.479  -9.474  1.00  0.00     0.011 A 
ATOM      4  C   UNL     1     -11.901   0.155  -9.943  1.00  0.00     0.014 A 
ATOM      5  C   UNL     1     -13.133  -0.433 -10.280  1.00  0.00     0.011 A 
ATOM      6  C   UNL     1     -14.320   0.296 -10.149  1.00  0.00     0.001 A 
ENDROOT
BRANCH   4   7
ATOM      7  C   UNL     1     -10.638  -0.594 -10.073  1.00  0.00     0.260 C 
ATOM      8  O   UNL     1     -10.414  -1.618  -9.373  1.00  0.00    -0.298 OA
ENDBRANCH   4   7
TORSDOF 1
ENDMDL
MODEL 5
REMARK VINA RESULT:    -4.548      2.590      3.946
REMARK INTER + INTRA:          -4.826
REMARK INTER:                  -4.815
REMARK INTRA:                  -0.011
REMARK UNBOUND:                -0.012
REMARK SMILES O=Cc1ccccc1
REMARK SMILES IDX 6 1 5 2 4 3 3 4 8 5 7 6 2 7 1 8
REMARK H PARENT
REMARK Flexibility Score: inf
ROOT
ATOM      1  C   UNL     1     -13.352   2.579  -9.268  1.00  0.00     0.000 A 
ATOM      2  C   UNL     1     -12.079   2.009  -9.342  1.00  0.00     0.001 A 
ATOM      3  C   UNL     1     -11.926   0.688  -9.776  1.00  0.00     0.011 A 
ATOM      4  C   UNL     1     -13.048  -0.073 -10.141  1.00  0.00     0.014 A 
ATOM      5  C   UNL     1     -14.327   0.508 -10.064  1.00  0.00     0.011 A 
ATOM      6  C   UNL     1     -14.475   1.829  -9.629  1.00  0.00     0.001 A 
ENDROOT
BRANCH   4   7
ATOM      7  C   UNL     1     -12.868  -1.463 -10.596  1.00  0.00     0.260 C 
ATOM      8  O   UNL     1     -13.652  -2.377 -10.221  1.00  0.00    -0.298 OA
ENDBRANCH   4   7
TORSDOF 1
ENDMDL
MODEL 6
REMARK VINA RESULT:    -4.153      3.275      4.624
REMARK INTER + INTRA:          -4.407
REMARK INTER:                  -4.398
REMARK INTRA:                  -0.009
REMARK UNBOUND:                -0.012
REMARK SMILES O=Cc1ccccc1
REMARK SMILES IDX 6 1 5 2 4 3 3 4 8 5 7 6 2 7 1 8
REMARK H PARENT
REMARK Flexibility Score: inf
ROOT
ATOM      1  C   UNL     1     -12.890  -0.321 -10.385  1.00  0.00     0.000 A 
ATOM      2  C   UNL     1     -11.658   0.194  -9.976  1.00  0.00     0.001 A 
ATOM      3  C   UNL     1     -10.623  -0.671  -9.606  1.00  0.00     0.011 A 
ATOM      4  C   UNL     1     -10.815  -2.062  -9.644  1.00  0.00     0.014 A 
ATOM      5  C   UNL     1     -12.059  -2.573 -10.057  1.00  0.00     0.011 A 
ATOM      6  C   UNL     1     -13.090  -1.703 -10.426  1.00  0.00     0.001 A 
ENDROOT
BRANCH   4   7
ATOM      7  C   UNL     1      -9.714  -2.960  -9.250  1.00  0.00     0.260 C 
ATOM      8  O   UNL     1      -9.537  -3.281  -8.044  1.00  0.00    -0.298 OA
ENDBRANCH   4   7
TORSDOF 1
ENDMDL
MODEL 7
REMARK VINA RESULT:    -4.143      7.720      8.756
REMARK INTER + INTRA:          -4.397
REMARK INTER:                  -4.386
REMARK INTRA:                  -0.011
REMARK UNBOUND:                -0.012
REMARK SMILES O=Cc1ccccc1
REMARK SMILES IDX 6 1 5 2 4 3 3 4 8 5 7 6 2 7 1 8
REMARK H PARENT
REMARK Flexibility Score: inf
ROOT
ATOM      1  C   UNL     1     -11.448  -7.118  -5.297  1.00  0.00     0.000 A 
ATOM      2  C   UNL     1     -10.814  -7.799  -6.338  1.00  0.00     0.001 A 
ATOM      3  C   UNL     1     -10.090  -7.090  -7.302  1.00  0.00     0.011 A 
ATOM      4  C   UNL     1      -9.994  -5.690  -7.229  1.00  0.00     0.014 A 
ATOM      5  C   UNL     1     -10.636  -5.011  -6.177  1.00  0.00     0.011 A 
ATOM      6  C   UNL     1     -11.359  -5.725  -5.216  1.00  0.00     0.001 A 
ENDROOT
BRANCH   4   7
ATOM      7  C   UNL     1      -9.227  -4.959  -8.253  1.00  0.00     0.260 C 
ATOM      8  O   UNL     1      -8.448  -4.020  -7.935  1.00  0.00    -0.298 OA
ENDBRANCH   4   7
TORSDOF 1
ENDMDL
MODEL 8
REMARK VINA RESULT:    -4.143      7.742      8.759
REMARK INTER + INTRA:          -4.397
REMARK INTER:                  -4.386
REMARK INTRA:                  -0.011
REMARK UNBOUND:                -0.012
REMARK SMILES O=Cc1ccccc1
REMARK SMILES IDX 6 1 5 2 4 3 3 4 8 5 7 6 2 7 1 8
REMARK H PARENT
REMARK Flexibility Score: inf
ROOT
ATOM      1  C   UNL     1     -11.410  -7.230  -5.288  1.00  0.00     0.000 A 
ATOM      2  C   UNL     1     -11.365  -5.835  -5.239  1.00  0.00     0.001 A 
ATOM      3  C   UNL     1     -10.683  -5.120  -6.230  1.00  0.00     0.011 A 
ATOM      4  C   UNL     1     -10.042  -5.799  -7.279  1.00  0.00     0.014 A 
ATOM      5  C   UNL     1     -10.093  -7.204  -7.322  1.00  0.00     0.011 A 
ATOM      6  C   UNL     1     -10.776  -7.914  -6.329  1.00  0.00     0.001 A 
ENDROOT
BRANCH   4   7
ATOM      7  C   UNL     1      -9.329  -5.029  -8.314  1.00  0.00     0.260 C 
ATOM      8  O   UNL     1      -8.479  -4.152  -8.003  1.00  0.00    -0.298 OA
ENDBRANCH   4   7
TORSDOF 1
ENDMDL
MODEL 9
REMARK VINA RESULT:    -4.005      3.112      4.153
REMARK INTER + INTRA:          -4.251
REMARK INTER:                  -4.241
REMARK INTRA:                  -0.010
REMARK UNBOUND:                -0.012
REMARK SMILES O=Cc1ccccc1
REMARK SMILES IDX 6 1 5 2 4 3 3 4 8 5 7 6 2 7 1 8
REMARK H PARENT
REMARK Flexibility Score: inf
ROOT
ATOM      1  C   UNL     1     -11.427   0.572  -9.624  1.00  0.00     0.000 A 
ATOM      2  C   UNL     1     -12.694   1.159  -9.628  1.00  0.00     0.001 A 
ATOM      3  C   UNL     1     -13.813   0.410 -10.007  1.00  0.00     0.011 A 
ATOM      4  C   UNL     1     -13.671  -0.935 -10.384  1.00  0.00     0.014 A 
ATOM      5  C   UNL     1     -12.391  -1.520 -10.378  1.00  0.00     0.011 A 
ATOM      6  C   UNL     1     -11.275  -0.767  -9.998  1.00  0.00     0.001 A 
ENDROOT
BRANCH   4   7
ATOM      7  C   UNL     1     -14.861  -1.709 -10.781  1.00  0.00     0.260 C 
ATOM      8  O   UNL     1     -15.125  -2.818 -10.243  1.00  0.00    -0.298 OA
ENDBRANCH   4   7
TORSDOF 1
ENDMDL
