MODEL 1
REMARK VINA RESULT:    -4.853      0.000      0.000
REMARK INTER + INTRA:          -7.237
REMARK INTER:                  -7.406
REMARK INTRA:                   0.169
REMARK UNBOUND:                 0.169
REMARK SMILES CC1=CCC[C@H](C)C(=O)C[C@H](C(C)C)C(=O)C1
REMARK SMILES IDX 8 1 9 2 6 3 7 4 5 5 4 6 3 7 2 8 1 9 10 11 11 12 15 13 16 14
REMARK SMILES IDX 17 15 12 17 13 18 14 19
REMARK H PARENT
REMARK Flexibility Score: 70.00
ROOT
ATOM      1  C   UNL     1      30.084 -12.528  28.342  1.00  0.00     0.136 C 
ATOM      2  O   UNL     1      30.424 -11.354  28.352  1.00  0.00    -0.299 OA
ENDROOT
BRANCH   1   3
ATOM      3  C   UNL     1      30.946 -13.575  29.034  1.00  0.00     0.053 C 
ATOM      4  C   UNL     1      32.011 -14.162  28.093  1.00  0.00     0.016 C 
BRANCH   3   5
ATOM      5  C   UNL     1      31.588 -13.035  30.332  1.00  0.00     0.015 C 
BRANCH   5   6
ATOM      6  C   UNL     1      30.592 -12.344  31.298  1.00  0.00     0.028 C 
BRANCH   6   7
ATOM      7  C   UNL     1      29.571 -13.332  31.812  1.00  0.00    -0.028 C 
ATOM      8  C   UNL     1      28.226 -13.221  31.670  1.00  0.00    -0.070 CG0
ATOM      9  C   UNL     1      27.371 -14.377  32.123  1.00  0.00     0.039 C 
ATOM     10  G   UNL     1      27.543 -11.994  31.084  1.00  0.00     0.000 G0
ENDBRANCH   6   7
ENDBRANCH   5   6
ENDBRANCH   3   5
ENDBRANCH   1   3
BRANCH   1  11
ATOM     11  C   UNL     1      28.784 -12.900  27.664  1.00  0.00     0.087 C 
BRANCH  11  12
ATOM     12  C   UNL     1      27.636 -13.157  28.677  1.00  0.00     0.066 C 
BRANCH  12  13
ATOM     13  C   UNL     1      27.403 -11.953  29.584  1.00  0.00     0.140 C 
ATOM     14  O   UNL     1      27.125 -10.878  29.073  1.00  0.00    -0.299 OA
BRANCH  13  15
ATOM     15  C   UNL     1      27.521 -11.993  31.097  1.00  0.00     0.106 CG0
ATOM     16  G   UNL     1      28.234 -13.207  31.673  1.00  0.00     0.000 G0
ENDBRANCH  13  15
ENDBRANCH  12  13
BRANCH  12  17
ATOM     17  C   UNL     1      26.303 -13.631  28.017  1.00  0.00    -0.006 C 
ATOM     18  C   UNL     1      26.477 -14.333  26.658  1.00  0.00     0.008 C 
ATOM     19  C   UNL     1      25.490 -14.529  28.964  1.00  0.00     0.008 C 
ENDBRANCH  12  17
ENDBRANCH  11  12
ENDBRANCH   1  11
TORSDOF 1
ENDMDL
MODEL 2
REMARK VINA RESULT:    -4.763      1.684      3.136
REMARK INTER + INTRA:          -7.100
REMARK INTER:                  -7.920
REMARK INTRA:                   0.820
REMARK UNBOUND:                 0.169
REMARK SMILES CC1=CCC[C@H](C)C(=O)C[C@H](C(C)C)C(=O)C1
REMARK SMILES IDX 8 1 9 2 6 3 7 4 5 5 4 6 3 7 2 8 1 9 10 11 11 12 15 13 16 14
REMARK SMILES IDX 17 15 12 17 13 18 14 19
REMARK H PARENT
REMARK Flexibility Score: 70.00
ROOT
ATOM      1  C   UNL     1      27.437 -13.292  26.993  1.00  0.00     0.136 C 
ATOM      2  O   UNL     1      26.902 -14.265  26.479  1.00  0.00    -0.299 OA
ENDROOT
BRANCH   1   3
ATOM      3  C   UNL     1      28.651 -12.656  26.332  1.00  0.00     0.053 C 
ATOM      4  C   UNL     1      28.258 -11.523  25.370  1.00  0.00     0.016 C 
BRANCH   3   5
ATOM      5  C   UNL     1      29.690 -12.170  27.368  1.00  0.00     0.015 C 
BRANCH   5   6
ATOM      6  C   UNL     1      30.252 -13.288  28.282  1.00  0.00     0.028 C 
BRANCH   6   7
ATOM      7  C   UNL     1      31.022 -12.698  29.440  1.00  0.00    -0.028 C 
ATOM      8  C   UNL     1      30.650 -12.753  30.744  1.00  0.00    -0.070 CG0
ATOM      9  C   UNL     1      31.618 -12.233  31.776  1.00  0.00     0.039 C 
ATOM     10  G   UNL     1      29.312 -13.305  31.211  1.00  0.00     0.000 G0
ENDBRANCH   6   7
ENDBRANCH   5   6
ENDBRANCH   3   5
ENDBRANCH   1   3
BRANCH   1  11
ATOM     11  C   UNL     1      26.844 -12.728  28.265  1.00  0.00     0.087 C 
BRANCH  11  12
ATOM     12  C   UNL     1      27.234 -13.551  29.522  1.00  0.00     0.066 C 
BRANCH  12  13
ATOM     13  C   UNL     1      28.099 -12.739  30.483  1.00  0.00     0.140 C 
ATOM     14  O   UNL     1      27.827 -11.561  30.664  1.00  0.00    -0.299 OA
BRANCH  13  15
ATOM     15  C   UNL     1      29.305 -13.295  31.218  1.00  0.00     0.106 CG0
ATOM     16  G   UNL     1      30.657 -12.758  30.772  1.00  0.00     0.000 G0
ENDBRANCH  13  15
ENDBRANCH  12  13
BRANCH  12  17
ATOM     17  C   UNL     1      26.019 -14.192  30.263  1.00  0.00    -0.006 C 
ATOM     18  C   UNL     1      25.133 -15.089  29.379  1.00  0.00     0.008 C 
ATOM     19  C   UNL     1      26.464 -14.972  31.511  1.00  0.00     0.008 C 
ENDBRANCH  12  17
ENDBRANCH  11  12
ENDBRANCH   1  11
TORSDOF 1
ENDMDL
MODEL 3
REMARK VINA RESULT:    -4.588      1.943      4.324
REMARK INTER + INTRA:          -6.833
REMARK INTER:                  -6.651
REMARK INTRA:                  -0.182
REMARK UNBOUND:                 0.169
REMARK SMILES CC1=CCC[C@H](C)C(=O)C[C@H](C(C)C)C(=O)C1
REMARK SMILES IDX 8 1 9 2 6 3 7 4 5 5 4 6 3 7 2 8 1 9 10 11 11 12 15 13 16 14
REMARK SMILES IDX 17 15 12 17 13 18 14 19
REMARK H PARENT
REMARK Flexibility Score: 70.00
ROOT
ATOM      1  C   UNL     1      26.654 -13.529  28.856  1.00  0.00     0.136 C 
ATOM      2  O   UNL     1      25.624 -14.187  28.913  1.00  0.00    -0.299 OA
ENDROOT
BRANCH   1   3
ATOM      3  C   UNL     1      27.414 -13.421  27.542  1.00  0.00     0.053 C 
ATOM      4  C   UNL     1      26.853 -14.368  26.469  1.00  0.00     0.016 C 
BRANCH   3   5
ATOM      5  C   UNL     1      27.476 -11.966  27.023  1.00  0.00     0.015 C 
BRANCH   5   6
ATOM      6  C   UNL     1      28.776 -11.210  27.394  1.00  0.00     0.028 C 
BRANCH   6   7
ATOM      7  C   UNL     1      29.936 -12.169  27.527  1.00  0.00    -0.028 C 
ATOM      8  C   UNL     1      30.454 -12.621  28.697  1.00  0.00    -0.070 CG0
ATOM      9  C   UNL     1      31.518 -13.687  28.631  1.00  0.00     0.039 C 
ATOM     10  G   UNL     1      30.020 -12.107  30.061  1.00  0.00     0.000 G0
ENDBRANCH   6   7
ENDBRANCH   5   6
ENDBRANCH   3   5
ENDBRANCH   1   3
BRANCH   1  11
ATOM     11  C   UNL     1      27.122 -12.807  30.100  1.00  0.00     0.087 C 
BRANCH  11  12
ATOM     12  C   UNL     1      28.042 -13.686  30.989  1.00  0.00     0.066 C 
BRANCH  12  13
ATOM     13  C   UNL     1      29.467 -13.145  31.036  1.00  0.00     0.140 C 
ATOM     14  O   UNL     1      30.218 -13.545  31.914  1.00  0.00    -0.299 OA
BRANCH  13  15
ATOM     15  C   UNL     1      30.016 -12.110  30.071  1.00  0.00     0.106 CG0
ATOM     16  G   UNL     1      30.456 -12.638  28.714  1.00  0.00     0.000 G0
ENDBRANCH  13  15
ENDBRANCH  12  13
BRANCH  12  17
ATOM     17  C   UNL     1      27.485 -13.934  32.427  1.00  0.00    -0.006 C 
ATOM     18  C   UNL     1      26.834 -12.702  33.081  1.00  0.00     0.008 C 
ATOM     19  C   UNL     1      26.504 -15.117  32.458  1.00  0.00     0.008 C 
ENDBRANCH  12  17
ENDBRANCH  11  12
ENDBRANCH   1  11
TORSDOF 1
ENDMDL
MODEL 4
REMARK VINA RESULT:    -4.198      1.379      3.503
REMARK INTER + INTRA:          -6.238
REMARK INTER:                  -6.651
REMARK INTRA:                   0.413
REMARK UNBOUND:                 0.169
REMARK SMILES CC1=CCC[C@H](C)C(=O)C[C@H](C(C)C)C(=O)C1
REMARK SMILES IDX 8 1 9 2 6 3 7 4 5 5 4 6 3 7 2 8 1 9 10 11 11 12 15 13 16 14
REMARK SMILES IDX 17 15 12 17 13 18 14 19
REMARK H PARENT
REMARK Flexibility Score: 70.00
ROOT
ATOM      1  C   UNL     1      27.362 -10.951  29.977  1.00  0.00     0.136 C 
ATOM      2  O   UNL     1      27.569  -9.876  29.433  1.00  0.00    -0.299 OA
ENDROOT
BRANCH   1   3
ATOM      3  C   UNL     1      27.714 -11.140  31.446  1.00  0.00     0.053 C 
ATOM      4  C   UNL     1      27.174  -9.998  32.322  1.00  0.00     0.016 C 
BRANCH   3   5
ATOM      5  C   UNL     1      27.260 -12.516  31.981  1.00  0.00     0.015 C 
BRANCH   5   6
ATOM      6  C   UNL     1      28.175 -13.696  31.568  1.00  0.00     0.028 C 
BRANCH   6   7
ATOM      7  C   UNL     1      29.625 -13.271  31.547  1.00  0.00    -0.028 C 
ATOM      8  C   UNL     1      30.378 -13.095  30.433  1.00  0.00    -0.070 CG0
ATOM      9  C   UNL     1      31.765 -12.528  30.602  1.00  0.00     0.039 C 
ATOM     10  G   UNL     1      29.898 -13.443  29.032  1.00  0.00     0.000 G0
ENDBRANCH   6   7
ENDBRANCH   5   6
ENDBRANCH   3   5
ENDBRANCH   1   3
BRANCH   1  11
ATOM     11  C   UNL     1      26.720 -12.058  29.172  1.00  0.00     0.087 C 
BRANCH  11  12
ATOM     12  C   UNL     1      27.597 -12.510  27.973  1.00  0.00     0.066 C 
BRANCH  12  13
ATOM     13  C   UNL     1      29.085 -12.385  28.284  1.00  0.00     0.140 C 
ATOM     14  O   UNL     1      29.680 -11.384  27.913  1.00  0.00    -0.299 OA
BRANCH  13  15
ATOM     15  C   UNL     1      29.894 -13.445  29.010  1.00  0.00     0.106 CG0
ATOM     16  G   UNL     1      30.355 -13.080  30.413  1.00  0.00     0.000 G0
ENDBRANCH  13  15
ENDBRANCH  12  13
BRANCH  12  17
ATOM     17  C   UNL     1      27.251 -13.935  27.436  1.00  0.00    -0.006 C 
ATOM     18  C   UNL     1      25.831 -14.419  27.777  1.00  0.00     0.008 C 
ATOM     19  C   UNL     1      27.484 -14.039  25.920  1.00  0.00     0.008 C 
ENDBRANCH  12  17
ENDBRANCH  11  12
ENDBRANCH   1  11
TORSDOF 1
ENDMDL
MODEL 5
REMARK VINA RESULT:    -4.157      2.043      5.058
REMARK INTER + INTRA:          -6.176
REMARK INTER:                  -6.439
REMARK INTRA:                   0.264
REMARK UNBOUND:                 0.169
REMARK SMILES CC1=CCC[C@H](C)C(=O)C[C@H](C(C)C)C(=O)C1
REMARK SMILES IDX 8 1 9 2 6 3 7 4 5 5 4 6 3 7 2 8 1 9 10 11 11 12 15 13 16 14
REMARK SMILES IDX 17 15 12 17 13 18 14 19
REMARK H PARENT
REMARK Flexibility Score: 70.00
ROOT
ATOM      1  C   UNL     1      27.602 -12.796  31.750  1.00  0.00     0.136 C 
ATOM      2  O   UNL     1      27.052 -12.479  32.795  1.00  0.00    -0.299 OA
ENDROOT
BRANCH   1   3
ATOM      3  C   UNL     1      27.027 -13.919  30.899  1.00  0.00     0.053 C 
ATOM      4  C   UNL     1      26.031 -14.788  31.684  1.00  0.00     0.016 C 
BRANCH   3   5
ATOM      5  C   UNL     1      26.395 -13.392  29.591  1.00  0.00     0.015 C 
BRANCH   5   6
ATOM      6  C   UNL     1      27.033 -13.960  28.298  1.00  0.00     0.028 C 
BRANCH   6   7
ATOM      7  C   UNL     1      27.158 -12.885  27.244  1.00  0.00    -0.028 C 
ATOM      8  C   UNL     1      28.313 -12.285  26.863  1.00  0.00    -0.070 CG0
ATOM      9  C   UNL     1      28.262 -11.336  25.692  1.00  0.00     0.039 C 
ATOM     10  G   UNL     1      29.648 -12.518  27.555  1.00  0.00     0.000 G0
ENDBRANCH   6   7
ENDBRANCH   5   6
ENDBRANCH   3   5
ENDBRANCH   1   3
BRANCH   1  11
ATOM     11  C   UNL     1      28.831 -12.028  31.317  1.00  0.00     0.087 C 
BRANCH  11  12
ATOM     12  C   UNL     1      29.643 -12.770  30.221  1.00  0.00     0.066 C 
BRANCH  12  13
ATOM     13  C   UNL     1      29.766 -11.937  28.949  1.00  0.00     0.140 C 
ATOM     14  O   UNL     1      29.949 -10.733  29.052  1.00  0.00    -0.299 OA
BRANCH  13  15
ATOM     15  C   UNL     1      29.650 -12.505  27.546  1.00  0.00     0.106 CG0
ATOM     16  G   UNL     1      28.311 -12.291  26.855  1.00  0.00     0.000 G0
ENDBRANCH  13  15
ENDBRANCH  12  13
BRANCH  12  17
ATOM     17  C   UNL     1      31.039 -13.277  30.701  1.00  0.00    -0.006 C 
ATOM     18  C   UNL     1      32.034 -13.577  29.565  1.00  0.00     0.008 C 
ATOM     19  C   UNL     1      31.678 -12.307  31.708  1.00  0.00     0.008 C 
ENDBRANCH  12  17
ENDBRANCH  11  12
ENDBRANCH   1  11
TORSDOF 1
ENDMDL
MODEL 6
REMARK VINA RESULT:    -4.098      1.935      4.647
REMARK INTER + INTRA:          -6.085
REMARK INTER:                  -7.097
REMARK INTRA:                   1.012
REMARK UNBOUND:                 0.169
REMARK SMILES CC1=CCC[C@H](C)C(=O)C[C@H](C(C)C)C(=O)C1
REMARK SMILES IDX 8 1 9 2 6 3 7 4 5 5 4 6 3 7 2 8 1 9 10 11 11 12 15 13 16 14
REMARK SMILES IDX 17 15 12 17 13 18 14 19
REMARK H PARENT
REMARK Flexibility Score: 70.00
ROOT
ATOM      1  C   UNL     1      27.082 -13.721  30.653  1.00  0.00     0.136 C 
ATOM      2  O   UNL     1      26.259 -13.659  31.556  1.00  0.00    -0.299 OA
ENDROOT
BRANCH   1   3
ATOM      3  C   UNL     1      26.637 -14.086  29.244  1.00  0.00     0.053 C 
ATOM      4  C   UNL     1      25.224 -14.691  29.221  1.00  0.00     0.016 C 
BRANCH   3   5
ATOM      5  C   UNL     1      26.747 -12.891  28.270  1.00  0.00     0.015 C 
BRANCH   5   6
ATOM      6  C   UNL     1      27.536 -13.193  26.972  1.00  0.00     0.028 C 
BRANCH   6   7
ATOM      7  C   UNL     1      28.947 -13.631  27.291  1.00  0.00    -0.028 C 
ATOM      8  C   UNL     1      29.834 -12.940  28.050  1.00  0.00    -0.070 CG0
ATOM      9  C   UNL     1      31.148 -13.603  28.378  1.00  0.00     0.039 C 
ATOM     10  G   UNL     1      29.572 -11.538  28.579  1.00  0.00     0.000 G0
ENDBRANCH   6   7
ENDBRANCH   5   6
ENDBRANCH   3   5
ENDBRANCH   1   3
BRANCH   1  11
ATOM     11  C   UNL     1      28.525 -13.392  30.964  1.00  0.00     0.087 C 
BRANCH  11  12
ATOM     12  C   UNL     1      28.768 -11.867  31.125  1.00  0.00     0.066 C 
BRANCH  12  13
ATOM     13  C   UNL     1      29.743 -11.338  30.077  1.00  0.00     0.140 C 
ATOM     14  O   UNL     1      30.713 -10.695  30.450  1.00  0.00    -0.299 OA
BRANCH  13  15
ATOM     15  C   UNL     1      29.573 -11.534  28.582  1.00  0.00     0.106 CG0
ATOM     16  G   UNL     1      29.855 -12.936  28.062  1.00  0.00     0.000 G0
ENDBRANCH  13  15
ENDBRANCH  12  13
BRANCH  12  17
ATOM     17  C   UNL     1      27.460 -11.016  31.159  1.00  0.00    -0.006 C 
ATOM     18  C   UNL     1      27.131 -10.405  32.533  1.00  0.00     0.008 C 
ATOM     19  C   UNL     1      27.476  -9.910  30.090  1.00  0.00     0.008 C 
ENDBRANCH  12  17
ENDBRANCH  11  12
ENDBRANCH   1  11
TORSDOF 1
ENDMDL
MODEL 7
REMARK VINA RESULT:    -4.097      2.196      4.064
REMARK INTER + INTRA:          -6.084
REMARK INTER:                  -5.658
REMARK INTRA:                  -0.426
REMARK UNBOUND:                 0.169
REMARK SMILES CC1=CCC[C@H](C)C(=O)C[C@H](C(C)C)C(=O)C1
REMARK SMILES IDX 8 1 9 2 6 3 7 4 5 5 4 6 3 7 2 8 1 9 10 11 11 12 15 13 16 14
REMARK SMILES IDX 17 15 12 17 13 18 14 19
REMARK H PARENT
REMARK Flexibility Score: 70.00
ROOT
ATOM      1  C   UNL     1      29.807 -12.203  30.805  1.00  0.00     0.136 C 
ATOM      2  O   UNL     1      31.023 -12.310  30.881  1.00  0.00    -0.299 OA
ENDROOT
BRANCH   1   3
ATOM      3  C   UNL     1      29.174 -10.826  30.657  1.00  0.00     0.053 C 
ATOM      4  C   UNL     1      29.418  -9.942  31.890  1.00  0.00     0.016 C 
BRANCH   3   5
ATOM      5  C   UNL     1      29.627 -10.113  29.363  1.00  0.00     0.015 C 
BRANCH   5   6
ATOM      6  C   UNL     1      28.633 -10.241  28.181  1.00  0.00     0.028 C 
BRANCH   6   7
ATOM      7  C   UNL     1      28.799 -11.570  27.481  1.00  0.00    -0.028 C 
ATOM      8  C   UNL     1      27.916 -12.599  27.523  1.00  0.00    -0.070 CG0
ATOM      9  C   UNL     1      28.184 -13.794  26.643  1.00  0.00     0.039 C 
ATOM     10  G   UNL     1      26.680 -12.608  28.409  1.00  0.00     0.000 G0
ENDBRANCH   6   7
ENDBRANCH   5   6
ENDBRANCH   3   5
ENDBRANCH   1   3
BRANCH   1  11
ATOM     11  C   UNL     1      28.966 -13.459  30.823  1.00  0.00     0.087 C 
BRANCH  11  12
ATOM     12  C   UNL     1      27.446 -13.159  30.931  1.00  0.00     0.066 C 
BRANCH  12  13
ATOM     13  C   UNL     1      26.710 -13.505  29.640  1.00  0.00     0.140 C 
ATOM     14  O   UNL     1      26.136 -14.581  29.562  1.00  0.00    -0.299 OA
BRANCH  13  15
ATOM     15  C   UNL     1      26.663 -12.603  28.420  1.00  0.00     0.106 CG0
ATOM     16  G   UNL     1      27.909 -12.605  27.548  1.00  0.00     0.000 G0
ENDBRANCH  13  15
ENDBRANCH  12  13
BRANCH  12  17
ATOM     17  C   UNL     1      26.756 -13.816  32.167  1.00  0.00    -0.006 C 
ATOM     18  C   UNL     1      27.343 -15.178  32.577  1.00  0.00     0.008 C 
ATOM     19  C   UNL     1      26.745 -12.870  33.378  1.00  0.00     0.008 C 
ENDBRANCH  12  17
ENDBRANCH  11  12
ENDBRANCH   1  11
TORSDOF 1
ENDMDL
MODEL 8
REMARK VINA RESULT:    -4.069      2.165      3.874
REMARK INTER + INTRA:          -6.041
REMARK INTER:                  -6.503
REMARK INTRA:                   0.462
REMARK UNBOUND:                 0.169
REMARK SMILES CC1=CCC[C@H](C)C(=O)C[C@H](C(C)C)C(=O)C1
REMARK SMILES IDX 8 1 9 2 6 3 7 4 5 5 4 6 3 7 2 8 1 9 10 11 11 12 15 13 16 14
REMARK SMILES IDX 17 15 12 17 13 18 14 19
REMARK H PARENT
REMARK Flexibility Score: 70.00
ROOT
ATOM      1  C   UNL     1      27.603 -12.342  31.406  1.00  0.00     0.136 C 
ATOM      2  O   UNL     1      27.145 -12.642  32.499  1.00  0.00    -0.299 OA
ENDROOT
BRANCH   1   3
ATOM      3  C   UNL     1      27.868 -10.882  31.069  1.00  0.00     0.053 C 
ATOM      4  C   UNL     1      26.979  -9.929  31.883  1.00  0.00     0.016 C 
BRANCH   3   5
ATOM      5  C   UNL     1      29.361 -10.512  31.216  1.00  0.00     0.015 C 
BRANCH   5   6
ATOM      6  C   UNL     1      30.128 -10.401  29.874  1.00  0.00     0.028 C 
BRANCH   6   7
ATOM      7  C   UNL     1      30.710 -11.737  29.475  1.00  0.00    -0.028 C 
ATOM      8  C   UNL     1      30.245 -12.534  28.480  1.00  0.00    -0.070 CG0
ATOM      9  C   UNL     1      31.042 -13.765  28.132  1.00  0.00     0.039 C 
ATOM     10  G   UNL     1      28.966 -12.250  27.707  1.00  0.00     0.000 G0
ENDBRANCH   6   7
ENDBRANCH   5   6
ENDBRANCH   3   5
ENDBRANCH   1   3
BRANCH   1  11
ATOM     11  C   UNL     1      27.928 -13.449  30.428  1.00  0.00     0.087 C 
BRANCH  11  12
ATOM     12  C   UNL     1      27.023 -13.417  29.167  1.00  0.00     0.066 C 
BRANCH  12  13
ATOM     13  C   UNL     1      27.842 -13.267  27.888  1.00  0.00     0.140 C 
ATOM     14  O   UNL     1      27.613 -14.021  26.954  1.00  0.00    -0.299 OA
BRANCH  13  15
ATOM     15  C   UNL     1      28.955 -12.252  27.705  1.00  0.00     0.106 CG0
ATOM     16  G   UNL     1      30.235 -12.525  28.481  1.00  0.00     0.000 G0
ENDBRANCH  13  15
ENDBRANCH  12  13
BRANCH  12  17
ATOM     17  C   UNL     1      26.034 -14.620  29.065  1.00  0.00    -0.006 C 
ATOM     18  C   UNL     1      25.461 -15.092  30.414  1.00  0.00     0.008 C 
ATOM     19  C   UNL     1      24.884 -14.326  28.088  1.00  0.00     0.008 C 
ENDBRANCH  12  17
ENDBRANCH  11  12
ENDBRANCH   1  11
TORSDOF 1
ENDMDL
MODEL 9
REMARK VINA RESULT:    -3.841      1.486      2.329
REMARK INTER + INTRA:          -5.694
REMARK INTER:                  -6.643
REMARK INTRA:                   0.949
REMARK UNBOUND:                 0.169
REMARK SMILES CC1=CCC[C@H](C)C(=O)C[C@H](C(C)C)C(=O)C1
REMARK SMILES IDX 8 1 9 2 6 3 7 4 5 5 4 6 3 7 2 8 1 9 10 11 11 12 15 13 16 14
REMARK SMILES IDX 17 15 12 17 13 18 14 19
REMARK H PARENT
REMARK Flexibility Score: 70.00
ROOT
ATOM      1  C   UNL     1      30.686 -12.514  29.064  1.00  0.00     0.136 C 
ATOM      2  O   UNL     1      31.585 -13.222  28.633  1.00  0.00    -0.299 OA
ENDROOT
BRANCH   1   3
ATOM      3  C   UNL     1      30.665 -12.123  30.535  1.00  0.00     0.053 C 
ATOM      4  C   UNL     1      31.969 -12.505  31.254  1.00  0.00     0.016 C 
BRANCH   3   5
ATOM      5  C   UNL     1      30.338 -10.626  30.735  1.00  0.00     0.015 C 
BRANCH   5   6
ATOM      6  C   UNL     1      28.932 -10.353  31.327  1.00  0.00     0.028 C 
BRANCH   6   7
ATOM      7  C   UNL     1      28.264 -11.643  31.741  1.00  0.00    -0.028 C 
ATOM      8  C   UNL     1      27.482 -12.416  30.946  1.00  0.00    -0.070 CG0
ATOM      9  C   UNL     1      27.018 -13.743  31.490  1.00  0.00     0.039 C 
ATOM     10  G   UNL     1      27.050 -12.010  29.545  1.00  0.00     0.000 G0
ENDBRANCH   6   7
ENDBRANCH   5   6
ENDBRANCH   3   5
ENDBRANCH   1   3
BRANCH   1  11
ATOM     11  C   UNL     1      29.633 -12.015  28.100  1.00  0.00     0.087 C 
BRANCH  11  12
ATOM     12  C   UNL     1      28.628 -13.124  27.688  1.00  0.00     0.066 C 
BRANCH  12  13
ATOM     13  C   UNL     1      27.307 -12.998  28.441  1.00  0.00     0.140 C 
ATOM     14  O   UNL     1      26.382 -13.733  28.129  1.00  0.00    -0.299 OA
BRANCH  13  15
ATOM     15  C   UNL     1      27.052 -11.991  29.547  1.00  0.00     0.106 CG0
ATOM     16  G   UNL     1      27.487 -12.415  30.942  1.00  0.00     0.000 G0
ENDBRANCH  13  15
ENDBRANCH  12  13
BRANCH  12  17
ATOM     17  C   UNL     1      28.391 -13.225  26.148  1.00  0.00    -0.006 C 
ATOM     18  C   UNL     1      27.224 -14.141  25.740  1.00  0.00     0.008 C 
ATOM     19  C   UNL     1      28.209 -11.838  25.511  1.00  0.00     0.008 C 
ENDBRANCH  12  17
ENDBRANCH  11  12
ENDBRANCH   1  11
TORSDOF 1
ENDMDL
