MODEL 1
REMARK VINA RESULT:    -5.843      0.000      0.000
REMARK INTER + INTRA:          -5.843
REMARK INTER:                  -5.843
REMARK INTRA:                   0.000
REMARK UNBOUND:                 0.000
REMARK SMILES CC(C)=C1CC[C@@H](C)CC1=O
REMARK SMILES IDX 8 1 7 2 6 3 5 4 4 5 2 6 1 7 3 8 10 9 11 10 9 11
REMARK H PARENT
REMARK Flexibility Score: inf
ROOT
ATOM      1  C   UNL     1      12.437 -20.233 -31.894  1.00  0.00     0.008 C 
ATOM      2  C   UNL     1      12.298 -19.028 -30.957  1.00  0.00    -0.006 C 
ATOM      3  C   UNL     1      13.387 -17.984 -31.253  1.00  0.00     0.008 C 
ATOM      4  C   UNL     1      13.202 -16.725 -30.396  1.00  0.00     0.039 C 
ATOM      5  C   UNL     1      13.085 -17.043 -28.911  1.00  0.00    -0.006 C 
ATOM      6  C   UNL     1      13.542 -16.174 -27.961  1.00  0.00    -0.070 C 
ATOM      7  C   UNL     1      13.482 -16.503 -26.486  1.00  0.00     0.039 C 
ATOM      8  C   UNL     1      14.168 -14.853 -28.344  1.00  0.00     0.039 C 
ATOM      9  C   UNL     1      12.344 -18.292 -28.564  1.00  0.00     0.159 C 
ATOM     10  O   UNL     1      11.670 -18.380 -27.502  1.00  0.00    -0.295 OA
ATOM     11  C   UNL     1      12.384 -19.473 -29.490  1.00  0.00     0.084 C 
ENDROOT
TORSDOF 0
ENDMDL
MODEL 2
REMARK VINA RESULT:    -5.644      1.610      2.460
REMARK INTER + INTRA:          -5.644
REMARK INTER:                  -5.644
REMARK INTRA:                   0.000
REMARK UNBOUND:                 0.000
REMARK SMILES CC(C)=C1CC[C@@H](C)CC1=O
REMARK SMILES IDX 8 1 7 2 6 3 5 4 4 5 2 6 1 7 3 8 10 9 11 10 9 11
REMARK H PARENT
REMARK Flexibility Score: inf
ROOT
ATOM      1  C   UNL     1      12.232 -19.850 -32.134  1.00  0.00     0.008 C 
ATOM      2  C   UNL     1      13.051 -19.049 -31.116  1.00  0.00    -0.006 C 
ATOM      3  C   UNL     1      12.522 -19.282 -29.692  1.00  0.00     0.008 C 
ATOM      4  C   UNL     1      13.393 -18.570 -28.648  1.00  0.00     0.039 C 
ATOM      5  C   UNL     1      13.591 -17.093 -28.964  1.00  0.00    -0.006 C 
ATOM      6  C   UNL     1      13.737 -16.168 -27.969  1.00  0.00    -0.070 C 
ATOM      7  C   UNL     1      13.878 -14.693 -28.269  1.00  0.00     0.039 C 
ATOM      8  C   UNL     1      13.725 -16.574 -26.514  1.00  0.00     0.039 C 
ATOM      9  C   UNL     1      13.731 -16.745 -30.410  1.00  0.00     0.159 C 
ATOM     10  O   UNL     1      14.453 -15.782 -30.784  1.00  0.00    -0.295 OA
ATOM     11  C   UNL     1      13.011 -17.551 -31.451  1.00  0.00     0.084 C 
ENDROOT
TORSDOF 0
ENDMDL
MODEL 3
REMARK VINA RESULT:    -5.575      1.659      4.555
REMARK INTER + INTRA:          -5.575
REMARK INTER:                  -5.575
REMARK INTRA:                   0.000
REMARK UNBOUND:                 0.000
REMARK SMILES CC(C)=C1CC[C@@H](C)CC1=O
REMARK SMILES IDX 8 1 7 2 6 3 5 4 4 5 2 6 1 7 3 8 10 9 11 10 9 11
REMARK H PARENT
REMARK Flexibility Score: inf
ROOT
ATOM      1  C   UNL     1      14.537 -14.124 -28.021  1.00  0.00     0.008 C 
ATOM      2  C   UNL     1      13.743 -15.357 -28.467  1.00  0.00    -0.006 C 
ATOM      3  C   UNL     1      14.077 -16.566 -27.580  1.00  0.00     0.008 C 
ATOM      4  C   UNL     1      13.216 -17.783 -27.946  1.00  0.00     0.039 C 
ATOM      5  C   UNL     1      13.275 -18.113 -29.432  1.00  0.00    -0.006 C 
ATOM      6  C   UNL     1      13.163 -19.400 -29.877  1.00  0.00    -0.070 C 
ATOM      7  C   UNL     1      13.277 -19.746 -31.344  1.00  0.00     0.039 C 
ATOM      8  C   UNL     1      12.959 -20.547 -28.915  1.00  0.00     0.039 C 
ATOM      9  C   UNL     1      13.343 -16.946 -30.361  1.00  0.00     0.159 C 
ATOM     10  O   UNL     1      12.817 -16.989 -31.505  1.00  0.00    -0.295 OA
ATOM     11  C   UNL     1      14.042 -15.687 -29.937  1.00  0.00     0.084 C 
ENDROOT
TORSDOF 0
ENDMDL
MODEL 4
REMARK VINA RESULT:    -5.486      1.769      2.174
REMARK INTER + INTRA:          -5.486
REMARK INTER:                  -5.486
REMARK INTRA:                   0.000
REMARK UNBOUND:                 0.000
REMARK SMILES CC(C)=C1CC[C@@H](C)CC1=O
REMARK SMILES IDX 8 1 7 2 6 3 5 4 4 5 2 6 1 7 3 8 10 9 11 10 9 11
REMARK H PARENT
REMARK Flexibility Score: inf
ROOT
ATOM      1  C   UNL     1      12.358 -17.327 -33.042  1.00  0.00     0.008 C 
ATOM      2  C   UNL     1      12.144 -16.872 -31.595  1.00  0.00    -0.006 C 
ATOM      3  C   UNL     1      13.476 -16.861 -30.828  1.00  0.00     0.008 C 
ATOM      4  C   UNL     1      13.298 -16.311 -29.407  1.00  0.00     0.039 C 
ATOM      5  C   UNL     1      12.189 -17.020 -28.641  1.00  0.00    -0.006 C 
ATOM      6  C   UNL     1      12.254 -17.183 -27.286  1.00  0.00    -0.070 C 
ATOM      7  C   UNL     1      11.187 -17.934 -26.523  1.00  0.00     0.039 C 
ATOM      8  C   UNL     1      13.423 -16.651 -26.488  1.00  0.00     0.039 C 
ATOM      9  C   UNL     1      10.990 -17.414 -29.439  1.00  0.00     0.159 C 
ATOM     10  O   UNL     1       9.839 -17.432 -28.925  1.00  0.00    -0.295 OA
ATOM     11  C   UNL     1      11.138 -17.791 -30.884  1.00  0.00     0.084 C 
ENDROOT
TORSDOF 0
ENDMDL
MODEL 5
REMARK VINA RESULT:    -5.393      1.431      4.032
REMARK INTER + INTRA:          -5.393
REMARK INTER:                  -5.393
REMARK INTRA:                   0.000
REMARK UNBOUND:                 0.000
REMARK SMILES CC(C)=C1CC[C@@H](C)CC1=O
REMARK SMILES IDX 8 1 7 2 6 3 5 4 4 5 2 6 1 7 3 8 10 9 11 10 9 11
REMARK H PARENT
REMARK Flexibility Score: inf
ROOT
ATOM      1  C   UNL     1      13.169 -16.817 -26.499  1.00  0.00     0.008 C 
ATOM      2  C   UNL     1      13.381 -17.319 -27.931  1.00  0.00    -0.006 C 
ATOM      3  C   UNL     1      13.396 -16.142 -28.920  1.00  0.00     0.008 C 
ATOM      4  C   UNL     1      13.709 -16.615 -30.346  1.00  0.00     0.039 C 
ATOM      5  C   UNL     1      12.797 -17.748 -30.798  1.00  0.00    -0.006 C 
ATOM      6  C   UNL     1      12.439 -17.890 -32.109  1.00  0.00    -0.070 C 
ATOM      7  C   UNL     1      11.490 -18.977 -32.561  1.00  0.00     0.039 C 
ATOM      8  C   UNL     1      12.948 -16.939 -33.168  1.00  0.00     0.039 C 
ATOM      9  C   UNL     1      12.421 -18.745 -29.752  1.00  0.00     0.159 C 
ATOM     10  O   UNL     1      12.223 -19.955 -30.042  1.00  0.00    -0.295 OA
ATOM     11  C   UNL     1      12.280 -18.317 -28.321  1.00  0.00     0.084 C 
ENDROOT
TORSDOF 0
ENDMDL
MODEL 6
REMARK VINA RESULT:    -5.346      1.367      4.166
REMARK INTER + INTRA:          -5.346
REMARK INTER:                  -5.346
REMARK INTRA:                   0.000
REMARK UNBOUND:                 0.000
REMARK SMILES CC(C)=C1CC[C@@H](C)CC1=O
REMARK SMILES IDX 8 1 7 2 6 3 5 4 4 5 2 6 1 7 3 8 10 9 11 10 9 11
REMARK H PARENT
REMARK Flexibility Score: inf
ROOT
ATOM      1  C   UNL     1      14.130 -14.723 -28.192  1.00  0.00     0.008 C 
ATOM      2  C   UNL     1      13.550 -16.052 -28.686  1.00  0.00    -0.006 C 
ATOM      3  C   UNL     1      13.787 -16.219 -30.196  1.00  0.00     0.008 C 
ATOM      4  C   UNL     1      13.305 -17.589 -30.690  1.00  0.00     0.039 C 
ATOM      5  C   UNL     1      11.864 -17.880 -30.288  1.00  0.00    -0.006 C 
ATOM      6  C   UNL     1      11.048 -18.639 -31.077  1.00  0.00    -0.070 C 
ATOM      7  C   UNL     1       9.600 -18.887 -30.717  1.00  0.00     0.039 C 
ATOM      8  C   UNL     1      11.544 -19.237 -32.373  1.00  0.00     0.039 C 
ATOM      9  C   UNL     1      11.447 -17.387 -28.942  1.00  0.00     0.159 C 
ATOM     10  O   UNL     1      10.596 -18.011 -28.252  1.00  0.00    -0.295 OA
ATOM     11  C   UNL     1      12.047 -16.132 -28.380  1.00  0.00     0.084 C 
ENDROOT
TORSDOF 0
ENDMDL
MODEL 7
REMARK VINA RESULT:    -5.327      2.223      4.227
REMARK INTER + INTRA:          -5.327
REMARK INTER:                  -5.327
REMARK INTRA:                   0.000
REMARK UNBOUND:                 0.000
REMARK SMILES CC(C)=C1CC[C@@H](C)CC1=O
REMARK SMILES IDX 8 1 7 2 6 3 5 4 4 5 2 6 1 7 3 8 10 9 11 10 9 11
REMARK H PARENT
REMARK Flexibility Score: inf
ROOT
ATOM      1  C   UNL     1      11.466 -17.611 -26.368  1.00  0.00     0.008 C 
ATOM      2  C   UNL     1      11.613 -17.030 -27.778  1.00  0.00    -0.006 C 
ATOM      3  C   UNL     1      10.795 -17.848 -28.789  1.00  0.00     0.008 C 
ATOM      4  C   UNL     1      10.847 -17.221 -30.189  1.00  0.00     0.039 C 
ATOM      5  C   UNL     1      12.272 -16.966 -30.661  1.00  0.00    -0.006 C 
ATOM      6  C   UNL     1      12.605 -17.037 -31.984  1.00  0.00    -0.070 C 
ATOM      7  C   UNL     1      14.028 -16.841 -32.458  1.00  0.00     0.039 C 
ATOM      8  C   UNL     1      11.569 -17.356 -33.037  1.00  0.00     0.039 C 
ATOM      9  C   UNL     1      13.241 -16.524 -29.613  1.00  0.00     0.159 C 
ATOM     10  O   UNL     1      14.190 -15.742 -29.888  1.00  0.00    -0.295 OA
ATOM     11  C   UNL     1      13.090 -17.003 -28.199  1.00  0.00     0.084 C 
ENDROOT
TORSDOF 0
ENDMDL
MODEL 8
REMARK VINA RESULT:    -5.302      1.546      4.424
REMARK INTER + INTRA:          -5.302
REMARK INTER:                  -5.302
REMARK INTRA:                   0.000
REMARK UNBOUND:                 0.000
REMARK SMILES CC(C)=C1CC[C@@H](C)CC1=O
REMARK SMILES IDX 8 1 7 2 6 3 5 4 4 5 2 6 1 7 3 8 10 9 11 10 9 11
REMARK H PARENT
REMARK Flexibility Score: inf
ROOT
ATOM      1  C   UNL     1      14.096 -16.153 -26.559  1.00  0.00     0.008 C 
ATOM      2  C   UNL     1      13.245 -16.947 -27.556  1.00  0.00    -0.006 C 
ATOM      3  C   UNL     1      14.056 -18.105 -28.158  1.00  0.00     0.008 C 
ATOM      4  C   UNL     1      13.190 -18.973 -29.081  1.00  0.00     0.039 C 
ATOM      5  C   UNL     1      12.464 -18.154 -30.141  1.00  0.00    -0.006 C 
ATOM      6  C   UNL     1      12.193 -18.673 -31.375  1.00  0.00    -0.070 C 
ATOM      7  C   UNL     1      11.524 -17.851 -32.454  1.00  0.00     0.039 C 
ATOM      8  C   UNL     1      12.587 -20.087 -31.735  1.00  0.00     0.039 C 
ATOM      9  C   UNL     1      11.973 -16.812 -29.710  1.00  0.00     0.159 C 
ATOM     10  O   UNL     1      10.921 -16.314 -30.193  1.00  0.00    -0.295 OA
ATOM     11  C   UNL     1      12.730 -16.030 -28.676  1.00  0.00     0.084 C 
ENDROOT
TORSDOF 0
ENDMDL
MODEL 9
REMARK VINA RESULT:    -5.217      1.880      2.689
REMARK INTER + INTRA:          -5.217
REMARK INTER:                  -5.217
REMARK INTRA:                   0.000
REMARK UNBOUND:                 0.000
REMARK SMILES CC(C)=C1CC[C@@H](C)CC1=O
REMARK SMILES IDX 8 1 7 2 6 3 5 4 4 5 2 6 1 7 3 8 10 9 11 10 9 11
REMARK H PARENT
REMARK Flexibility Score: inf
ROOT
ATOM      1  C   UNL     1      10.060 -18.619 -31.276  1.00  0.00     0.008 C 
ATOM      2  C   UNL     1      11.310 -18.254 -30.469  1.00  0.00    -0.006 C 
ATOM      3  C   UNL     1      10.977 -18.145 -28.973  1.00  0.00     0.008 C 
ATOM      4  C   UNL     1      12.237 -17.881 -28.137  1.00  0.00     0.039 C 
ATOM      5  C   UNL     1      13.035 -16.688 -28.647  1.00  0.00    -0.006 C 
ATOM      6  C   UNL     1      13.752 -15.898 -27.793  1.00  0.00    -0.070 C 
ATOM      7  C   UNL     1      14.501 -14.678 -28.279  1.00  0.00     0.039 C 
ATOM      8  C   UNL     1      13.796 -16.185 -26.310  1.00  0.00     0.039 C 
ATOM      9  C   UNL     1      13.078 -16.512 -30.129  1.00  0.00     0.159 C 
ATOM     10  O   UNL     1      14.088 -16.021 -30.701  1.00  0.00    -0.295 OA
ATOM     11  C   UNL     1      11.907 -16.930 -30.970  1.00  0.00     0.084 C 
ENDROOT
TORSDOF 0
ENDMDL
