MODEL 1
REMARK VINA RESULT:    -3.137      0.000      0.000
REMARK INTER + INTRA:          -3.229
REMARK INTER:                  -3.229
REMARK INTRA:                   0.000
REMARK UNBOUND:                 0.000
REMARK SMILES CC1(C)[C@@H]2CC[C@@](C)(C2)[C@H]1O
REMARK SMILES IDX 1 1 2 2 4 3 5 4 6 5 7 6 9 7 10 8 8 9 3 10 11 11
REMARK H PARENT 11 12
REMARK Flexibility Score: inf
ROOT
ATOM      1  C   UNL     1     232.700 239.133 232.780  1.00  0.00     0.014 C 
ATOM      2  C   UNL     1     232.082 239.889 233.982  1.00  0.00    -0.006 C 
ATOM      3  C   UNL     1     232.818 239.617 235.337  1.00  0.00    -0.002 C 
ATOM      4  C   UNL     1     233.041 238.107 235.562  1.00  0.00     0.005 C 
ATOM      5  C   UNL     1     231.614 237.580 235.776  1.00  0.00     0.010 C 
ATOM      6  C   UNL     1     230.767 238.873 235.761  1.00  0.00    -0.006 C 
ATOM      7  C   UNL     1     231.726 239.878 236.360  1.00  0.00     0.013 C 
ATOM      8  C   UNL     1     230.636 239.372 234.293  1.00  0.00     0.126 C 
ATOM      9  C   UNL     1     229.443 238.738 236.525  1.00  0.00     0.014 C 
ATOM     10  C   UNL     1     232.137 241.403 233.649  1.00  0.00     0.014 C 
ENDROOT
BRANCH   8  11
ATOM     11  O   UNL     1     229.684 240.404 234.192  1.00  0.00    -0.392 OA
ATOM     12  H   UNL     1     230.042 241.181 234.696  1.00  0.00     0.211 HD
ENDBRANCH   8  11
TORSDOF 1
ENDMDL
MODEL 2
REMARK VINA RESULT:    -3.123      7.218      8.556
REMARK INTER + INTRA:          -3.215
REMARK INTER:                  -3.215
REMARK INTRA:                   0.000
REMARK UNBOUND:                 0.000
REMARK SMILES CC1(C)[C@@H]2CC[C@@](C)(C2)[C@H]1O
REMARK SMILES IDX 1 1 2 2 4 3 5 4 6 5 7 6 9 7 10 8 8 9 3 10 11 11
REMARK H PARENT 11 12
REMARK Flexibility Score: inf
ROOT
ATOM      1  C   UNL     1     239.012 235.845 232.871  1.00  0.00     0.014 C 
ATOM      2  C   UNL     1     239.869 236.433 234.018  1.00  0.00    -0.006 C 
ATOM      3  C   UNL     1     239.632 235.732 235.399  1.00  0.00    -0.002 C 
ATOM      4  C   UNL     1     238.127 235.603 235.711  1.00  0.00     0.005 C 
ATOM      5  C   UNL     1     237.698 237.061 235.931  1.00  0.00     0.010 C 
ATOM      6  C   UNL     1     239.036 237.830 235.829  1.00  0.00    -0.006 C 
ATOM      7  C   UNL     1     240.014 236.820 236.387  1.00  0.00     0.013 C 
ATOM      8  C   UNL     1     239.457 237.911 234.334  1.00  0.00     0.126 C 
ATOM      9  C   UNL     1     239.021 239.169 236.578  1.00  0.00     0.014 C 
ATOM     10  C   UNL     1     241.356 236.283 233.603  1.00  0.00     0.014 C 
ENDROOT
BRANCH   8  11
ATOM     11  O   UNL     1     240.535 238.799 234.159  1.00  0.00    -0.392 OA
ATOM     12  H   UNL     1     240.412 239.237 233.276  1.00  0.00     0.211 HD
ENDBRANCH   8  11
TORSDOF 1
ENDMDL
MODEL 3
REMARK VINA RESULT:    -3.113      7.143      8.443
REMARK INTER + INTRA:          -3.204
REMARK INTER:                  -3.204
REMARK INTRA:                   0.000
REMARK UNBOUND:                 0.000
REMARK SMILES CC1(C)[C@@H]2CC[C@@](C)(C2)[C@H]1O
REMARK SMILES IDX 1 1 2 2 4 3 5 4 6 5 7 6 9 7 10 8 8 9 3 10 11 11
REMARK H PARENT 11 12
REMARK Flexibility Score: inf
ROOT
ATOM      1  C   UNL     1     229.491 232.732 232.769  1.00  0.00     0.014 C 
ATOM      2  C   UNL     1     228.715 232.130 233.967  1.00  0.00    -0.006 C 
ATOM      3  C   UNL     1     229.026 232.834 235.331  1.00  0.00    -0.002 C 
ATOM      4  C   UNL     1     230.546 232.987 235.551  1.00  0.00     0.005 C 
ATOM      5  C   UNL     1     231.010 231.535 235.742  1.00  0.00     0.010 C 
ATOM      6  C   UNL     1     229.680 230.746 235.722  1.00  0.00    -0.006 C 
ATOM      7  C   UNL     1     228.722 231.741 236.340  1.00  0.00     0.013 C 
ATOM      8  C   UNL     1     229.169 230.659 234.255  1.00  0.00     0.126 C 
ATOM      9  C   UNL     1     229.761 229.407 236.466  1.00  0.00     0.014 C 
ATOM     10  C   UNL     1     227.203 232.257 233.644  1.00  0.00     0.014 C 
ENDROOT
BRANCH   8  11
ATOM     11  O   UNL     1     228.095 229.754 234.146  1.00  0.00    -0.392 OA
ATOM     12  H   UNL     1     227.475 229.947 234.897  1.00  0.00     0.211 HD
ENDBRANCH   8  11
TORSDOF 1
ENDMDL
MODEL 4
REMARK VINA RESULT:    -3.108     10.408     11.957
REMARK INTER + INTRA:          -3.199
REMARK INTER:                  -3.199
REMARK INTRA:                   0.000
REMARK UNBOUND:                 0.000
REMARK SMILES CC1(C)[C@@H]2CC[C@@](C)(C2)[C@H]1O
REMARK SMILES IDX 1 1 2 2 4 3 5 4 6 5 7 6 9 7 10 8 8 9 3 10 11 11
REMARK H PARENT 11 12
REMARK Flexibility Score: inf
ROOT
ATOM      1  C   UNL     1     235.860 229.607 232.746  1.00  0.00     0.014 C 
ATOM      2  C   UNL     1     236.379 228.745 233.924  1.00  0.00    -0.006 C 
ATOM      3  C   UNL     1     235.632 229.017 235.273  1.00  0.00    -0.002 C 
ATOM      4  C   UNL     1     235.532 230.528 235.566  1.00  0.00     0.005 C 
ATOM      5  C   UNL     1     236.993 230.919 235.839  1.00  0.00     0.010 C 
ATOM      6  C   UNL     1     237.727 229.560 235.780  1.00  0.00    -0.006 C 
ATOM      7  C   UNL     1     236.670 228.615 236.307  1.00  0.00     0.013 C 
ATOM      8  C   UNL     1     237.855 229.121 234.293  1.00  0.00     0.126 C 
ATOM      9  C   UNL     1     239.037 229.545 236.580  1.00  0.00     0.014 C 
ATOM     10  C   UNL     1     236.204 227.259 233.517  1.00  0.00     0.014 C 
ENDROOT
BRANCH   8  11
ATOM     11  O   UNL     1     238.718 228.016 234.163  1.00  0.00    -0.392 OA
ATOM     12  H   UNL     1     238.442 227.525 233.345  1.00  0.00     0.211 HD
ENDBRANCH   8  11
TORSDOF 1
ENDMDL
MODEL 5
REMARK VINA RESULT:    -3.089      8.029      9.430
REMARK INTER + INTRA:          -3.179
REMARK INTER:                  -3.179
REMARK INTRA:                   0.000
REMARK UNBOUND:                 0.000
REMARK SMILES CC1(C)[C@@H]2CC[C@@](C)(C2)[C@H]1O
REMARK SMILES IDX 1 1 2 2 4 3 5 4 6 5 7 6 9 7 10 8 8 9 3 10 11 11
REMARK H PARENT 11 12
REMARK Flexibility Score: inf
ROOT
ATOM      1  C   UNL     1     229.064 233.020 235.813  1.00  0.00     0.014 C 
ATOM      2  C   UNL     1     228.469 232.103 234.716  1.00  0.00    -0.006 C 
ATOM      3  C   UNL     1     226.911 232.208 234.591  1.00  0.00    -0.002 C 
ATOM      4  C   UNL     1     226.228 232.101 235.971  1.00  0.00     0.005 C 
ATOM      5  C   UNL     1     226.494 230.642 236.370  1.00  0.00     0.010 C 
ATOM      6  C   UNL     1     227.196 230.067 235.118  1.00  0.00    -0.006 C 
ATOM      7  C   UNL     1     226.539 230.857 234.007  1.00  0.00     0.013 C 
ATOM      8  C   UNL     1     228.660 230.591 235.077  1.00  0.00     0.126 C 
ATOM      9  C   UNL     1     227.041 228.547 234.983  1.00  0.00     0.014 C 
ATOM     10  C   UNL     1     229.131 232.505 233.373  1.00  0.00     0.014 C 
ENDROOT
BRANCH   8  11
ATOM     11  O   UNL     1     229.412 229.915 234.097  1.00  0.00    -0.392 OA
ATOM     12  H   UNL     1     228.780 229.643 233.381  1.00  0.00     0.211 HD
ENDBRANCH   8  11
TORSDOF 1
ENDMDL
MODEL 6
REMARK VINA RESULT:    -3.087     11.763     13.322
REMARK INTER + INTRA:          -3.178
REMARK INTER:                  -3.178
REMARK INTRA:                   0.000
REMARK UNBOUND:                 0.000
REMARK SMILES CC1(C)[C@@H]2CC[C@@](C)(C2)[C@H]1O
REMARK SMILES IDX 1 1 2 2 4 3 5 4 6 5 7 6 9 7 10 8 8 9 3 10 11 11
REMARK H PARENT 11 12
REMARK Flexibility Score: inf
ROOT
ATOM      1  C   UNL     1     235.495 229.089 235.788  1.00  0.00     0.014 C 
ATOM      2  C   UNL     1     236.419 228.497 234.695  1.00  0.00    -0.006 C 
ATOM      3  C   UNL     1     236.294 226.943 234.546  1.00  0.00    -0.002 C 
ATOM      4  C   UNL     1     236.373 226.239 235.916  1.00  0.00     0.005 C 
ATOM      5  C   UNL     1     237.830 226.478 236.339  1.00  0.00     0.010 C 
ATOM      6  C   UNL     1     238.431 227.190 235.105  1.00  0.00    -0.006 C 
ATOM      7  C   UNL     1     237.648 226.560 233.974  1.00  0.00     0.013 C 
ATOM      8  C   UNL     1     237.929 228.662 235.079  1.00  0.00     0.126 C 
ATOM      9  C   UNL     1     239.951 227.017 234.989  1.00  0.00     0.014 C 
ATOM     10  C   UNL     1     236.044 229.185 233.356  1.00  0.00     0.014 C 
ENDROOT
BRANCH   8  11
ATOM     11  O   UNL     1     238.628 229.419 234.119  1.00  0.00    -0.392 OA
ATOM     12  H   UNL     1     238.541 228.942 233.253  1.00  0.00     0.211 HD
ENDBRANCH   8  11
TORSDOF 1
ENDMDL
MODEL 7
REMARK VINA RESULT:    -3.062      1.721      2.862
REMARK INTER + INTRA:          -3.151
REMARK INTER:                  -3.151
REMARK INTRA:                   0.000
REMARK UNBOUND:                 0.000
REMARK SMILES CC1(C)[C@@H]2CC[C@@](C)(C2)[C@H]1O
REMARK SMILES IDX 1 1 2 2 4 3 5 4 6 5 7 6 9 7 10 8 8 9 3 10 11 11
REMARK H PARENT 11 12
REMARK Flexibility Score: inf
ROOT
ATOM      1  C   UNL     1     232.946 239.373 235.896  1.00  0.00     0.014 C 
ATOM      2  C   UNL     1     232.072 239.960 234.760  1.00  0.00    -0.006 C 
ATOM      3  C   UNL     1     232.229 241.508 234.587  1.00  0.00    -0.002 C 
ATOM      4  C   UNL     1     232.113 242.239 235.941  1.00  0.00     0.005 C 
ATOM      5  C   UNL     1     230.638 242.032 236.314  1.00  0.00     0.010 C 
ATOM      6  C   UNL     1     230.069 241.307 235.072  1.00  0.00    -0.006 C 
ATOM      7  C   UNL     1     230.903 241.902 233.959  1.00  0.00     0.013 C 
ATOM      8  C   UNL     1     230.547 239.826 235.091  1.00  0.00     0.126 C 
ATOM      9  C   UNL     1     228.558 241.503 234.897  1.00  0.00     0.014 C 
ATOM     10  C   UNL     1     232.484 239.241 233.448  1.00  0.00     0.014 C 
ENDROOT
BRANCH   8  11
ATOM     11  O   UNL     1     229.870 239.064 234.120  1.00  0.00    -0.392 OA
ATOM     12  H   UNL     1     230.182 238.126 234.218  1.00  0.00     0.211 HD
ENDBRANCH   8  11
TORSDOF 1
ENDMDL
MODEL 8
REMARK VINA RESULT:    -3.044      1.559      3.001
REMARK INTER + INTRA:          -3.133
REMARK INTER:                  -3.133
REMARK INTRA:                   0.000
REMARK UNBOUND:                 0.000
REMARK SMILES CC1(C)[C@@H]2CC[C@@](C)(C2)[C@H]1O
REMARK SMILES IDX 1 1 2 2 4 3 5 4 6 5 7 6 9 7 10 8 8 9 3 10 11 11
REMARK H PARENT 11 12
REMARK Flexibility Score: inf
ROOT
ATOM      1  C   UNL     1     232.098 242.000 236.503  1.00  0.00     0.014 C 
ATOM      2  C   UNL     1     231.434 241.401 235.238  1.00  0.00    -0.006 C 
ATOM      3  C   UNL     1     230.792 239.993 235.475  1.00  0.00    -0.002 C 
ATOM      4  C   UNL     1     231.766 239.048 236.209  1.00  0.00     0.005 C 
ATOM      5  C   UNL     1     232.863 238.809 235.160  1.00  0.00     0.010 C 
ATOM      6  C   UNL     1     232.319 239.555 233.920  1.00  0.00    -0.006 C 
ATOM      7  C   UNL     1     230.825 239.380 234.086  1.00  0.00     0.013 C 
ATOM      8  C   UNL     1     232.501 241.085 234.134  1.00  0.00     0.126 C 
ATOM      9  C   UNL     1     232.871 239.011 232.596  1.00  0.00     0.014 C 
ATOM     10  C   UNL     1     230.345 242.404 234.773  1.00  0.00     0.014 C 
ENDROOT
BRANCH   8  11
ATOM     11  O   UNL     1     232.244 241.797 232.947  1.00  0.00    -0.392 OA
ATOM     12  H   UNL     1     232.870 241.450 232.258  1.00  0.00     0.211 HD
ENDBRANCH   8  11
TORSDOF 1
ENDMDL
MODEL 9
REMARK VINA RESULT:    -3.018      8.026      9.548
REMARK INTER + INTRA:          -3.106
REMARK INTER:                  -3.106
REMARK INTRA:                   0.000
REMARK UNBOUND:                 0.000
REMARK SMILES CC1(C)[C@@H]2CC[C@@](C)(C2)[C@H]1O
REMARK SMILES IDX 1 1 2 2 4 3 5 4 6 5 7 6 9 7 10 8 8 9 3 10 11 11
REMARK H PARENT 11 12
REMARK Flexibility Score: inf
ROOT
ATOM      1  C   UNL     1     226.201 229.766 233.770  1.00  0.00     0.014 C 
ATOM      2  C   UNL     1     226.899 230.542 234.914  1.00  0.00    -0.006 C 
ATOM      3  C   UNL     1     226.874 232.096 234.721  1.00  0.00    -0.002 C 
ATOM      4  C   UNL     1     227.318 232.494 233.298  1.00  0.00     0.005 C 
ATOM      5  C   UNL     1     228.808 232.120 233.291  1.00  0.00     0.010 C 
ATOM      6  C   UNL     1     229.053 231.663 234.748  1.00  0.00    -0.006 C 
ATOM      7  C   UNL     1     228.090 232.543 235.513  1.00  0.00     0.013 C 
ATOM      8  C   UNL     1     228.438 230.248 234.941  1.00  0.00     0.126 C 
ATOM      9  C   UNL     1     230.517 231.805 235.187  1.00  0.00     0.014 C 
ATOM     10  C   UNL     1     226.175 230.164 236.233  1.00  0.00     0.014 C 
ENDROOT
BRANCH   8  11
ATOM     11  O   UNL     1     228.836 229.686 236.169  1.00  0.00    -0.392 OA
ATOM     12  H   UNL     1     229.768 229.363 236.053  1.00  0.00     0.211 HD
ENDBRANCH   8  11
TORSDOF 1
ENDMDL
