MODEL 1
REMARK VINA RESULT:    -3.987      0.000      0.000
REMARK INTER + INTRA:          -9.397
REMARK INTER:                  -7.249
REMARK INTRA:                  -2.148
REMARK UNBOUND:                -2.148
REMARK SMILES CCCCCCCCCCCCCC[C@@H](C)C(=O)[O-]
REMARK SMILES IDX 9 1 10 2 11 3 12 4 13 5 14 6 15 7 16 8 17 9 18 10 19 11 8 12
REMARK SMILES IDX 7 13 6 14 5 15 4 16 3 17 2 18 1 19
REMARK H PARENT
REMARK Flexibility Score: inf
ROOT
ATOM      1  C   UNL     1     -28.431 -51.941  34.998  1.00  0.00     0.000 C 
ENDROOT
BRANCH   1   2
ATOM      2  C   UNL     1     -29.045 -53.094  34.183  1.00  0.00     0.000 C 
BRANCH   2   3
ATOM      3  C   UNL     1     -30.557 -53.254  34.416  1.00  0.00     0.000 C 
BRANCH   3   4
ATOM      4  C   UNL     1     -31.404 -52.675  33.268  1.00  0.00     0.000 C 
BRANCH   4   5
ATOM      5  C   UNL     1     -32.615 -51.827  33.700  1.00  0.00     0.001 C 
BRANCH   5   6
ATOM      6  C   UNL     1     -32.301 -50.429  34.280  1.00  0.00     0.009 C 
BRANCH   6   7
ATOM      7  C   UNL     1     -33.245 -49.887  35.387  1.00  0.00     0.032 C 
ATOM      8  C   UNL     1     -32.635 -48.731  36.196  1.00  0.00     0.014 C 
BRANCH   7   9
ATOM      9  C   UNL     1     -34.621 -49.558  34.872  1.00  0.00     0.044 C 
ATOM     10  O   UNL     1     -35.647 -50.078  35.388  1.00  0.00    -0.550 OA
ATOM     11  O   UNL     1     -34.769 -48.630  33.849  1.00  0.00    -0.550 OA
ENDBRANCH   7   9
ENDBRANCH   6   7
ENDBRANCH   5   6
ENDBRANCH   4   5
ENDBRANCH   3   4
ENDBRANCH   2   3
ENDBRANCH   1   2
BRANCH   1  12
ATOM     12  C   UNL     1     -29.221 -51.536  36.256  1.00  0.00     0.000 C 
BRANCH  12  13
ATOM     13  C   UNL     1     -29.219 -50.017  36.504  1.00  0.00    -0.000 C 
BRANCH  13  14
ATOM     14  C   UNL     1     -28.901 -49.216  35.224  1.00  0.00    -0.000 C 
BRANCH  14  15
ATOM     15  C   UNL     1     -27.731 -48.230  35.390  1.00  0.00    -0.000 C 
BRANCH  15  16
ATOM     16  C   UNL     1     -26.482 -48.647  34.598  1.00  0.00    -0.000 C 
BRANCH  16  17
ATOM     17  C   UNL     1     -25.410 -49.301  35.484  1.00  0.00    -0.000 C 
BRANCH  17  18
ATOM     18  C   UNL     1     -24.679 -50.450  34.775  1.00  0.00    -0.003 C 
ATOM     19  C   UNL     1     -25.286 -50.720  33.400  1.00  0.00     0.004 C 
ENDBRANCH  17  18
ENDBRANCH  16  17
ENDBRANCH  15  16
ENDBRANCH  14  15
ENDBRANCH  13  14
ENDBRANCH  12  13
ENDBRANCH   1  12
TORSDOF 14
ENDMDL
MODEL 2
REMARK VINA RESULT:    -3.962      9.038     11.259
REMARK INTER + INTRA:          -9.352
REMARK INTER:                  -8.447
REMARK INTRA:                  -0.905
REMARK UNBOUND:                -2.148
REMARK SMILES CCCCCCCCCCCCCC[C@@H](C)C(=O)[O-]
REMARK SMILES IDX 9 1 10 2 11 3 12 4 13 5 14 6 15 7 16 8 17 9 18 10 19 11 8 12
REMARK SMILES IDX 7 13 6 14 5 15 4 16 3 17 2 18 1 19
REMARK H PARENT
REMARK Flexibility Score: inf
ROOT
ATOM      1  C   UNL     1     -35.079 -49.920  23.831  1.00  0.00     0.000 C 
ENDROOT
BRANCH   1   2
ATOM      2  C   UNL     1     -35.439 -48.444  24.082  1.00  0.00     0.000 C 
BRANCH   2   3
ATOM      3  C   UNL     1     -34.216 -47.580  24.433  1.00  0.00     0.000 C 
BRANCH   3   4
ATOM      4  C   UNL     1     -34.534 -46.075  24.459  1.00  0.00     0.000 C 
BRANCH   4   5
ATOM      5  C   UNL     1     -34.352 -45.382  25.822  1.00  0.00     0.001 C 
BRANCH   5   6
ATOM      6  C   UNL     1     -35.644 -45.075  26.614  1.00  0.00     0.009 C 
BRANCH   6   7
ATOM      7  C   UNL     1     -35.661 -45.441  28.122  1.00  0.00     0.032 C 
ATOM      8  C   UNL     1     -34.697 -46.582  28.483  1.00  0.00     0.014 C 
BRANCH   7   9
ATOM      9  C   UNL     1     -35.486 -44.244  29.017  1.00  0.00     0.044 C 
ATOM     10  O   UNL     1     -35.026 -43.160  28.567  1.00  0.00    -0.550 OA
ATOM     11  O   UNL     1     -35.885 -44.314  30.346  1.00  0.00    -0.550 OA
ENDBRANCH   7   9
ENDBRANCH   6   7
ENDBRANCH   5   6
ENDBRANCH   4   5
ENDBRANCH   3   4
ENDBRANCH   2   3
ENDBRANCH   1   2
BRANCH   1  12
ATOM     12  C   UNL     1     -33.571 -50.227  23.787  1.00  0.00     0.000 C 
BRANCH  12  13
ATOM     13  C   UNL     1     -33.203 -51.537  24.507  1.00  0.00    -0.000 C 
BRANCH  13  14
ATOM     14  C   UNL     1     -34.412 -52.163  25.234  1.00  0.00    -0.000 C 
BRANCH  14  15
ATOM     15  C   UNL     1     -34.320 -52.073  26.767  1.00  0.00    -0.000 C 
BRANCH  15  16
ATOM     16  C   UNL     1     -34.602 -53.416  27.462  1.00  0.00    -0.000 C 
BRANCH  16  17
ATOM     17  C   UNL     1     -35.613 -53.286  28.611  1.00  0.00    -0.000 C 
BRANCH  17  18
ATOM     18  C   UNL     1     -36.387 -54.589  28.865  1.00  0.00    -0.003 C 
ATOM     19  C   UNL     1     -35.433 -55.762  29.074  1.00  0.00     0.004 C 
ENDBRANCH  17  18
ENDBRANCH  16  17
ENDBRANCH  15  16
ENDBRANCH  14  15
ENDBRANCH  13  14
ENDBRANCH  12  13
ENDBRANCH   1  12
TORSDOF 14
ENDMDL
MODEL 3
REMARK VINA RESULT:    -3.921      7.221      9.583
REMARK INTER + INTRA:          -9.278
REMARK INTER:                  -7.160
REMARK INTRA:                  -2.118
REMARK UNBOUND:                -2.148
REMARK SMILES CCCCCCCCCCCCCC[C@@H](C)C(=O)[O-]
REMARK SMILES IDX 9 1 10 2 11 3 12 4 13 5 14 6 15 7 16 8 17 9 18 10 19 11 8 12
REMARK SMILES IDX 7 13 6 14 5 15 4 16 3 17 2 18 1 19
REMARK H PARENT
REMARK Flexibility Score: inf
ROOT
ATOM      1  C   UNL     1     -26.836 -54.282  27.393  1.00  0.00     0.000 C 
ENDROOT
BRANCH   1   2
ATOM      2  C   UNL     1     -26.203 -55.031  28.580  1.00  0.00     0.000 C 
BRANCH   2   3
ATOM      3  C   UNL     1     -25.698 -54.087  29.684  1.00  0.00     0.000 C 
BRANCH   3   4
ATOM      4  C   UNL     1     -24.348 -53.432  29.341  1.00  0.00     0.000 C 
BRANCH   4   5
ATOM      5  C   UNL     1     -24.062 -52.093  30.046  1.00  0.00     0.001 C 
BRANCH   5   6
ATOM      6  C   UNL     1     -25.281 -51.174  30.292  1.00  0.00     0.009 C 
BRANCH   6   7
ATOM      7  C   UNL     1     -25.303 -50.355  31.611  1.00  0.00     0.032 C 
ATOM      8  C   UNL     1     -26.464 -49.352  31.686  1.00  0.00     0.014 C 
BRANCH   7   9
ATOM      9  C   UNL     1     -25.218 -51.222  32.839  1.00  0.00     0.044 C 
ATOM     10  O   UNL     1     -24.429 -50.938  33.779  1.00  0.00    -0.550 OA
ATOM     11  O   UNL     1     -26.059 -52.321  32.964  1.00  0.00    -0.550 OA
ENDBRANCH   7   9
ENDBRANCH   6   7
ENDBRANCH   5   6
ENDBRANCH   4   5
ENDBRANCH   3   4
ENDBRANCH   2   3
ENDBRANCH   1   2
BRANCH   1  12
ATOM     12  C   UNL     1     -27.662 -53.039  27.770  1.00  0.00     0.000 C 
BRANCH  12  13
ATOM     13  C   UNL     1     -27.133 -51.747  27.123  1.00  0.00    -0.000 C 
BRANCH  13  14
ATOM     14  C   UNL     1     -25.735 -51.937  26.498  1.00  0.00    -0.000 C 
BRANCH  14  15
ATOM     15  C   UNL     1     -25.658 -51.505  25.023  1.00  0.00    -0.000 C 
BRANCH  15  16
ATOM     16  C   UNL     1     -27.043 -51.258  24.401  1.00  0.00    -0.000 C 
BRANCH  16  17
ATOM     17  C   UNL     1     -27.353 -52.224  23.247  1.00  0.00    -0.000 C 
BRANCH  17  18
ATOM     18  C   UNL     1     -28.382 -53.297  23.636  1.00  0.00    -0.003 C 
ATOM     19  C   UNL     1     -27.711 -54.654  23.833  1.00  0.00     0.004 C 
ENDBRANCH  17  18
ENDBRANCH  16  17
ENDBRANCH  15  16
ENDBRANCH  14  15
ENDBRANCH  13  14
ENDBRANCH  12  13
ENDBRANCH   1  12
TORSDOF 14
ENDMDL
MODEL 4
REMARK VINA RESULT:    -3.896      4.333      7.873
REMARK INTER + INTRA:          -9.233
REMARK INTER:                  -7.909
REMARK INTRA:                  -1.324
REMARK UNBOUND:                -2.148
REMARK SMILES CCCCCCCCCCCCCC[C@@H](C)C(=O)[O-]
REMARK SMILES IDX 9 1 10 2 11 3 12 4 13 5 14 6 15 7 16 8 17 9 18 10 19 11 8 12
REMARK SMILES IDX 7 13 6 14 5 15 4 16 3 17 2 18 1 19
REMARK H PARENT
REMARK Flexibility Score: inf
ROOT
ATOM      1  C   UNL     1     -29.947 -52.500  35.137  1.00  0.00     0.000 C 
ENDROOT
BRANCH   1   2
ATOM      2  C   UNL     1     -29.716 -51.322  36.101  1.00  0.00     0.000 C 
BRANCH   2   3
ATOM      3  C   UNL     1     -30.261 -49.989  35.560  1.00  0.00     0.000 C 
BRANCH   3   4
ATOM      4  C   UNL     1     -29.268 -48.825  35.726  1.00  0.00     0.000 C 
BRANCH   4   5
ATOM      5  C   UNL     1     -27.857 -49.220  36.202  1.00  0.00     0.001 C 
BRANCH   5   6
ATOM      6  C   UNL     1     -26.743 -49.207  35.130  1.00  0.00     0.009 C 
BRANCH   6   7
ATOM      7  C   UNL     1     -26.460 -50.536  34.379  1.00  0.00     0.032 C 
ATOM      8  C   UNL     1     -27.347 -50.737  33.141  1.00  0.00     0.014 C 
BRANCH   7   9
ATOM      9  C   UNL     1     -25.000 -50.735  34.072  1.00  0.00     0.044 C 
ATOM     10  O   UNL     1     -24.159 -50.894  34.997  1.00  0.00    -0.550 OA
ATOM     11  O   UNL     1     -24.577 -50.796  32.750  1.00  0.00    -0.550 OA
ENDBRANCH   7   9
ENDBRANCH   6   7
ENDBRANCH   5   6
ENDBRANCH   4   5
ENDBRANCH   3   4
ENDBRANCH   2   3
ENDBRANCH   1   2
BRANCH   1  12
ATOM     12  C   UNL     1     -30.966 -52.237  34.014  1.00  0.00     0.000 C 
BRANCH  12  13
ATOM     13  C   UNL     1     -31.758 -53.494  33.614  1.00  0.00    -0.000 C 
BRANCH  13  14
ATOM     14  C   UNL     1     -33.010 -53.152  32.779  1.00  0.00    -0.000 C 
BRANCH  14  15
ATOM     15  C   UNL     1     -32.684 -52.581  31.388  1.00  0.00    -0.000 C 
BRANCH  15  16
ATOM     16  C   UNL     1     -33.259 -53.431  30.243  1.00  0.00    -0.000 C 
BRANCH  16  17
ATOM     17  C   UNL     1     -34.452 -54.291  30.688  1.00  0.00    -0.000 C 
BRANCH  17  18
ATOM     18  C   UNL     1     -34.956 -55.221  29.574  1.00  0.00    -0.003 C 
ATOM     19  C   UNL     1     -34.600 -54.670  28.196  1.00  0.00     0.004 C 
ENDBRANCH  17  18
ENDBRANCH  16  17
ENDBRANCH  15  16
ENDBRANCH  14  15
ENDBRANCH  13  14
ENDBRANCH  12  13
ENDBRANCH   1  12
TORSDOF 14
ENDMDL
MODEL 5
REMARK VINA RESULT:    -3.861      8.658     10.621
REMARK INTER + INTRA:          -9.169
REMARK INTER:                  -6.834
REMARK INTRA:                  -2.335
REMARK UNBOUND:                -2.148
REMARK SMILES CCCCCCCCCCCCCC[C@@H](C)C(=O)[O-]
REMARK SMILES IDX 9 1 10 2 11 3 12 4 13 5 14 6 15 7 16 8 17 9 18 10 19 11 8 12
REMARK SMILES IDX 7 13 6 14 5 15 4 16 3 17 2 18 1 19
REMARK H PARENT
REMARK Flexibility Score: inf
ROOT
ATOM      1  C   UNL     1     -27.296 -50.122  27.506  1.00  0.00     0.000 C 
ENDROOT
BRANCH   1   2
ATOM      2  C   UNL     1     -27.328 -51.062  28.725  1.00  0.00     0.000 C 
BRANCH   2   3
ATOM      3  C   UNL     1     -25.926 -51.396  29.262  1.00  0.00     0.000 C 
BRANCH   3   4
ATOM      4  C   UNL     1     -25.528 -52.864  29.026  1.00  0.00     0.000 C 
BRANCH   4   5
ATOM      5  C   UNL     1     -26.690 -53.821  28.697  1.00  0.00     0.001 C 
BRANCH   5   6
ATOM      6  C   UNL     1     -26.761 -54.337  27.241  1.00  0.00     0.009 C 
BRANCH   6   7
ATOM      7  C   UNL     1     -28.171 -54.535  26.622  1.00  0.00     0.032 C 
ATOM      8  C   UNL     1     -29.290 -53.857  27.427  1.00  0.00     0.014 C 
BRANCH   7   9
ATOM      9  C   UNL     1     -28.223 -54.178  25.161  1.00  0.00     0.044 C 
ATOM     10  O   UNL     1     -27.384 -54.651  24.347  1.00  0.00    -0.550 OA
ATOM     11  O   UNL     1     -29.240 -53.357  24.690  1.00  0.00    -0.550 OA
ENDBRANCH   7   9
ENDBRANCH   6   7
ENDBRANCH   5   6
ENDBRANCH   4   5
ENDBRANCH   3   4
ENDBRANCH   2   3
ENDBRANCH   1   2
BRANCH   1  12
ATOM     12  C   UNL     1     -27.372 -50.822  26.138  1.00  0.00     0.000 C 
BRANCH  12  13
ATOM     13  C   UNL     1     -25.992 -51.231  25.594  1.00  0.00    -0.000 C 
BRANCH  13  14
ATOM     14  C   UNL     1     -25.873 -51.005  24.072  1.00  0.00    -0.000 C 
BRANCH  14  15
ATOM     15  C   UNL     1     -27.191 -50.563  23.413  1.00  0.00    -0.000 C 
BRANCH  15  16
ATOM     16  C   UNL     1     -27.151 -49.108  22.917  1.00  0.00    -0.000 C 
BRANCH  16  17
ATOM     17  C   UNL     1     -28.213 -48.225  23.591  1.00  0.00    -0.000 C 
BRANCH  17  18
ATOM     18  C   UNL     1     -27.637 -46.895  24.101  1.00  0.00    -0.003 C 
ATOM     19  C   UNL     1     -26.177 -47.055  24.519  1.00  0.00     0.004 C 
ENDBRANCH  17  18
ENDBRANCH  16  17
ENDBRANCH  15  16
ENDBRANCH  14  15
ENDBRANCH  13  14
ENDBRANCH  12  13
ENDBRANCH   1  12
TORSDOF 14
ENDMDL
MODEL 6
REMARK VINA RESULT:    -3.842      2.169      3.676
REMARK INTER + INTRA:          -9.135
REMARK INTER:                  -6.667
REMARK INTRA:                  -2.468
REMARK UNBOUND:                -2.148
REMARK SMILES CCCCCCCCCCCCCC[C@@H](C)C(=O)[O-]
REMARK SMILES IDX 9 1 10 2 11 3 12 4 13 5 14 6 15 7 16 8 17 9 18 10 19 11 8 12
REMARK SMILES IDX 7 13 6 14 5 15 4 16 3 17 2 18 1 19
REMARK H PARENT
REMARK Flexibility Score: inf
ROOT
ATOM      1  C   UNL     1     -27.368 -53.134  32.127  1.00  0.00     0.000 C 
ENDROOT
BRANCH   1   2
ATOM      2  C   UNL     1     -28.421 -52.062  31.793  1.00  0.00     0.000 C 
BRANCH   2   3
ATOM      3  C   UNL     1     -29.484 -51.903  32.893  1.00  0.00     0.000 C 
BRANCH   3   4
ATOM      4  C   UNL     1     -28.985 -52.353  34.278  1.00  0.00     0.000 C 
BRANCH   4   5
ATOM      5  C   UNL     1     -29.919 -52.024  35.458  1.00  0.00     0.001 C 
BRANCH   5   6
ATOM      6  C   UNL     1     -29.879 -50.568  35.978  1.00  0.00     0.009 C 
BRANCH   6   7
ATOM      7  C   UNL     1     -30.896 -49.565  35.371  1.00  0.00     0.032 C 
ATOM      8  C   UNL     1     -32.251 -50.203  35.029  1.00  0.00     0.014 C 
BRANCH   7   9
ATOM      9  C   UNL     1     -31.047 -48.314  36.195  1.00  0.00     0.044 C 
ATOM     10  O   UNL     1     -31.715 -48.319  37.263  1.00  0.00    -0.550 OA
ATOM     11  O   UNL     1     -30.399 -47.150  35.802  1.00  0.00    -0.550 OA
ENDBRANCH   7   9
ENDBRANCH   6   7
ENDBRANCH   5   6
ENDBRANCH   4   5
ENDBRANCH   3   4
ENDBRANCH   2   3
ENDBRANCH   1   2
BRANCH   1  12
ATOM     12  C   UNL     1     -25.905 -52.672  32.012  1.00  0.00     0.000 C 
BRANCH  12  13
ATOM     13  C   UNL     1     -25.767 -51.150  31.832  1.00  0.00    -0.000 C 
BRANCH  13  14
ATOM     14  C   UNL     1     -24.639 -50.559  32.704  1.00  0.00    -0.000 C 
BRANCH  14  15
ATOM     15  C   UNL     1     -24.736 -50.959  34.187  1.00  0.00    -0.000 C 
BRANCH  15  16
ATOM     16  C   UNL     1     -26.045 -50.494  34.846  1.00  0.00    -0.000 C 
BRANCH  16  17
ATOM     17  C   UNL     1     -25.932 -49.091  35.460  1.00  0.00    -0.000 C 
BRANCH  17  18
ATOM     18  C   UNL     1     -27.082 -48.166  35.033  1.00  0.00    -0.003 C 
ATOM     19  C   UNL     1     -27.710 -48.641  33.726  1.00  0.00     0.004 C 
ENDBRANCH  17  18
ENDBRANCH  16  17
ENDBRANCH  15  16
ENDBRANCH  14  15
ENDBRANCH  13  14
ENDBRANCH  12  13
ENDBRANCH   1  12
TORSDOF 14
ENDMDL
MODEL 7
REMARK VINA RESULT:    -3.842      8.896     11.273
REMARK INTER + INTRA:          -9.134
REMARK INTER:                  -7.926
REMARK INTRA:                  -1.208
REMARK UNBOUND:                -2.148
REMARK SMILES CCCCCCCCCCCCCC[C@@H](C)C(=O)[O-]
REMARK SMILES IDX 9 1 10 2 11 3 12 4 13 5 14 6 15 7 16 8 17 9 18 10 19 11 8 12
REMARK SMILES IDX 7 13 6 14 5 15 4 16 3 17 2 18 1 19
REMARK H PARENT
REMARK Flexibility Score: inf
ROOT
ATOM      1  C   UNL     1     -34.163 -52.069  24.912  1.00  0.00     0.000 C 
ENDROOT
BRANCH   1   2
ATOM      2  C   UNL     1     -34.561 -50.696  24.341  1.00  0.00     0.000 C 
BRANCH   2   3
ATOM      3  C   UNL     1     -33.349 -49.795  24.049  1.00  0.00     0.000 C 
BRANCH   3   4
ATOM      4  C   UNL     1     -33.547 -48.911  22.804  1.00  0.00     0.000 C 
BRANCH   4   5
ATOM      5  C   UNL     1     -33.215 -47.418  22.992  1.00  0.00     0.001 C 
BRANCH   5   6
ATOM      6  C   UNL     1     -34.373 -46.514  23.476  1.00  0.00     0.009 C 
BRANCH   6   7
ATOM      7  C   UNL     1     -34.124 -45.654  24.743  1.00  0.00     0.032 C 
ATOM      8  C   UNL     1     -33.845 -46.489  26.002  1.00  0.00     0.014 C 
BRANCH   7   9
ATOM      9  C   UNL     1     -33.088 -44.583  24.529  1.00  0.00     0.044 C 
ATOM     10  O   UNL     1     -31.919 -44.712  24.983  1.00  0.00    -0.550 OA
ATOM     11  O   UNL     1     -33.406 -43.459  23.777  1.00  0.00    -0.550 OA
ENDBRANCH   7   9
ENDBRANCH   6   7
ENDBRANCH   5   6
ENDBRANCH   4   5
ENDBRANCH   3   4
ENDBRANCH   2   3
ENDBRANCH   1   2
BRANCH   1  12
ATOM     12  C   UNL     1     -34.502 -52.281  26.399  1.00  0.00     0.000 C 
BRANCH  12  13
ATOM     13  C   UNL     1     -33.279 -52.129  27.322  1.00  0.00    -0.000 C 
BRANCH  13  14
ATOM     14  C   UNL     1     -33.675 -51.681  28.745  1.00  0.00    -0.000 C 
BRANCH  14  15
ATOM     15  C   UNL     1     -33.161 -52.622  29.849  1.00  0.00    -0.000 C 
BRANCH  15  16
ATOM     16  C   UNL     1     -34.167 -53.727  30.207  1.00  0.00    -0.000 C 
BRANCH  16  17
ATOM     17  C   UNL     1     -33.975 -54.998  29.365  1.00  0.00    -0.000 C 
BRANCH  17  18
ATOM     18  C   UNL     1     -35.305 -55.685  29.022  1.00  0.00    -0.003 C 
ATOM     19  C   UNL     1     -36.361 -54.662  28.613  1.00  0.00     0.004 C 
ENDBRANCH  17  18
ENDBRANCH  16  17
ENDBRANCH  15  16
ENDBRANCH  14  15
ENDBRANCH  13  14
ENDBRANCH  12  13
ENDBRANCH   1  12
TORSDOF 14
ENDMDL
MODEL 8
REMARK VINA RESULT:    -3.803      8.514     10.460
REMARK INTER + INTRA:          -9.064
REMARK INTER:                  -6.737
REMARK INTRA:                  -2.327
REMARK UNBOUND:                -2.148
REMARK SMILES CCCCCCCCCCCCCC[C@@H](C)C(=O)[O-]
REMARK SMILES IDX 9 1 10 2 11 3 12 4 13 5 14 6 15 7 16 8 17 9 18 10 19 11 8 12
REMARK SMILES IDX 7 13 6 14 5 15 4 16 3 17 2 18 1 19
REMARK H PARENT
REMARK Flexibility Score: inf
ROOT
ATOM      1  C   UNL     1     -33.777 -43.696  27.691  1.00  0.00     0.000 C 
ENDROOT
BRANCH   1   2
ATOM      2  C   UNL     1     -34.966 -44.461  27.081  1.00  0.00     0.000 C 
BRANCH   2   3
ATOM      3  C   UNL     1     -35.340 -45.723  27.877  1.00  0.00     0.000 C 
BRANCH   3   4
ATOM      4  C   UNL     1     -34.109 -46.519  28.348  1.00  0.00     0.000 C 
BRANCH   4   5
ATOM      5  C   UNL     1     -34.002 -46.734  29.869  1.00  0.00     0.001 C 
BRANCH   5   6
ATOM      6  C   UNL     1     -33.251 -45.641  30.665  1.00  0.00     0.009 C 
BRANCH   6   7
ATOM      7  C   UNL     1     -34.055 -44.864  31.741  1.00  0.00     0.032 C 
ATOM      8  C   UNL     1     -35.267 -44.112  31.172  1.00  0.00     0.014 C 
BRANCH   7   9
ATOM      9  C   UNL     1     -34.418 -45.715  32.928  1.00  0.00     0.044 C 
ATOM     10  O   UNL     1     -33.647 -45.807  33.921  1.00  0.00    -0.550 OA
ATOM     11  O   UNL     1     -35.644 -46.369  32.956  1.00  0.00    -0.550 OA
ENDBRANCH   7   9
ENDBRANCH   6   7
ENDBRANCH   5   6
ENDBRANCH   4   5
ENDBRANCH   3   4
ENDBRANCH   2   3
ENDBRANCH   1   2
BRANCH   1  12
ATOM     12  C   UNL     1     -32.565 -43.521  26.759  1.00  0.00     0.000 C 
BRANCH  12  13
ATOM     13  C   UNL     1     -32.941 -43.570  25.268  1.00  0.00    -0.000 C 
BRANCH  13  14
ATOM     14  C   UNL     1     -32.188 -44.686  24.513  1.00  0.00    -0.000 C 
BRANCH  14  15
ATOM     15  C   UNL     1     -31.651 -45.796  25.434  1.00  0.00    -0.000 C 
BRANCH  15  16
ATOM     16  C   UNL     1     -32.267 -47.171  25.132  1.00  0.00    -0.000 C 
BRANCH  16  17
ATOM     17  C   UNL     1     -32.973 -47.217  23.768  1.00  0.00    -0.000 C 
BRANCH  17  18
ATOM     18  C   UNL     1     -34.333 -47.928  23.831  1.00  0.00    -0.003 C 
ATOM     19  C   UNL     1     -35.415 -46.996  24.371  1.00  0.00     0.004 C 
ENDBRANCH  17  18
ENDBRANCH  16  17
ENDBRANCH  15  16
ENDBRANCH  14  15
ENDBRANCH  13  14
ENDBRANCH  12  13
ENDBRANCH   1  12
TORSDOF 14
ENDMDL
MODEL 9
REMARK VINA RESULT:    -3.786     11.092     13.131
REMARK INTER + INTRA:          -9.032
REMARK INTER:                  -6.525
REMARK INTRA:                  -2.507
REMARK UNBOUND:                -2.148
REMARK SMILES CCCCCCCCCCCCCC[C@@H](C)C(=O)[O-]
REMARK SMILES IDX 9 1 10 2 11 3 12 4 13 5 14 6 15 7 16 8 17 9 18 10 19 11 8 12
REMARK SMILES IDX 7 13 6 14 5 15 4 16 3 17 2 18 1 19
REMARK H PARENT
REMARK Flexibility Score: inf
ROOT
ATOM      1  C   UNL     1     -28.749 -46.793  25.214  1.00  0.00     0.000 C 
ENDROOT
BRANCH   1   2
ATOM      2  C   UNL     1     -27.585 -46.401  24.286  1.00  0.00     0.000 C 
BRANCH   2   3
ATOM      3  C   UNL     1     -26.284 -47.158  24.604  1.00  0.00     0.000 C 
BRANCH   3   4
ATOM      4  C   UNL     1     -26.074 -48.390  23.705  1.00  0.00     0.000 C 
BRANCH   4   5
ATOM      5  C   UNL     1     -27.112 -48.575  22.582  1.00  0.00     0.001 C 
BRANCH   5   6
ATOM      6  C   UNL     1     -28.084 -49.767  22.736  1.00  0.00     0.009 C 
BRANCH   6   7
ATOM      7  C   UNL     1     -28.173 -50.439  24.132  1.00  0.00     0.032 C 
ATOM      8  C   UNL     1     -29.607 -50.526  24.676  1.00  0.00     0.014 C 
BRANCH   7   9
ATOM      9  C   UNL     1     -27.461 -51.764  24.190  1.00  0.00     0.044 C 
ATOM     10  O   UNL     1     -27.858 -52.681  24.959  1.00  0.00    -0.550 OA
ATOM     11  O   UNL     1     -26.382 -52.003  23.348  1.00  0.00    -0.550 OA
ENDBRANCH   7   9
ENDBRANCH   6   7
ENDBRANCH   5   6
ENDBRANCH   4   5
ENDBRANCH   3   4
ENDBRANCH   2   3
ENDBRANCH   1   2
BRANCH   1  12
ATOM     12  C   UNL     1     -30.126 -46.883  24.533  1.00  0.00     0.000 C 
BRANCH  12  13
ATOM     13  C   UNL     1     -30.232 -46.010  23.271  1.00  0.00    -0.000 C 
BRANCH  13  14
ATOM     14  C   UNL     1     -30.480 -46.849  22.000  1.00  0.00    -0.000 C 
BRANCH  14  15
ATOM     15  C   UNL     1     -31.239 -48.160  22.268  1.00  0.00    -0.000 C 
BRANCH  15  16
ATOM     16  C   UNL     1     -32.733 -48.067  21.919  1.00  0.00    -0.000 C 
BRANCH  16  17
ATOM     17  C   UNL     1     -33.629 -48.736  22.973  1.00  0.00    -0.000 C 
BRANCH  17  18
ATOM     18  C   UNL     1     -34.434 -47.718  23.794  1.00  0.00    -0.003 C 
ATOM     19  C   UNL     1     -34.145 -46.291  23.334  1.00  0.00     0.004 C 
ENDBRANCH  17  18
ENDBRANCH  16  17
ENDBRANCH  15  16
ENDBRANCH  14  15
ENDBRANCH  13  14
ENDBRANCH  12  13
ENDBRANCH   1  12
TORSDOF 14
ENDMDL
