MODEL 1
REMARK VINA RESULT:    -3.868      0.000      0.000
REMARK INTER + INTRA:          -4.904
REMARK INTER:                  -4.659
REMARK INTRA:                  -0.245
REMARK UNBOUND:                -0.245
REMARK SMILES NC(=O)C[C@H]([NH3+])C(=O)[O-]
REMARK SMILES IDX 4 1 5 2 6 3 7 7 8 8 9 9 2 10 3 11 1 12
REMARK H PARENT 6 4 6 5 6 6 1 13 1 14
REMARK Flexibility Score: inf
ROOT
ATOM      1  C   UNL     1     -10.222  33.374 -19.229  1.00  0.00     0.171 C 
ENDROOT
BRANCH   1   2
ATOM      2  C   UNL     1     -11.695  33.652 -19.599  1.00  0.00     0.237 C 
BRANCH   2   3
ATOM      3  N   UNL     1     -11.823  34.794 -20.515  1.00  0.00    -0.350 N 
ATOM      4  H   UNL     1     -11.833  35.699 -19.992  1.00  0.00     0.345 HD
ATOM      5  H   UNL     1     -11.023  34.798 -21.189  1.00  0.00     0.345 HD
ATOM      6  H   UNL     1     -12.710  34.708 -21.061  1.00  0.00     0.345 HD
ENDBRANCH   2   3
BRANCH   2   7
ATOM      7  C   UNL     1     -12.548  33.834 -18.369  1.00  0.00     0.100 C 
ATOM      8  O   UNL     1     -12.023  33.925 -17.227  1.00  0.00    -0.544 OA
ATOM      9  O   UNL     1     -13.932  33.850 -18.487  1.00  0.00    -0.544 OA
ENDBRANCH   2   7
ENDBRANCH   1   2
BRANCH   1  10
ATOM     10  C   UNL     1      -9.350  33.102 -20.424  1.00  0.00     0.223 C 
ATOM     11  O   UNL     1      -9.872  32.964 -21.561  1.00  0.00    -0.275 OA
ATOM     12  N   UNL     1      -7.932  33.017 -20.282  1.00  0.00    -0.369 N 
ATOM     13  H   UNL     1      -7.481  33.130 -19.347  1.00  0.00     0.159 HD
ATOM     14  H   UNL     1      -7.329  32.840 -21.116  1.00  0.00     0.159 HD
ENDBRANCH   1  10
TORSDOF 4
ENDMDL
MODEL 2
REMARK VINA RESULT:    -3.811      1.979      4.193
REMARK INTER + INTRA:          -4.836
REMARK INTER:                  -4.597
REMARK INTRA:                  -0.239
REMARK UNBOUND:                -0.245
REMARK SMILES NC(=O)C[C@H]([NH3+])C(=O)[O-]
REMARK SMILES IDX 4 1 5 2 6 3 7 7 8 8 9 9 2 10 3 11 1 12
REMARK H PARENT 6 4 6 5 6 6 1 13 1 14
REMARK Flexibility Score: inf
ROOT
ATOM      1  C   UNL     1     -10.353  33.392 -19.050  1.00  0.00     0.171 C 
ENDROOT
BRANCH   1   2
ATOM      2  C   UNL     1      -9.856  33.723 -20.474  1.00  0.00     0.237 C 
BRANCH   2   3
ATOM      3  N   UNL     1     -10.732  33.150 -21.506  1.00  0.00    -0.350 N 
ATOM      4  H   UNL     1     -10.594  33.625 -22.427  1.00  0.00     0.345 HD
ATOM      5  H   UNL     1     -10.530  32.129 -21.615  1.00  0.00     0.345 HD
ATOM      6  H   UNL     1     -11.731  33.256 -21.216  1.00  0.00     0.345 HD
ENDBRANCH   2   3
BRANCH   2   7
ATOM      7  C   UNL     1      -8.422  33.299 -20.671  1.00  0.00     0.100 C 
ATOM      8  O   UNL     1      -8.023  32.172 -20.276  1.00  0.00    -0.544 OA
ATOM      9  O   UNL     1      -7.516  34.180 -21.248  1.00  0.00    -0.544 OA
ENDBRANCH   2   7
ENDBRANCH   1   2
BRANCH   1  10
ATOM     10  C   UNL     1     -11.712  33.962 -18.747  1.00  0.00     0.223 C 
ATOM     11  O   UNL     1     -12.327  34.616 -19.631  1.00  0.00    -0.275 OA
ATOM     12  N   UNL     1     -12.318  33.753 -17.472  1.00  0.00    -0.369 N 
ATOM     13  H   UNL     1     -11.823  33.212 -16.728  1.00  0.00     0.159 HD
ATOM     14  H   UNL     1     -13.266  34.139 -17.270  1.00  0.00     0.159 HD
ENDBRANCH   1  10
TORSDOF 4
ENDMDL
MODEL 3
REMARK VINA RESULT:    -3.533      1.478      4.371
REMARK INTER + INTRA:          -4.501
REMARK INTER:                  -4.242
REMARK INTRA:                  -0.259
REMARK UNBOUND:                -0.245
REMARK SMILES NC(=O)C[C@H]([NH3+])C(=O)[O-]
REMARK SMILES IDX 4 1 5 2 6 3 7 7 8 8 9 9 2 10 3 11 1 12
REMARK H PARENT 6 4 6 5 6 6 1 13 1 14
REMARK Flexibility Score: inf
ROOT
ATOM      1  C   UNL     1     -11.469  34.315 -19.458  1.00  0.00     0.171 C 
ENDROOT
BRANCH   1   2
ATOM      2  C   UNL     1     -10.337  33.266 -19.526  1.00  0.00     0.237 C 
BRANCH   2   3
ATOM      3  N   UNL     1      -9.295  33.520 -18.522  1.00  0.00    -0.350 N 
ATOM      4  H   UNL     1      -8.365  33.679 -18.973  1.00  0.00     0.345 HD
ATOM      5  H   UNL     1      -9.548  34.361 -17.953  1.00  0.00     0.345 HD
ATOM      6  H   UNL     1      -9.222  32.700 -17.877  1.00  0.00     0.345 HD
ENDBRANCH   2   3
BRANCH   2   7
ATOM      7  C   UNL     1      -9.755  33.171 -20.914  1.00  0.00     0.100 C 
ATOM      8  O   UNL     1     -10.502  33.174 -21.928  1.00  0.00    -0.544 OA
ATOM      9  O   UNL     1      -8.383  33.028 -21.076  1.00  0.00    -0.544 OA
ENDBRANCH   2   7
ENDBRANCH   1   2
BRANCH   1  10
ATOM     10  C   UNL     1     -12.520  33.990 -18.433  1.00  0.00     0.223 C 
ATOM     11  O   UNL     1     -12.221  33.287 -17.431  1.00  0.00    -0.275 OA
ATOM     12  N   UNL     1     -13.850  34.486 -18.576  1.00  0.00    -0.369 N 
ATOM     13  H   UNL     1     -14.116  35.072 -19.400  1.00  0.00     0.159 HD
ATOM     14  H   UNL     1     -14.575  34.269 -17.856  1.00  0.00     0.159 HD
ENDBRANCH   1  10
TORSDOF 4
ENDMDL
MODEL 4
REMARK VINA RESULT:    -3.237     15.090     16.109
REMARK INTER + INTRA:          -4.145
REMARK INTER:                  -4.131
REMARK INTRA:                  -0.013
REMARK UNBOUND:                -0.245
REMARK SMILES NC(=O)C[C@H]([NH3+])C(=O)[O-]
REMARK SMILES IDX 4 1 5 2 6 3 7 7 8 8 9 9 2 10 3 11 1 12
REMARK H PARENT 6 4 6 5 6 6 1 13 1 14
REMARK Flexibility Score: inf
ROOT
ATOM      1  C   UNL     1      -2.621  20.973 -19.236  1.00  0.00     0.171 C 
ENDROOT
BRANCH   1   2
ATOM      2  C   UNL     1      -1.642  20.321 -20.237  1.00  0.00     0.237 C 
BRANCH   2   3
ATOM      3  N   UNL     1      -0.291  20.891 -20.131  1.00  0.00    -0.350 N 
ATOM      4  H   UNL     1      -0.316  21.847 -19.708  1.00  0.00     0.345 HD
ATOM      5  H   UNL     1       0.309  20.271 -19.540  1.00  0.00     0.345 HD
ATOM      6  H   UNL     1       0.139  20.953 -21.082  1.00  0.00     0.345 HD
ENDBRANCH   2   3
BRANCH   2   7
ATOM      7  C   UNL     1      -2.164  20.400 -21.650  1.00  0.00     0.100 C 
ATOM      8  O   UNL     1      -1.491  19.944 -22.612  1.00  0.00    -0.544 OA
ATOM      9  O   UNL     1      -3.377  21.028 -21.902  1.00  0.00    -0.544 OA
ENDBRANCH   2   7
ENDBRANCH   1   2
BRANCH   1  10
ATOM     10  C   UNL     1      -3.895  20.194 -19.058  1.00  0.00     0.223 C 
ATOM     11  O   UNL     1      -3.880  19.105 -18.426  1.00  0.00    -0.275 OA
ATOM     12  N   UNL     1      -5.126  20.689 -19.584  1.00  0.00    -0.369 N 
ATOM     13  H   UNL     1      -5.158  21.592 -20.109  1.00  0.00     0.159 HD
ATOM     14  H   UNL     1      -6.011  20.152 -19.448  1.00  0.00     0.159 HD
ENDBRANCH   1  10
TORSDOF 4
ENDMDL
MODEL 5
REMARK VINA RESULT:    -3.172     14.013     15.755
REMARK INTER + INTRA:          -4.067
REMARK INTER:                  -3.947
REMARK INTRA:                  -0.120
REMARK UNBOUND:                -0.245
REMARK SMILES NC(=O)C[C@H]([NH3+])C(=O)[O-]
REMARK SMILES IDX 4 1 5 2 6 3 7 7 8 8 9 9 2 10 3 11 1 12
REMARK H PARENT 6 4 6 5 6 6 1 13 1 14
REMARK Flexibility Score: inf
ROOT
ATOM      1  C   UNL     1      -3.168  21.761 -19.880  1.00  0.00     0.171 C 
ENDROOT
BRANCH   1   2
ATOM      2  C   UNL     1      -2.187  20.653 -19.441  1.00  0.00     0.237 C 
BRANCH   2   3
ATOM      3  N   UNL     1      -1.435  21.035 -18.237  1.00  0.00    -0.350 N 
ATOM      4  H   UNL     1      -2.068  21.433 -17.506  1.00  0.00     0.345 HD
ATOM      5  H   UNL     1      -0.944  20.198 -17.846  1.00  0.00     0.345 HD
ATOM      6  H   UNL     1      -0.714  21.750 -18.486  1.00  0.00     0.345 HD
ENDBRANCH   2   3
BRANCH   2   7
ATOM      7  C   UNL     1      -1.263  20.256 -20.565  1.00  0.00     0.100 C 
ATOM      8  O   UNL     1      -0.060  19.958 -20.336  1.00  0.00    -0.544 OA
ATOM      9  O   UNL     1      -1.726  20.267 -21.874  1.00  0.00    -0.544 OA
ENDBRANCH   2   7
ENDBRANCH   1   2
BRANCH   1  10
ATOM     10  C   UNL     1      -4.609  21.330 -19.839  1.00  0.00     0.223 C 
ATOM     11  O   UNL     1      -5.498  22.072 -20.333  1.00  0.00    -0.275 OA
ATOM     12  N   UNL     1      -4.974  20.077 -19.261  1.00  0.00    -0.369 N 
ATOM     13  H   UNL     1      -4.250  19.448 -18.848  1.00  0.00     0.159 HD
ATOM     14  H   UNL     1      -5.974  19.776 -19.245  1.00  0.00     0.159 HD
ENDBRANCH   1  10
TORSDOF 4
ENDMDL
MODEL 6
REMARK VINA RESULT:    -3.117      1.917      2.303
REMARK INTER + INTRA:          -4.000
REMARK INTER:                  -3.738
REMARK INTRA:                  -0.263
REMARK UNBOUND:                -0.245
REMARK SMILES NC(=O)C[C@H]([NH3+])C(=O)[O-]
REMARK SMILES IDX 4 1 5 2 6 3 7 7 8 8 9 9 2 10 3 11 1 12
REMARK H PARENT 6 4 6 5 6 6 1 13 1 14
REMARK Flexibility Score: inf
ROOT
ATOM      1  C   UNL     1      -9.837  33.280 -21.019  1.00  0.00     0.171 C 
ENDROOT
BRANCH   1   2
ATOM      2  C   UNL     1     -10.257  33.882 -19.660  1.00  0.00     0.237 C 
BRANCH   2   3
ATOM      3  N   UNL     1      -9.922  32.991 -18.541  1.00  0.00    -0.350 N 
ATOM      4  H   UNL     1     -10.180  32.001 -18.755  1.00  0.00     0.345 HD
ATOM      5  H   UNL     1      -8.897  33.042 -18.342  1.00  0.00     0.345 HD
ATOM      6  H   UNL     1     -10.437  33.297 -17.683  1.00  0.00     0.345 HD
ENDBRANCH   2   3
BRANCH   2   7
ATOM      7  C   UNL     1     -11.718  34.255 -19.650  1.00  0.00     0.100 C 
ATOM      8  O   UNL     1     -12.244  34.830 -20.640  1.00  0.00    -0.544 OA
ATOM      9  O   UNL     1     -12.484  34.010 -18.518  1.00  0.00    -0.544 OA
ENDBRANCH   2   7
ENDBRANCH   1   2
BRANCH   1  10
ATOM     10  C   UNL     1      -8.364  33.407 -21.295  1.00  0.00     0.223 C 
ATOM     11  O   UNL     1      -7.595  33.847 -20.400  1.00  0.00    -0.275 OA
ATOM     12  N   UNL     1      -7.826  33.013 -22.557  1.00  0.00    -0.369 N 
ATOM     13  H   UNL     1      -8.448  32.644 -23.311  1.00  0.00     0.159 HD
ATOM     14  H   UNL     1      -6.801  33.090 -22.741  1.00  0.00     0.159 HD
ENDBRANCH   1  10
TORSDOF 4
ENDMDL
MODEL 7
REMARK VINA RESULT:    -3.116     14.228     15.492
REMARK INTER + INTRA:          -3.999
REMARK INTER:                  -3.835
REMARK INTRA:                  -0.163
REMARK UNBOUND:                -0.245
REMARK SMILES NC(=O)C[C@H]([NH3+])C(=O)[O-]
REMARK SMILES IDX 4 1 5 2 6 3 7 7 8 8 9 9 2 10 3 11 1 12
REMARK H PARENT 6 4 6 5 6 6 1 13 1 14
REMARK Flexibility Score: inf
ROOT
ATOM      1  C   UNL     1      -2.001  20.276 -20.149  1.00  0.00     0.171 C 
ENDROOT
BRANCH   1   2
ATOM      2  C   UNL     1      -3.344  20.739 -19.545  1.00  0.00     0.237 C 
BRANCH   2   3
ATOM      3  N   UNL     1      -4.047  19.640 -18.868  1.00  0.00    -0.350 N 
ATOM      4  H   UNL     1      -5.078  19.812 -18.838  1.00  0.00     0.345 HD
ATOM      5  H   UNL     1      -3.865  18.741 -19.369  1.00  0.00     0.345 HD
ATOM      6  H   UNL     1      -3.691  19.547 -17.889  1.00  0.00     0.345 HD
ENDBRANCH   2   3
BRANCH   2   7
ATOM      7  C   UNL     1      -4.219  21.397 -20.582  1.00  0.00     0.100 C 
ATOM      8  O   UNL     1      -5.174  22.144 -20.240  1.00  0.00    -0.544 OA
ATOM      9  O   UNL     1      -4.004  21.138 -21.929  1.00  0.00    -0.544 OA
ENDBRANCH   2   7
ENDBRANCH   1   2
BRANCH   1  10
ATOM     10  C   UNL     1      -0.817  20.586 -19.275  1.00  0.00     0.223 C 
ATOM     11  O   UNL     1      -0.990  20.838 -18.053  1.00  0.00    -0.275 OA
ATOM     12  N   UNL     1       0.504  20.580 -19.815  1.00  0.00    -0.369 N 
ATOM     13  H   UNL     1       0.667  20.371 -20.826  1.00  0.00     0.159 HD
ATOM     14  H   UNL     1       1.325  20.783 -19.203  1.00  0.00     0.159 HD
ENDBRANCH   1  10
TORSDOF 4
ENDMDL
MODEL 8
REMARK VINA RESULT:    -3.016     15.615     16.445
REMARK INTER + INTRA:          -3.878
REMARK INTER:                  -3.626
REMARK INTRA:                  -0.253
REMARK UNBOUND:                -0.245
REMARK SMILES NC(=O)C[C@H]([NH3+])C(=O)[O-]
REMARK SMILES IDX 4 1 5 2 6 3 7 7 8 8 9 9 2 10 3 11 1 12
REMARK H PARENT 6 4 6 5 6 6 1 13 1 14
REMARK Flexibility Score: inf
ROOT
ATOM      1  C   UNL     1      -1.392  19.912 -21.286  1.00  0.00     0.171 C 
ENDROOT
BRANCH   1   2
ATOM      2  C   UNL     1      -2.406  20.750 -22.095  1.00  0.00     0.237 C 
BRANCH   2   3
ATOM      3  N   UNL     1      -3.707  20.836 -21.417  1.00  0.00    -0.350 N 
ATOM      4  H   UNL     1      -3.738  20.217 -20.575  1.00  0.00     0.345 HD
ATOM      5  H   UNL     1      -3.888  21.823 -21.122  1.00  0.00     0.345 HD
ATOM      6  H   UNL     1      -4.466  20.548 -22.077  1.00  0.00     0.345 HD
ENDBRANCH   2   3
BRANCH   2   7
ATOM      7  C   UNL     1      -2.552  20.231 -23.504  1.00  0.00     0.100 C 
ATOM      8  O   UNL     1      -1.649  19.527 -24.028  1.00  0.00    -0.544 OA
ATOM      9  O   UNL     1      -3.671  20.576 -24.252  1.00  0.00    -0.544 OA
ENDBRANCH   2   7
ENDBRANCH   1   2
BRANCH   1  10
ATOM     10  C   UNL     1      -0.936  20.587 -20.022  1.00  0.00     0.223 C 
ATOM     11  O   UNL     1      -1.788  21.036 -19.210  1.00  0.00    -0.275 OA
ATOM     12  N   UNL     1       0.455  20.709 -19.726  1.00  0.00    -0.369 N 
ATOM     13  H   UNL     1       1.176  20.341 -20.388  1.00  0.00     0.159 HD
ATOM     14  H   UNL     1       0.768  21.167 -18.842  1.00  0.00     0.159 HD
ENDBRANCH   1  10
TORSDOF 4
ENDMDL
MODEL 9
REMARK VINA RESULT:    -2.837     15.566     16.189
REMARK INTER + INTRA:          -3.663
REMARK INTER:                  -3.409
REMARK INTRA:                  -0.253
REMARK UNBOUND:                -0.245
REMARK SMILES NC(=O)C[C@H]([NH3+])C(=O)[O-]
REMARK SMILES IDX 4 1 5 2 6 3 7 7 8 8 9 9 2 10 3 11 1 12
REMARK H PARENT 6 4 6 5 6 6 1 13 1 14
REMARK Flexibility Score: inf
ROOT
ATOM      1  C   UNL     1      -1.740  20.668 -22.422  1.00  0.00     0.171 C 
ENDROOT
BRANCH   1   2
ATOM      2  C   UNL     1      -2.459  20.357 -21.091  1.00  0.00     0.237 C 
BRANCH   2   3
ATOM      3  N   UNL     1      -3.756  21.042 -20.997  1.00  0.00    -0.350 N 
ATOM      4  H   UNL     1      -4.083  21.364 -21.936  1.00  0.00     0.345 HD
ATOM      5  H   UNL     1      -4.469  20.394 -20.590  1.00  0.00     0.345 HD
ATOM      6  H   UNL     1      -3.669  21.871 -20.365  1.00  0.00     0.345 HD
ENDBRANCH   2   3
BRANCH   2   7
ATOM      7  C   UNL     1      -1.583  20.670 -19.904  1.00  0.00     0.100 C 
ATOM      8  O   UNL     1      -2.084  21.078 -18.822  1.00  0.00    -0.544 OA
ATOM      9  O   UNL     1      -0.203  20.558 -20.017  1.00  0.00    -0.544 OA
ENDBRANCH   2   7
ENDBRANCH   1   2
BRANCH   1  10
ATOM     10  C   UNL     1      -2.484  20.170 -23.630  1.00  0.00     0.223 C 
ATOM     11  O   UNL     1      -3.611  20.654 -23.915  1.00  0.00    -0.275 OA
ATOM     12  N   UNL     1      -1.915  19.164 -24.467  1.00  0.00    -0.369 N 
ATOM     13  H   UNL     1      -0.980  18.751 -24.247  1.00  0.00     0.159 HD
ATOM     14  H   UNL     1      -2.428  18.829 -25.313  1.00  0.00     0.159 HD
ENDBRANCH   1  10
TORSDOF 4
ENDMDL
