MODEL 1
REMARK VINA RESULT:    -4.519      0.000      0.000
REMARK INTER + INTRA:          -4.915
REMARK INTER:                  -4.915
REMARK INTRA:                   0.000
REMARK UNBOUND:                 0.000
REMARK SMILES Cc1cc(O)c2c(c1)C(=O)c1cc(O)cc(O)c1C2=O
REMARK SMILES IDX 1 1 2 2 8 3 7 4 6 5 4 6 3 7 19 8 20 9 18 10 11 11 9 12 10 13
REMARK SMILES IDX 12 14 13 15 15 16 16 17 5 18 17 20 14 22
REMARK H PARENT 5 19 17 21 14 23
REMARK Flexibility Score: inf
ROOT
ATOM      1  C   UNL     1      -2.038  14.219   3.344  1.00  0.00     0.044 C 
ATOM      2  C   UNL     1      -0.783  13.400   3.402  1.00  0.00    -0.047 A 
ATOM      3  C   UNL     1      -0.841  12.012   3.253  1.00  0.00     0.016 A 
ATOM      4  C   UNL     1       0.326  11.232   3.330  1.00  0.00     0.038 A 
ATOM      5  C   UNL     1       1.576  11.853   3.561  1.00  0.00     0.076 A 
ATOM      6  C   UNL     1       1.612  13.252   3.810  1.00  0.00     0.127 A 
ATOM      7  C   UNL     1       0.441  14.009   3.701  1.00  0.00     0.050 A 
ATOM      8  C   UNL     1       2.808  11.020   3.478  1.00  0.00     0.201 C 
ATOM      9  O   UNL     1       3.925  11.561   3.262  1.00  0.00    -0.288 OA
ATOM     10  C   UNL     1       2.712   9.538   3.536  1.00  0.00     0.076 A 
ATOM     11  C   UNL     1       1.451   8.924   3.373  1.00  0.00     0.041 A 
ATOM     12  C   UNL     1       0.244   9.759   3.183  1.00  0.00     0.194 C 
ATOM     13  O   UNL     1      -0.861   9.213   2.913  1.00  0.00    -0.289 OA
ATOM     14  C   UNL     1       1.351   7.522   3.387  1.00  0.00     0.059 A 
ATOM     15  C   UNL     1       2.485   6.730   3.569  1.00  0.00     0.120 A 
ATOM     16  C   UNL     1       3.734   7.334   3.740  1.00  0.00     0.093 A 
ATOM     17  C   UNL     1       3.857   8.729   3.727  1.00  0.00     0.131 A 
ENDROOT
BRANCH   6  18
ATOM     18  O   UNL     1       2.770  13.926   4.204  1.00  0.00    -0.507 OA
ATOM     19  H   UNL     1       3.518  13.494   4.729  1.00  0.00     0.293 HD
ENDBRANCH   6  18
BRANCH  17  20
ATOM     20  O   UNL     1       5.114   9.307   3.912  1.00  0.00    -0.507 OA
ATOM     21  H   UNL     1       5.374  10.174   3.458  1.00  0.00     0.293 HD
ENDBRANCH  17  20
BRANCH  15  22
ATOM     22  O   UNL     1       2.360   5.343   3.581  1.00  0.00    -0.508 OA
ATOM     23  H   UNL     1       1.484   4.888   3.351  1.00  0.00     0.293 HD
ENDBRANCH  15  22
TORSDOF 3
ENDMDL
MODEL 2
REMARK VINA RESULT:    -4.461      1.493      3.450
REMARK INTER + INTRA:          -4.852
REMARK INTER:                  -4.852
REMARK INTRA:                   0.000
REMARK UNBOUND:                 0.000
REMARK SMILES Cc1cc(O)c2c(c1)C(=O)c1cc(O)cc(O)c1C2=O
REMARK SMILES IDX 1 1 2 2 8 3 7 4 6 5 4 6 3 7 19 8 20 9 18 10 11 11 9 12 10 13
REMARK SMILES IDX 12 14 13 15 15 16 16 17 5 18 17 20 14 22
REMARK H PARENT 5 19 17 21 14 23
REMARK Flexibility Score: inf
ROOT
ATOM      1  C   UNL     1       3.666  15.029   3.651  1.00  0.00     0.044 C 
ATOM      2  C   UNL     1       2.729  13.857   3.625  1.00  0.00    -0.047 A 
ATOM      3  C   UNL     1       3.233  12.554   3.625  1.00  0.00     0.016 A 
ATOM      4  C   UNL     1       2.367  11.448   3.576  1.00  0.00     0.038 A 
ATOM      5  C   UNL     1       0.967  11.651   3.525  1.00  0.00     0.076 A 
ATOM      6  C   UNL     1       0.469  12.978   3.424  1.00  0.00     0.127 A 
ATOM      7  C   UNL     1       1.351  14.061   3.503  1.00  0.00     0.050 A 
ATOM      8  C   UNL     1       0.074  10.464   3.634  1.00  0.00     0.201 C 
ATOM      9  O   UNL     1      -1.121  10.603   4.005  1.00  0.00    -0.288 OA
ATOM     10  C   UNL     1       0.618   9.098   3.417  1.00  0.00     0.076 A 
ATOM     11  C   UNL     1       2.018   8.910   3.401  1.00  0.00     0.041 A 
ATOM     12  C   UNL     1       2.919  10.073   3.564  1.00  0.00     0.194 C 
ATOM     13  O   UNL     1       4.163   9.892   3.675  1.00  0.00    -0.289 OA
ATOM     14  C   UNL     1       2.547   7.619   3.235  1.00  0.00     0.059 A 
ATOM     15  C   UNL     1       1.702   6.520   3.077  1.00  0.00     0.120 A 
ATOM     16  C   UNL     1       0.316   6.702   3.083  1.00  0.00     0.093 A 
ATOM     17  C   UNL     1      -0.232   7.980   3.250  1.00  0.00     0.131 A 
ENDROOT
BRANCH   6  18
ATOM     18  O   UNL     1      -0.880  13.271   3.208  1.00  0.00    -0.507 OA
ATOM     19  H   UNL     1      -1.625  12.599   3.329  1.00  0.00     0.293 HD
ENDBRANCH   6  18
BRANCH  17  20
ATOM     20  O   UNL     1      -1.619   8.136   3.240  1.00  0.00    -0.507 OA
ATOM     21  H   UNL     1      -2.207   7.630   2.589  1.00  0.00     0.293 HD
ENDBRANCH  17  20
BRANCH  15  22
ATOM     22  O   UNL     1       2.250   5.250   2.912  1.00  0.00    -0.508 OA
ATOM     23  H   UNL     1       3.103   5.105   2.385  1.00  0.00     0.293 HD
ENDBRANCH  15  22
TORSDOF 3
ENDMDL
MODEL 3
REMARK VINA RESULT:    -4.442      2.347      6.784
REMARK INTER + INTRA:          -4.832
REMARK INTER:                  -4.832
REMARK INTRA:                   0.000
REMARK UNBOUND:                 0.000
REMARK SMILES Cc1cc(O)c2c(c1)C(=O)c1cc(O)cc(O)c1C2=O
REMARK SMILES IDX 1 1 2 2 8 3 7 4 6 5 4 6 3 7 19 8 20 9 18 10 11 11 9 12 10 13
REMARK SMILES IDX 12 14 13 15 15 16 16 17 5 18 17 20 14 22
REMARK H PARENT 5 19 17 21 14 23
REMARK Flexibility Score: inf
ROOT
ATOM      1  C   UNL     1       4.501   9.100   4.445  1.00  0.00     0.044 C 
ATOM      2  C   UNL     1       3.267   9.953   4.421  1.00  0.00    -0.047 A 
ATOM      3  C   UNL     1       3.324  11.257   3.921  1.00  0.00     0.016 A 
ATOM      4  C   UNL     1       2.180  12.074   3.916  1.00  0.00     0.038 A 
ATOM      5  C   UNL     1       0.956  11.577   4.421  1.00  0.00     0.076 A 
ATOM      6  C   UNL     1       0.932  10.287   5.017  1.00  0.00     0.127 A 
ATOM      7  C   UNL     1       2.077   9.484   4.985  1.00  0.00     0.050 A 
ATOM      8  C   UNL     1      -0.269  12.408   4.255  1.00  0.00     0.201 C 
ATOM      9  O   UNL     1      -1.408  11.872   4.296  1.00  0.00    -0.288 OA
ATOM     10  C   UNL     1      -0.153  13.853   3.926  1.00  0.00     0.076 A 
ATOM     11  C   UNL     1       1.090  14.359   3.487  1.00  0.00     0.041 A 
ATOM     12  C   UNL     1       2.261  13.460   3.394  1.00  0.00     0.194 C 
ATOM     13  O   UNL     1       3.337  13.879   2.884  1.00  0.00    -0.289 OA
ATOM     14  C   UNL     1       1.206  15.716   3.137  1.00  0.00     0.059 A 
ATOM     15  C   UNL     1       0.107  16.569   3.227  1.00  0.00     0.120 A 
ATOM     16  C   UNL     1      -1.124  16.074   3.669  1.00  0.00     0.093 A 
ATOM     17  C   UNL     1      -1.262  14.726   4.021  1.00  0.00     0.131 A 
ENDROOT
BRANCH   6  18
ATOM     18  O   UNL     1      -0.185   9.777   5.684  1.00  0.00    -0.507 OA
ATOM     19  H   UNL     1      -0.692   8.957   5.380  1.00  0.00     0.293 HD
ENDBRANCH   6  18
BRANCH  17  20
ATOM     20  O   UNL     1      -2.498  14.260   4.472  1.00  0.00    -0.507 OA
ATOM     21  H   UNL     1      -3.365  14.711   4.209  1.00  0.00     0.293 HD
ENDBRANCH  17  20
BRANCH  15  22
ATOM     22  O   UNL     1       0.247  17.910   2.875  1.00  0.00    -0.508 OA
ATOM     23  H   UNL     1      -0.313  18.327   2.140  1.00  0.00     0.293 HD
ENDBRANCH  15  22
TORSDOF 3
ENDMDL
MODEL 4
REMARK VINA RESULT:    -4.277      5.093      7.493
REMARK INTER + INTRA:          -4.652
REMARK INTER:                  -4.652
REMARK INTRA:                   0.000
REMARK UNBOUND:                 0.000
REMARK SMILES Cc1cc(O)c2c(c1)C(=O)c1cc(O)cc(O)c1C2=O
REMARK SMILES IDX 1 1 2 2 8 3 7 4 6 5 4 6 3 7 19 8 20 9 18 10 11 11 9 12 10 13
REMARK SMILES IDX 12 14 13 15 15 16 16 17 5 18 17 20 14 22
REMARK H PARENT 5 19 17 21 14 23
REMARK Flexibility Score: inf
ROOT
ATOM      1  C   UNL     1      -6.350   5.047   3.659  1.00  0.00     0.044 C 
ATOM      2  C   UNL     1      -5.857   6.348   4.220  1.00  0.00    -0.047 A 
ATOM      3  C   UNL     1      -4.594   6.833   3.868  1.00  0.00     0.016 A 
ATOM      4  C   UNL     1      -4.112   8.038   4.405  1.00  0.00     0.038 A 
ATOM      5  C   UNL     1      -4.908   8.773   5.315  1.00  0.00     0.076 A 
ATOM      6  C   UNL     1      -6.147   8.224   5.743  1.00  0.00     0.127 A 
ATOM      7  C   UNL     1      -6.616   7.036   5.172  1.00  0.00     0.050 A 
ATOM      8  C   UNL     1      -4.437  10.120   5.741  1.00  0.00     0.201 C 
ATOM      9  O   UNL     1      -5.256  10.965   6.191  1.00  0.00    -0.288 OA
ATOM     10  C   UNL     1      -3.019  10.516   5.533  1.00  0.00     0.076 A 
ATOM     11  C   UNL     1      -2.208   9.739   4.677  1.00  0.00     0.041 A 
ATOM     12  C   UNL     1      -2.765   8.531   4.030  1.00  0.00     0.194 C 
ATOM     13  O   UNL     1      -2.083   7.907   3.170  1.00  0.00    -0.289 OA
ATOM     14  C   UNL     1      -0.876  10.122   4.441  1.00  0.00     0.059 A 
ATOM     15  C   UNL     1      -0.345  11.259   5.052  1.00  0.00     0.120 A 
ATOM     16  C   UNL     1      -1.142  12.026   5.907  1.00  0.00     0.093 A 
ATOM     17  C   UNL     1      -2.472  11.663   6.154  1.00  0.00     0.131 A 
ENDROOT
BRANCH   6  18
ATOM     18  O   UNL     1      -6.924   8.794   6.754  1.00  0.00    -0.507 OA
ATOM     19  H   UNL     1      -7.882   8.530   6.941  1.00  0.00     0.293 HD
ENDBRANCH   6  18
BRANCH  17  20
ATOM     20  O   UNL     1      -3.242  12.439   7.021  1.00  0.00    -0.507 OA
ATOM     21  H   UNL     1      -3.756  13.249   6.697  1.00  0.00     0.293 HD
ENDBRANCH  17  20
BRANCH  15  22
ATOM     22  O   UNL     1       0.978  11.617   4.803  1.00  0.00    -0.508 OA
ATOM     23  H   UNL     1       1.322  12.548   5.007  1.00  0.00     0.293 HD
ENDBRANCH  15  22
TORSDOF 3
ENDMDL
MODEL 5
REMARK VINA RESULT:    -4.262      2.716      3.658
REMARK INTER + INTRA:          -4.636
REMARK INTER:                  -4.636
REMARK INTRA:                   0.000
REMARK UNBOUND:                 0.000
REMARK SMILES Cc1cc(O)c2c(c1)C(=O)c1cc(O)cc(O)c1C2=O
REMARK SMILES IDX 1 1 2 2 8 3 7 4 6 5 4 6 3 7 19 8 20 9 18 10 11 11 9 12 10 13
REMARK SMILES IDX 12 14 13 15 15 16 16 17 5 18 17 20 14 22
REMARK H PARENT 5 19 17 21 14 23
REMARK Flexibility Score: inf
ROOT
ATOM      1  C   UNL     1      -5.300   8.374   4.482  1.00  0.00     0.044 C 
ATOM      2  C   UNL     1      -3.888   8.881   4.472  1.00  0.00    -0.047 A 
ATOM      3  C   UNL     1      -2.860   8.090   3.952  1.00  0.00     0.016 A 
ATOM      4  C   UNL     1      -1.530   8.544   3.960  1.00  0.00     0.038 A 
ATOM      5  C   UNL     1      -1.222   9.814   4.501  1.00  0.00     0.076 A 
ATOM      6  C   UNL     1      -2.257  10.568   5.117  1.00  0.00     0.127 A 
ATOM      7  C   UNL     1      -3.577  10.106   5.071  1.00  0.00     0.050 A 
ATOM      8  C   UNL     1       0.167  10.331   4.350  1.00  0.00     0.201 C 
ATOM      9  O   UNL     1       0.395  11.568   4.426  1.00  0.00    -0.288 OA
ATOM     10  C   UNL     1       1.275   9.404   3.997  1.00  0.00     0.076 A 
ATOM     11  C   UNL     1       0.963   8.112   3.522  1.00  0.00     0.041 A 
ATOM     12  C   UNL     1      -0.450   7.686   3.415  1.00  0.00     0.194 C 
ATOM     13  O   UNL     1      -0.735   6.582   2.875  1.00  0.00    -0.289 OA
ATOM     14  C   UNL     1       1.999   7.238   3.148  1.00  0.00     0.059 A 
ATOM     15  C   UNL     1       3.333   7.632   3.250  1.00  0.00     0.120 A 
ATOM     16  C   UNL     1       3.646   8.908   3.728  1.00  0.00     0.093 A 
ATOM     17  C   UNL     1       2.630   9.795   4.104  1.00  0.00     0.131 A 
ENDROOT
BRANCH   6  18
ATOM     18  O   UNL     1      -2.023  11.754   5.816  1.00  0.00    -0.507 OA
ATOM     19  H   UNL     1      -1.801  12.634   5.370  1.00  0.00     0.293 HD
ENDBRANCH   6  18
BRANCH  17  20
ATOM     20  O   UNL     1       2.970  11.059   4.590  1.00  0.00    -0.507 OA
ATOM     21  H   UNL     1       2.712  11.358   5.523  1.00  0.00     0.293 HD
ENDBRANCH  17  20
BRANCH  15  22
ATOM     22  O   UNL     1       4.342   6.748   2.875  1.00  0.00    -0.508 OA
ATOM     23  H   UNL     1       4.273   6.193   2.030  1.00  0.00     0.293 HD
ENDBRANCH  15  22
TORSDOF 3
ENDMDL
MODEL 6
REMARK VINA RESULT:    -4.130      2.006      3.740
REMARK INTER + INTRA:          -4.492
REMARK INTER:                  -4.492
REMARK INTRA:                   0.000
REMARK UNBOUND:                 0.000
REMARK SMILES Cc1cc(O)c2c(c1)C(=O)c1cc(O)cc(O)c1C2=O
REMARK SMILES IDX 1 1 2 2 8 3 7 4 6 5 4 6 3 7 19 8 20 9 18 10 11 11 9 12 10 13
REMARK SMILES IDX 12 14 13 15 15 16 16 17 5 18 17 20 14 22
REMARK H PARENT 5 19 17 21 14 23
REMARK Flexibility Score: inf
ROOT
ATOM      1  C   UNL     1       2.942  14.066   3.718  1.00  0.00     0.044 C 
ATOM      2  C   UNL     1       2.695  12.590   3.606  1.00  0.00    -0.047 A 
ATOM      3  C   UNL     1       1.398  12.106   3.419  1.00  0.00     0.016 A 
ATOM      4  C   UNL     1       1.151  10.725   3.338  1.00  0.00     0.038 A 
ATOM      5  C   UNL     1       2.224   9.809   3.447  1.00  0.00     0.076 A 
ATOM      6  C   UNL     1       3.524  10.306   3.736  1.00  0.00     0.127 A 
ATOM      7  C   UNL     1       3.747  11.686   3.785  1.00  0.00     0.050 A 
ATOM      8  C   UNL     1       1.952   8.366   3.198  1.00  0.00     0.201 C 
ATOM      9  O   UNL     1       2.892   7.591   2.875  1.00  0.00    -0.288 OA
ATOM     10  C   UNL     1       0.557   7.854   3.217  1.00  0.00     0.076 A 
ATOM     11  C   UNL     1      -0.513   8.776   3.177  1.00  0.00     0.041 A 
ATOM     12  C   UNL     1      -0.234  10.229   3.153  1.00  0.00     0.194 C 
ATOM     13  O   UNL     1      -1.180  11.048   2.991  1.00  0.00    -0.289 OA
ATOM     14  C   UNL     1      -1.837   8.306   3.157  1.00  0.00     0.059 A 
ATOM     15  C   UNL     1      -2.107   6.937   3.184  1.00  0.00     0.120 A 
ATOM     16  C   UNL     1      -1.051   6.022   3.232  1.00  0.00     0.093 A 
ATOM     17  C   UNL     1       0.276   6.469   3.251  1.00  0.00     0.131 A 
ENDROOT
BRANCH   6  18
ATOM     18  O   UNL     1       4.611   9.475   4.019  1.00  0.00    -0.507 OA
ATOM     19  H   UNL     1       4.584   8.731   4.703  1.00  0.00     0.293 HD
ENDBRANCH   6  18
BRANCH  17  20
ATOM     20  O   UNL     1       1.311   5.534   3.312  1.00  0.00    -0.507 OA
ATOM     21  H   UNL     1       2.099   5.652   3.938  1.00  0.00     0.293 HD
ENDBRANCH  17  20
BRANCH  15  22
ATOM     22  O   UNL     1      -3.428   6.496   3.164  1.00  0.00    -0.508 OA
ATOM     23  H   UNL     1      -3.667   5.551   2.888  1.00  0.00     0.293 HD
ENDBRANCH  15  22
TORSDOF 3
ENDMDL
MODEL 7
REMARK VINA RESULT:    -4.124      2.761      5.335
REMARK INTER + INTRA:          -4.486
REMARK INTER:                  -4.486
REMARK INTRA:                   0.000
REMARK UNBOUND:                 0.000
REMARK SMILES Cc1cc(O)c2c(c1)C(=O)c1cc(O)cc(O)c1C2=O
REMARK SMILES IDX 1 1 2 2 8 3 7 4 6 5 4 6 3 7 19 8 20 9 18 10 11 11 9 12 10 13
REMARK SMILES IDX 12 14 13 15 15 16 16 17 5 18 17 20 14 22
REMARK H PARENT 5 19 17 21 14 23
REMARK Flexibility Score: inf
ROOT
ATOM      1  C   UNL     1       4.185  15.750   2.876  1.00  0.00     0.044 C 
ATOM      2  C   UNL     1       3.273  14.591   3.151  1.00  0.00    -0.047 A 
ATOM      3  C   UNL     1       1.993  14.810   3.667  1.00  0.00     0.016 A 
ATOM      4  C   UNL     1       1.139  13.731   3.951  1.00  0.00     0.038 A 
ATOM      5  C   UNL     1       1.575  12.406   3.716  1.00  0.00     0.076 A 
ATOM      6  C   UNL     1       2.912  12.188   3.287  1.00  0.00     0.127 A 
ATOM      7  C   UNL     1       3.732  13.280   2.985  1.00  0.00     0.050 A 
ATOM      8  C   UNL     1       0.593  11.297   3.877  1.00  0.00     0.201 C 
ATOM      9  O   UNL     1       0.784  10.193   3.302  1.00  0.00    -0.288 OA
ATOM     10  C   UNL     1      -0.674  11.524   4.621  1.00  0.00     0.076 A 
ATOM     11  C   UNL     1      -1.072  12.847   4.914  1.00  0.00     0.041 A 
ATOM     12  C   UNL     1      -0.212  13.981   4.509  1.00  0.00     0.194 C 
ATOM     13  O   UNL     1      -0.623  15.165   4.658  1.00  0.00    -0.289 OA
ATOM     14  C   UNL     1      -2.285  13.078   5.584  1.00  0.00     0.059 A 
ATOM     15  C   UNL     1      -3.098  12.013   5.971  1.00  0.00     0.120 A 
ATOM     16  C   UNL     1      -2.704  10.701   5.691  1.00  0.00     0.093 A 
ATOM     17  C   UNL     1      -1.500  10.448   5.022  1.00  0.00     0.131 A 
ENDROOT
BRANCH   6  18
ATOM     18  O   UNL     1       3.481  10.917   3.182  1.00  0.00    -0.507 OA
ATOM     19  H   UNL     1       3.941  10.576   2.350  1.00  0.00     0.293 HD
ENDBRANCH   6  18
BRANCH  17  20
ATOM     20  O   UNL     1      -1.124   9.128   4.767  1.00  0.00    -0.507 OA
ATOM     21  H   UNL     1      -1.716   8.347   5.021  1.00  0.00     0.293 HD
ENDBRANCH  17  20
BRANCH  15  22
ATOM     22  O   UNL     1      -4.296  12.267   6.635  1.00  0.00    -0.508 OA
ATOM     23  H   UNL     1      -4.312  12.563   7.604  1.00  0.00     0.293 HD
ENDBRANCH  15  22
TORSDOF 3
ENDMDL
MODEL 8
REMARK VINA RESULT:    -4.104      2.017      3.984
REMARK INTER + INTRA:          -4.464
REMARK INTER:                  -4.464
REMARK INTRA:                   0.000
REMARK UNBOUND:                 0.000
REMARK SMILES Cc1cc(O)c2c(c1)C(=O)c1cc(O)cc(O)c1C2=O
REMARK SMILES IDX 1 1 2 2 8 3 7 4 6 5 4 6 3 7 19 8 20 9 18 10 11 11 9 12 10 13
REMARK SMILES IDX 12 14 13 15 15 16 16 17 5 18 17 20 14 22
REMARK H PARENT 5 19 17 21 14 23
REMARK Flexibility Score: inf
ROOT
ATOM      1  C   UNL     1      -0.505  17.829   2.875  1.00  0.00     0.044 C 
ATOM      2  C   UNL     1      -0.385  16.380   3.248  1.00  0.00    -0.047 A 
ATOM      3  C   UNL     1       0.843  15.723   3.132  1.00  0.00     0.016 A 
ATOM      4  C   UNL     1       0.962  14.361   3.454  1.00  0.00     0.038 A 
ATOM      5  C   UNL     1      -0.171  13.641   3.902  1.00  0.00     0.076 A 
ATOM      6  C   UNL     1      -1.434  14.291   3.922  1.00  0.00     0.127 A 
ATOM      7  C   UNL     1      -1.521  15.655   3.622  1.00  0.00     0.050 A 
ATOM      8  C   UNL     1       0.021  12.245   4.386  1.00  0.00     0.201 C 
ATOM      9  O   UNL     1      -0.825  11.720   5.157  1.00  0.00    -0.288 OA
ATOM     10  C   UNL     1       1.268  11.506   4.056  1.00  0.00     0.076 A 
ATOM     11  C   UNL     1       2.375  12.218   3.545  1.00  0.00     0.041 A 
ATOM     12  C   UNL     1       2.269  13.676   3.313  1.00  0.00     0.194 C 
ATOM     13  O   UNL     1       3.292  14.334   2.975  1.00  0.00    -0.289 OA
ATOM     14  C   UNL     1       3.572  11.539   3.264  1.00  0.00     0.059 A 
ATOM     15  C   UNL     1       3.676  10.164   3.477  1.00  0.00     0.120 A 
ATOM     16  C   UNL     1       2.581   9.453   3.975  1.00  0.00     0.093 A 
ATOM     17  C   UNL     1       1.379  10.111   4.264  1.00  0.00     0.131 A 
ENDROOT
BRANCH   6  18
ATOM     18  O   UNL     1      -2.631  13.623   4.194  1.00  0.00    -0.507 OA
ATOM     19  H   UNL     1      -2.758  12.628   4.068  1.00  0.00     0.293 HD
ENDBRANCH   6  18
BRANCH  17  20
ATOM     20  O   UNL     1       0.296   9.375   4.749  1.00  0.00    -0.507 OA
ATOM     21  H   UNL     1      -0.453   9.067   4.141  1.00  0.00     0.293 HD
ENDBRANCH  17  20
BRANCH  15  22
ATOM     22  O   UNL     1       4.873   9.513   3.189  1.00  0.00    -0.508 OA
ATOM     23  H   UNL     1       5.761  10.002   3.207  1.00  0.00     0.293 HD
ENDBRANCH  15  22
TORSDOF 3
ENDMDL
MODEL 9
REMARK VINA RESULT:    -4.099      2.541      4.611
REMARK INTER + INTRA:          -4.458
REMARK INTER:                  -4.458
REMARK INTRA:                   0.000
REMARK UNBOUND:                 0.000
REMARK SMILES Cc1cc(O)c2c(c1)C(=O)c1cc(O)cc(O)c1C2=O
REMARK SMILES IDX 1 1 2 2 8 3 7 4 6 5 4 6 3 7 19 8 20 9 18 10 11 11 9 12 10 13
REMARK SMILES IDX 12 14 13 15 15 16 16 17 5 18 17 20 14 22
REMARK H PARENT 5 19 17 21 14 23
REMARK Flexibility Score: inf
ROOT
ATOM      1  C   UNL     1      -2.315  17.999   3.585  1.00  0.00     0.044 C 
ATOM      2  C   UNL     1      -2.041  16.593   4.030  1.00  0.00    -0.047 A 
ATOM      3  C   UNL     1      -0.855  15.955   3.655  1.00  0.00     0.016 A 
ATOM      4  C   UNL     1      -0.599  14.629   4.044  1.00  0.00     0.038 A 
ATOM      5  C   UNL     1      -1.548  13.928   4.825  1.00  0.00     0.076 A 
ATOM      6  C   UNL     1      -2.792  14.550   5.117  1.00  0.00     0.127 A 
ATOM      7  C   UNL     1      -3.011  15.879   4.741  1.00  0.00     0.050 A 
ATOM      8  C   UNL     1      -1.177  12.585   5.354  1.00  0.00     0.201 C 
ATOM      9  O   UNL     1      -1.776  12.112   6.356  1.00  0.00    -0.288 OA
ATOM     10  C   UNL     1      -0.024  11.846   4.775  1.00  0.00     0.076 A 
ATOM     11  C   UNL     1       0.883  12.535   3.940  1.00  0.00     0.041 A 
ATOM     12  C   UNL     1       0.658  13.963   3.627  1.00  0.00     0.194 C 
ATOM     13  O   UNL     1       1.531  14.611   2.986  1.00  0.00    -0.289 OA
ATOM     14  C   UNL     1       1.998  11.859   3.416  1.00  0.00     0.059 A 
ATOM     15  C   UNL     1       2.214  10.512   3.705  1.00  0.00     0.120 A 
ATOM     16  C   UNL     1       1.313   9.824   4.524  1.00  0.00     0.093 A 
ATOM     17  C   UNL     1       0.196  10.479   5.058  1.00  0.00     0.131 A 
ENDROOT
BRANCH   6  18
ATOM     18  O   UNL     1      -3.849  13.882   5.740  1.00  0.00    -0.507 OA
ATOM     19  H   UNL     1      -3.993  13.870   6.740  1.00  0.00     0.293 HD
ENDBRANCH   6  18
BRANCH  17  20
ATOM     20  O   UNL     1      -0.694   9.765   5.862  1.00  0.00    -0.507 OA
ATOM     21  H   UNL     1      -1.224  10.215   6.599  1.00  0.00     0.293 HD
ENDBRANCH  17  20
BRANCH  15  22
ATOM     22  O   UNL     1       3.325   9.863   3.172  1.00  0.00    -0.508 OA
ATOM     23  H   UNL     1       3.703   9.023   3.596  1.00  0.00     0.293 HD
ENDBRANCH  15  22
TORSDOF 3
ENDMDL
