MODEL 1
REMARK VINA RESULT:    -4.664      0.000      0.000
REMARK INTER + INTRA:          -4.664
REMARK INTER:                  -4.664
REMARK INTRA:                   0.000
REMARK UNBOUND:                 0.000
REMARK SMILES c1ccc2ccccc2c1
REMARK SMILES IDX 2 1 1 2 10 3 9 4 8 5 7 6 6 7 5 8 4 9 3 10
REMARK H PARENT
REMARK Flexibility Score: inf
ROOT
ATOM      1  C   UNL     1    -119.009 -97.148  30.408  1.00  0.00     0.001 A 
ATOM      2  C   UNL     1    -119.125 -98.541  30.360  1.00  0.00     0.001 A 
ATOM      3  C   UNL     1    -118.371 -99.340  31.226  1.00  0.00     0.009 A 
ATOM      4  C   UNL     1    -117.495 -98.747  32.147  1.00  0.00    -0.018 A 
ATOM      5  C   UNL     1    -116.733 -99.537  33.022  1.00  0.00     0.009 A 
ATOM      6  C   UNL     1    -115.863 -98.933  33.935  1.00  0.00     0.001 A 
ATOM      7  C   UNL     1    -115.748 -97.541  33.982  1.00  0.00     0.001 A 
ATOM      8  C   UNL     1    -116.501 -96.742  33.117  1.00  0.00     0.009 A 
ATOM      9  C   UNL     1    -117.378 -97.335  32.195  1.00  0.00    -0.018 A 
ATOM     10  C   UNL     1    -118.140 -96.545  31.321  1.00  0.00     0.009 A 
ENDROOT
TORSDOF 0
ENDMDL
MODEL 2
REMARK VINA RESULT:    -4.281     13.038     14.974
REMARK INTER + INTRA:          -4.281
REMARK INTER:                  -4.281
REMARK INTRA:                   0.000
REMARK UNBOUND:                 0.000
REMARK SMILES c1ccc2ccccc2c1
REMARK SMILES IDX 2 1 1 2 10 3 9 4 8 5 7 6 6 7 5 8 4 9 3 10
REMARK H PARENT
REMARK Flexibility Score: inf
ROOT
ATOM      1  C   UNL     1    -117.862 -97.244  49.115  1.00  0.00     0.001 A 
ATOM      2  C   UNL     1    -118.171 -96.025  48.505  1.00  0.00     0.001 A 
ATOM      3  C   UNL     1    -118.398 -95.965  47.127  1.00  0.00     0.009 A 
ATOM      4  C   UNL     1    -118.318 -97.130  46.348  1.00  0.00    -0.018 A 
ATOM      5  C   UNL     1    -118.544 -97.084  44.964  1.00  0.00     0.009 A 
ATOM      6  C   UNL     1    -118.461 -98.252  44.201  1.00  0.00     0.001 A 
ATOM      7  C   UNL     1    -118.151 -99.472  44.811  1.00  0.00     0.001 A 
ATOM      8  C   UNL     1    -117.924 -99.531  46.189  1.00  0.00     0.009 A 
ATOM      9  C   UNL     1    -118.005 -98.366  46.968  1.00  0.00    -0.018 A 
ATOM     10  C   UNL     1    -117.779 -98.412  48.352  1.00  0.00     0.009 A 
ENDROOT
TORSDOF 0
ENDMDL
MODEL 3
REMARK VINA RESULT:    -4.271     13.071     14.881
REMARK INTER + INTRA:          -4.271
REMARK INTER:                  -4.271
REMARK INTRA:                   0.000
REMARK UNBOUND:                 0.000
REMARK SMILES c1ccc2ccccc2c1
REMARK SMILES IDX 2 1 1 2 10 3 9 4 8 5 7 6 6 7 5 8 4 9 3 10
REMARK H PARENT
REMARK Flexibility Score: inf
ROOT
ATOM      1  C   UNL     1    -118.177 -96.001  48.497  1.00  0.00     0.001 A 
ATOM      2  C   UNL     1    -117.863 -97.210  49.125  1.00  0.00     0.001 A 
ATOM      3  C   UNL     1    -117.798 -98.393  48.383  1.00  0.00     0.009 A 
ATOM      4  C   UNL     1    -118.048 -98.373  47.002  1.00  0.00    -0.018 A 
ATOM      5  C   UNL     1    -117.986 -99.553  46.245  1.00  0.00     0.009 A 
ATOM      6  C   UNL     1    -118.237 -99.518  44.870  1.00  0.00     0.001 A 
ATOM      7  C   UNL     1    -118.551 -98.309  44.242  1.00  0.00     0.001 A 
ATOM      8  C   UNL     1    -118.615 -97.126  44.984  1.00  0.00     0.009 A 
ATOM      9  C   UNL     1    -118.366 -97.147  46.365  1.00  0.00    -0.018 A 
ATOM     10  C   UNL     1    -118.427 -95.967  47.122  1.00  0.00     0.009 A 
ENDROOT
TORSDOF 0
ENDMDL
MODEL 4
REMARK VINA RESULT:    -4.270     13.073     14.627
REMARK INTER + INTRA:          -4.270
REMARK INTER:                  -4.270
REMARK INTRA:                   0.000
REMARK UNBOUND:                 0.000
REMARK SMILES c1ccc2ccccc2c1
REMARK SMILES IDX 2 1 1 2 10 3 9 4 8 5 7 6 6 7 5 8 4 9 3 10
REMARK H PARENT
REMARK Flexibility Score: inf
ROOT
ATOM      1  C   UNL     1    -118.536 -98.271  44.257  1.00  0.00     0.001 A 
ATOM      2  C   UNL     1    -118.190 -99.468  44.892  1.00  0.00     0.001 A 
ATOM      3  C   UNL     1    -117.925 -99.486  46.264  1.00  0.00     0.009 A 
ATOM      4  C   UNL     1    -118.004 -98.302  47.013  1.00  0.00    -0.018 A 
ATOM      5  C   UNL     1    -117.740 -98.306  48.391  1.00  0.00     0.009 A 
ATOM      6  C   UNL     1    -117.823 -97.120  49.124  1.00  0.00     0.001 A 
ATOM      7  C   UNL     1    -118.168 -95.922  48.490  1.00  0.00     0.001 A 
ATOM      8  C   UNL     1    -118.434 -95.904  47.118  1.00  0.00     0.009 A 
ATOM      9  C   UNL     1    -118.354 -97.088  46.369  1.00  0.00    -0.018 A 
ATOM     10  C   UNL     1    -118.618 -97.084  44.991  1.00  0.00     0.009 A 
ENDROOT
TORSDOF 0
ENDMDL
MODEL 5
REMARK VINA RESULT:    -4.248     13.074     14.722
REMARK INTER + INTRA:          -4.248
REMARK INTER:                  -4.248
REMARK INTRA:                   0.000
REMARK UNBOUND:                 0.000
REMARK SMILES c1ccc2ccccc2c1
REMARK SMILES IDX 2 1 1 2 10 3 9 4 8 5 7 6 6 7 5 8 4 9 3 10
REMARK H PARENT
REMARK Flexibility Score: inf
ROOT
ATOM      1  C   UNL     1    -118.320 -98.785  44.257  1.00  0.00     0.001 A 
ATOM      2  C   UNL     1    -118.590 -97.414  44.304  1.00  0.00     0.001 A 
ATOM      3  C   UNL     1    -118.583 -96.737  45.527  1.00  0.00     0.009 A 
ATOM      4  C   UNL     1    -118.306 -97.431  46.715  1.00  0.00    -0.018 A 
ATOM      5  C   UNL     1    -118.296 -96.763  47.950  1.00  0.00     0.009 A 
ATOM      6  C   UNL     1    -118.018 -97.467  49.125  1.00  0.00     0.001 A 
ATOM      7  C   UNL     1    -117.748 -98.838  49.078  1.00  0.00     0.001 A 
ATOM      8  C   UNL     1    -117.755 -99.515  47.855  1.00  0.00     0.009 A 
ATOM      9  C   UNL     1    -118.033 -98.821  46.667  1.00  0.00    -0.018 A 
ATOM     10  C   UNL     1    -118.042 -99.488  45.433  1.00  0.00     0.009 A 
ENDROOT
TORSDOF 0
ENDMDL
MODEL 6
REMARK VINA RESULT:    -4.102      1.459      4.292
REMARK INTER + INTRA:          -4.102
REMARK INTER:                  -4.102
REMARK INTRA:                   0.000
REMARK UNBOUND:                 0.000
REMARK SMILES c1ccc2ccccc2c1
REMARK SMILES IDX 2 1 1 2 10 3 9 4 8 5 7 6 6 7 5 8 4 9 3 10
REMARK H PARENT
REMARK Flexibility Score: inf
ROOT
ATOM      1  C   UNL     1    -116.539 -99.900  35.917  1.00  0.00     0.001 A 
ATOM      2  C   UNL     1    -115.435 -99.042  35.932  1.00  0.00     0.001 A 
ATOM      3  C   UNL     1    -115.328 -98.015  34.990  1.00  0.00     0.009 A 
ATOM      4  C   UNL     1    -116.330 -97.839  34.023  1.00  0.00    -0.018 A 
ATOM      5  C   UNL     1    -116.236 -96.813  33.071  1.00  0.00     0.009 A 
ATOM      6  C   UNL     1    -117.241 -96.649  32.114  1.00  0.00     0.001 A 
ATOM      7  C   UNL     1    -118.345 -97.507  32.099  1.00  0.00     0.001 A 
ATOM      8  C   UNL     1    -118.452 -98.534  33.041  1.00  0.00     0.009 A 
ATOM      9  C   UNL     1    -117.450 -98.709  34.008  1.00  0.00    -0.018 A 
ATOM     10  C   UNL     1    -117.544 -99.736  34.960  1.00  0.00     0.009 A 
ENDROOT
TORSDOF 0
ENDMDL
MODEL 7
REMARK VINA RESULT:    -3.757      9.433     11.076
REMARK INTER + INTRA:          -3.757
REMARK INTER:                  -3.757
REMARK INTRA:                   0.000
REMARK UNBOUND:                 0.000
REMARK SMILES c1ccc2ccccc2c1
REMARK SMILES IDX 2 1 1 2 10 3 9 4 8 5 7 6 6 7 5 8 4 9 3 10
REMARK H PARENT
REMARK Flexibility Score: inf
ROOT
ATOM      1  C   UNL     1    -116.952 -99.054  40.726  1.00  0.00     0.001 A 
ATOM      2  C   UNL     1    -117.860 -98.029  40.445  1.00  0.00     0.001 A 
ATOM      3  C   UNL     1    -118.585 -97.428  41.478  1.00  0.00     0.009 A 
ATOM      4  C   UNL     1    -118.404 -97.850  42.804  1.00  0.00    -0.018 A 
ATOM      5  C   UNL     1    -119.125 -97.255  43.851  1.00  0.00     0.009 A 
ATOM      6  C   UNL     1    -118.935 -97.685  45.167  1.00  0.00     0.001 A 
ATOM      7  C   UNL     1    -118.027 -98.710  45.448  1.00  0.00     0.001 A 
ATOM      8  C   UNL     1    -117.302 -99.312  44.415  1.00  0.00     0.009 A 
ATOM      9  C   UNL     1    -117.483 -98.889  43.089  1.00  0.00    -0.018 A 
ATOM     10  C   UNL     1    -116.762 -99.485  42.043  1.00  0.00     0.009 A 
ENDROOT
TORSDOF 0
ENDMDL
MODEL 8
REMARK VINA RESULT:    -2.393      0.065      4.017
REMARK INTER + INTRA:          -2.393
REMARK INTER:                  -2.393
REMARK INTRA:                   0.000
REMARK UNBOUND:                 0.000
REMARK SMILES c1ccc2ccccc2c1
REMARK SMILES IDX 2 1 1 2 10 3 9 4 8 5 7 6 6 7 5 8 4 9 3 10
REMARK H PARENT
REMARK Flexibility Score: inf
ROOT
ATOM      1  C   UNL     1    -115.871 -98.898  33.959  1.00  0.00     0.001 A 
ATOM      2  C   UNL     1    -115.756 -97.505  33.958  1.00  0.00     0.001 A 
ATOM      3  C   UNL     1    -116.508 -96.738  33.063  1.00  0.00     0.009 A 
ATOM      4  C   UNL     1    -117.383 -97.363  32.161  1.00  0.00    -0.018 A 
ATOM      5  C   UNL     1    -118.143 -96.604  31.258  1.00  0.00     0.009 A 
ATOM      6  C   UNL     1    -119.011 -97.240  30.365  1.00  0.00     0.001 A 
ATOM      7  C   UNL     1    -119.125 -98.633  30.366  1.00  0.00     0.001 A 
ATOM      8  C   UNL     1    -118.373 -99.401  31.260  1.00  0.00     0.009 A 
ATOM      9  C   UNL     1    -117.499 -98.775  32.162  1.00  0.00    -0.018 A 
ATOM     10  C   UNL     1    -116.738 -99.534  33.066  1.00  0.00     0.009 A 
ENDROOT
TORSDOF 0
ENDMDL
MODEL 9
REMARK VINA RESULT:    -2.365      0.105      3.436
REMARK INTER + INTRA:          -2.365
REMARK INTER:                  -2.365
REMARK INTRA:                   0.000
REMARK UNBOUND:                 0.000
REMARK SMILES c1ccc2ccccc2c1
REMARK SMILES IDX 2 1 1 2 10 3 9 4 8 5 7 6 6 7 5 8 4 9 3 10
REMARK H PARENT
REMARK Flexibility Score: inf
ROOT
ATOM      1  C   UNL     1    -115.745 -97.496  33.964  1.00  0.00     0.001 A 
ATOM      2  C   UNL     1    -115.862 -98.890  33.993  1.00  0.00     0.001 A 
ATOM      3  C   UNL     1    -116.732 -99.542  33.116  1.00  0.00     0.009 A 
ATOM      4  C   UNL     1    -117.494 -98.801  32.199  1.00  0.00    -0.018 A 
ATOM      5  C   UNL     1    -118.372 -99.443  31.312  1.00  0.00     0.009 A 
ATOM      6  C   UNL     1    -119.125 -98.693  30.405  1.00  0.00     0.001 A 
ATOM      7  C   UNL     1    -119.009 -97.300  30.376  1.00  0.00     0.001 A 
ATOM      8  C   UNL     1    -118.138 -96.647  31.254  1.00  0.00     0.009 A 
ATOM      9  C   UNL     1    -117.376 -97.388  32.170  1.00  0.00    -0.018 A 
ATOM     10  C   UNL     1    -116.498 -96.746  33.057  1.00  0.00     0.009 A 
ENDROOT
TORSDOF 0
ENDMDL
