MODEL 1
REMARK VINA RESULT:    -2.177      0.000      0.000
REMARK INTER + INTRA:          -4.706
REMARK INTER:                  -3.704
REMARK INTRA:                  -1.002
REMARK UNBOUND:                -1.002
REMARK SMILES CCCCCCCCCCCCCC(=O)[O-]
REMARK SMILES IDX 8 1 9 2 10 3 11 4 12 5 13 6 14 7 15 8 16 9 7 10 6 11 5 12
REMARK SMILES IDX 4 13 3 14 2 15 1 16
REMARK H PARENT
REMARK Flexibility Score: inf
ROOT
ATOM      1  C   UNL     1      -5.909 -22.129  17.173  1.00  0.00     0.000 C 
ENDROOT
BRANCH   1   2
ATOM      2  C   UNL     1      -6.106 -22.021  15.653  1.00  0.00     0.000 C 
BRANCH   2   3
ATOM      3  C   UNL     1      -7.097 -20.913  15.256  1.00  0.00     0.000 C 
BRANCH   3   4
ATOM      4  C   UNL     1      -8.528 -21.395  14.947  1.00  0.00     0.000 C 
BRANCH   4   5
ATOM      5  C   UNL     1      -9.516 -20.287  14.530  1.00  0.00     0.006 C 
BRANCH   5   6
ATOM      6  C   UNL     1     -10.961 -20.517  14.997  1.00  0.00     0.053 C 
BRANCH   6   7
ATOM      7  C   UNL     1     -11.036 -20.804  16.464  1.00  0.00     0.041 C 
ATOM      8  O   UNL     1     -10.987 -19.862  17.300  1.00  0.00    -0.550 OA
ATOM      9  O   UNL     1     -11.125 -22.116  16.913  1.00  0.00    -0.550 OA
ENDBRANCH   6   7
ENDBRANCH   5   6
ENDBRANCH   4   5
ENDBRANCH   3   4
ENDBRANCH   2   3
ENDBRANCH   1   2
BRANCH   1  10
ATOM     10  C   UNL     1      -6.906 -23.124  17.785  1.00  0.00     0.000 C 
BRANCH  10  11
ATOM     11  C   UNL     1      -7.379 -22.706  19.186  1.00  0.00    -0.000 C 
BRANCH  11  12
ATOM     12  C   UNL     1      -8.490 -21.642  19.141  1.00  0.00    -0.000 C 
BRANCH  12  13
ATOM     13  C   UNL     1      -9.612 -21.920  20.155  1.00  0.00    -0.000 C 
BRANCH  13  14
ATOM     14  C   UNL     1     -10.117 -20.641  20.848  1.00  0.00    -0.000 C 
BRANCH  14  15
ATOM     15  C   UNL     1      -9.612 -20.517  22.293  1.00  0.00    -0.003 C 
ATOM     16  C   UNL     1      -8.859 -21.760  22.764  1.00  0.00     0.004 C 
ENDBRANCH  14  15
ENDBRANCH  13  14
ENDBRANCH  12  13
ENDBRANCH  11  12
ENDBRANCH  10  11
ENDBRANCH   1  10
TORSDOF 12
ENDMDL
MODEL 2
REMARK VINA RESULT:    -2.100      1.845      4.949
REMARK INTER + INTRA:          -4.575
REMARK INTER:                  -3.831
REMARK INTRA:                  -0.744
REMARK UNBOUND:                -1.002
REMARK SMILES CCCCCCCCCCCCCC(=O)[O-]
REMARK SMILES IDX 8 1 9 2 10 3 11 4 12 5 13 6 14 7 15 8 16 9 7 10 6 11 5 12
REMARK SMILES IDX 4 13 3 14 2 15 1 16
REMARK H PARENT
REMARK Flexibility Score: inf
ROOT
ATOM      1  C   UNL     1      -5.995 -22.320  17.480  1.00  0.00     0.000 C 
ENDROOT
BRANCH   1   2
ATOM      2  C   UNL     1      -6.681 -23.017  18.665  1.00  0.00     0.000 C 
BRANCH   2   3
ATOM      3  C   UNL     1      -8.146 -22.584  18.847  1.00  0.00     0.000 C 
BRANCH   3   4
ATOM      4  C   UNL     1      -8.687 -22.695  20.287  1.00  0.00     0.000 C 
BRANCH   4   5
ATOM      5  C   UNL     1     -10.215 -22.868  20.401  1.00  0.00     0.006 C 
BRANCH   5   6
ATOM      6  C   UNL     1     -10.908 -21.821  21.286  1.00  0.00     0.053 C 
BRANCH   6   7
ATOM      7  C   UNL     1     -10.068 -20.595  21.464  1.00  0.00     0.041 C 
ATOM      8  O   UNL     1     -10.059 -19.697  20.580  1.00  0.00    -0.550 OA
ATOM      9  O   UNL     1      -9.267 -20.457  22.591  1.00  0.00    -0.550 OA
ENDBRANCH   6   7
ENDBRANCH   5   6
ENDBRANCH   4   5
ENDBRANCH   3   4
ENDBRANCH   2   3
ENDBRANCH   1   2
BRANCH   1  10
ATOM     10  C   UNL     1      -6.627 -22.755  16.150  1.00  0.00     0.000 C 
BRANCH  10  11
ATOM     11  C   UNL     1      -6.977 -21.565  15.241  1.00  0.00    -0.000 C 
BRANCH  11  12
ATOM     12  C   UNL     1      -8.307 -20.896  15.631  1.00  0.00    -0.000 C 
BRANCH  12  13
ATOM     13  C   UNL     1      -9.282 -20.792  14.447  1.00  0.00    -0.000 C 
BRANCH  13  14
ATOM     14  C   UNL     1     -10.726 -20.497  14.890  1.00  0.00    -0.000 C 
BRANCH  14  15
ATOM     15  C   UNL     1     -10.795 -19.875  16.293  1.00  0.00    -0.003 C 
ATOM     16  C   UNL     1     -11.125 -20.900  17.378  1.00  0.00     0.004 C 
ENDBRANCH  14  15
ENDBRANCH  13  14
ENDBRANCH  12  13
ENDBRANCH  11  12
ENDBRANCH  10  11
ENDBRANCH   1  10
TORSDOF 12
ENDMDL
MODEL 3
REMARK VINA RESULT:    -1.931      2.205      3.765
REMARK INTER + INTRA:          -4.287
REMARK INTER:                  -2.928
REMARK INTRA:                  -1.359
REMARK UNBOUND:                -1.002
REMARK SMILES CCCCCCCCCCCCCC(=O)[O-]
REMARK SMILES IDX 8 1 9 2 10 3 11 4 12 5 13 6 14 7 15 8 16 9 7 10 6 11 5 12
REMARK SMILES IDX 4 13 3 14 2 15 1 16
REMARK H PARENT
REMARK Flexibility Score: inf
ROOT
ATOM      1  C   UNL     1     -11.124 -20.442  17.095  1.00  0.00     0.000 C 
ENDROOT
BRANCH   1   2
ATOM      2  C   UNL     1     -10.509 -19.740  15.874  1.00  0.00     0.000 C 
BRANCH   2   3
ATOM      3  C   UNL     1     -10.109 -20.723  14.759  1.00  0.00     0.000 C 
BRANCH   3   4
ATOM      4  C   UNL     1      -8.599 -20.775  14.445  1.00  0.00     0.000 C 
BRANCH   4   5
ATOM      5  C   UNL     1      -7.816 -21.882  15.178  1.00  0.00     0.006 C 
BRANCH   5   6
ATOM      6  C   UNL     1      -6.796 -21.365  16.203  1.00  0.00     0.053 C 
BRANCH   6   7
ATOM      7  C   UNL     1      -6.200 -22.478  17.009  1.00  0.00     0.041 C 
ATOM      8  O   UNL     1      -5.154 -23.058  16.614  1.00  0.00    -0.550 OA
ATOM      9  O   UNL     1      -6.819 -22.897  18.180  1.00  0.00    -0.550 OA
ENDBRANCH   6   7
ENDBRANCH   5   6
ENDBRANCH   4   5
ENDBRANCH   3   4
ENDBRANCH   2   3
ENDBRANCH   1   2
BRANCH   1  10
ATOM     10  C   UNL     1     -10.046 -21.176  17.905  1.00  0.00     0.000 C 
BRANCH  10  11
ATOM     11  C   UNL     1     -10.448 -22.616  18.263  1.00  0.00    -0.000 C 
BRANCH  11  12
ATOM     12  C   UNL     1     -10.066 -22.995  19.705  1.00  0.00    -0.000 C 
BRANCH  12  13
ATOM     13  C   UNL     1      -9.431 -21.823  20.471  1.00  0.00    -0.000 C 
BRANCH  13  14
ATOM     14  C   UNL     1      -9.794 -21.825  21.967  1.00  0.00    -0.000 C 
BRANCH  14  15
ATOM     15  C   UNL     1     -10.914 -20.828  22.301  1.00  0.00    -0.003 C 
ATOM     16  C   UNL     1     -11.125 -19.787  21.202  1.00  0.00     0.004 C 
ENDBRANCH  14  15
ENDBRANCH  13  14
ENDBRANCH  12  13
ENDBRANCH  11  12
ENDBRANCH  10  11
ENDBRANCH   1  10
TORSDOF 12
ENDMDL
MODEL 4
REMARK VINA RESULT:    -1.525      1.147      2.159
REMARK INTER + INTRA:          -3.597
REMARK INTER:                  -3.437
REMARK INTRA:                  -0.159
REMARK UNBOUND:                -1.002
REMARK SMILES CCCCCCCCCCCCCC(=O)[O-]
REMARK SMILES IDX 8 1 9 2 10 3 11 4 12 5 13 6 14 7 15 8 16 9 7 10 6 11 5 12
REMARK SMILES IDX 4 13 3 14 2 15 1 16
REMARK H PARENT
REMARK Flexibility Score: inf
ROOT
ATOM      1  C   UNL     1      -8.014 -23.125  17.361  1.00  0.00     0.000 C 
ENDROOT
BRANCH   1   2
ATOM      2  C   UNL     1      -6.753 -22.470  17.946  1.00  0.00     0.000 C 
BRANCH   2   3
ATOM      3  C   UNL     1      -5.681 -22.182  16.880  1.00  0.00     0.000 C 
BRANCH   3   4
ATOM      4  C   UNL     1      -6.129 -21.248  15.737  1.00  0.00     0.000 C 
BRANCH   4   5
ATOM      5  C   UNL     1      -7.539 -21.527  15.179  1.00  0.00     0.006 C 
BRANCH   5   6
ATOM      6  C   UNL     1      -8.346 -20.266  14.834  1.00  0.00     0.053 C 
BRANCH   6   7
ATOM      7  C   UNL     1      -9.816 -20.473  15.030  1.00  0.00     0.041 C 
ATOM      8  O   UNL     1     -10.397 -19.987  16.037  1.00  0.00    -0.550 OA
ATOM      9  O   UNL     1     -10.539 -21.231  14.118  1.00  0.00    -0.550 OA
ENDBRANCH   6   7
ENDBRANCH   5   6
ENDBRANCH   4   5
ENDBRANCH   3   4
ENDBRANCH   2   3
ENDBRANCH   1   2
BRANCH   1  10
ATOM     10  C   UNL     1      -9.259 -22.733  18.170  1.00  0.00     0.000 C 
BRANCH  10  11
ATOM     11  C   UNL     1      -8.994 -21.580  19.151  1.00  0.00    -0.000 C 
BRANCH  11  12
ATOM     12  C   UNL     1     -10.067 -21.480  20.249  1.00  0.00    -0.000 C 
BRANCH  12  13
ATOM     13  C   UNL     1     -10.007 -20.146  21.010  1.00  0.00    -0.000 C 
BRANCH  13  14
ATOM     14  C   UNL     1      -9.950 -20.334  22.537  1.00  0.00    -0.000 C 
BRANCH  14  15
ATOM     15  C   UNL     1      -9.571 -21.767  22.939  1.00  0.00    -0.003 C 
ATOM     16  C   UNL     1      -8.067 -21.941  23.152  1.00  0.00     0.004 C 
ENDBRANCH  14  15
ENDBRANCH  13  14
ENDBRANCH  12  13
ENDBRANCH  11  12
ENDBRANCH  10  11
ENDBRANCH   1  10
TORSDOF 12
ENDMDL
MODEL 5
REMARK VINA RESULT:    -1.365      1.571      4.750
REMARK INTER + INTRA:          -3.324
REMARK INTER:                  -2.776
REMARK INTRA:                  -0.548
REMARK UNBOUND:                -1.002
REMARK SMILES CCCCCCCCCCCCCC(=O)[O-]
REMARK SMILES IDX 8 1 9 2 10 3 11 4 12 5 13 6 14 7 15 8 16 9 7 10 6 11 5 12
REMARK SMILES IDX 4 13 3 14 2 15 1 16
REMARK H PARENT
REMARK Flexibility Score: inf
ROOT
ATOM      1  C   UNL     1      -8.782 -22.743  21.028  1.00  0.00     0.000 C 
ENDROOT
BRANCH   1   2
ATOM      2  C   UNL     1      -9.294 -21.295  21.083  1.00  0.00     0.000 C 
BRANCH   2   3
ATOM      3  C   UNL     1     -10.684 -21.129  20.444  1.00  0.00     0.000 C 
BRANCH   3   4
ATOM      4  C   UNL     1     -10.676 -20.684  18.967  1.00  0.00     0.000 C 
BRANCH   4   5
ATOM      5  C   UNL     1     -10.064 -21.700  17.982  1.00  0.00     0.006 C 
BRANCH   5   6
ATOM      6  C   UNL     1     -10.781 -21.780  16.626  1.00  0.00     0.053 C 
BRANCH   6   7
ATOM      7  C   UNL     1     -10.535 -20.563  15.790  1.00  0.00     0.041 C 
ATOM      8  O   UNL     1     -10.806 -19.417  16.241  1.00  0.00    -0.550 OA
ATOM      9  O   UNL     1     -10.038 -20.694  14.499  1.00  0.00    -0.550 OA
ENDBRANCH   6   7
ENDBRANCH   5   6
ENDBRANCH   4   5
ENDBRANCH   3   4
ENDBRANCH   2   3
ENDBRANCH   1   2
BRANCH   1  10
ATOM     10  C   UNL     1      -7.385 -22.854  21.656  1.00  0.00     0.000 C 
BRANCH  10  11
ATOM     11  C   UNL     1      -6.284 -23.125  20.617  1.00  0.00    -0.000 C 
BRANCH  11  12
ATOM     12  C   UNL     1      -6.815 -23.090  19.173  1.00  0.00    -0.000 C 
BRANCH  12  13
ATOM     13  C   UNL     1      -5.751 -22.621  18.168  1.00  0.00    -0.000 C 
BRANCH  13  14
ATOM     14  C   UNL     1      -6.363 -22.097  16.856  1.00  0.00    -0.000 C 
BRANCH  14  15
ATOM     15  C   UNL     1      -5.337 -22.029  15.715  1.00  0.00    -0.003 C 
ATOM     16  C   UNL     1      -3.894 -22.104  16.213  1.00  0.00     0.004 C 
ENDBRANCH  14  15
ENDBRANCH  13  14
ENDBRANCH  12  13
ENDBRANCH  11  12
ENDBRANCH  10  11
ENDBRANCH   1  10
TORSDOF 12
ENDMDL
MODEL 6
REMARK VINA RESULT:    -1.290     14.221     17.358
REMARK INTER + INTRA:          -3.196
REMARK INTER:                  -2.113
REMARK INTRA:                  -1.083
REMARK UNBOUND:                -1.002
REMARK SMILES CCCCCCCCCCCCCC(=O)[O-]
REMARK SMILES IDX 8 1 9 2 10 3 11 4 12 5 13 6 14 7 15 8 16 9 7 10 6 11 5 12
REMARK SMILES IDX 4 13 3 14 2 15 1 16
REMARK H PARENT
REMARK Flexibility Score: inf
ROOT
ATOM      1  C   UNL     1       8.238 -20.456  15.611  1.00  0.00     0.000 C 
ENDROOT
BRANCH   1   2
ATOM      2  C   UNL     1       9.089 -21.315  16.559  1.00  0.00     0.000 C 
BRANCH   2   3
ATOM      3  C   UNL     1       8.244 -22.087  17.588  1.00  0.00     0.000 C 
BRANCH   3   4
ATOM      4  C   UNL     1       7.203 -23.053  16.986  1.00  0.00     0.000 C 
BRANCH   4   5
ATOM      5  C   UNL     1       5.805 -22.447  16.755  1.00  0.00     0.006 C 
BRANCH   5   6
ATOM      6  C   UNL     1       5.248 -22.657  15.339  1.00  0.00     0.053 C 
BRANCH   6   7
ATOM      7  C   UNL     1       3.753 -22.732  15.331  1.00  0.00     0.041 C 
ATOM      8  O   UNL     1       3.098 -22.471  16.375  1.00  0.00    -0.550 OA
ATOM      9  O   UNL     1       3.082 -23.125  14.179  1.00  0.00    -0.550 OA
ENDBRANCH   6   7
ENDBRANCH   5   6
ENDBRANCH   4   5
ENDBRANCH   3   4
ENDBRANCH   2   3
ENDBRANCH   1   2
BRANCH   1  10
ATOM     10  C   UNL     1       8.626 -20.707  14.147  1.00  0.00     0.000 C 
BRANCH  10  11
ATOM     11  C   UNL     1       9.079 -22.153  13.890  1.00  0.00    -0.000 C 
BRANCH  11  12
ATOM     12  C   UNL     1       8.011 -22.986  13.160  1.00  0.00    -0.000 C 
BRANCH  12  13
ATOM     13  C   UNL     1       7.835 -22.562  11.693  1.00  0.00    -0.000 C 
BRANCH  13  14
ATOM     14  C   UNL     1       9.114 -22.761  10.860  1.00  0.00    -0.000 C 
BRANCH  14  15
ATOM     15  C   UNL     1       9.117 -21.917   9.576  1.00  0.00    -0.003 C 
ATOM     16  C   UNL     1       8.314 -22.561   8.445  1.00  0.00     0.004 C 
ENDBRANCH  14  15
ENDBRANCH  13  14
ENDBRANCH  12  13
ENDBRANCH  11  12
ENDBRANCH  10  11
ENDBRANCH   1  10
TORSDOF 12
ENDMDL
MODEL 7
REMARK VINA RESULT:    -1.119      2.406      5.963
REMARK INTER + INTRA:          -2.906
REMARK INTER:                  -3.328
REMARK INTRA:                   0.422
REMARK UNBOUND:                -1.002
REMARK SMILES CCCCCCCCCCCCCC(=O)[O-]
REMARK SMILES IDX 8 1 9 2 10 3 11 4 12 5 13 6 14 7 15 8 16 9 7 10 6 11 5 12
REMARK SMILES IDX 4 13 3 14 2 15 1 16
REMARK H PARENT
REMARK Flexibility Score: inf
ROOT
ATOM      1  C   UNL     1      -8.044 -22.955  18.080  1.00  0.00     0.000 C 
ENDROOT
BRANCH   1   2
ATOM      2  C   UNL     1      -8.844 -22.296  19.214  1.00  0.00     0.000 C 
BRANCH   2   3
ATOM      3  C   UNL     1     -10.211 -22.963  19.446  1.00  0.00     0.000 C 
BRANCH   3   4
ATOM      4  C   UNL     1     -11.018 -22.402  20.636  1.00  0.00     0.000 C 
BRANCH   4   5
ATOM      5  C   UNL     1     -10.790 -23.125  21.979  1.00  0.00     0.006 C 
BRANCH   5   6
ATOM      6  C   UNL     1      -9.784 -22.431  22.910  1.00  0.00     0.053 C 
BRANCH   6   7
ATOM      7  C   UNL     1      -9.974 -20.946  22.931  1.00  0.00     0.041 C 
ATOM      8  O   UNL     1     -11.125 -20.455  23.075  1.00  0.00    -0.550 OA
ATOM      9  O   UNL     1      -8.883 -20.103  22.757  1.00  0.00    -0.550 OA
ENDBRANCH   6   7
ENDBRANCH   5   6
ENDBRANCH   4   5
ENDBRANCH   3   4
ENDBRANCH   2   3
ENDBRANCH   1   2
BRANCH   1  10
ATOM     10  C   UNL     1      -6.546 -22.998  18.419  1.00  0.00     0.000 C 
BRANCH  10  11
ATOM     11  C   UNL     1      -5.651 -22.900  17.173  1.00  0.00    -0.000 C 
BRANCH  11  12
ATOM     12  C   UNL     1      -6.088 -21.775  16.218  1.00  0.00    -0.000 C 
BRANCH  12  13
ATOM     13  C   UNL     1      -7.460 -22.046  15.579  1.00  0.00    -0.000 C 
BRANCH  13  14
ATOM     14  C   UNL     1      -8.309 -20.771  15.429  1.00  0.00    -0.000 C 
BRANCH  14  15
ATOM     15  C   UNL     1      -9.228 -20.818  14.199  1.00  0.00    -0.003 C 
ATOM     16  C   UNL     1     -10.673 -20.444  14.528  1.00  0.00     0.004 C 
ENDBRANCH  14  15
ENDBRANCH  13  14
ENDBRANCH  12  13
ENDBRANCH  11  12
ENDBRANCH  10  11
ENDBRANCH   1  10
TORSDOF 12
ENDMDL
MODEL 8
REMARK VINA RESULT:    -1.097      1.299      1.981
REMARK INTER + INTRA:          -2.868
REMARK INTER:                  -1.890
REMARK INTRA:                  -0.977
REMARK UNBOUND:                -1.002
REMARK SMILES CCCCCCCCCCCCCC(=O)[O-]
REMARK SMILES IDX 8 1 9 2 10 3 11 4 12 5 13 6 14 7 15 8 16 9 7 10 6 11 5 12
REMARK SMILES IDX 4 13 3 14 2 15 1 16
REMARK H PARENT
REMARK Flexibility Score: inf
ROOT
ATOM      1  C   UNL     1      -6.203 -22.139  18.415  1.00  0.00     0.000 C 
ENDROOT
BRANCH   1   2
ATOM      2  C   UNL     1      -5.546 -22.874  17.236  1.00  0.00     0.000 C 
BRANCH   2   3
ATOM      3  C   UNL     1      -5.646 -22.092  15.914  1.00  0.00     0.000 C 
BRANCH   3   4
ATOM      4  C   UNL     1      -7.043 -22.093  15.259  1.00  0.00     0.000 C 
BRANCH   4   5
ATOM      5  C   UNL     1      -7.931 -20.883  15.610  1.00  0.00     0.006 C 
BRANCH   5   6
ATOM      6  C   UNL     1      -9.222 -21.240  16.361  1.00  0.00     0.053 C 
BRANCH   6   7
ATOM      7  C   UNL     1     -10.405 -20.494  15.826  1.00  0.00     0.041 C 
ATOM      8  O   UNL     1     -10.946 -19.586  16.511  1.00  0.00    -0.550 OA
ATOM      9  O   UNL     1     -10.932 -20.825  14.584  1.00  0.00    -0.550 OA
ENDBRANCH   6   7
ENDBRANCH   5   6
ENDBRANCH   4   5
ENDBRANCH   3   4
ENDBRANCH   2   3
ENDBRANCH   1   2
BRANCH   1  10
ATOM     10  C   UNL     1      -7.020 -23.111  19.279  1.00  0.00     0.000 C 
BRANCH  10  11
ATOM     11  C   UNL     1      -6.701 -22.987  20.778  1.00  0.00    -0.000 C 
BRANCH  11  12
ATOM     12  C   UNL     1      -7.954 -23.124  21.661  1.00  0.00    -0.000 C 
BRANCH  12  13
ATOM     13  C   UNL     1      -9.185 -22.439  21.046  1.00  0.00    -0.000 C 
BRANCH  13  14
ATOM     14  C   UNL     1      -9.777 -21.349  21.958  1.00  0.00    -0.000 C 
BRANCH  14  15
ATOM     15  C   UNL     1     -10.106 -20.058  21.194  1.00  0.00    -0.003 C 
ATOM     16  C   UNL     1     -10.401 -20.305  19.715  1.00  0.00     0.004 C 
ENDBRANCH  14  15
ENDBRANCH  13  14
ENDBRANCH  12  13
ENDBRANCH  11  12
ENDBRANCH  10  11
ENDBRANCH   1  10
TORSDOF 12
ENDMDL
