MODEL 1
REMARK VINA RESULT:    -5.492      0.000      0.000
REMARK INTER + INTRA:          -7.024
REMARK INTER:                  -6.776
REMARK INTRA:                  -0.248
REMARK UNBOUND:                -0.248
REMARK SMILES O=c1c(O)c(-c2cc(O)c(O)c(O)c2)oc2cc(O)cc(O)c12
REMARK SMILES IDX 5 1 3 2 2 3 1 4 23 5 21 6 20 7 18 8 17 9 16 10 15 11 6 12
REMARK SMILES IDX 7 13 8 14 14 15 10 16 12 17 9 18 11 20 13 22 4 24 22 26
REMARK SMILES IDX 19 28
REMARK H PARENT 9 19 11 21 13 23 4 25 22 27 19 29
REMARK Flexibility Score: inf
ROOT
ATOM      1  C   UNL     1      31.367 -92.099  37.682  1.00  0.00     0.180 A 
ATOM      2  C   UNL     1      30.153 -92.721  37.345  1.00  0.00     0.208 A 
ATOM      3  C   UNL     1      30.035 -94.112  37.494  1.00  0.00     0.238 A 
ATOM      4  O   UNL     1      28.922 -94.651  37.261  1.00  0.00    -0.285 OA
ATOM      5  C   UNL     1      31.149 -94.871  37.927  1.00  0.00     0.111 A 
ATOM      6  C   UNL     1      31.157 -96.293  38.070  1.00  0.00     0.134 A 
ATOM      7  C   UNL     1      32.285 -96.926  38.607  1.00  0.00     0.093 A 
ATOM      8  C   UNL     1      33.428 -96.198  38.945  1.00  0.00     0.123 A 
ATOM      9  C   UNL     1      33.450 -94.819  38.756  1.00  0.00     0.094 A 
ATOM     10  C   UNL     1      32.327 -94.152  38.260  1.00  0.00     0.146 A 
ATOM     11  O   UNL     1      32.384 -92.834  38.116  1.00  0.00    -0.452 OA
ENDROOT
BRANCH   1  12
ATOM     12  C   UNL     1      31.563 -90.637  37.566  1.00  0.00     0.029 A 
ATOM     13  C   UNL     1      30.872 -89.737  38.395  1.00  0.00     0.062 A 
ATOM     14  C   UNL     1      31.089 -88.356  38.287  1.00  0.00     0.162 A 
ATOM     15  C   UNL     1      32.500 -90.137  36.648  1.00  0.00     0.062 A 
ATOM     16  C   UNL     1      32.013 -87.865  37.348  1.00  0.00     0.200 A 
ATOM     17  C   UNL     1      32.720 -88.758  36.534  1.00  0.00     0.162 A 
BRANCH  14  18
ATOM     18  O   UNL     1      30.393 -87.472  39.110  1.00  0.00    -0.504 OA
ATOM     19  H   UNL     1      30.167 -87.706  40.069  1.00  0.00     0.293 HD
ENDBRANCH  14  18
BRANCH  16  20
ATOM     20  O   UNL     1      32.242 -86.495  37.218  1.00  0.00    -0.502 OA
ATOM     21  H   UNL     1      33.078 -86.052  37.579  1.00  0.00     0.293 HD
ENDBRANCH  16  20
BRANCH  17  22
ATOM     22  O   UNL     1      33.641 -88.267  35.610  1.00  0.00    -0.504 OA
ATOM     23  H   UNL     1      34.637 -88.284  35.794  1.00  0.00     0.293 HD
ENDBRANCH  17  22
ENDBRANCH   1  12
BRANCH   2  24
ATOM     24  O   UNL     1      29.088 -91.963  36.847  1.00  0.00    -0.502 OA
ATOM     25  H   UNL     1      29.228 -91.122  36.301  1.00  0.00     0.293 HD
ENDBRANCH   2  24
BRANCH   6  26
ATOM     26  O   UNL     1      30.103 -97.125  37.682  1.00  0.00    -0.507 OA
ATOM     27  H   UNL     1      29.258 -97.273  38.211  1.00  0.00     0.293 HD
ENDBRANCH   6  26
BRANCH   8  28
ATOM     28  O   UNL     1      34.552 -96.838  39.462  1.00  0.00    -0.508 OA
ATOM     29  H   UNL     1      34.791 -97.786  39.195  1.00  0.00     0.293 HD
ENDBRANCH   8  28
TORSDOF 7
ENDMDL
MODEL 2
REMARK VINA RESULT:    -5.347      9.009     10.887
REMARK INTER + INTRA:          -6.845
REMARK INTER:                  -6.559
REMARK INTRA:                  -0.287
REMARK UNBOUND:                -0.248
REMARK SMILES O=c1c(O)c(-c2cc(O)c(O)c(O)c2)oc2cc(O)cc(O)c12
REMARK SMILES IDX 5 1 3 2 2 3 1 4 23 5 21 6 20 7 18 8 17 9 16 10 15 11 6 12
REMARK SMILES IDX 7 13 8 14 14 15 10 16 12 17 9 18 11 20 13 22 4 24 22 26
REMARK SMILES IDX 19 28
REMARK H PARENT 9 19 11 21 13 23 4 25 22 27 19 29
REMARK Flexibility Score: inf
ROOT
ATOM      1  C   UNL     1      38.128 -95.304  31.624  1.00  0.00     0.180 A 
ATOM      2  C   UNL     1      38.832 -95.994  30.622  1.00  0.00     0.208 A 
ATOM      3  C   UNL     1      38.269 -96.095  29.340  1.00  0.00     0.238 A 
ATOM      4  O   UNL     1      38.938 -96.650  28.430  1.00  0.00    -0.285 OA
ATOM      5  C   UNL     1      36.984 -95.553  29.089  1.00  0.00     0.111 A 
ATOM      6  C   UNL     1      36.297 -95.638  27.840  1.00  0.00     0.134 A 
ATOM      7  C   UNL     1      35.076 -94.972  27.678  1.00  0.00     0.093 A 
ATOM      8  C   UNL     1      34.485 -94.281  28.739  1.00  0.00     0.123 A 
ATOM      9  C   UNL     1      35.121 -94.240  29.976  1.00  0.00     0.094 A 
ATOM     10  C   UNL     1      36.359 -94.860  30.159  1.00  0.00     0.146 A 
ATOM     11  O   UNL     1      36.940 -94.778  31.349  1.00  0.00    -0.452 OA
ENDROOT
BRANCH   1  12
ATOM     12  C   UNL     1      38.663 -95.142  32.995  1.00  0.00     0.029 A 
ATOM     13  C   UNL     1      39.737 -94.276  33.264  1.00  0.00     0.062 A 
ATOM     14  C   UNL     1      40.214 -94.118  34.573  1.00  0.00     0.162 A 
ATOM     15  C   UNL     1      38.051 -95.823  34.058  1.00  0.00     0.062 A 
ATOM     16  C   UNL     1      39.608 -94.822  35.628  1.00  0.00     0.200 A 
ATOM     17  C   UNL     1      38.525 -95.670  35.368  1.00  0.00     0.162 A 
BRANCH  14  18
ATOM     18  O   UNL     1      41.283 -93.261  34.829  1.00  0.00    -0.504 OA
ATOM     19  H   UNL     1      41.729 -92.732  34.089  1.00  0.00     0.293 HD
ENDBRANCH  14  18
BRANCH  16  20
ATOM     20  O   UNL     1      40.068 -94.685  36.938  1.00  0.00    -0.502 OA
ATOM     21  H   UNL     1      40.928 -95.115  37.255  1.00  0.00     0.293 HD
ENDBRANCH  16  20
BRANCH  17  22
ATOM     22  O   UNL     1      37.922 -96.360  36.418  1.00  0.00    -0.504 OA
ATOM     23  H   UNL     1      36.915 -96.434  36.496  1.00  0.00     0.293 HD
ENDBRANCH  17  22
ENDBRANCH   1  12
BRANCH   2  24
ATOM     24  O   UNL     1      40.064 -96.588  30.910  1.00  0.00    -0.502 OA
ATOM     25  H   UNL     1      40.921 -96.053  30.990  1.00  0.00     0.293 HD
ENDBRANCH   2  24
BRANCH   6  26
ATOM     26  O   UNL     1      36.753 -96.375  26.743  1.00  0.00    -0.507 OA
ATOM     27  H   UNL     1      36.559 -96.157  25.779  1.00  0.00     0.293 HD
ENDBRANCH   6  26
BRANCH   8  28
ATOM     28  O   UNL     1      33.262 -93.636  28.574  1.00  0.00    -0.508 OA
ATOM     29  H   UNL     1      32.996 -93.221  27.688  1.00  0.00     0.293 HD
ENDBRANCH   8  28
TORSDOF 7
ENDMDL
MODEL 3
REMARK VINA RESULT:    -5.306      9.161     10.710
REMARK INTER + INTRA:          -6.795
REMARK INTER:                  -6.548
REMARK INTRA:                  -0.247
REMARK UNBOUND:                -0.248
REMARK SMILES O=c1c(O)c(-c2cc(O)c(O)c(O)c2)oc2cc(O)cc(O)c12
REMARK SMILES IDX 5 1 3 2 2 3 1 4 23 5 21 6 20 7 18 8 17 9 16 10 15 11 6 12
REMARK SMILES IDX 7 13 8 14 14 15 10 16 12 17 9 18 11 20 13 22 4 24 22 26
REMARK SMILES IDX 19 28
REMARK H PARENT 9 19 11 21 13 23 4 25 22 27 19 29
REMARK Flexibility Score: inf
ROOT
ATOM      1  C   UNL     1      36.881 -95.272  30.506  1.00  0.00     0.180 A 
ATOM      2  C   UNL     1      37.915 -95.707  29.660  1.00  0.00     0.208 A 
ATOM      3  C   UNL     1      39.233 -95.715  30.142  1.00  0.00     0.238 A 
ATOM      4  O   UNL     1      40.143 -96.175  29.405  1.00  0.00    -0.285 OA
ATOM      5  C   UNL     1      39.509 -95.235  31.446  1.00  0.00     0.111 A 
ATOM      6  C   UNL     1      40.814 -95.154  32.022  1.00  0.00     0.134 A 
ATOM      7  C   UNL     1      40.954 -94.761  33.359  1.00  0.00     0.093 A 
ATOM      8  C   UNL     1      39.845 -94.386  34.121  1.00  0.00     0.123 A 
ATOM      9  C   UNL     1      38.575 -94.409  33.550  1.00  0.00     0.094 A 
ATOM     10  C   UNL     1      38.397 -94.832  32.232  1.00  0.00     0.146 A 
ATOM     11  O   UNL     1      37.167 -94.859  31.735  1.00  0.00    -0.452 OA
ENDROOT
BRANCH   1  12
ATOM     12  C   UNL     1      35.465 -95.249  30.074  1.00  0.00     0.029 A 
ATOM     13  C   UNL     1      35.012 -94.345  29.098  1.00  0.00     0.062 A 
ATOM     14  C   UNL     1      33.673 -94.354  28.684  1.00  0.00     0.162 A 
ATOM     15  C   UNL     1      34.567 -96.187  30.605  1.00  0.00     0.062 A 
ATOM     16  C   UNL     1      32.775 -95.283  29.240  1.00  0.00     0.200 A 
ATOM     17  C   UNL     1      33.226 -96.200  30.197  1.00  0.00     0.162 A 
BRANCH  14  18
ATOM     18  O   UNL     1      33.232 -93.449  27.721  1.00  0.00    -0.504 OA
ATOM     19  H   UNL     1      33.867 -92.801  27.270  1.00  0.00     0.293 HD
ENDBRANCH  14  18
BRANCH  16  20
ATOM     20  O   UNL     1      31.437 -95.309  28.847  1.00  0.00    -0.502 OA
ATOM     21  H   UNL     1      30.715 -94.820  29.362  1.00  0.00     0.293 HD
ENDBRANCH  16  20
BRANCH  17  22
ATOM     22  O   UNL     1      32.335 -97.124  30.739  1.00  0.00    -0.504 OA
ATOM     23  H   UNL     1      31.674 -97.627  30.159  1.00  0.00     0.293 HD
ENDBRANCH  17  22
ENDBRANCH   1  12
BRANCH   2  24
ATOM     24  O   UNL     1      37.632 -96.105  28.350  1.00  0.00    -0.502 OA
ATOM     25  H   UNL     1      36.726 -96.465  28.074  1.00  0.00     0.293 HD
ENDBRANCH   2  24
BRANCH   6  26
ATOM     26  O   UNL     1      41.996 -95.421  31.325  1.00  0.00    -0.507 OA
ATOM     27  H   UNL     1      42.921 -95.176  31.641  1.00  0.00     0.293 HD
ENDBRANCH   6  26
BRANCH   8  28
ATOM     28  O   UNL     1      39.996 -93.980  35.445  1.00  0.00    -0.508 OA
ATOM     29  H   UNL     1      40.912 -93.815  35.847  1.00  0.00     0.293 HD
ENDBRANCH   8  28
TORSDOF 7
ENDMDL
MODEL 4
REMARK VINA RESULT:    -5.206      3.699      6.087
REMARK INTER + INTRA:          -6.672
REMARK INTER:                  -6.362
REMARK INTRA:                  -0.310
REMARK UNBOUND:                -0.248
REMARK SMILES O=c1c(O)c(-c2cc(O)c(O)c(O)c2)oc2cc(O)cc(O)c12
REMARK SMILES IDX 5 1 3 2 2 3 1 4 23 5 21 6 20 7 18 8 17 9 16 10 15 11 6 12
REMARK SMILES IDX 7 13 8 14 14 15 10 16 12 17 9 18 11 20 13 22 4 24 22 26
REMARK SMILES IDX 19 28
REMARK H PARENT 9 19 11 21 13 23 4 25 22 27 19 29
REMARK Flexibility Score: inf
ROOT
ATOM      1  C   UNL     1      29.337 -95.470  38.785  1.00  0.00     0.180 A 
ATOM      2  C   UNL     1      28.526 -95.712  37.663  1.00  0.00     0.208 A 
ATOM      3  C   UNL     1      27.190 -96.095  37.858  1.00  0.00     0.238 A 
ATOM      4  O   UNL     1      26.450 -96.237  36.849  1.00  0.00    -0.285 OA
ATOM      5  C   UNL     1      26.695 -96.284  39.171  1.00  0.00     0.111 A 
ATOM      6  C   UNL     1      25.369 -96.716  39.485  1.00  0.00     0.134 A 
ATOM      7  C   UNL     1      24.960 -96.766  40.823  1.00  0.00     0.093 A 
ATOM      8  C   UNL     1      25.845 -96.464  41.861  1.00  0.00     0.123 A 
ATOM      9  C   UNL     1      27.155 -96.097  41.566  1.00  0.00     0.094 A 
ATOM     10  C   UNL     1      27.584 -95.999  40.241  1.00  0.00     0.146 A 
ATOM     11  O   UNL     1      28.835 -95.624  40.005  1.00  0.00    -0.452 OA
ENDROOT
BRANCH   1  12
ATOM     12  C   UNL     1      30.751 -95.049  38.661  1.00  0.00     0.029 A 
ATOM     13  C   UNL     1      31.094 -93.738  38.288  1.00  0.00     0.062 A 
ATOM     14  C   UNL     1      32.439 -93.352  38.199  1.00  0.00     0.162 A 
ATOM     15  C   UNL     1      31.771 -95.959  38.977  1.00  0.00     0.062 A 
ATOM     16  C   UNL     1      33.454 -94.278  38.495  1.00  0.00     0.200 A 
ATOM     17  C   UNL     1      33.117 -95.579  38.888  1.00  0.00     0.162 A 
BRANCH  14  18
ATOM     18  O   UNL     1      32.769 -92.051  37.822  1.00  0.00    -0.504 OA
ATOM     19  H   UNL     1      33.681 -91.656  38.019  1.00  0.00     0.293 HD
ENDBRANCH  14  18
BRANCH  16  20
ATOM     20  O   UNL     1      34.799 -93.917  38.409  1.00  0.00    -0.502 OA
ATOM     21  H   UNL     1      35.316 -93.568  39.207  1.00  0.00     0.293 HD
ENDBRANCH  16  20
BRANCH  17  22
ATOM     22  O   UNL     1      34.127 -96.491  39.188  1.00  0.00    -0.504 OA
ATOM     23  H   UNL     1      34.675 -96.415  40.037  1.00  0.00     0.293 HD
ENDBRANCH  17  22
ENDBRANCH   1  12
BRANCH   2  24
ATOM     24  O   UNL     1      29.055 -95.593  36.374  1.00  0.00    -0.502 OA
ATOM     25  H   UNL     1      28.473 -95.594  35.545  1.00  0.00     0.293 HD
ENDBRANCH   2  24
BRANCH   6  26
ATOM     26  O   UNL     1      24.432 -97.125  38.532  1.00  0.00    -0.507 OA
ATOM     27  H   UNL     1      24.152 -98.079  38.370  1.00  0.00     0.293 HD
ENDBRANCH   6  26
BRANCH   8  28
ATOM     28  O   UNL     1      25.434 -96.534  43.190  1.00  0.00    -0.508 OA
ATOM     29  H   UNL     1      26.102 -96.526  43.952  1.00  0.00     0.293 HD
ENDBRANCH   8  28
TORSDOF 7
ENDMDL
MODEL 5
REMARK VINA RESULT:    -5.170      7.933     10.109
REMARK INTER + INTRA:          -6.627
REMARK INTER:                  -6.739
REMARK INTRA:                   0.112
REMARK UNBOUND:                -0.248
REMARK SMILES O=c1c(O)c(-c2cc(O)c(O)c(O)c2)oc2cc(O)cc(O)c12
REMARK SMILES IDX 5 1 3 2 2 3 1 4 23 5 21 6 20 7 18 8 17 9 16 10 15 11 6 12
REMARK SMILES IDX 7 13 8 14 14 15 10 16 12 17 9 18 11 20 13 22 4 24 22 26
REMARK SMILES IDX 19 28
REMARK H PARENT 9 19 11 21 13 23 4 25 22 27 19 29
REMARK Flexibility Score: inf
ROOT
ATOM      1  C   UNL     1      39.750 -95.094  35.474  1.00  0.00     0.180 A 
ATOM      2  C   UNL     1      40.896 -94.645  36.152  1.00  0.00     0.208 A 
ATOM      3  C   UNL     1      40.950 -94.761  37.550  1.00  0.00     0.238 A 
ATOM      4  O   UNL     1      42.008 -94.426  38.142  1.00  0.00    -0.285 OA
ATOM      5  C   UNL     1      39.836 -95.273  38.259  1.00  0.00     0.111 A 
ATOM      6  C   UNL     1      39.763 -95.392  39.681  1.00  0.00     0.134 A 
ATOM      7  C   UNL     1      38.650 -96.011  40.264  1.00  0.00     0.093 A 
ATOM      8  C   UNL     1      37.581 -96.457  39.484  1.00  0.00     0.123 A 
ATOM      9  C   UNL     1      37.619 -96.294  38.102  1.00  0.00     0.094 A 
ATOM     10  C   UNL     1      38.731 -95.716  37.486  1.00  0.00     0.146 A 
ATOM     11  O   UNL     1      38.734 -95.600  36.164  1.00  0.00    -0.452 OA
ENDROOT
BRANCH   1  12
ATOM     12  C   UNL     1      39.625 -95.019  34.001  1.00  0.00     0.029 A 
ATOM     13  C   UNL     1      40.722 -95.272  33.159  1.00  0.00     0.062 A 
ATOM     14  C   UNL     1      40.578 -95.220  31.766  1.00  0.00     0.162 A 
ATOM     15  C   UNL     1      38.373 -94.748  33.428  1.00  0.00     0.062 A 
ATOM     16  C   UNL     1      39.325 -94.924  31.202  1.00  0.00     0.200 A 
ATOM     17  C   UNL     1      38.224 -94.692  32.036  1.00  0.00     0.162 A 
BRANCH  14  18
ATOM     18  O   UNL     1      41.674 -95.465  30.940  1.00  0.00    -0.504 OA
ATOM     19  H   UNL     1      41.659 -95.233  29.954  1.00  0.00     0.293 HD
ENDBRANCH  14  18
BRANCH  16  20
ATOM     20  O   UNL     1      39.158 -94.862  29.819  1.00  0.00    -0.502 OA
ATOM     21  H   UNL     1      38.267 -95.042  29.374  1.00  0.00     0.293 HD
ENDBRANCH  16  20
BRANCH  17  22
ATOM     22  O   UNL     1      36.981 -94.408  31.473  1.00  0.00    -0.504 OA
ATOM     23  H   UNL     1      36.883 -93.750  30.709  1.00  0.00     0.293 HD
ENDBRANCH  17  22
ENDBRANCH   1  12
BRANCH   2  24
ATOM     24  O   UNL     1      41.955 -94.073  35.441  1.00  0.00    -0.502 OA
ATOM     25  H   UNL     1      42.011 -94.103  34.430  1.00  0.00     0.293 HD
ENDBRANCH   2  24
BRANCH   6  26
ATOM     26  O   UNL     1      40.733 -94.902  40.559  1.00  0.00    -0.507 OA
ATOM     27  H   UNL     1      41.661 -94.614  40.292  1.00  0.00     0.293 HD
ENDBRANCH   6  26
BRANCH   8  28
ATOM     28  O   UNL     1      36.471 -97.056  40.075  1.00  0.00    -0.508 OA
ATOM     29  H   UNL     1      36.182 -97.996  39.828  1.00  0.00     0.293 HD
ENDBRANCH   8  28
TORSDOF 7
ENDMDL
MODEL 6
REMARK VINA RESULT:    -5.050     10.035     11.768
REMARK INTER + INTRA:          -6.479
REMARK INTER:                  -6.751
REMARK INTRA:                   0.272
REMARK UNBOUND:                -0.248
REMARK SMILES O=c1c(O)c(-c2cc(O)c(O)c(O)c2)oc2cc(O)cc(O)c12
REMARK SMILES IDX 5 1 3 2 2 3 1 4 23 5 21 6 20 7 18 8 17 9 16 10 15 11 6 12
REMARK SMILES IDX 7 13 8 14 14 15 10 16 12 17 9 18 11 20 13 22 4 24 22 26
REMARK SMILES IDX 19 28
REMARK H PARENT 9 19 11 21 13 23 4 25 22 27 19 29
REMARK Flexibility Score: inf
ROOT
ATOM      1  C   UNL     1      39.635 -95.235  31.354  1.00  0.00     0.180 A 
ATOM      2  C   UNL     1      40.060 -95.437  30.029  1.00  0.00     0.208 A 
ATOM      3  C   UNL     1      39.095 -95.576  29.018  1.00  0.00     0.238 A 
ATOM      4  O   UNL     1      39.483 -95.682  27.826  1.00  0.00    -0.285 OA
ATOM      5  C   UNL     1      37.719 -95.567  29.351  1.00  0.00     0.111 A 
ATOM      6  C   UNL     1      36.655 -95.745  28.414  1.00  0.00     0.134 A 
ATOM      7  C   UNL     1      35.329 -95.611  28.842  1.00  0.00     0.093 A 
ATOM      8  C   UNL     1      35.025 -95.370  30.184  1.00  0.00     0.123 A 
ATOM      9  C   UNL     1      36.054 -95.250  31.115  1.00  0.00     0.094 A 
ATOM     10  C   UNL     1      37.388 -95.340  30.713  1.00  0.00     0.146 A 
ATOM     11  O   UNL     1      38.337 -95.198  31.630  1.00  0.00    -0.452 OA
ENDROOT
BRANCH   1  12
ATOM     12  C   UNL     1      40.592 -95.065  32.471  1.00  0.00     0.029 A 
ATOM     13  C   UNL     1      41.875 -95.637  32.429  1.00  0.00     0.062 A 
ATOM     14  C   UNL     1      42.776 -95.445  33.486  1.00  0.00     0.162 A 
ATOM     15  C   UNL     1      40.234 -94.269  33.570  1.00  0.00     0.062 A 
ATOM     16  C   UNL     1      42.399 -94.665  34.593  1.00  0.00     0.200 A 
ATOM     17  C   UNL     1      41.129 -94.076  34.630  1.00  0.00     0.162 A 
BRANCH  14  18
ATOM     18  O   UNL     1      44.043 -96.022  33.438  1.00  0.00    -0.504 OA
ATOM     19  H   UNL     1      44.206 -96.911  32.979  1.00  0.00     0.293 HD
ENDBRANCH  14  18
BRANCH  16  20
ATOM     20  O   UNL     1      43.276 -94.464  35.659  1.00  0.00    -0.502 OA
ATOM     21  H   UNL     1      42.993 -93.993  36.509  1.00  0.00     0.293 HD
ENDBRANCH  16  20
BRANCH  17  22
ATOM     22  O   UNL     1      40.763 -93.297  35.726  1.00  0.00    -0.504 OA
ATOM     23  H   UNL     1      40.178 -92.477  35.623  1.00  0.00     0.293 HD
ENDBRANCH  17  22
ENDBRANCH   1  12
BRANCH   2  24
ATOM     24  O   UNL     1      41.423 -95.519  29.732  1.00  0.00    -0.502 OA
ATOM     25  H   UNL     1      41.987 -96.323  29.980  1.00  0.00     0.293 HD
ENDBRANCH   2  24
BRANCH   6  26
ATOM     26  O   UNL     1      36.844 -96.076  27.069  1.00  0.00    -0.507 OA
ATOM     27  H   UNL     1      37.725 -96.033  26.581  1.00  0.00     0.293 HD
ENDBRANCH   6  26
BRANCH   8  28
ATOM     28  O   UNL     1      33.702 -95.255  30.605  1.00  0.00    -0.508 OA
ATOM     29  H   UNL     1      33.418 -95.526  31.540  1.00  0.00     0.293 HD
ENDBRANCH   8  28
TORSDOF 7
ENDMDL
MODEL 7
REMARK VINA RESULT:    -5.042      9.028     11.538
REMARK INTER + INTRA:          -6.469
REMARK INTER:                  -6.548
REMARK INTRA:                   0.079
REMARK UNBOUND:                -0.248
REMARK SMILES O=c1c(O)c(-c2cc(O)c(O)c(O)c2)oc2cc(O)cc(O)c12
REMARK SMILES IDX 5 1 3 2 2 3 1 4 23 5 21 6 20 7 18 8 17 9 16 10 15 11 6 12
REMARK SMILES IDX 7 13 8 14 14 15 10 16 12 17 9 18 11 20 13 22 4 24 22 26
REMARK SMILES IDX 19 28
REMARK H PARENT 9 19 11 21 13 23 4 25 22 27 19 29
REMARK Flexibility Score: inf
ROOT
ATOM      1  C   UNL     1      41.286 -95.104  36.056  1.00  0.00     0.180 A 
ATOM      2  C   UNL     1      42.419 -95.211  35.231  1.00  0.00     0.208 A 
ATOM      3  C   UNL     1      42.254 -95.163  33.838  1.00  0.00     0.238 A 
ATOM      4  O   UNL     1      43.280 -95.184  33.109  1.00  0.00    -0.285 OA
ATOM      5  C   UNL     1      40.954 -95.065  33.285  1.00  0.00     0.111 A 
ATOM      6  C   UNL     1      40.666 -95.054  31.885  1.00  0.00     0.134 A 
ATOM      7  C   UNL     1      39.350 -94.846  31.454  1.00  0.00     0.093 A 
ATOM      8  C   UNL     1      38.303 -94.713  32.370  1.00  0.00     0.123 A 
ATOM      9  C   UNL     1      38.567 -94.778  33.735  1.00  0.00     0.094 A 
ATOM     10  C   UNL     1      39.874 -94.945  34.198  1.00  0.00     0.146 A 
ATOM     11  O   UNL     1      40.083 -94.980  35.508  1.00  0.00    -0.452 OA
ENDROOT
BRANCH   1  12
ATOM     12  C   UNL     1      41.381 -95.131  37.533  1.00  0.00     0.029 A 
ATOM     13  C   UNL     1      40.644 -94.239  38.330  1.00  0.00     0.062 A 
ATOM     14  C   UNL     1      40.728 -94.296  39.728  1.00  0.00     0.162 A 
ATOM     15  C   UNL     1      42.177 -96.105  38.155  1.00  0.00     0.062 A 
ATOM     16  C   UNL     1      41.547 -95.260  40.341  1.00  0.00     0.200 A 
ATOM     17  C   UNL     1      42.267 -96.165  39.552  1.00  0.00     0.162 A 
BRANCH  14  18
ATOM     18  O   UNL     1      39.998 -93.401  40.510  1.00  0.00    -0.504 OA
ATOM     19  H   UNL     1      38.986 -93.429  40.545  1.00  0.00     0.293 HD
ENDBRANCH  14  18
BRANCH  16  20
ATOM     20  O   UNL     1      41.650 -95.333  41.731  1.00  0.00    -0.502 OA
ATOM     21  H   UNL     1      42.181 -94.658  42.268  1.00  0.00     0.293 HD
ENDBRANCH  16  20
BRANCH  17  22
ATOM     22  O   UNL     1      43.071 -97.125  40.165  1.00  0.00    -0.504 OA
ATOM     23  H   UNL     1      43.180 -98.053  39.774  1.00  0.00     0.293 HD
ENDBRANCH  17  22
ENDBRANCH   1  12
BRANCH   2  24
ATOM     24  O   UNL     1      43.686 -95.384  35.795  1.00  0.00    -0.502 OA
ATOM     25  H   UNL     1      43.940 -94.994  36.695  1.00  0.00     0.293 HD
ENDBRANCH   2  24
BRANCH   6  26
ATOM     26  O   UNL     1      41.621 -95.266  30.887  1.00  0.00    -0.507 OA
ATOM     27  H   UNL     1      41.780 -96.142  30.415  1.00  0.00     0.293 HD
ENDBRANCH   6  26
BRANCH   8  28
ATOM     28  O   UNL     1      36.995 -94.524  31.931  1.00  0.00    -0.508 OA
ATOM     29  H   UNL     1      36.793 -94.090  31.038  1.00  0.00     0.293 HD
ENDBRANCH   8  28
TORSDOF 7
ENDMDL
MODEL 8
REMARK VINA RESULT:    -4.930     14.908     16.319
REMARK INTER + INTRA:          -6.332
REMARK INTER:                  -6.684
REMARK INTRA:                   0.352
REMARK UNBOUND:                -0.248
REMARK SMILES O=c1c(O)c(-c2cc(O)c(O)c(O)c2)oc2cc(O)cc(O)c12
REMARK SMILES IDX 5 1 3 2 2 3 1 4 23 5 21 6 20 7 18 8 17 9 16 10 15 11 6 12
REMARK SMILES IDX 7 13 8 14 14 15 10 16 12 17 9 18 11 20 13 22 4 24 22 26
REMARK SMILES IDX 19 28
REMARK H PARENT 9 19 11 21 13 23 4 25 22 27 19 29
REMARK Flexibility Score: inf
ROOT
ATOM      1  C   UNL     1      37.563 -77.887  37.369  1.00  0.00     0.180 A 
ATOM      2  C   UNL     1      38.716 -77.451  36.695  1.00  0.00     0.208 A 
ATOM      3  C   UNL     1      39.965 -77.583  37.323  1.00  0.00     0.238 A 
ATOM      4  O   UNL     1      40.999 -77.260  36.683  1.00  0.00    -0.285 OA
ATOM      5  C   UNL     1      40.040 -78.098  38.640  1.00  0.00     0.111 A 
ATOM      6  C   UNL     1      41.248 -78.234  39.392  1.00  0.00     0.134 A 
ATOM      7  C   UNL     1      41.213 -78.855  40.646  1.00  0.00     0.093 A 
ATOM      8  C   UNL     1      40.007 -79.286  41.205  1.00  0.00     0.123 A 
ATOM      9  C   UNL     1      38.818 -79.108  40.503  1.00  0.00     0.094 A 
ATOM     10  C   UNL     1      38.823 -78.527  39.233  1.00  0.00     0.146 A 
ATOM     11  O   UNL     1      37.669 -78.396  38.591  1.00  0.00    -0.452 OA
ENDROOT
BRANCH   1  12
ATOM     12  C   UNL     1      36.215 -77.794  36.767  1.00  0.00     0.029 A 
ATOM     13  C   UNL     1      36.042 -77.623  35.382  1.00  0.00     0.062 A 
ATOM     14  C   UNL     1      34.756 -77.562  34.827  1.00  0.00     0.162 A 
ATOM     15  C   UNL     1      35.083 -77.936  37.584  1.00  0.00     0.062 A 
ATOM     16  C   UNL     1      33.628 -77.682  35.658  1.00  0.00     0.200 A 
ATOM     17  C   UNL     1      33.795 -77.873  37.035  1.00  0.00     0.162 A 
BRANCH  14  18
ATOM     18  O   UNL     1      34.595 -77.385  33.454  1.00  0.00    -0.504 OA
ATOM     19  H   UNL     1      35.150 -77.904  32.783  1.00  0.00     0.293 HD
ENDBRANCH  14  18
BRANCH  16  20
ATOM     20  O   UNL     1      32.339 -77.619  35.129  1.00  0.00    -0.502 OA
ATOM     21  H   UNL     1      31.550 -78.071  35.575  1.00  0.00     0.293 HD
ENDBRANCH  16  20
BRANCH  17  22
ATOM     22  O   UNL     1      32.675 -78.001  37.853  1.00  0.00    -0.504 OA
ATOM     23  H   UNL     1      32.745 -77.944  38.862  1.00  0.00     0.293 HD
ENDBRANCH  17  22
ENDBRANCH   1  12
BRANCH   2  24
ATOM     24  O   UNL     1      38.613 -76.875  35.425  1.00  0.00    -0.502 OA
ATOM     25  H   UNL     1      38.367 -77.412  34.602  1.00  0.00     0.293 HD
ENDBRANCH   2  24
BRANCH   6  26
ATOM     26  O   UNL     1      42.492 -77.759  38.967  1.00  0.00    -0.507 OA
ATOM     27  H   UNL     1      43.379 -78.180  39.193  1.00  0.00     0.293 HD
ENDBRANCH   6  26
BRANCH   8  28
ATOM     28  O   UNL     1      39.980 -79.887  42.461  1.00  0.00    -0.508 OA
ATOM     29  H   UNL     1      40.830 -80.199  42.918  1.00  0.00     0.293 HD
ENDBRANCH   8  28
TORSDOF 7
ENDMDL
