MODEL 1
REMARK VINA RESULT:    -4.925      0.000      0.000
REMARK INTER + INTRA:          -6.527
REMARK INTER:                  -6.364
REMARK INTRA:                  -0.162
REMARK UNBOUND:                -0.162
REMARK SMILES CCCCCCC(=O)[O-]
REMARK SMILES IDX 5 1 6 2 7 3 8 4 9 5 4 6 3 7 2 8 1 9
REMARK H PARENT
REMARK Flexibility Score: inf
ROOT
ATOM      1  C   UNL     1      94.420 120.988 119.662  1.00  0.00     0.006 C 
ENDROOT
BRANCH   1   2
ATOM      2  C   UNL     1      94.570 122.297 120.444  1.00  0.00     0.053 C 
BRANCH   2   3
ATOM      3  C   UNL     1      93.525 122.392 121.510  1.00  0.00     0.041 C 
ATOM      4  O   UNL     1      92.433 121.779 121.384  1.00  0.00    -0.550 OA
ATOM      5  O   UNL     1      93.777 123.120 122.666  1.00  0.00    -0.550 OA
ENDBRANCH   2   3
ENDBRANCH   1   2
BRANCH   1   6
ATOM      6  C   UNL     1      94.092 121.264 118.187  1.00  0.00     0.000 C 
BRANCH   6   7
ATOM      7  C   UNL     1      92.674 121.829 117.984  1.00  0.00    -0.000 C 
BRANCH   7   8
ATOM      8  C   UNL     1      92.241 121.978 116.515  1.00  0.00    -0.003 C 
ATOM      9  C   UNL     1      92.844 120.910 115.603  1.00  0.00     0.004 C 
ENDBRANCH   7   8
ENDBRANCH   6   7
ENDBRANCH   1   6
TORSDOF 5
ENDMDL
MODEL 2
REMARK VINA RESULT:    -4.866      0.122      1.085
REMARK INTER + INTRA:          -6.451
REMARK INTER:                  -6.254
REMARK INTRA:                  -0.197
REMARK UNBOUND:                -0.162
REMARK SMILES CCCCCCC(=O)[O-]
REMARK SMILES IDX 5 1 6 2 7 3 8 4 9 5 4 6 3 7 2 8 1 9
REMARK H PARENT
REMARK Flexibility Score: inf
ROOT
ATOM      1  C   UNL     1      94.445 120.932 119.618  1.00  0.00     0.006 C 
ENDROOT
BRANCH   1   2
ATOM      2  C   UNL     1      94.624 122.233 120.407  1.00  0.00     0.053 C 
BRANCH   2   3
ATOM      3  C   UNL     1      93.619 122.319 121.511  1.00  0.00     0.041 C 
ATOM      4  O   UNL     1      93.871 122.988 122.548  1.00  0.00    -0.550 OA
ATOM      5  O   UNL     1      92.383 121.700 121.375  1.00  0.00    -0.550 OA
ENDBRANCH   2   3
ENDBRANCH   1   2
BRANCH   1   6
ATOM      6  C   UNL     1      94.147 121.223 118.140  1.00  0.00     0.000 C 
BRANCH   6   7
ATOM      7  C   UNL     1      92.737 121.801 117.915  1.00  0.00    -0.000 C 
BRANCH   7   8
ATOM      8  C   UNL     1      92.297 121.879 116.442  1.00  0.00    -0.003 C 
ATOM      9  C   UNL     1      92.935 120.798 115.570  1.00  0.00     0.004 C 
ENDBRANCH   7   8
ENDBRANCH   6   7
ENDBRANCH   1   6
TORSDOF 5
ENDMDL
MODEL 3
REMARK VINA RESULT:    -4.718      1.654      2.394
REMARK INTER + INTRA:          -6.260
REMARK INTER:                  -6.057
REMARK INTRA:                  -0.203
REMARK UNBOUND:                -0.162
REMARK SMILES CCCCCCC(=O)[O-]
REMARK SMILES IDX 5 1 6 2 7 3 8 4 9 5 4 6 3 7 2 8 1 9
REMARK H PARENT
REMARK Flexibility Score: inf
ROOT
ATOM      1  C   UNL     1      93.051 122.608 121.096  1.00  0.00     0.006 C 
ENDROOT
BRANCH   1   2
ATOM      2  C   UNL     1      93.038 122.246 122.585  1.00  0.00     0.053 C 
BRANCH   2   3
ATOM      3  C   UNL     1      93.526 123.397 123.408  1.00  0.00     0.041 C 
ATOM      4  O   UNL     1      92.784 124.396 123.603  1.00  0.00    -0.550 OA
ATOM      5  O   UNL     1      94.781 123.345 123.999  1.00  0.00    -0.550 OA
ENDBRANCH   2   3
ENDBRANCH   1   2
BRANCH   1   6
ATOM      6  C   UNL     1      94.363 122.161 120.435  1.00  0.00     0.000 C 
BRANCH   6   7
ATOM      7  C   UNL     1      94.304 122.204 118.897  1.00  0.00    -0.000 C 
BRANCH   7   8
ATOM      8  C   UNL     1      93.016 122.815 118.316  1.00  0.00    -0.003 C 
ATOM      9  C   UNL     1      92.232 121.837 117.442  1.00  0.00     0.004 C 
ENDBRANCH   7   8
ENDBRANCH   6   7
ENDBRANCH   1   6
TORSDOF 5
ENDMDL
MODEL 4
REMARK VINA RESULT:    -4.682      2.372      4.850
REMARK INTER + INTRA:          -6.213
REMARK INTER:                  -6.039
REMARK INTRA:                  -0.174
REMARK UNBOUND:                -0.162
REMARK SMILES CCCCCCC(=O)[O-]
REMARK SMILES IDX 5 1 6 2 7 3 8 4 9 5 4 6 3 7 2 8 1 9
REMARK H PARENT
REMARK Flexibility Score: inf
ROOT
ATOM      1  C   UNL     1      94.361 122.481 118.920  1.00  0.00     0.006 C 
ENDROOT
BRANCH   1   2
ATOM      2  C   UNL     1      93.973 121.206 118.165  1.00  0.00     0.053 C 
BRANCH   2   3
ATOM      3  C   UNL     1      92.702 121.415 117.404  1.00  0.00     0.041 C 
ATOM      4  O   UNL     1      91.648 121.746 118.009  1.00  0.00    -0.550 OA
ATOM      5  O   UNL     1      92.691 121.291 116.021  1.00  0.00    -0.550 OA
ENDBRANCH   2   3
ENDBRANCH   1   2
BRANCH   1   6
ATOM      6  C   UNL     1      94.414 122.226 120.434  1.00  0.00     0.000 C 
BRANCH   6   7
ATOM      7  C   UNL     1      93.053 122.431 121.124  1.00  0.00    -0.000 C 
BRANCH   7   8
ATOM      8  C   UNL     1      93.069 122.251 122.652  1.00  0.00    -0.003 C 
ATOM      9  C   UNL     1      93.297 123.561 123.406  1.00  0.00     0.004 C 
ENDBRANCH   7   8
ENDBRANCH   6   7
ENDBRANCH   1   6
TORSDOF 5
ENDMDL
MODEL 5
REMARK VINA RESULT:    -4.577      2.730      5.593
REMARK INTER + INTRA:          -6.077
REMARK INTER:                  -5.931
REMARK INTRA:                  -0.145
REMARK UNBOUND:                -0.162
REMARK SMILES CCCCCCC(=O)[O-]
REMARK SMILES IDX 5 1 6 2 7 3 8 4 9 5 4 6 3 7 2 8 1 9
REMARK H PARENT
REMARK Flexibility Score: inf
ROOT
ATOM      1  C   UNL     1      92.819 121.960 121.815  1.00  0.00     0.006 C 
ENDROOT
BRANCH   1   2
ATOM      2  C   UNL     1      92.892 122.315 120.326  1.00  0.00     0.053 C 
BRANCH   2   3
ATOM      3  C   UNL     1      94.196 121.868 119.745  1.00  0.00     0.041 C 
ATOM      4  O   UNL     1      94.586 120.682 119.902  1.00  0.00    -0.550 OA
ATOM      5  O   UNL     1      94.957 122.749 118.988  1.00  0.00    -0.550 OA
ENDBRANCH   2   3
ENDBRANCH   1   2
BRANCH   1   6
ATOM      6  C   UNL     1      93.615 122.967 122.658  1.00  0.00     0.000 C 
BRANCH   6   7
ATOM      7  C   UNL     1      93.196 122.972 124.140  1.00  0.00    -0.000 C 
BRANCH   7   8
ATOM      8  C   UNL     1      94.361 122.892 125.142  1.00  0.00    -0.003 C 
ATOM      9  C   UNL     1      95.474 123.898 124.847  1.00  0.00     0.004 C 
ENDBRANCH   7   8
ENDBRANCH   6   7
ENDBRANCH   1   6
TORSDOF 5
ENDMDL
MODEL 6
REMARK VINA RESULT:    -4.554      3.069      4.911
REMARK INTER + INTRA:          -6.047
REMARK INTER:                  -5.787
REMARK INTRA:                  -0.260
REMARK UNBOUND:                -0.162
REMARK SMILES CCCCCCC(=O)[O-]
REMARK SMILES IDX 5 1 6 2 7 3 8 4 9 5 4 6 3 7 2 8 1 9
REMARK H PARENT
REMARK Flexibility Score: inf
ROOT
ATOM      1  C   UNL     1      92.508 122.584 118.909  1.00  0.00     0.006 C 
ENDROOT
BRANCH   1   2
ATOM      2  C   UNL     1      91.996 121.493 117.963  1.00  0.00     0.053 C 
BRANCH   2   3
ATOM      3  C   UNL     1      92.354 121.817 116.547  1.00  0.00     0.041 C 
ATOM      4  O   UNL     1      92.883 120.943 115.812  1.00  0.00    -0.550 OA
ATOM      5  O   UNL     1      92.059 123.070 116.025  1.00  0.00    -0.550 OA
ENDBRANCH   2   3
ENDBRANCH   1   2
BRANCH   1   6
ATOM      6  C   UNL     1      94.038 122.530 119.031  1.00  0.00     0.000 C 
BRANCH   6   7
ATOM      7  C   UNL     1      94.513 122.176 120.452  1.00  0.00    -0.000 C 
BRANCH   7   8
ATOM      8  C   UNL     1      93.385 121.942 121.472  1.00  0.00    -0.003 C 
ATOM      9  C   UNL     1      93.393 122.956 122.616  1.00  0.00     0.004 C 
ENDBRANCH   7   8
ENDBRANCH   6   7
ENDBRANCH   1   6
TORSDOF 5
ENDMDL
MODEL 7
REMARK VINA RESULT:    -4.553      2.375      5.139
REMARK INTER + INTRA:          -6.046
REMARK INTER:                  -5.882
REMARK INTRA:                  -0.164
REMARK UNBOUND:                -0.162
REMARK SMILES CCCCCCC(=O)[O-]
REMARK SMILES IDX 5 1 6 2 7 3 8 4 9 5 4 6 3 7 2 8 1 9
REMARK H PARENT
REMARK Flexibility Score: inf
ROOT
ATOM      1  C   UNL     1      94.141 122.249 120.475  1.00  0.00     0.006 C 
ENDROOT
BRANCH   1   2
ATOM      2  C   UNL     1      93.844 121.505 119.168  1.00  0.00     0.053 C 
BRANCH   2   3
ATOM      3  C   UNL     1      92.808 122.236 118.373  1.00  0.00     0.041 C 
ATOM      4  O   UNL     1      93.014 123.421 118.003  1.00  0.00    -0.550 OA
ATOM      5  O   UNL     1      91.637 121.591 118.000  1.00  0.00    -0.550 OA
ENDBRANCH   2   3
ENDBRANCH   1   2
BRANCH   1   6
ATOM      6  C   UNL     1      92.863 122.420 121.310  1.00  0.00     0.000 C 
BRANCH   6   7
ATOM      7  C   UNL     1      93.114 122.282 122.823  1.00  0.00    -0.000 C 
BRANCH   7   8
ATOM      8  C   UNL     1      93.338 123.612 123.565  1.00  0.00    -0.003 C 
ATOM      9  C   UNL     1      94.558 123.584 124.486  1.00  0.00     0.004 C 
ENDBRANCH   7   8
ENDBRANCH   6   7
ENDBRANCH   1   6
TORSDOF 5
ENDMDL
MODEL 8
REMARK VINA RESULT:    -4.513      4.314      6.076
REMARK INTER + INTRA:          -5.994
REMARK INTER:                  -5.816
REMARK INTRA:                  -0.179
REMARK UNBOUND:                -0.162
REMARK SMILES CCCCCCC(=O)[O-]
REMARK SMILES IDX 5 1 6 2 7 3 8 4 9 5 4 6 3 7 2 8 1 9
REMARK H PARENT
REMARK Flexibility Score: inf
ROOT
ATOM      1  C   UNL     1      95.120 122.788 125.492  1.00  0.00     0.006 C 
ENDROOT
BRANCH   1   2
ATOM      2  C   UNL     1      96.021 123.743 124.703  1.00  0.00     0.053 C 
BRANCH   2   3
ATOM      3  C   UNL     1      97.156 124.216 125.555  1.00  0.00     0.041 C 
ATOM      4  O   UNL     1      97.322 125.446 125.765  1.00  0.00    -0.550 OA
ATOM      5  O   UNL     1      98.004 123.295 126.157  1.00  0.00    -0.550 OA
ENDBRANCH   2   3
ENDBRANCH   1   2
BRANCH   1   6
ATOM      6  C   UNL     1      93.672 122.855 124.985  1.00  0.00     0.000 C 
BRANCH   6   7
ATOM      7  C   UNL     1      93.573 123.293 123.512  1.00  0.00    -0.000 C 
BRANCH   7   8
ATOM      8  C   UNL     1      92.999 122.231 122.558  1.00  0.00    -0.003 C 
ATOM      9  C   UNL     1      93.504 122.380 121.123  1.00  0.00     0.004 C 
ENDBRANCH   7   8
ENDBRANCH   6   7
ENDBRANCH   1   6
TORSDOF 5
ENDMDL
MODEL 9
REMARK VINA RESULT:    -4.191      3.899      6.900
REMARK INTER + INTRA:          -5.578
REMARK INTER:                  -5.475
REMARK INTRA:                  -0.103
REMARK UNBOUND:                -0.162
REMARK SMILES CCCCCCC(=O)[O-]
REMARK SMILES IDX 5 1 6 2 7 3 8 4 9 5 4 6 3 7 2 8 1 9
REMARK H PARENT
REMARK Flexibility Score: inf
ROOT
ATOM      1  C   UNL     1      93.907 123.051 124.433  1.00  0.00     0.006 C 
ENDROOT
BRANCH   1   2
ATOM      2  C   UNL     1      93.219 123.569 123.165  1.00  0.00     0.053 C 
BRANCH   2   3
ATOM      3  C   UNL     1      93.331 122.565 122.062  1.00  0.00     0.041 C 
ATOM      4  O   UNL     1      92.418 121.717 121.882  1.00  0.00    -0.550 OA
ATOM      5  O   UNL     1      94.420 122.598 121.201  1.00  0.00    -0.550 OA
ENDBRANCH   2   3
ENDBRANCH   1   2
BRANCH   1   6
ATOM      6  C   UNL     1      95.410 123.366 124.408  1.00  0.00     0.000 C 
BRANCH   6   7
ATOM      7  C   UNL     1      96.043 123.377 125.812  1.00  0.00    -0.000 C 
BRANCH   7   8
ATOM      8  C   UNL     1      97.455 123.986 125.880  1.00  0.00    -0.003 C 
ATOM      9  C   UNL     1      97.447 125.514 125.885  1.00  0.00     0.004 C 
ENDBRANCH   7   8
ENDBRANCH   6   7
ENDBRANCH   1   6
TORSDOF 5
ENDMDL
