MODEL 1
REMARK VINA RESULT:    12.158      0.000      0.000
REMARK INTER + INTRA:          13.031
REMARK INTER:                  13.225
REMARK INTRA:                  -0.194
REMARK UNBOUND:                -0.194
REMARK SMILES CC1=C2C[C@@H](C(C)(C)O)CC[C@]2(C)CCC1
REMARK SMILES IDX 6 1 7 2 8 3 5 4 1 5 2 6 3 7 16 8 4 9 12 10 15 11 11 12 14 13
REMARK SMILES IDX 13 14 10 15 9 16
REMARK H PARENT 9 17
REMARK Flexibility Score: inf
ROOT
ATOM      1  C   UNL     1     -34.341  25.659   6.701  1.00  0.00     0.062 C 
ATOM      2  C   UNL     1     -33.351  25.370   7.855  1.00  0.00     0.042 C 
ATOM      3  C   UNL     1     -33.524  25.782   5.391  1.00  0.00     0.042 C 
ENDROOT
BRANCH   1   4
ATOM      4  C   UNL     1     -35.413  24.511   6.587  1.00  0.00     0.024 C 
ATOM      5  C   UNL     1     -38.345  24.494   3.472  1.00  0.00     0.039 C 
ATOM      6  C   UNL     1     -38.567  23.713   4.747  1.00  0.00    -0.074 C 
ATOM      7  C   UNL     1     -37.792  23.908   5.863  1.00  0.00    -0.065 C 
ATOM      8  C   UNL     1     -39.605  22.607   4.672  1.00  0.00     0.031 C 
ATOM      9  C   UNL     1     -36.721  24.998   5.913  1.00  0.00     0.038 C 
ATOM     10  C   UNL     1     -38.099  23.194   7.188  1.00  0.00    -0.011 C 
ATOM     11  C   UNL     1     -40.125  22.164   6.033  1.00  0.00     0.005 C 
ATOM     12  C   UNL     1     -36.768  22.757   7.852  1.00  0.00     0.011 C 
ATOM     13  C   UNL     1     -38.953  21.915   6.974  1.00  0.00     0.011 C 
ATOM     14  C   UNL     1     -38.864  24.165   8.125  1.00  0.00     0.016 C 
ATOM     15  C   UNL     1     -35.730  23.881   7.964  1.00  0.00     0.008 C 
ENDBRANCH   1   4
BRANCH   1  16
ATOM     16  O   UNL     1     -35.005  26.877   6.951  1.00  0.00    -0.390 OA
ATOM     17  H   UNL     1     -35.189  27.313   6.077  1.00  0.00     0.211 HD
ENDBRANCH   1  16
TORSDOF 2
ENDMDL
MODEL 2
REMARK VINA RESULT:    12.975      0.718      1.057
REMARK INTER + INTRA:          13.919
REMARK INTER:                  14.170
REMARK INTRA:                  -0.251
REMARK UNBOUND:                -0.194
REMARK SMILES CC1=C2C[C@@H](C(C)(C)O)CC[C@]2(C)CCC1
REMARK SMILES IDX 6 1 7 2 8 3 5 4 1 5 2 6 3 7 16 8 4 9 12 10 15 11 11 12 14 13
REMARK SMILES IDX 13 14 10 15 9 16
REMARK H PARENT 9 17
REMARK Flexibility Score: inf
ROOT
ATOM      1  C   UNL     1     -34.276  25.571   6.655  1.00  0.00     0.062 C 
ATOM      2  C   UNL     1     -34.928  26.947   6.939  1.00  0.00     0.042 C 
ATOM      3  C   UNL     1     -33.254  25.286   7.783  1.00  0.00     0.042 C 
ENDROOT
BRANCH   1   4
ATOM      4  C   UNL     1     -35.369  24.440   6.589  1.00  0.00     0.024 C 
ATOM      5  C   UNL     1     -38.289  24.337   3.464  1.00  0.00     0.039 C 
ATOM      6  C   UNL     1     -38.531  23.619   4.772  1.00  0.00    -0.074 C 
ATOM      7  C   UNL     1     -37.757  23.851   5.882  1.00  0.00    -0.065 C 
ATOM      8  C   UNL     1     -39.590  22.532   4.744  1.00  0.00     0.031 C 
ATOM      9  C   UNL     1     -36.665  24.921   5.887  1.00  0.00     0.038 C 
ATOM     10  C   UNL     1     -38.083  23.205   7.237  1.00  0.00    -0.011 C 
ATOM     11  C   UNL     1     -40.124  22.163   6.121  1.00  0.00     0.005 C 
ATOM     12  C   UNL     1     -36.764  22.773   7.927  1.00  0.00     0.011 C 
ATOM     13  C   UNL     1     -38.962  21.934   7.078  1.00  0.00     0.011 C 
ATOM     14  C   UNL     1     -38.833  24.232   8.124  1.00  0.00     0.016 C 
ATOM     15  C   UNL     1     -35.704  23.881   7.992  1.00  0.00     0.008 C 
ENDBRANCH   1   4
BRANCH   1  16
ATOM     16  O   UNL     1     -33.600  25.624   5.419  1.00  0.00    -0.390 OA
ATOM     17  H   UNL     1     -33.323  24.700   5.179  1.00  0.00     0.211 HD
ENDBRANCH   1  16
TORSDOF 2
ENDMDL
MODEL 3
REMARK VINA RESULT:    14.923      1.477      1.806
REMARK INTER + INTRA:          16.038
REMARK INTER:                  16.269
REMARK INTRA:                  -0.231
REMARK UNBOUND:                -0.194
REMARK SMILES CC1=C2C[C@@H](C(C)(C)O)CC[C@]2(C)CCC1
REMARK SMILES IDX 6 1 7 2 8 3 5 4 1 5 2 6 3 7 16 8 4 9 12 10 15 11 11 12 14 13
REMARK SMILES IDX 13 14 10 15 9 16
REMARK H PARENT 9 17
REMARK Flexibility Score: inf
ROOT
ATOM      1  C   UNL     1     -34.129  26.644   6.714  1.00  0.00     0.062 C 
ATOM      2  C   UNL     1     -33.230  25.934   7.756  1.00  0.00     0.042 C 
ATOM      3  C   UNL     1     -33.237  27.058   5.518  1.00  0.00     0.042 C 
ENDROOT
BRANCH   1   4
ATOM      4  C   UNL     1     -35.293  25.694   6.244  1.00  0.00     0.024 C 
ATOM      5  C   UNL     1     -39.391  26.900   6.472  1.00  0.00     0.039 C 
ATOM      6  C   UNL     1     -39.019  25.436   6.403  1.00  0.00    -0.074 C 
ATOM      7  C   UNL     1     -37.731  25.004   6.602  1.00  0.00    -0.065 C 
ATOM      8  C   UNL     1     -40.124  24.492   5.965  1.00  0.00     0.031 C 
ATOM      9  C   UNL     1     -36.616  25.970   7.003  1.00  0.00     0.038 C 
ATOM     10  C   UNL     1     -37.384  23.508   6.646  1.00  0.00    -0.011 C 
ATOM     11  C   UNL     1     -39.870  23.038   6.340  1.00  0.00     0.005 C 
ATOM     12  C   UNL     1     -36.038  23.275   5.913  1.00  0.00     0.011 C 
ATOM     13  C   UNL     1     -38.458  22.642   5.932  1.00  0.00     0.011 C 
ATOM     14  C   UNL     1     -37.267  23.055   8.124  1.00  0.00     0.016 C 
ATOM     15  C   UNL     1     -34.908  24.202   6.379  1.00  0.00     0.008 C 
ENDBRANCH   1   4
BRANCH   1  16
ATOM     16  O   UNL     1     -34.691  27.799   7.296  1.00  0.00    -0.390 OA
ATOM     17  H   UNL     1     -35.680  27.722   7.238  1.00  0.00     0.211 HD
ENDBRANCH   1  16
TORSDOF 2
ENDMDL
