MODEL 1
REMARK VINA RESULT:    -5.087      0.000      0.000
REMARK INTER + INTRA:          -6.074
REMARK INTER:                  -5.830
REMARK INTRA:                  -0.243
REMARK UNBOUND:                -0.243
REMARK SMILES O=C([O-])C=Cc1ccc(O)cc1
REMARK SMILES IDX 6 1 7 2 12 3 8 4 11 5 9 6 5 7 4 8 2 9 1 10 3 11 10 12
REMARK H PARENT 10 13
REMARK Flexibility Score: inf
ROOT
ATOM      1  C   UNL     1      19.551  23.635  40.165  1.00  0.00    -0.025 A 
ATOM      2  C   UNL     1      19.069  23.686  38.845  1.00  0.00     0.012 A 
ATOM      3  C   UNL     1      20.421  22.600  40.538  1.00  0.00     0.012 A 
ATOM      4  C   UNL     1      19.495  22.745  37.902  1.00  0.00     0.047 A 
ATOM      5  C   UNL     1      20.846  21.659  39.594  1.00  0.00     0.047 A 
ATOM      6  C   UNL     1      20.388  21.731  38.275  1.00  0.00     0.115 A 
ENDROOT
BRANCH   1   7
ATOM      7  C   UNL     1      19.075  24.584  41.192  1.00  0.00     0.010 C 
ATOM      8  C   UNL     1      19.404  25.883  41.260  1.00  0.00     0.025 C 
BRANCH   8   9
ATOM      9  C   UNL     1      20.440  26.548  40.448  1.00  0.00     0.064 C 
ATOM     10  O   UNL     1      21.648  26.445  40.785  1.00  0.00    -0.545 OA
ATOM     11  O   UNL     1      20.120  27.227  39.277  1.00  0.00    -0.545 OA
ENDBRANCH   8   9
ENDBRANCH   1   7
BRANCH   6  12
ATOM     12  O   UNL     1      20.820  20.788  37.344  1.00  0.00    -0.508 OA
ATOM     13  H   UNL     1      20.291  20.595  36.502  1.00  0.00     0.293 HD
ENDBRANCH   6  12
TORSDOF 3
ENDMDL
MODEL 2
REMARK VINA RESULT:    -4.906      2.444      3.184
REMARK INTER + INTRA:          -5.866
REMARK INTER:                  -5.618
REMARK INTRA:                  -0.248
REMARK UNBOUND:                -0.243
REMARK SMILES O=C([O-])C=Cc1ccc(O)cc1
REMARK SMILES IDX 6 1 7 2 12 3 8 4 11 5 9 6 5 7 4 8 2 9 1 10 3 11 10 12
REMARK H PARENT 10 13
REMARK Flexibility Score: inf
ROOT
ATOM      1  C   UNL     1      19.737  23.622  39.969  1.00  0.00    -0.025 A 
ATOM      2  C   UNL     1      20.579  22.577  40.390  1.00  0.00     0.012 A 
ATOM      3  C   UNL     1      19.270  23.636  38.647  1.00  0.00     0.012 A 
ATOM      4  C   UNL     1      20.903  21.537  39.513  1.00  0.00     0.047 A 
ATOM      5  C   UNL     1      19.594  22.596  37.771  1.00  0.00     0.047 A 
ATOM      6  C   UNL     1      20.407  21.542  38.202  1.00  0.00     0.115 A 
ENDROOT
BRANCH   1   7
ATOM      7  C   UNL     1      19.426  24.760  40.859  1.00  0.00     0.010 C 
ATOM      8  C   UNL     1      18.606  24.713  41.921  1.00  0.00     0.025 C 
BRANCH   8   9
ATOM      9  C   UNL     1      17.729  23.582  42.276  1.00  0.00     0.064 C 
ATOM     10  O   UNL     1      16.621  23.454  41.692  1.00  0.00    -0.545 OA
ATOM     11  O   UNL     1      18.127  22.612  43.190  1.00  0.00    -0.545 OA
ENDBRANCH   8   9
ENDBRANCH   1   7
BRANCH   6  12
ATOM     12  O   UNL     1      20.722  20.511  37.319  1.00  0.00    -0.508 OA
ATOM     13  H   UNL     1      21.499  20.587  36.673  1.00  0.00     0.293 HD
ENDBRANCH   6  12
TORSDOF 3
ENDMDL
MODEL 3
REMARK VINA RESULT:    -4.838      2.204      5.181
REMARK INTER + INTRA:          -5.788
REMARK INTER:                  -5.651
REMARK INTRA:                  -0.137
REMARK UNBOUND:                -0.243
REMARK SMILES O=C([O-])C=Cc1ccc(O)cc1
REMARK SMILES IDX 6 1 7 2 12 3 8 4 11 5 9 6 5 7 4 8 2 9 1 10 3 11 10 12
REMARK H PARENT 10 13
REMARK Flexibility Score: inf
ROOT
ATOM      1  C   UNL     1      19.982  25.381  40.486  1.00  0.00    -0.025 A 
ATOM      2  C   UNL     1      18.962  25.568  41.436  1.00  0.00     0.012 A 
ATOM      3  C   UNL     1      21.164  26.129  40.593  1.00  0.00     0.012 A 
ATOM      4  C   UNL     1      19.145  26.452  42.503  1.00  0.00     0.047 A 
ATOM      5  C   UNL     1      21.346  27.013  41.661  1.00  0.00     0.047 A 
ATOM      6  C   UNL     1      20.341  27.174  42.620  1.00  0.00     0.115 A 
ENDROOT
BRANCH   1   7
ATOM      7  C   UNL     1      19.790  24.493  39.321  1.00  0.00     0.010 C 
ATOM      8  C   UNL     1      19.877  23.154  39.342  1.00  0.00     0.025 C 
BRANCH   8   9
ATOM      9  C   UNL     1      20.361  22.345  40.476  1.00  0.00     0.064 C 
ATOM     10  O   UNL     1      21.461  21.742  40.377  1.00  0.00    -0.545 OA
ATOM     11  O   UNL     1      19.666  22.291  41.679  1.00  0.00    -0.545 OA
ENDBRANCH   8   9
ENDBRANCH   1   7
BRANCH   6  12
ATOM     12  O   UNL     1      20.537  28.058  43.679  1.00  0.00    -0.508 OA
ATOM     13  H   UNL     1      20.951  27.754  44.553  1.00  0.00     0.293 HD
ENDBRANCH   6  12
TORSDOF 3
ENDMDL
MODEL 4
REMARK VINA RESULT:    -4.662      1.642      4.693
REMARK INTER + INTRA:          -5.586
REMARK INTER:                  -5.365
REMARK INTRA:                  -0.222
REMARK UNBOUND:                -0.243
REMARK SMILES O=C([O-])C=Cc1ccc(O)cc1
REMARK SMILES IDX 6 1 7 2 12 3 8 4 11 5 9 6 5 7 4 8 2 9 1 10 3 11 10 12
REMARK H PARENT 10 13
REMARK Flexibility Score: inf
ROOT
ATOM      1  C   UNL     1      20.050  23.524  40.373  1.00  0.00    -0.025 A 
ATOM      2  C   UNL     1      20.764  24.712  40.135  1.00  0.00     0.012 A 
ATOM      3  C   UNL     1      18.933  23.554  41.221  1.00  0.00     0.012 A 
ATOM      4  C   UNL     1      20.334  25.918  40.697  1.00  0.00     0.047 A 
ATOM      5  C   UNL     1      18.503  24.761  41.782  1.00  0.00     0.047 A 
ATOM      6  C   UNL     1      19.199  25.945  41.519  1.00  0.00     0.115 A 
ENDROOT
BRANCH   1   7
ATOM      7  C   UNL     1      20.516  22.230  39.835  1.00  0.00     0.010 C 
ATOM      8  C   UNL     1      20.399  21.832  38.559  1.00  0.00     0.025 C 
BRANCH   8   9
ATOM      9  C   UNL     1      19.623  22.525  37.513  1.00  0.00     0.064 C 
ATOM     10  O   UNL     1      20.213  22.945  36.485  1.00  0.00    -0.545 OA
ATOM     11  O   UNL     1      18.243  22.662  37.605  1.00  0.00    -0.545 OA
ENDBRANCH   8   9
ENDBRANCH   1   7
BRANCH   6  12
ATOM     12  O   UNL     1      18.759  27.141  42.084  1.00  0.00    -0.508 OA
ATOM     13  H   UNL     1      19.400  27.902  42.278  1.00  0.00     0.293 HD
ENDBRANCH   6  12
TORSDOF 3
ENDMDL
MODEL 5
REMARK VINA RESULT:    -4.645      2.639      4.949
REMARK INTER + INTRA:          -5.567
REMARK INTER:                  -5.273
REMARK INTRA:                  -0.293
REMARK UNBOUND:                -0.243
REMARK SMILES O=C([O-])C=Cc1ccc(O)cc1
REMARK SMILES IDX 6 1 7 2 12 3 8 4 11 5 9 6 5 7 4 8 2 9 1 10 3 11 10 12
REMARK H PARENT 10 13
REMARK Flexibility Score: inf
ROOT
ATOM      1  C   UNL     1      20.045  25.358  40.448  1.00  0.00    -0.025 A 
ATOM      2  C   UNL     1      21.172  26.193  40.562  1.00  0.00     0.012 A 
ATOM      3  C   UNL     1      19.062  25.394  41.447  1.00  0.00     0.012 A 
ATOM      4  C   UNL     1      21.283  27.085  41.633  1.00  0.00     0.047 A 
ATOM      5  C   UNL     1      19.174  26.286  42.519  1.00  0.00     0.047 A 
ATOM      6  C   UNL     1      20.281  27.135  42.612  1.00  0.00     0.115 A 
ENDROOT
BRANCH   1   7
ATOM      7  C   UNL     1      19.932  24.371  39.355  1.00  0.00     0.010 C 
ATOM      8  C   UNL     1      19.443  24.620  38.131  1.00  0.00     0.025 C 
BRANCH   8   9
ATOM      9  C   UNL     1      18.760  25.861  37.718  1.00  0.00     0.064 C 
ATOM     10  O   UNL     1      17.503  25.912  37.748  1.00  0.00    -0.545 OA
ATOM     11  O   UNL     1      19.475  26.999  37.363  1.00  0.00    -0.545 OA
ENDBRANCH   8   9
ENDBRANCH   1   7
BRANCH   6  12
ATOM     12  O   UNL     1      20.380  28.020  43.684  1.00  0.00    -0.508 OA
ATOM     13  H   UNL     1      20.618  28.996  43.545  1.00  0.00     0.293 HD
ENDBRANCH   6  12
TORSDOF 3
ENDMDL
MODEL 6
REMARK VINA RESULT:    -4.612      2.082      2.853
REMARK INTER + INTRA:          -5.530
REMARK INTER:                  -5.250
REMARK INTRA:                  -0.279
REMARK UNBOUND:                -0.243
REMARK SMILES O=C([O-])C=Cc1ccc(O)cc1
REMARK SMILES IDX 6 1 7 2 12 3 8 4 11 5 9 6 5 7 4 8 2 9 1 10 3 11 10 12
REMARK H PARENT 10 13
REMARK Flexibility Score: inf
ROOT
ATOM      1  C   UNL     1      18.661  24.392  41.215  1.00  0.00    -0.025 A 
ATOM      2  C   UNL     1      18.772  23.202  41.956  1.00  0.00     0.012 A 
ATOM      3  C   UNL     1      19.553  24.627  40.158  1.00  0.00     0.012 A 
ATOM      4  C   UNL     1      19.726  22.242  41.608  1.00  0.00     0.047 A 
ATOM      5  C   UNL     1      20.507  23.666  39.811  1.00  0.00     0.047 A 
ATOM      6  C   UNL     1      20.594  22.470  40.531  1.00  0.00     0.115 A 
ENDROOT
BRANCH   1   7
ATOM      7  C   UNL     1      17.698  25.445  41.597  1.00  0.00     0.010 C 
ATOM      8  C   UNL     1      17.957  26.473  42.419  1.00  0.00     0.025 C 
BRANCH   8   9
ATOM      9  C   UNL     1      19.176  26.633  43.233  1.00  0.00     0.064 C 
ATOM     10  O   UNL     1      19.159  26.290  44.444  1.00  0.00    -0.545 OA
ATOM     11  O   UNL     1      20.367  27.086  42.676  1.00  0.00    -0.545 OA
ENDBRANCH   8   9
ENDBRANCH   1   7
BRANCH   6  12
ATOM     12  O   UNL     1      21.549  21.520  40.174  1.00  0.00    -0.508 OA
ATOM     13  H   UNL     1      22.159  21.658  39.376  1.00  0.00     0.293 HD
ENDBRANCH   6  12
TORSDOF 3
ENDMDL
MODEL 7
REMARK VINA RESULT:    -4.537      4.493      7.151
REMARK INTER + INTRA:          -5.443
REMARK INTER:                  -5.163
REMARK INTRA:                  -0.280
REMARK UNBOUND:                -0.243
REMARK SMILES O=C([O-])C=Cc1ccc(O)cc1
REMARK SMILES IDX 6 1 7 2 12 3 8 4 11 5 9 6 5 7 4 8 2 9 1 10 3 11 10 12
REMARK H PARENT 10 13
REMARK Flexibility Score: inf
ROOT
ATOM      1  C   UNL     1      18.321  26.284  44.532  1.00  0.00    -0.025 A 
ATOM      2  C   UNL     1      19.622  26.704  44.201  1.00  0.00     0.012 A 
ATOM      3  C   UNL     1      17.498  27.133  45.286  1.00  0.00     0.012 A 
ATOM      4  C   UNL     1      20.069  27.975  44.575  1.00  0.00     0.047 A 
ATOM      5  C   UNL     1      17.946  28.404  45.660  1.00  0.00     0.047 A 
ATOM      6  C   UNL     1      19.230  28.830  45.302  1.00  0.00     0.115 A 
ENDROOT
BRANCH   1   7
ATOM      7  C   UNL     1      17.846  24.926  44.196  1.00  0.00     0.010 C 
ATOM      8  C   UNL     1      17.373  24.544  43.000  1.00  0.00     0.025 C 
BRANCH   8   9
ATOM      9  C   UNL     1      17.065  25.444  41.873  1.00  0.00     0.064 C 
ATOM     10  O   UNL     1      17.937  25.646  40.989  1.00  0.00    -0.545 OA
ATOM     11  O   UNL     1      15.808  26.019  41.726  1.00  0.00    -0.545 OA
ENDBRANCH   8   9
ENDBRANCH   1   7
BRANCH   6  12
ATOM     12  O   UNL     1      19.663  30.099  45.680  1.00  0.00    -0.508 OA
ATOM     13  H   UNL     1      20.592  30.251  46.057  1.00  0.00     0.293 HD
ENDBRANCH   6  12
TORSDOF 3
ENDMDL
MODEL 8
REMARK VINA RESULT:    -4.465      2.987      5.713
REMARK INTER + INTRA:          -5.361
REMARK INTER:                  -5.110
REMARK INTRA:                  -0.251
REMARK UNBOUND:                -0.243
REMARK SMILES O=C([O-])C=Cc1ccc(O)cc1
REMARK SMILES IDX 6 1 7 2 12 3 8 4 11 5 9 6 5 7 4 8 2 9 1 10 3 11 10 12
REMARK H PARENT 10 13
REMARK Flexibility Score: inf
ROOT
ATOM      1  C   UNL     1      19.308  26.822  41.736  1.00  0.00    -0.025 A 
ATOM      2  C   UNL     1      17.945  26.797  42.084  1.00  0.00     0.012 A 
ATOM      3  C   UNL     1      20.268  27.020  42.739  1.00  0.00     0.012 A 
ATOM      4  C   UNL     1      17.557  26.916  43.421  1.00  0.00     0.047 A 
ATOM      5  C   UNL     1      19.878  27.138  44.077  1.00  0.00     0.047 A 
ATOM      6  C   UNL     1      18.524  27.083  44.422  1.00  0.00     0.115 A 
ENDROOT
BRANCH   1   7
ATOM      7  C   UNL     1      19.739  26.753  40.325  1.00  0.00     0.010 C 
ATOM      8  C   UNL     1      19.731  25.648  39.564  1.00  0.00     0.025 C 
BRANCH   8   9
ATOM      9  C   UNL     1      19.474  24.278  40.046  1.00  0.00     0.064 C 
ATOM     10  O   UNL     1      20.441  23.563  40.416  1.00  0.00    -0.545 OA
ATOM     11  O   UNL     1      18.180  23.782  40.168  1.00  0.00    -0.545 OA
ENDBRANCH   8   9
ENDBRANCH   1   7
BRANCH   6  12
ATOM     12  O   UNL     1      18.150  27.202  45.759  1.00  0.00    -0.508 OA
ATOM     13  H   UNL     1      17.199  27.432  46.024  1.00  0.00     0.293 HD
ENDBRANCH   6  12
TORSDOF 3
ENDMDL
MODEL 9
REMARK VINA RESULT:    -4.421      4.278      6.474
REMARK INTER + INTRA:          -5.311
REMARK INTER:                  -5.030
REMARK INTRA:                  -0.280
REMARK UNBOUND:                -0.243
REMARK SMILES O=C([O-])C=Cc1ccc(O)cc1
REMARK SMILES IDX 6 1 7 2 12 3 8 4 11 5 9 6 5 7 4 8 2 9 1 10 3 11 10 12
REMARK H PARENT 10 13
REMARK Flexibility Score: inf
ROOT
ATOM      1  C   UNL     1      17.735  25.646  43.003  1.00  0.00    -0.025 A 
ATOM      2  C   UNL     1      17.309  26.235  44.208  1.00  0.00     0.012 A 
ATOM      3  C   UNL     1      18.964  26.032  42.449  1.00  0.00     0.012 A 
ATOM      4  C   UNL     1      18.126  27.156  44.870  1.00  0.00     0.047 A 
ATOM      5  C   UNL     1      19.781  26.953  43.112  1.00  0.00     0.047 A 
ATOM      6  C   UNL     1      19.367  27.514  44.325  1.00  0.00     0.115 A 
ENDROOT
BRANCH   1   7
ATOM      7  C   UNL     1      16.865  24.713  42.258  1.00  0.00     0.010 C 
ATOM      8  C   UNL     1      16.903  23.375  42.352  1.00  0.00     0.025 C 
BRANCH   8   9
ATOM      9  C   UNL     1      17.934  22.595  43.062  1.00  0.00     0.064 C 
ATOM     10  O   UNL     1      18.948  22.197  42.432  1.00  0.00    -0.545 OA
ATOM     11  O   UNL     1      17.846  22.349  44.428  1.00  0.00    -0.545 OA
ENDBRANCH   8   9
ENDBRANCH   1   7
BRANCH   6  12
ATOM     12  O   UNL     1      20.192  28.430  44.975  1.00  0.00    -0.508 OA
ATOM     13  H   UNL     1      20.348  29.359  44.601  1.00  0.00     0.293 HD
ENDBRANCH   6  12
TORSDOF 3
ENDMDL
