MODEL 1
REMARK VINA RESULT:    -4.341      0.000      0.000
REMARK INTER + INTRA:          -9.383
REMARK INTER:                  -7.640
REMARK INTRA:                  -1.743
REMARK UNBOUND:                -1.743
REMARK SMILES CCCCCCCCCCCCCCC(=O)[O-]
REMARK SMILES IDX 9 1 10 2 11 3 12 4 13 5 14 6 15 7 16 8 17 9 8 10 7 11 6 12
REMARK SMILES IDX 5 13 4 14 3 15 2 16 1 17
REMARK H PARENT
REMARK Flexibility Score: inf
ROOT
ATOM      1  C   UNL     1     -23.017 -13.745 -19.426  1.00  0.00     0.000 C 
ENDROOT
BRANCH   1   2
ATOM      2  C   UNL     1     -21.839 -13.575 -20.401  1.00  0.00     0.000 C 
BRANCH   2   3
ATOM      3  C   UNL     1     -21.274 -12.146 -20.398  1.00  0.00     0.000 C 
BRANCH   3   4
ATOM      4  C   UNL     1     -20.030 -12.006 -19.501  1.00  0.00     0.000 C 
BRANCH   4   5
ATOM      5  C   UNL     1     -19.181 -13.286 -19.467  1.00  0.00     0.006 C 
BRANCH   5   6
ATOM      6  C   UNL     1     -18.808 -13.708 -18.040  1.00  0.00     0.053 C 
BRANCH   6   7
ATOM      7  C   UNL     1     -18.408 -15.149 -18.010  1.00  0.00     0.041 C 
ATOM      8  O   UNL     1     -17.352 -15.526 -18.582  1.00  0.00    -0.550 OA
ATOM      9  O   UNL     1     -19.227 -16.086 -17.391  1.00  0.00    -0.550 OA
ENDBRANCH   6   7
ENDBRANCH   5   6
ENDBRANCH   4   5
ENDBRANCH   3   4
ENDBRANCH   2   3
ENDBRANCH   1   2
BRANCH   1  10
ATOM     10  C   UNL     1     -22.661 -14.616 -18.212  1.00  0.00     0.000 C 
BRANCH  10  11
ATOM     11  C   UNL     1     -22.135 -13.790 -17.026  1.00  0.00    -0.000 C 
BRANCH  11  12
ATOM     12  C   UNL     1     -22.736 -12.375 -16.972  1.00  0.00    -0.000 C 
BRANCH  12  13
ATOM     13  C   UNL     1     -23.436 -12.049 -15.635  1.00  0.00    -0.000 C 
BRANCH  13  14
ATOM     14  C   UNL     1     -23.377 -13.224 -14.648  1.00  0.00    -0.000 C 
BRANCH  14  15
ATOM     15  C   UNL     1     -24.744 -13.459 -13.991  1.00  0.00    -0.000 C 
BRANCH  15  16
ATOM     16  C   UNL     1     -25.235 -14.906 -14.153  1.00  0.00    -0.003 C 
ATOM     17  C   UNL     1     -24.114 -15.871 -14.536  1.00  0.00     0.004 C 
ENDBRANCH  15  16
ENDBRANCH  14  15
ENDBRANCH  13  14
ENDBRANCH  12  13
ENDBRANCH  11  12
ENDBRANCH  10  11
ENDBRANCH   1  10
TORSDOF 13
ENDMDL
MODEL 2
REMARK VINA RESULT:    -4.181      2.712      5.802
REMARK INTER + INTRA:          -9.101
REMARK INTER:                  -7.177
REMARK INTRA:                  -1.924
REMARK UNBOUND:                -1.743
REMARK SMILES CCCCCCCCCCCCCCC(=O)[O-]
REMARK SMILES IDX 9 1 10 2 11 3 12 4 13 5 14 6 15 7 16 8 17 9 8 10 7 11 6 12
REMARK SMILES IDX 5 13 4 14 3 15 2 16 1 17
REMARK H PARENT
REMARK Flexibility Score: inf
ROOT
ATOM      1  C   UNL     1     -22.990 -14.085 -18.564  1.00  0.00     0.000 C 
ENDROOT
BRANCH   1   2
ATOM      2  C   UNL     1     -22.791 -12.860 -17.655  1.00  0.00     0.000 C 
BRANCH   2   3
ATOM      3  C   UNL     1     -22.396 -13.249 -16.221  1.00  0.00     0.000 C 
BRANCH   3   4
ATOM      4  C   UNL     1     -23.319 -12.618 -15.163  1.00  0.00     0.000 C 
BRANCH   4   5
ATOM      5  C   UNL     1     -24.163 -13.663 -14.417  1.00  0.00     0.006 C 
BRANCH   5   6
ATOM      6  C   UNL     1     -23.723 -15.101 -14.721  1.00  0.00     0.053 C 
BRANCH   6   7
ATOM      7  C   UNL     1     -24.797 -16.067 -14.333  1.00  0.00     0.041 C 
ATOM      8  O   UNL     1     -25.440 -15.904 -13.263  1.00  0.00    -0.550 OA
ATOM      9  O   UNL     1     -25.056 -17.176 -15.128  1.00  0.00    -0.550 OA
ENDBRANCH   6   7
ENDBRANCH   5   6
ENDBRANCH   4   5
ENDBRANCH   3   4
ENDBRANCH   2   3
ENDBRANCH   1   2
BRANCH   1  10
ATOM     10  C   UNL     1     -22.751 -13.767 -20.048  1.00  0.00     0.000 C 
BRANCH  10  11
ATOM     11  C   UNL     1     -21.839 -12.547 -20.250  1.00  0.00    -0.000 C 
BRANCH  11  12
ATOM     12  C   UNL     1     -20.583 -12.871 -21.078  1.00  0.00    -0.000 C 
BRANCH  12  13
ATOM     13  C   UNL     1     -19.379 -13.327 -20.227  1.00  0.00    -0.000 C 
BRANCH  13  14
ATOM     14  C   UNL     1     -19.352 -12.648 -18.849  1.00  0.00    -0.000 C 
BRANCH  14  15
ATOM     15  C   UNL     1     -19.083 -13.671 -17.737  1.00  0.00    -0.000 C 
BRANCH  15  16
ATOM     16  C   UNL     1     -19.148 -15.121 -18.241  1.00  0.00    -0.003 C 
ATOM     17  C   UNL     1     -20.061 -16.003 -17.390  1.00  0.00     0.004 C 
ENDBRANCH  15  16
ENDBRANCH  14  15
ENDBRANCH  13  14
ENDBRANCH  12  13
ENDBRANCH  11  12
ENDBRANCH  10  11
ENDBRANCH   1  10
TORSDOF 13
ENDMDL
MODEL 3
REMARK VINA RESULT:    -4.173      2.653      5.324
REMARK INTER + INTRA:          -9.087
REMARK INTER:                  -6.875
REMARK INTRA:                  -2.212
REMARK UNBOUND:                -1.743
REMARK SMILES CCCCCCCCCCCCCCC(=O)[O-]
REMARK SMILES IDX 9 1 10 2 11 3 12 4 13 5 14 6 15 7 16 8 17 9 8 10 7 11 6 12
REMARK SMILES IDX 5 13 4 14 3 15 2 16 1 17
REMARK H PARENT
REMARK Flexibility Score: inf
ROOT
ATOM      1  C   UNL     1     -20.374 -11.901 -19.129  1.00  0.00     0.000 C 
ENDROOT
BRANCH   1   2
ATOM      2  C   UNL     1     -21.674 -12.140 -19.918  1.00  0.00     0.000 C 
BRANCH   2   3
ATOM      3  C   UNL     1     -22.843 -12.559 -19.013  1.00  0.00     0.000 C 
BRANCH   3   4
ATOM      4  C   UNL     1     -22.591 -12.224 -17.532  1.00  0.00     0.000 C 
BRANCH   4   5
ATOM      5  C   UNL     1     -22.921 -13.398 -16.597  1.00  0.00     0.006 C 
BRANCH   5   6
ATOM      6  C   UNL     1     -22.820 -13.017 -15.114  1.00  0.00     0.053 C 
BRANCH   6   7
ATOM      7  C   UNL     1     -23.876 -13.721 -14.322  1.00  0.00     0.041 C 
ATOM      8  O   UNL     1     -23.865 -14.976 -14.227  1.00  0.00    -0.550 OA
ATOM      9  O   UNL     1     -24.900 -12.994 -13.728  1.00  0.00    -0.550 OA
ENDBRANCH   6   7
ENDBRANCH   5   6
ENDBRANCH   4   5
ENDBRANCH   3   4
ENDBRANCH   2   3
ENDBRANCH   1   2
BRANCH   1  10
ATOM     10  C   UNL     1     -19.418 -13.103 -19.184  1.00  0.00     0.000 C 
BRANCH  10  11
ATOM     11  C   UNL     1     -19.052 -13.630 -17.786  1.00  0.00    -0.000 C 
BRANCH  11  12
ATOM     12  C   UNL     1     -19.029 -15.166 -17.715  1.00  0.00    -0.000 C 
BRANCH  12  13
ATOM     13  C   UNL     1     -20.409 -15.795 -17.430  1.00  0.00    -0.000 C 
BRANCH  13  14
ATOM     14  C   UNL     1     -20.941 -16.596 -18.628  1.00  0.00    -0.000 C 
BRANCH  14  15
ATOM     15  C   UNL     1     -22.377 -16.181 -18.974  1.00  0.00    -0.000 C 
BRANCH  15  16
ATOM     16  C   UNL     1     -22.587 -15.987 -20.484  1.00  0.00    -0.003 C 
ATOM     17  C   UNL     1     -21.306 -15.588 -21.213  1.00  0.00     0.004 C 
ENDBRANCH  15  16
ENDBRANCH  14  15
ENDBRANCH  13  14
ENDBRANCH  12  13
ENDBRANCH  11  12
ENDBRANCH  10  11
ENDBRANCH   1  10
TORSDOF 13
ENDMDL
MODEL 4
REMARK VINA RESULT:    -4.168      2.471      5.210
REMARK INTER + INTRA:          -9.078
REMARK INTER:                  -7.050
REMARK INTRA:                  -2.028
REMARK UNBOUND:                -1.743
REMARK SMILES CCCCCCCCCCCCCCC(=O)[O-]
REMARK SMILES IDX 9 1 10 2 11 3 12 4 13 5 14 6 15 7 16 8 17 9 8 10 7 11 6 12
REMARK SMILES IDX 5 13 4 14 3 15 2 16 1 17
REMARK H PARENT
REMARK Flexibility Score: inf
ROOT
ATOM      1  C   UNL     1     -21.566 -12.828 -20.586  1.00  0.00     0.000 C 
ENDROOT
BRANCH   1   2
ATOM      2  C   UNL     1     -22.745 -13.793 -20.367  1.00  0.00     0.000 C 
BRANCH   2   3
ATOM      3  C   UNL     1     -23.087 -13.976 -18.880  1.00  0.00     0.000 C 
BRANCH   3   4
ATOM      4  C   UNL     1     -22.854 -12.694 -18.059  1.00  0.00     0.000 C 
BRANCH   4   5
ATOM      5  C   UNL     1     -22.469 -12.989 -16.601  1.00  0.00     0.006 C 
BRANCH   5   6
ATOM      6  C   UNL     1     -23.400 -12.300 -15.595  1.00  0.00     0.053 C 
BRANCH   6   7
ATOM      7  C   UNL     1     -23.889 -13.284 -14.580  1.00  0.00     0.041 C 
ATOM      8  O   UNL     1     -24.750 -12.940 -13.728  1.00  0.00    -0.550 OA
ATOM      9  O   UNL     1     -23.359 -14.568 -14.543  1.00  0.00    -0.550 OA
ENDBRANCH   6   7
ENDBRANCH   5   6
ENDBRANCH   4   5
ENDBRANCH   3   4
ENDBRANCH   2   3
ENDBRANCH   1   2
BRANCH   1  10
ATOM     10  C   UNL     1     -20.307 -13.538 -21.105  1.00  0.00     0.000 C 
BRANCH  10  11
ATOM     11  C   UNL     1     -19.067 -13.245 -20.243  1.00  0.00    -0.000 C 
BRANCH  11  12
ATOM     12  C   UNL     1     -19.425 -12.752 -18.830  1.00  0.00    -0.000 C 
BRANCH  12  13
ATOM     13  C   UNL     1     -18.960 -13.700 -17.705  1.00  0.00    -0.000 C 
BRANCH  13  14
ATOM     14  C   UNL     1     -18.205 -14.922 -18.250  1.00  0.00    -0.000 C 
BRANCH  14  15
ATOM     15  C   UNL     1     -18.878 -16.228 -17.806  1.00  0.00    -0.000 C 
BRANCH  15  16
ATOM     16  C   UNL     1     -20.385 -16.246 -18.101  1.00  0.00    -0.003 C 
ATOM     17  C   UNL     1     -21.231 -16.489 -16.852  1.00  0.00     0.004 C 
ENDBRANCH  15  16
ENDBRANCH  14  15
ENDBRANCH  13  14
ENDBRANCH  12  13
ENDBRANCH  11  12
ENDBRANCH  10  11
ENDBRANCH   1  10
TORSDOF 13
ENDMDL
MODEL 5
REMARK VINA RESULT:    -4.121      2.797      5.916
REMARK INTER + INTRA:          -8.997
REMARK INTER:                  -7.225
REMARK INTRA:                  -1.772
REMARK UNBOUND:                -1.743
REMARK SMILES CCCCCCCCCCCCCCC(=O)[O-]
REMARK SMILES IDX 9 1 10 2 11 3 12 4 13 5 14 6 15 7 16 8 17 9 8 10 7 11 6 12
REMARK SMILES IDX 5 13 4 14 3 15 2 16 1 17
REMARK H PARENT
REMARK Flexibility Score: inf
ROOT
ATOM      1  C   UNL     1     -20.932 -14.979 -17.232  1.00  0.00     0.000 C 
ENDROOT
BRANCH   1   2
ATOM      2  C   UNL     1     -22.260 -14.593 -16.556  1.00  0.00     0.000 C 
BRANCH   2   3
ATOM      3  C   UNL     1     -22.384 -13.079 -16.323  1.00  0.00     0.000 C 
BRANCH   3   4
ATOM      4  C   UNL     1     -23.261 -12.740 -15.104  1.00  0.00     0.000 C 
BRANCH   4   5
ATOM      5  C   UNL     1     -23.602 -13.978 -14.260  1.00  0.00     0.006 C 
BRANCH   5   6
ATOM      6  C   UNL     1     -25.111 -14.136 -14.030  1.00  0.00     0.053 C 
BRANCH   6   7
ATOM      7  C   UNL     1     -25.472 -15.584 -13.918  1.00  0.00     0.041 C 
ATOM      8  O   UNL     1     -24.640 -16.471 -14.244  1.00  0.00    -0.550 OA
ATOM      9  O   UNL     1     -26.743 -15.954 -13.500  1.00  0.00    -0.550 OA
ENDBRANCH   6   7
ENDBRANCH   5   6
ENDBRANCH   4   5
ENDBRANCH   3   4
ENDBRANCH   2   3
ENDBRANCH   1   2
BRANCH   1  10
ATOM     10  C   UNL     1     -19.963 -13.793 -17.354  1.00  0.00     0.000 C 
BRANCH  10  11
ATOM     11  C   UNL     1     -19.636 -13.446 -18.816  1.00  0.00    -0.000 C 
BRANCH  11  12
ATOM     12  C   UNL     1     -20.193 -12.078 -19.244  1.00  0.00    -0.000 C 
BRANCH  12  13
ATOM     13  C   UNL     1     -21.216 -12.158 -20.398  1.00  0.00    -0.000 C 
BRANCH  13  14
ATOM     14  C   UNL     1     -22.509 -12.875 -19.979  1.00  0.00    -0.000 C 
BRANCH  14  15
ATOM     15  C   UNL     1     -22.655 -14.217 -20.709  1.00  0.00    -0.000 C 
BRANCH  15  16
ATOM     16  C   UNL     1     -23.475 -15.238 -19.907  1.00  0.00    -0.003 C 
ATOM     17  C   UNL     1     -22.884 -16.646 -19.961  1.00  0.00     0.004 C 
ENDBRANCH  15  16
ENDBRANCH  14  15
ENDBRANCH  13  14
ENDBRANCH  12  13
ENDBRANCH  11  12
ENDBRANCH  10  11
ENDBRANCH   1  10
TORSDOF 13
ENDMDL
MODEL 6
REMARK VINA RESULT:    -4.068      3.309      6.402
REMARK INTER + INTRA:          -8.903
REMARK INTER:                  -7.304
REMARK INTRA:                  -1.599
REMARK UNBOUND:                -1.743
REMARK SMILES CCCCCCCCCCCCCCC(=O)[O-]
REMARK SMILES IDX 9 1 10 2 11 3 12 4 13 5 14 6 15 7 16 8 17 9 8 10 7 11 6 12
REMARK SMILES IDX 5 13 4 14 3 15 2 16 1 17
REMARK H PARENT
REMARK Flexibility Score: inf
ROOT
ATOM      1  C   UNL     1     -23.034 -12.837 -17.237  1.00  0.00     0.000 C 
ENDROOT
BRANCH   1   2
ATOM      2  C   UNL     1     -21.993 -13.198 -16.163  1.00  0.00     0.000 C 
BRANCH   2   3
ATOM      3  C   UNL     1     -22.631 -13.455 -14.788  1.00  0.00     0.000 C 
BRANCH   3   4
ATOM      4  C   UNL     1     -23.962 -12.703 -14.606  1.00  0.00     0.000 C 
BRANCH   4   5
ATOM      5  C   UNL     1     -25.094 -13.617 -14.113  1.00  0.00     0.006 C 
BRANCH   5   6
ATOM      6  C   UNL     1     -24.676 -15.092 -14.051  1.00  0.00     0.053 C 
BRANCH   6   7
ATOM      7  C   UNL     1     -25.774 -15.920 -13.462  1.00  0.00     0.041 C 
ATOM      8  O   UNL     1     -26.977 -15.588 -13.628  1.00  0.00    -0.550 OA
ATOM      9  O   UNL     1     -25.468 -17.033 -12.689  1.00  0.00    -0.550 OA
ENDBRANCH   6   7
ENDBRANCH   5   6
ENDBRANCH   4   5
ENDBRANCH   3   4
ENDBRANCH   2   3
ENDBRANCH   1   2
BRANCH   1  10
ATOM     10  C   UNL     1     -22.472 -11.897 -18.315  1.00  0.00     0.000 C 
BRANCH  10  11
ATOM     11  C   UNL     1     -22.121 -12.635 -19.617  1.00  0.00    -0.000 C 
BRANCH  11  12
ATOM     12  C   UNL     1     -23.014 -13.862 -19.867  1.00  0.00    -0.000 C 
BRANCH  12  13
ATOM     13  C   UNL     1     -22.227 -15.139 -20.233  1.00  0.00    -0.000 C 
BRANCH  13  14
ATOM     14  C   UNL     1     -21.609 -15.814 -18.999  1.00  0.00    -0.000 C 
BRANCH  14  15
ATOM     15  C   UNL     1     -20.079 -15.690 -19.013  1.00  0.00    -0.000 C 
BRANCH  15  16
ATOM     16  C   UNL     1     -19.518 -15.161 -17.685  1.00  0.00    -0.003 C 
ATOM     17  C   UNL     1     -18.832 -13.803 -17.832  1.00  0.00     0.004 C 
ENDBRANCH  15  16
ENDBRANCH  14  15
ENDBRANCH  13  14
ENDBRANCH  12  13
ENDBRANCH  11  12
ENDBRANCH  10  11
ENDBRANCH   1  10
TORSDOF 13
ENDMDL
MODEL 7
REMARK VINA RESULT:    -4.027      2.764      6.031
REMARK INTER + INTRA:          -8.830
REMARK INTER:                  -6.922
REMARK INTRA:                  -1.908
REMARK UNBOUND:                -1.743
REMARK SMILES CCCCCCCCCCCCCCC(=O)[O-]
REMARK SMILES IDX 9 1 10 2 11 3 12 4 13 5 14 6 15 7 16 8 17 9 8 10 7 11 6 12
REMARK SMILES IDX 5 13 4 14 3 15 2 16 1 17
REMARK H PARENT
REMARK Flexibility Score: inf
ROOT
ATOM      1  C   UNL     1     -18.895 -13.711 -19.725  1.00  0.00     0.000 C 
ENDROOT
BRANCH   1   2
ATOM      2  C   UNL     1     -18.601 -13.915 -18.228  1.00  0.00     0.000 C 
BRANCH   2   3
ATOM      3  C   UNL     1     -19.867 -13.821 -17.362  1.00  0.00     0.000 C 
BRANCH   3   4
ATOM      4  C   UNL     1     -20.714 -15.105 -17.415  1.00  0.00     0.000 C 
BRANCH   4   5
ATOM      5  C   UNL     1     -22.053 -14.960 -16.675  1.00  0.00     0.006 C 
BRANCH   5   6
ATOM      6  C   UNL     1     -22.415 -13.496 -16.393  1.00  0.00     0.053 C 
BRANCH   6   7
ATOM      7  C   UNL     1     -23.126 -13.378 -15.082  1.00  0.00     0.041 C 
ATOM      8  O   UNL     1     -23.175 -14.362 -14.298  1.00  0.00    -0.550 OA
ATOM      9  O   UNL     1     -23.776 -12.198 -14.747  1.00  0.00    -0.550 OA
ENDBRANCH   6   7
ENDBRANCH   5   6
ENDBRANCH   4   5
ENDBRANCH   3   4
ENDBRANCH   2   3
ENDBRANCH   1   2
BRANCH   1  10
ATOM     10  C   UNL     1     -19.774 -12.479 -19.994  1.00  0.00     0.000 C 
BRANCH  10  11
ATOM     11  C   UNL     1     -20.970 -12.797 -20.906  1.00  0.00    -0.000 C 
BRANCH  11  12
ATOM     12  C   UNL     1     -22.292 -12.931 -20.131  1.00  0.00    -0.000 C 
BRANCH  12  13
ATOM     13  C   UNL     1     -23.060 -14.235 -20.434  1.00  0.00    -0.000 C 
BRANCH  13  14
ATOM     14  C   UNL     1     -22.115 -15.410 -20.726  1.00  0.00    -0.000 C 
BRANCH  14  15
ATOM     15  C   UNL     1     -22.469 -16.082 -22.060  1.00  0.00    -0.000 C 
BRANCH  15  16
ATOM     16  C   UNL     1     -21.278 -16.135 -23.029  1.00  0.00    -0.003 C 
ATOM     17  C   UNL     1     -21.635 -15.651 -24.433  1.00  0.00     0.004 C 
ENDBRANCH  15  16
ENDBRANCH  14  15
ENDBRANCH  13  14
ENDBRANCH  12  13
ENDBRANCH  11  12
ENDBRANCH  10  11
ENDBRANCH   1  10
TORSDOF 13
ENDMDL
MODEL 8
REMARK VINA RESULT:    -3.935      2.960      5.472
REMARK INTER + INTRA:          -8.668
REMARK INTER:                  -6.542
REMARK INTRA:                  -2.125
REMARK UNBOUND:                -1.743
REMARK SMILES CCCCCCCCCCCCCCC(=O)[O-]
REMARK SMILES IDX 9 1 10 2 11 3 12 4 13 5 14 6 15 7 16 8 17 9 8 10 7 11 6 12
REMARK SMILES IDX 5 13 4 14 3 15 2 16 1 17
REMARK H PARENT
REMARK Flexibility Score: inf
ROOT
ATOM      1  C   UNL     1     -19.658 -12.949 -18.777  1.00  0.00     0.000 C 
ENDROOT
BRANCH   1   2
ATOM      2  C   UNL     1     -19.694 -14.140 -17.803  1.00  0.00     0.000 C 
BRANCH   2   3
ATOM      3  C   UNL     1     -20.980 -14.173 -16.962  1.00  0.00     0.000 C 
BRANCH   3   4
ATOM      4  C   UNL     1     -21.890 -12.960 -17.229  1.00  0.00     0.000 C 
BRANCH   4   5
ATOM      5  C   UNL     1     -22.998 -12.810 -16.175  1.00  0.00     0.006 C 
BRANCH   5   6
ATOM      6  C   UNL     1     -23.232 -14.100 -15.378  1.00  0.00     0.053 C 
BRANCH   6   7
ATOM      7  C   UNL     1     -24.263 -13.878 -14.317  1.00  0.00     0.041 C 
ATOM      8  O   UNL     1     -24.934 -14.846 -13.874  1.00  0.00    -0.550 OA
ATOM      9  O   UNL     1     -24.517 -12.594 -13.852  1.00  0.00    -0.550 OA
ENDBRANCH   6   7
ENDBRANCH   5   6
ENDBRANCH   4   5
ENDBRANCH   3   4
ENDBRANCH   2   3
ENDBRANCH   1   2
BRANCH   1  10
ATOM     10  C   UNL     1     -19.126 -13.335 -20.166  1.00  0.00     0.000 C 
BRANCH  10  11
ATOM     11  C   UNL     1     -20.183 -13.166 -21.270  1.00  0.00    -0.000 C 
BRANCH  11  12
ATOM     12  C   UNL     1     -21.528 -12.646 -20.734  1.00  0.00    -0.000 C 
BRANCH  12  13
ATOM     13  C   UNL     1     -22.630 -13.725 -20.672  1.00  0.00    -0.000 C 
BRANCH  13  14
ATOM     14  C   UNL     1     -22.133 -15.091 -21.169  1.00  0.00    -0.000 C 
BRANCH  14  15
ATOM     15  C   UNL     1     -22.195 -16.139 -20.049  1.00  0.00    -0.000 C 
BRANCH  15  16
ATOM     16  C   UNL     1     -23.392 -15.929 -19.110  1.00  0.00    -0.003 C 
ATOM     17  C   UNL     1     -23.396 -16.899 -17.929  1.00  0.00     0.004 C 
ENDBRANCH  15  16
ENDBRANCH  14  15
ENDBRANCH  13  14
ENDBRANCH  12  13
ENDBRANCH  11  12
ENDBRANCH  10  11
ENDBRANCH   1  10
TORSDOF 13
ENDMDL
MODEL 9
REMARK VINA RESULT:    -3.929      2.758      5.524
REMARK INTER + INTRA:          -8.658
REMARK INTER:                  -6.575
REMARK INTRA:                  -2.084
REMARK UNBOUND:                -1.743
REMARK SMILES CCCCCCCCCCCCCCC(=O)[O-]
REMARK SMILES IDX 9 1 10 2 11 3 12 4 13 5 14 6 15 7 16 8 17 9 8 10 7 11 6 12
REMARK SMILES IDX 5 13 4 14 3 15 2 16 1 17
REMARK H PARENT
REMARK Flexibility Score: inf
ROOT
ATOM      1  C   UNL     1     -22.007 -15.599 -19.950  1.00  0.00     0.000 C 
ENDROOT
BRANCH   1   2
ATOM      2  C   UNL     1     -22.344 -16.751 -18.986  1.00  0.00     0.000 C 
BRANCH   2   3
ATOM      3  C   UNL     1     -23.364 -16.341 -17.913  1.00  0.00     0.000 C 
BRANCH   3   4
ATOM      4  C   UNL     1     -22.730 -16.212 -16.516  1.00  0.00     0.000 C 
BRANCH   4   5
ATOM      5  C   UNL     1     -22.772 -14.773 -15.979  1.00  0.00     0.006 C 
BRANCH   5   6
ATOM      6  C   UNL     1     -23.626 -14.641 -14.711  1.00  0.00     0.053 C 
BRANCH   6   7
ATOM      7  C   UNL     1     -24.021 -13.215 -14.495  1.00  0.00     0.041 C 
ATOM      8  O   UNL     1     -24.913 -12.925 -13.655  1.00  0.00    -0.550 OA
ATOM      9  O   UNL     1     -23.439 -12.208 -15.255  1.00  0.00    -0.550 OA
ENDBRANCH   6   7
ENDBRANCH   5   6
ENDBRANCH   4   5
ENDBRANCH   3   4
ENDBRANCH   2   3
ENDBRANCH   1   2
BRANCH   1  10
ATOM     10  C   UNL     1     -22.998 -14.430 -19.846  1.00  0.00     0.000 C 
BRANCH  10  11
ATOM     11  C   UNL     1     -22.303 -13.059 -19.906  1.00  0.00    -0.000 C 
BRANCH  11  12
ATOM     12  C   UNL     1     -21.360 -12.816 -18.716  1.00  0.00    -0.000 C 
BRANCH  12  13
ATOM     13  C   UNL     1     -19.875 -12.684 -19.118  1.00  0.00    -0.000 C 
BRANCH  13  14
ATOM     14  C   UNL     1     -18.933 -13.284 -18.063  1.00  0.00    -0.000 C 
BRANCH  14  15
ATOM     15  C   UNL     1     -19.522 -14.571 -17.468  1.00  0.00    -0.000 C 
BRANCH  15  16
ATOM     16  C   UNL     1     -18.772 -15.830 -17.930  1.00  0.00    -0.003 C 
ATOM     17  C   UNL     1     -19.097 -17.057 -17.079  1.00  0.00     0.004 C 
ENDBRANCH  15  16
ENDBRANCH  14  15
ENDBRANCH  13  14
ENDBRANCH  12  13
ENDBRANCH  11  12
ENDBRANCH  10  11
ENDBRANCH   1  10
TORSDOF 13
ENDMDL
