MODEL 1
REMARK VINA RESULT:    -6.208      0.000      0.000
REMARK INTER + INTRA:          -7.049
REMARK INTER:                  -6.933
REMARK INTRA:                  -0.115
REMARK UNBOUND:                -0.115
REMARK SMILES COc1cc2ccc(=O)oc2cc1OC
REMARK SMILES IDX 3 1 13 2 12 3 11 4 5 5 4 6 6 7 7 8 8 9 9 10 10 11 2 12 1 13
REMARK SMILES IDX 14 14 15 15
REMARK H PARENT
REMARK Flexibility Score: inf
ROOT
ATOM      1  C   UNL     1       4.512  47.005   9.234  1.00  0.00     0.161 A 
ATOM      2  C   UNL     1       3.206  46.957   8.716  1.00  0.00     0.164 A 
ATOM      3  C   UNL     1       2.260  46.081   9.285  1.00  0.00     0.098 A 
ATOM      4  C   UNL     1       2.612  45.261  10.360  1.00  0.00     0.142 A 
ATOM      5  C   UNL     1       3.921  45.309  10.879  1.00  0.00     0.022 A 
ATOM      6  C   UNL     1       4.865  46.177  10.318  1.00  0.00     0.062 A 
ATOM      7  C   UNL     1       4.242  44.475  11.956  1.00  0.00     0.019 A 
ATOM      8  C   UNL     1       3.267  43.628  12.481  1.00  0.00     0.094 A 
ATOM      9  C   UNL     1       1.989  43.635  11.914  1.00  0.00     0.336 A 
ATOM     10  O   UNL     1       1.094  42.876  12.372  1.00  0.00    -0.246 OA
ATOM     11  O   UNL     1       1.710  44.437  10.890  1.00  0.00    -0.423 OA
ENDROOT
BRANCH   1  12
ATOM     12  O   UNL     1       5.429  47.889   8.642  1.00  0.00    -0.493 OA
ATOM     13  C   UNL     1       6.744  48.132   9.128  1.00  0.00     0.278 C 
ENDBRANCH   1  12
BRANCH   2  14
ATOM     14  O   UNL     1       2.887  47.795   7.635  1.00  0.00    -0.493 OA
ATOM     15  C   UNL     1       1.905  48.824   7.675  1.00  0.00     0.278 C 
ENDBRANCH   2  14
TORSDOF 2
ENDMDL
MODEL 2
REMARK VINA RESULT:    -6.077      1.405      2.856
REMARK INTER + INTRA:          -6.902
REMARK INTER:                  -6.780
REMARK INTRA:                  -0.122
REMARK UNBOUND:                -0.115
REMARK SMILES COc1cc2ccc(=O)oc2cc1OC
REMARK SMILES IDX 3 1 13 2 12 3 11 4 5 5 4 6 6 7 7 8 8 9 9 10 10 11 2 12 1 13
REMARK SMILES IDX 14 14 15 15
REMARK H PARENT
REMARK Flexibility Score: inf
ROOT
ATOM      1  C   UNL     1       2.659  46.911   9.524  1.00  0.00     0.161 A 
ATOM      2  C   UNL     1       4.020  46.585   9.397  1.00  0.00     0.164 A 
ATOM      3  C   UNL     1       4.501  45.373   9.931  1.00  0.00     0.098 A 
ATOM      4  C   UNL     1       3.634  44.494  10.586  1.00  0.00     0.142 A 
ATOM      5  C   UNL     1       2.270  44.821  10.714  1.00  0.00     0.022 A 
ATOM      6  C   UNL     1       1.785  46.024  10.185  1.00  0.00     0.062 A 
ATOM      7  C   UNL     1       1.427  43.921  11.374  1.00  0.00     0.019 A 
ATOM      8  C   UNL     1       1.956  42.735  11.883  1.00  0.00     0.094 A 
ATOM      9  C   UNL     1       3.321  42.478  11.718  1.00  0.00     0.336 A 
ATOM     10  O   UNL     1       3.819  41.414  12.171  1.00  0.00    -0.246 OA
ATOM     11  O   UNL     1       4.100  43.352  11.086  1.00  0.00    -0.423 OA
ENDROOT
BRANCH   1  12
ATOM     12  O   UNL     1       2.214  48.127   8.981  1.00  0.00    -0.493 OA
ATOM     13  C   UNL     1       1.542  48.255   7.733  1.00  0.00     0.278 C 
ENDBRANCH   1  12
BRANCH   2  14
ATOM     14  O   UNL     1       4.862  47.491   8.733  1.00  0.00    -0.493 OA
ATOM     15  C   UNL     1       6.196  47.791   9.128  1.00  0.00     0.278 C 
ENDBRANCH   2  14
TORSDOF 2
ENDMDL
MODEL 3
REMARK VINA RESULT:    -5.629      1.555      5.486
REMARK INTER + INTRA:          -6.402
REMARK INTER:                  -6.269
REMARK INTRA:                  -0.133
REMARK UNBOUND:                -0.115
REMARK SMILES COc1cc2ccc(=O)oc2cc1OC
REMARK SMILES IDX 3 1 13 2 12 3 11 4 5 5 4 6 6 7 7 8 8 9 9 10 10 11 2 12 1 13
REMARK SMILES IDX 14 14 15 15
REMARK H PARENT
REMARK Flexibility Score: inf
ROOT
ATOM      1  C   UNL     1       1.658  45.171  10.550  1.00  0.00     0.161 A 
ATOM      2  C   UNL     1       2.719  44.627  11.295  1.00  0.00     0.164 A 
ATOM      3  C   UNL     1       4.029  45.105  11.096  1.00  0.00     0.098 A 
ATOM      4  C   UNL     1       4.281  46.116  10.164  1.00  0.00     0.142 A 
ATOM      5  C   UNL     1       3.217  46.661   9.417  1.00  0.00     0.022 A 
ATOM      6  C   UNL     1       1.913  46.190   9.610  1.00  0.00     0.062 A 
ATOM      7  C   UNL     1       3.501  47.671   8.492  1.00  0.00     0.019 A 
ATOM      8  C   UNL     1       4.816  48.107   8.336  1.00  0.00     0.094 A 
ATOM      9  C   UNL     1       5.820  47.519   9.112  1.00  0.00     0.336 A 
ATOM     10  O   UNL     1       7.014  47.897   8.986  1.00  0.00    -0.246 OA
ATOM     11  O   UNL     1       5.523  46.560   9.985  1.00  0.00    -0.423 OA
ENDROOT
BRANCH   1  12
ATOM     12  O   UNL     1       0.365  44.670  10.773  1.00  0.00    -0.493 OA
ATOM     13  C   UNL     1      -0.722  45.439  11.278  1.00  0.00     0.278 C 
ENDBRANCH   1  12
BRANCH   2  14
ATOM     14  O   UNL     1       2.430  43.613  12.222  1.00  0.00    -0.493 OA
ATOM     15  C   UNL     1       2.647  42.226  11.994  1.00  0.00     0.278 C 
ENDBRANCH   2  14
TORSDOF 2
ENDMDL
MODEL 4
REMARK VINA RESULT:    -5.573      1.984      5.542
REMARK INTER + INTRA:          -6.339
REMARK INTER:                  -6.226
REMARK INTRA:                  -0.113
REMARK UNBOUND:                -0.115
REMARK SMILES COc1cc2ccc(=O)oc2cc1OC
REMARK SMILES IDX 3 1 13 2 12 3 11 4 5 5 4 6 6 7 7 8 8 9 9 10 10 11 2 12 1 13
REMARK SMILES IDX 14 14 15 15
REMARK H PARENT
REMARK Flexibility Score: inf
ROOT
ATOM      1  C   UNL     1       3.019  42.115  11.788  1.00  0.00     0.161 A 
ATOM      2  C   UNL     1       1.763  42.569  12.226  1.00  0.00     0.164 A 
ATOM      3  C   UNL     1       1.301  43.838  11.826  1.00  0.00     0.098 A 
ATOM      4  C   UNL     1       2.081  44.647  10.996  1.00  0.00     0.142 A 
ATOM      5  C   UNL     1       3.340  44.192  10.557  1.00  0.00     0.022 A 
ATOM      6  C   UNL     1       3.806  42.932  10.951  1.00  0.00     0.062 A 
ATOM      7  C   UNL     1       4.098  45.025   9.727  1.00  0.00     0.019 A 
ATOM      8  C   UNL     1       3.592  46.271   9.361  1.00  0.00     0.094 A 
ATOM      9  C   UNL     1       2.334  46.657   9.836  1.00  0.00     0.336 A 
ATOM     10  O   UNL     1       1.859  47.778   9.518  1.00  0.00    -0.246 OA
ATOM     11  O   UNL     1       1.634  45.845  10.624  1.00  0.00    -0.423 OA
ENDROOT
BRANCH   1  12
ATOM     12  O   UNL     1       3.449  40.845  12.206  1.00  0.00    -0.493 OA
ATOM     13  C   UNL     1       4.668  40.593  12.896  1.00  0.00     0.278 C 
ENDBRANCH   1  12
BRANCH   2  14
ATOM     14  O   UNL     1       1.005  41.730  13.059  1.00  0.00    -0.493 OA
ATOM     15  C   UNL     1      -0.296  42.038  13.545  1.00  0.00     0.278 C 
ENDBRANCH   2  14
TORSDOF 2
ENDMDL
MODEL 5
REMARK VINA RESULT:    -5.543      1.918      2.535
REMARK INTER + INTRA:          -6.306
REMARK INTER:                  -6.193
REMARK INTRA:                  -0.113
REMARK UNBOUND:                -0.115
REMARK SMILES COc1cc2ccc(=O)oc2cc1OC
REMARK SMILES IDX 3 1 13 2 12 3 11 4 5 5 4 6 6 7 7 8 8 9 9 10 10 11 2 12 1 13
REMARK SMILES IDX 14 14 15 15
REMARK H PARENT
REMARK Flexibility Score: inf
ROOT
ATOM      1  C   UNL     1       2.029  46.674   9.234  1.00  0.00     0.161 A 
ATOM      2  C   UNL     1       1.180  45.662   8.754  1.00  0.00     0.164 A 
ATOM      3  C   UNL     1       1.278  44.359   9.280  1.00  0.00     0.098 A 
ATOM      4  C   UNL     1       2.214  44.066  10.277  1.00  0.00     0.142 A 
ATOM      5  C   UNL     1       3.065  45.080  10.758  1.00  0.00     0.022 A 
ATOM      6  C   UNL     1       2.972  46.378  10.239  1.00  0.00     0.062 A 
ATOM      7  C   UNL     1       3.991  44.756  11.755  1.00  0.00     0.019 A 
ATOM      8  C   UNL     1       4.045  43.450  12.241  1.00  0.00     0.094 A 
ATOM      9  C   UNL     1       3.168  42.496  11.715  1.00  0.00     0.336 A 
ATOM     10  O   UNL     1       3.201  41.311  12.139  1.00  0.00    -0.246 OA
ATOM     11  O   UNL     1       2.297  42.831  10.767  1.00  0.00    -0.423 OA
ENDROOT
BRANCH   1  12
ATOM     12  O   UNL     1       1.904  47.961   8.687  1.00  0.00    -0.493 OA
ATOM     13  C   UNL     1       2.717  48.474   7.637  1.00  0.00     0.278 C 
ENDBRANCH   1  12
BRANCH   2  14
ATOM     14  O   UNL     1       0.252  45.992   7.753  1.00  0.00    -0.493 OA
ATOM     15  C   UNL     1      -0.296  45.063   6.823  1.00  0.00     0.278 C 
ENDBRANCH   2  14
TORSDOF 2
ENDMDL
MODEL 6
REMARK VINA RESULT:    -5.510      2.116      6.285
REMARK INTER + INTRA:          -6.270
REMARK INTER:                  -6.163
REMARK INTRA:                  -0.107
REMARK UNBOUND:                -0.115
REMARK SMILES COc1cc2ccc(=O)oc2cc1OC
REMARK SMILES IDX 3 1 13 2 12 3 11 4 5 5 4 6 6 7 7 8 8 9 9 10 10 11 2 12 1 13
REMARK SMILES IDX 14 14 15 15
REMARK H PARENT
REMARK Flexibility Score: inf
ROOT
ATOM      1  C   UNL     1       1.722  42.200  12.398  1.00  0.00     0.161 A 
ATOM      2  C   UNL     1       3.009  41.764  12.038  1.00  0.00     0.164 A 
ATOM      3  C   UNL     1       3.812  42.568  11.206  1.00  0.00     0.098 A 
ATOM      4  C   UNL     1       3.339  43.797  10.738  1.00  0.00     0.142 A 
ATOM      5  C   UNL     1       2.050  44.235  11.099  1.00  0.00     0.022 A 
ATOM      6  C   UNL     1       1.246  43.439  11.925  1.00  0.00     0.062 A 
ATOM      7  C   UNL     1       1.605  45.469  10.614  1.00  0.00     0.019 A 
ATOM      8  C   UNL     1       2.441  46.225   9.794  1.00  0.00     0.094 A 
ATOM      9  C   UNL     1       3.709  45.726   9.478  1.00  0.00     0.336 A 
ATOM     10  O   UNL     1       4.480  46.392   8.738  1.00  0.00    -0.246 OA
ATOM     11  O   UNL     1       4.108  44.548   9.952  1.00  0.00    -0.423 OA
ENDROOT
BRANCH   1  12
ATOM     12  O   UNL     1       0.949  41.373  13.229  1.00  0.00    -0.493 OA
ATOM     13  C   UNL     1      -0.351  41.699  13.707  1.00  0.00     0.278 C 
ENDBRANCH   1  12
BRANCH   2  14
ATOM     14  O   UNL     1       3.452  40.524  12.527  1.00  0.00    -0.493 OA
ATOM     15  C   UNL     1       4.766  40.272  13.013  1.00  0.00     0.278 C 
ENDBRANCH   2  14
TORSDOF 2
ENDMDL
MODEL 7
REMARK VINA RESULT:    -5.446      2.084      3.625
REMARK INTER + INTRA:          -6.198
REMARK INTER:                  -6.103
REMARK INTRA:                  -0.094
REMARK UNBOUND:                -0.115
REMARK SMILES COc1cc2ccc(=O)oc2cc1OC
REMARK SMILES IDX 3 1 13 2 12 3 11 4 5 5 4 6 6 7 7 8 8 9 9 10 10 11 2 12 1 13
REMARK SMILES IDX 14 14 15 15
REMARK H PARENT
REMARK Flexibility Score: inf
ROOT
ATOM      1  C   UNL     1       2.322  45.336  10.374  1.00  0.00     0.161 A 
ATOM      2  C   UNL     1       3.600  44.903   9.981  1.00  0.00     0.164 A 
ATOM      3  C   UNL     1       4.084  43.657  10.427  1.00  0.00     0.098 A 
ATOM      4  C   UNL     1       3.300  42.849  11.256  1.00  0.00     0.142 A 
ATOM      5  C   UNL     1       2.019  43.284  11.650  1.00  0.00     0.022 A 
ATOM      6  C   UNL     1       1.534  44.521  11.211  1.00  0.00     0.062 A 
ATOM      7  C   UNL     1       1.260  42.453  12.481  1.00  0.00     0.019 A 
ATOM      8  C   UNL     1       1.787  41.229  12.891  1.00  0.00     0.094 A 
ATOM      9  C   UNL     1       3.066  40.864  12.460  1.00  0.00     0.336 A 
ATOM     10  O   UNL     1       3.561  39.764  12.821  1.00  0.00    -0.246 OA
ATOM     11  O   UNL     1       3.767  41.674  11.670  1.00  0.00    -0.423 OA
ENDROOT
BRANCH   1  12
ATOM     12  O   UNL     1       1.872  46.584   9.912  1.00  0.00    -0.493 OA
ATOM     13  C   UNL     1       0.663  46.789   9.190  1.00  0.00     0.278 C 
ENDBRANCH   1  12
BRANCH   2  14
ATOM     14  O   UNL     1       4.359  45.740   9.147  1.00  0.00    -0.493 OA
ATOM     15  C   UNL     1       5.258  46.741   9.612  1.00  0.00     0.278 C 
ENDBRANCH   2  14
TORSDOF 2
ENDMDL
MODEL 8
REMARK VINA RESULT:    -5.420      1.375      4.960
REMARK INTER + INTRA:          -6.169
REMARK INTER:                  -6.055
REMARK INTRA:                  -0.114
REMARK UNBOUND:                -0.115
REMARK SMILES COc1cc2ccc(=O)oc2cc1OC
REMARK SMILES IDX 3 1 13 2 12 3 11 4 5 5 4 6 6 7 7 8 8 9 9 10 10 11 2 12 1 13
REMARK SMILES IDX 14 14 15 15
REMARK H PARENT
REMARK Flexibility Score: inf
ROOT
ATOM      1  C   UNL     1       3.282  44.552  11.327  1.00  0.00     0.161 A 
ATOM      2  C   UNL     1       2.008  44.877  10.829  1.00  0.00     0.164 A 
ATOM      3  C   UNL     1       1.876  45.882   9.850  1.00  0.00     0.098 A 
ATOM      4  C   UNL     1       3.002  46.556   9.371  1.00  0.00     0.142 A 
ATOM      5  C   UNL     1       4.279  46.231   9.870  1.00  0.00     0.022 A 
ATOM      6  C   UNL     1       4.417  45.234  10.843  1.00  0.00     0.062 A 
ATOM      7  C   UNL     1       5.386  46.924   9.371  1.00  0.00     0.019 A 
ATOM      8  C   UNL     1       5.198  47.909   8.402  1.00  0.00     0.094 A 
ATOM      9  C   UNL     1       3.901  48.178   7.953  1.00  0.00     0.336 A 
ATOM     10  O   UNL     1       3.709  49.063   7.080  1.00  0.00    -0.246 OA
ATOM     11  O   UNL     1       2.865  47.503   8.445  1.00  0.00    -0.423 OA
ENDROOT
BRANCH   1  12
ATOM     12  O   UNL     1       3.377  43.547  12.303  1.00  0.00    -0.493 OA
ATOM     13  C   UNL     1       3.683  42.184  12.030  1.00  0.00     0.278 C 
ENDBRANCH   1  12
BRANCH   2  14
ATOM     14  O   UNL     1       0.899  44.179  11.332  1.00  0.00    -0.493 OA
ATOM     15  C   UNL     1      -0.347  44.779  11.669  1.00  0.00     0.278 C 
ENDBRANCH   2  14
TORSDOF 2
ENDMDL
MODEL 9
REMARK VINA RESULT:    -5.381      1.952      3.436
REMARK INTER + INTRA:          -6.126
REMARK INTER:                  -6.023
REMARK INTRA:                  -0.103
REMARK UNBOUND:                -0.115
REMARK SMILES COc1cc2ccc(=O)oc2cc1OC
REMARK SMILES IDX 3 1 13 2 12 3 11 4 5 5 4 6 6 7 7 8 8 9 9 10 10 11 2 12 1 13
REMARK SMILES IDX 14 14 15 15
REMARK H PARENT
REMARK Flexibility Score: inf
ROOT
ATOM      1  C   UNL     1       0.982  46.503   8.361  1.00  0.00     0.161 A 
ATOM      2  C   UNL     1       2.215  47.173   8.424  1.00  0.00     0.164 A 
ATOM      3  C   UNL     1       3.167  46.795   9.392  1.00  0.00     0.098 A 
ATOM      4  C   UNL     1       2.893  45.758  10.287  1.00  0.00     0.142 A 
ATOM      5  C   UNL     1       1.656  45.086  10.224  1.00  0.00     0.022 A 
ATOM      6  C   UNL     1       0.706  45.458   9.265  1.00  0.00     0.062 A 
ATOM      7  C   UNL     1       1.412  44.053  11.134  1.00  0.00     0.019 A 
ATOM      8  C   UNL     1       2.389  43.719  12.070  1.00  0.00     0.094 A 
ATOM      9  C   UNL     1       3.594  44.430  12.074  1.00  0.00     0.336 A 
ATOM     10  O   UNL     1       4.489  44.146  12.912  1.00  0.00    -0.246 OA
ATOM     11  O   UNL     1       3.800  45.409  11.197  1.00  0.00    -0.423 OA
ENDROOT
BRANCH   1  12
ATOM     12  O   UNL     1       0.056  46.906   7.385  1.00  0.00    -0.493 OA
ATOM     13  C   UNL     1      -0.980  46.081   6.865  1.00  0.00     0.278 C 
ENDBRANCH   1  12
BRANCH   2  14
ATOM     14  O   UNL     1       2.457  48.210   7.508  1.00  0.00    -0.493 OA
ATOM     15  C   UNL     1       3.748  48.709   7.177  1.00  0.00     0.278 C 
ENDBRANCH   2  14
TORSDOF 2
ENDMDL
