MODEL 1
REMARK VINA RESULT:    -4.743      0.000      0.000
REMARK INTER + INTRA:          -6.773
REMARK INTER:                  -6.407
REMARK INTRA:                  -0.366
REMARK UNBOUND:                -0.366
REMARK SMILES [NH3+]CCCC[C@@H]([NH3+])C(=O)[O-]
REMARK SMILES IDX 4 1 3 2 2 3 1 4 5 8 6 9 7 10 8 14 9 15 10 16
REMARK H PARENT 1 5 1 6 1 7 7 11 7 12 7 13
REMARK Flexibility Score: inf
ROOT
ATOM      1  C   UNL     1       7.163  24.383  32.969  1.00  0.00     0.012 C 
ENDROOT
BRANCH   1   2
ATOM      2  C   UNL     1       8.284  24.630  31.949  1.00  0.00     0.061 C 
BRANCH   2   3
ATOM      3  C   UNL     1       9.665  24.460  32.596  1.00  0.00     0.258 C 
BRANCH   3   4
ATOM      4  N   UNL     1      10.263  25.760  32.901  1.00  0.00    -0.358 N 
ATOM      5  H   UNL     1      10.761  25.719  33.820  1.00  0.00     0.344 HD
ATOM      6  H   UNL     1       9.523  26.498  32.932  1.00  0.00     0.344 HD
ATOM      7  H   UNL     1      10.953  26.003  32.153  1.00  0.00     0.344 HD
ENDBRANCH   3   4
ENDBRANCH   2   3
ENDBRANCH   1   2
BRANCH   1   8
ATOM      8  C   UNL     1       7.681  23.913  34.343  1.00  0.00     0.072 C 
BRANCH   8   9
ATOM      9  C   UNL     1       7.539  24.969  35.467  1.00  0.00     0.227 C 
BRANCH   9  10
ATOM     10  N   UNL     1       6.472  24.583  36.398  1.00  0.00    -0.350 N 
ATOM     11  H   UNL     1       6.850  24.475  37.367  1.00  0.00     0.345 HD
ATOM     12  H   UNL     1       6.043  23.678  36.093  1.00  0.00     0.345 HD
ATOM     13  H   UNL     1       5.720  25.311  36.401  1.00  0.00     0.345 HD
ENDBRANCH   9  10
BRANCH   9  14
ATOM     14  C   UNL     1       8.827  25.147  36.228  1.00  0.00     0.099 C 
ATOM     15  O   UNL     1       9.762  25.833  35.737  1.00  0.00    -0.544 OA
ATOM     16  O   UNL     1       8.976  24.593  37.494  1.00  0.00    -0.544 OA
ENDBRANCH   9  14
ENDBRANCH   8   9
ENDBRANCH   1   8
TORSDOF 7
ENDMDL
MODEL 2
REMARK VINA RESULT:    -3.659      2.204      3.918
REMARK INTER + INTRA:          -5.308
REMARK INTER:                  -5.584
REMARK INTRA:                   0.276
REMARK UNBOUND:                -0.366
REMARK SMILES [NH3+]CCCC[C@@H]([NH3+])C(=O)[O-]
REMARK SMILES IDX 4 1 3 2 2 3 1 4 5 8 6 9 7 10 8 14 9 15 10 16
REMARK H PARENT 1 5 1 6 1 7 7 11 7 12 7 13
REMARK Flexibility Score: inf
ROOT
ATOM      1  C   UNL     1       7.321  25.206  34.720  1.00  0.00     0.012 C 
ENDROOT
BRANCH   1   2
ATOM      2  C   UNL     1       7.502  25.060  36.238  1.00  0.00     0.061 C 
BRANCH   2   3
ATOM      3  C   UNL     1       8.985  24.918  36.605  1.00  0.00     0.258 C 
BRANCH   3   4
ATOM      4  N   UNL     1       9.140  24.439  37.978  1.00  0.00    -0.358 N 
ATOM      5  H   UNL     1       8.211  24.149  38.364  1.00  0.00     0.344 HD
ATOM      6  H   UNL     1       9.553  25.190  38.577  1.00  0.00     0.344 HD
ATOM      7  H   UNL     1       9.780  23.612  37.982  1.00  0.00     0.344 HD
ENDBRANCH   3   4
ENDBRANCH   2   3
ENDBRANCH   1   2
BRANCH   1   8
ATOM      8  C   UNL     1       7.470  23.875  33.957  1.00  0.00     0.072 C 
BRANCH   8   9
ATOM      9  C   UNL     1       8.034  24.028  32.523  1.00  0.00     0.227 C 
BRANCH   9  10
ATOM     10  N   UNL     1       7.225  24.983  31.755  1.00  0.00    -0.350 N 
ATOM     11  H   UNL     1       6.685  24.489  31.007  1.00  0.00     0.345 HD
ATOM     12  H   UNL     1       7.845  25.701  31.313  1.00  0.00     0.345 HD
ATOM     13  H   UNL     1       6.559  25.479  32.391  1.00  0.00     0.345 HD
ENDBRANCH   9  10
BRANCH   9  14
ATOM     14  C   UNL     1       9.469  24.487  32.536  1.00  0.00     0.099 C 
ATOM     15  O   UNL     1      10.308  23.959  31.758  1.00  0.00    -0.544 OA
ATOM     16  O   UNL     1       9.869  25.521  33.373  1.00  0.00    -0.544 OA
ENDBRANCH   9  14
ENDBRANCH   8   9
ENDBRANCH   1   8
TORSDOF 7
ENDMDL
MODEL 3
REMARK VINA RESULT:    -3.614      2.303      4.346
REMARK INTER + INTRA:          -5.248
REMARK INTER:                  -4.868
REMARK INTRA:                  -0.379
REMARK UNBOUND:                -0.366
REMARK SMILES [NH3+]CCCC[C@@H]([NH3+])C(=O)[O-]
REMARK SMILES IDX 4 1 3 2 2 3 1 4 5 8 6 9 7 10 8 14 9 15 10 16
REMARK H PARENT 1 5 1 6 1 7 7 11 7 12 7 13
REMARK Flexibility Score: inf
ROOT
ATOM      1  C   UNL     1       9.110  24.296  35.132  1.00  0.00     0.012 C 
ENDROOT
BRANCH   1   2
ATOM      2  C   UNL     1       8.903  24.892  36.532  1.00  0.00     0.061 C 
BRANCH   2   3
ATOM      3  C   UNL     1       7.413  25.109  36.824  1.00  0.00     0.258 C 
BRANCH   3   4
ATOM      4  N   UNL     1       6.581  24.435  35.827  1.00  0.00    -0.358 N 
ATOM      5  H   UNL     1       7.185  23.992  35.096  1.00  0.00     0.344 HD
ATOM      6  H   UNL     1       5.928  25.118  35.381  1.00  0.00     0.344 HD
ATOM      7  H   UNL     1       6.020  23.688  36.298  1.00  0.00     0.344 HD
ENDBRANCH   3   4
ENDBRANCH   2   3
ENDBRANCH   1   2
BRANCH   1   8
ATOM      8  C   UNL     1       9.712  25.297  34.126  1.00  0.00     0.072 C 
BRANCH   8   9
ATOM      9  C   UNL     1       9.246  25.082  32.665  1.00  0.00     0.227 C 
BRANCH   9  10
ATOM     10  N   UNL     1       9.874  23.882  32.100  1.00  0.00    -0.350 N 
ATOM     11  H   UNL     1      10.901  23.874  32.302  1.00  0.00     0.345 HD
ATOM     12  H   UNL     1       9.728  23.856  31.064  1.00  0.00     0.345 HD
ATOM     13  H   UNL     1       9.436  23.023  32.508  1.00  0.00     0.345 HD
ENDBRANCH   9  10
BRANCH   9  14
ATOM     14  C   UNL     1       7.748  24.953  32.572  1.00  0.00     0.099 C 
ATOM     15  O   UNL     1       7.005  25.843  33.064  1.00  0.00    -0.544 OA
ATOM     16  O   UNL     1       7.175  23.875  31.907  1.00  0.00    -0.544 OA
ENDBRANCH   9  14
ENDBRANCH   8   9
ENDBRANCH   1   8
TORSDOF 7
ENDMDL
MODEL 4
REMARK VINA RESULT:    -3.519      2.115      2.512
REMARK INTER + INTRA:          -5.120
REMARK INTER:                  -4.690
REMARK INTRA:                  -0.429
REMARK UNBOUND:                -0.366
REMARK SMILES [NH3+]CCCC[C@@H]([NH3+])C(=O)[O-]
REMARK SMILES IDX 4 1 3 2 2 3 1 4 5 8 6 9 7 10 8 14 9 15 10 16
REMARK H PARENT 1 5 1 6 1 7 7 11 7 12 7 13
REMARK Flexibility Score: inf
ROOT
ATOM      1  C   UNL     1       9.534  25.737  33.560  1.00  0.00     0.012 C 
ENDROOT
BRANCH   1   2
ATOM      2  C   UNL     1       9.865  24.411  32.860  1.00  0.00     0.061 C 
BRANCH   2   3
ATOM      3  C   UNL     1       8.745  24.004  31.894  1.00  0.00     0.258 C 
BRANCH   3   4
ATOM      4  N   UNL     1       7.611  24.923  31.991  1.00  0.00    -0.358 N 
ATOM      5  H   UNL     1       6.715  24.404  31.843  1.00  0.00     0.344 HD
ATOM      6  H   UNL     1       7.702  25.683  31.279  1.00  0.00     0.344 HD
ATOM      7  H   UNL     1       7.600  25.352  32.945  1.00  0.00     0.344 HD
ENDBRANCH   3   4
ENDBRANCH   2   3
ENDBRANCH   1   2
BRANCH   1   8
ATOM      8  C   UNL     1       9.487  25.621  35.097  1.00  0.00     0.072 C 
BRANCH   8   9
ATOM      9  C   UNL     1       8.796  24.335  35.613  1.00  0.00     0.227 C 
BRANCH   9  10
ATOM     10  N   UNL     1       9.153  24.091  37.016  1.00  0.00    -0.350 N 
ATOM     11  H   UNL     1      10.184  23.941  37.113  1.00  0.00     0.345 HD
ATOM     12  H   UNL     1       8.648  23.246  37.370  1.00  0.00     0.345 HD
ATOM     13  H   UNL     1       8.867  24.908  37.604  1.00  0.00     0.345 HD
ENDBRANCH   9  10
BRANCH   9  14
ATOM     14  C   UNL     1       7.297  24.419  35.485  1.00  0.00     0.099 C 
ATOM     15  O   UNL     1       6.715  23.875  34.510  1.00  0.00    -0.544 OA
ATOM     16  O   UNL     1       6.544  25.058  36.463  1.00  0.00    -0.544 OA
ENDBRANCH   9  14
ENDBRANCH   8   9
ENDBRANCH   1   8
TORSDOF 7
ENDMDL
MODEL 5
REMARK VINA RESULT:    -3.292     14.236     14.942
REMARK INTER + INTRA:          -4.812
REMARK INTER:                  -4.855
REMARK INTRA:                   0.043
REMARK UNBOUND:                -0.366
REMARK SMILES [NH3+]CCCC[C@@H]([NH3+])C(=O)[O-]
REMARK SMILES IDX 4 1 3 2 2 3 1 4 5 8 6 9 7 10 8 14 9 15 10 16
REMARK H PARENT 1 5 1 6 1 7 7 11 7 12 7 13
REMARK Flexibility Score: inf
ROOT
ATOM      1  C   UNL     1      10.293  39.099  34.986  1.00  0.00     0.012 C 
ENDROOT
BRANCH   1   2
ATOM      2  C   UNL     1      10.643  37.691  35.491  1.00  0.00     0.061 C 
BRANCH   2   3
ATOM      3  C   UNL     1      11.940  37.707  36.312  1.00  0.00     0.258 C 
BRANCH   3   4
ATOM      4  N   UNL     1      11.650  37.746  37.745  1.00  0.00    -0.358 N 
ATOM      5  H   UNL     1      12.250  37.056  38.252  1.00  0.00     0.344 HD
ATOM      6  H   UNL     1      10.641  37.530  37.914  1.00  0.00     0.344 HD
ATOM      7  H   UNL     1      11.856  38.705  38.109  1.00  0.00     0.344 HD
ENDBRANCH   3   4
ENDBRANCH   2   3
ENDBRANCH   1   2
BRANCH   1   8
ATOM      8  C   UNL     1       9.478  39.093  33.679  1.00  0.00     0.072 C 
BRANCH   8   9
ATOM      9  C   UNL     1       8.493  40.281  33.543  1.00  0.00     0.227 C 
BRANCH   9  10
ATOM     10  N   UNL     1       7.678  40.132  32.331  1.00  0.00    -0.350 N 
ATOM     11  H   UNL     1       7.916  39.242  31.834  1.00  0.00     0.345 HD
ATOM     12  H   UNL     1       7.846  40.940  31.687  1.00  0.00     0.345 HD
ATOM     13  H   UNL     1       6.662  40.126  32.582  1.00  0.00     0.345 HD
ENDBRANCH   9  10
BRANCH   9  14
ATOM     14  C   UNL     1       7.589  40.395  34.742  1.00  0.00     0.099 C 
ATOM     15  O   UNL     1       7.940  41.087  35.734  1.00  0.00    -0.544 OA
ATOM     16  O   UNL     1       6.346  39.773  34.747  1.00  0.00    -0.544 OA
ENDBRANCH   9  14
ENDBRANCH   8   9
ENDBRANCH   1   8
TORSDOF 7
ENDMDL
MODEL 6
REMARK VINA RESULT:    -2.714     14.355     15.100
REMARK INTER + INTRA:          -4.031
REMARK INTER:                  -3.886
REMARK INTRA:                  -0.145
REMARK UNBOUND:                -0.366
REMARK SMILES [NH3+]CCCC[C@@H]([NH3+])C(=O)[O-]
REMARK SMILES IDX 4 1 3 2 2 3 1 4 5 8 6 9 7 10 8 14 9 15 10 16
REMARK H PARENT 1 5 1 6 1 7 7 11 7 12 7 13
REMARK Flexibility Score: inf
ROOT
ATOM      1  C   UNL     1      10.191  38.890  34.617  1.00  0.00     0.012 C 
ENDROOT
BRANCH   1   2
ATOM      2  C   UNL     1      10.651  37.670  35.428  1.00  0.00     0.061 C 
BRANCH   2   3
ATOM      3  C   UNL     1      11.877  38.010  36.286  1.00  0.00     0.258 C 
BRANCH   3   4
ATOM      4  N   UNL     1      11.644  37.670  37.689  1.00  0.00    -0.358 N 
ATOM      5  H   UNL     1      12.464  37.144  38.072  1.00  0.00     0.344 HD
ATOM      6  H   UNL     1      10.778  37.091  37.780  1.00  0.00     0.344 HD
ATOM      7  H   UNL     1      11.522  38.551  38.239  1.00  0.00     0.344 HD
ENDBRANCH   3   4
ENDBRANCH   2   3
ENDBRANCH   1   2
BRANCH   1   8
ATOM      8  C   UNL     1       9.436  39.936  35.461  1.00  0.00     0.072 C 
BRANCH   8   9
ATOM      9  C   UNL     1       8.512  40.866  34.638  1.00  0.00     0.227 C 
BRANCH   9  10
ATOM     10  N   UNL     1       9.275  41.532  33.575  1.00  0.00    -0.350 N 
ATOM     11  H   UNL     1       9.067  41.100  32.646  1.00  0.00     0.345 HD
ATOM     12  H   UNL     1      10.301  41.453  33.769  1.00  0.00     0.345 HD
ATOM     13  H   UNL     1       9.031  42.550  33.544  1.00  0.00     0.345 HD
ENDBRANCH   9  10
BRANCH   9  14
ATOM     14  C   UNL     1       7.362  40.109  34.027  1.00  0.00     0.099 C 
ATOM     15  O   UNL     1       7.359  39.850  32.795  1.00  0.00    -0.544 OA
ATOM     16  O   UNL     1       6.317  39.655  34.824  1.00  0.00    -0.544 OA
ENDBRANCH   9  14
ENDBRANCH   8   9
ENDBRANCH   1   8
TORSDOF 7
ENDMDL
MODEL 7
REMARK VINA RESULT:    -2.552     13.968     14.680
REMARK INTER + INTRA:          -3.813
REMARK INTER:                  -3.657
REMARK INTRA:                  -0.156
REMARK UNBOUND:                -0.366
REMARK SMILES [NH3+]CCCC[C@@H]([NH3+])C(=O)[O-]
REMARK SMILES IDX 4 1 3 2 2 3 1 4 5 8 6 9 7 10 8 14 9 15 10 16
REMARK H PARENT 1 5 1 6 1 7 7 11 7 12 7 13
REMARK Flexibility Score: inf
ROOT
ATOM      1  C   UNL     1       9.128  40.070  33.707  1.00  0.00     0.012 C 
ENDROOT
BRANCH   1   2
ATOM      2  C   UNL     1       7.603  40.022  33.541  1.00  0.00     0.061 C 
BRANCH   2   3
ATOM      3  C   UNL     1       6.898  40.072  34.903  1.00  0.00     0.258 C 
BRANCH   3   4
ATOM      4  N   UNL     1       5.544  39.529  34.812  1.00  0.00    -0.358 N 
ATOM      5  H   UNL     1       4.848  40.242  35.130  1.00  0.00     0.344 HD
ATOM      6  H   UNL     1       5.461  38.668  35.399  1.00  0.00     0.344 HD
ATOM      7  H   UNL     1       5.341  39.280  33.816  1.00  0.00     0.344 HD
ENDBRANCH   3   4
ENDBRANCH   2   3
ENDBRANCH   1   2
BRANCH   1   8
ATOM      8  C   UNL     1       9.601  39.691  35.124  1.00  0.00     0.072 C 
BRANCH   8   9
ATOM      9  C   UNL     1      10.286  38.305  35.213  1.00  0.00     0.227 C 
BRANCH   9  10
ATOM     10  N   UNL     1      10.612  37.810  33.870  1.00  0.00    -0.350 N 
ATOM     11  H   UNL     1      10.626  36.764  33.857  1.00  0.00     0.345 HD
ATOM     12  H   UNL     1      11.549  38.170  33.575  1.00  0.00     0.345 HD
ATOM     13  H   UNL     1       9.903  38.154  33.181  1.00  0.00     0.345 HD
ENDBRANCH   9  10
BRANCH   9  14
ATOM     14  C   UNL     1      11.541  38.357  36.045  1.00  0.00     0.099 C 
ATOM     15  O   UNL     1      11.601  37.731  37.136  1.00  0.00    -0.544 OA
ATOM     16  O   UNL     1      12.653  39.059  35.596  1.00  0.00    -0.544 OA
ENDBRANCH   9  14
ENDBRANCH   8   9
ENDBRANCH   1   8
TORSDOF 7
ENDMDL
MODEL 8
REMARK VINA RESULT:    -2.517      1.638      2.485
REMARK INTER + INTRA:          -3.765
REMARK INTER:                  -3.788
REMARK INTRA:                   0.023
REMARK UNBOUND:                -0.366
REMARK SMILES [NH3+]CCCC[C@@H]([NH3+])C(=O)[O-]
REMARK SMILES IDX 4 1 3 2 2 3 1 4 5 8 6 9 7 10 8 14 9 15 10 16
REMARK H PARENT 1 5 1 6 1 7 7 11 7 12 7 13
REMARK Flexibility Score: inf
ROOT
ATOM      1  C   UNL     1       9.478  24.726  32.872  1.00  0.00     0.012 C 
ENDROOT
BRANCH   1   2
ATOM      2  C   UNL     1       8.539  23.920  31.963  1.00  0.00     0.061 C 
BRANCH   2   3
ATOM      3  C   UNL     1       7.071  24.275  32.234  1.00  0.00     0.258 C 
BRANCH   3   4
ATOM      4  N   UNL     1       6.679  23.878  33.587  1.00  0.00    -0.358 N 
ATOM      5  H   UNL     1       7.320  24.315  34.289  1.00  0.00     0.344 HD
ATOM      6  H   UNL     1       6.709  22.837  33.680  1.00  0.00     0.344 HD
ATOM      7  H   UNL     1       5.703  24.207  33.771  1.00  0.00     0.344 HD
ENDBRANCH   3   4
ENDBRANCH   2   3
ENDBRANCH   1   2
BRANCH   1   8
ATOM      8  C   UNL     1       9.527  24.199  34.320  1.00  0.00     0.072 C 
BRANCH   8   9
ATOM      9  C   UNL     1       9.511  25.310  35.398  1.00  0.00     0.227 C 
BRANCH   9  10
ATOM     10  N   UNL     1       9.140  26.597  34.799  1.00  0.00    -0.350 N 
ATOM     11  H   UNL     1       8.400  27.069  35.368  1.00  0.00     0.345 HD
ATOM     12  H   UNL     1       8.783  26.448  33.826  1.00  0.00     0.345 HD
ATOM     13  H   UNL     1       9.980  27.220  34.741  1.00  0.00     0.345 HD
ENDBRANCH   9  10
BRANCH   9  14
ATOM     14  C   UNL     1       8.556  24.986  36.517  1.00  0.00     0.099 C 
ATOM     15  O   UNL     1       8.997  24.610  37.635  1.00  0.00    -0.544 OA
ATOM     16  O   UNL     1       7.186  25.140  36.339  1.00  0.00    -0.544 OA
ENDBRANCH   9  14
ENDBRANCH   8   9
ENDBRANCH   1   8
TORSDOF 7
ENDMDL
MODEL 9
REMARK VINA RESULT:    -2.253     14.438     15.139
REMARK INTER + INTRA:          -3.409
REMARK INTER:                  -3.292
REMARK INTRA:                  -0.117
REMARK UNBOUND:                -0.366
REMARK SMILES [NH3+]CCCC[C@@H]([NH3+])C(=O)[O-]
REMARK SMILES IDX 4 1 3 2 2 3 1 4 5 8 6 9 7 10 8 14 9 15 10 16
REMARK H PARENT 1 5 1 6 1 7 7 11 7 12 7 13
REMARK Flexibility Score: inf
ROOT
ATOM      1  C   UNL     1      10.299  38.435  34.711  1.00  0.00     0.012 C 
ENDROOT
BRANCH   1   2
ATOM      2  C   UNL     1      10.658  37.375  35.763  1.00  0.00     0.061 C 
BRANCH   2   3
ATOM      3  C   UNL     1      11.871  37.813  36.595  1.00  0.00     0.258 C 
BRANCH   3   4
ATOM      4  N   UNL     1      12.728  38.720  35.832  1.00  0.00    -0.358 N 
ATOM      5  H   UNL     1      12.143  39.409  35.304  1.00  0.00     0.344 HD
ATOM      6  H   UNL     1      13.323  38.177  35.165  1.00  0.00     0.344 HD
ATOM      7  H   UNL     1      13.350  39.240  36.492  1.00  0.00     0.344 HD
ENDBRANCH   3   4
ENDBRANCH   2   3
ENDBRANCH   1   2
BRANCH   1   8
ATOM      8  C   UNL     1       9.329  39.511  35.237  1.00  0.00     0.072 C 
BRANCH   8   9
ATOM      9  C   UNL     1       8.167  39.842  34.268  1.00  0.00     0.227 C 
BRANCH   9  10
ATOM     10  N   UNL     1       7.087  40.533  34.984  1.00  0.00    -0.350 N 
ATOM     11  H   UNL     1       6.500  39.848  35.514  1.00  0.00     0.345 HD
ATOM     12  H   UNL     1       6.483  41.049  34.304  1.00  0.00     0.345 HD
ATOM     13  H   UNL     1       7.491  41.231  35.651  1.00  0.00     0.345 HD
ENDBRANCH   9  10
BRANCH   9  14
ATOM     14  C   UNL     1       8.629  40.695  33.115  1.00  0.00     0.099 C 
ATOM     15  O   UNL     1       9.331  41.717  33.328  1.00  0.00    -0.544 OA
ATOM     16  O   UNL     1       8.319  40.337  31.808  1.00  0.00    -0.544 OA
ENDBRANCH   9  14
ENDBRANCH   8   9
ENDBRANCH   1   8
TORSDOF 7
ENDMDL
