MODEL 1
REMARK VINA RESULT:    -3.374      0.000      0.000
REMARK INTER + INTRA:          -4.474
REMARK INTER:                  -4.360
REMARK INTRA:                  -0.114
REMARK UNBOUND:                -0.114
REMARK SMILES CCCCCCC(=O)[O-]
REMARK SMILES IDX 5 1 6 2 7 3 8 4 9 5 4 6 3 7 2 8 1 9
REMARK H PARENT
REMARK Flexibility Score: inf
ROOT
ATOM      1  C   UNL     1      16.713  15.235  27.887  1.00  0.00     0.006 C 
ENDROOT
BRANCH   1   2
ATOM      2  C   UNL     1      15.779  15.382  26.683  1.00  0.00     0.053 C 
BRANCH   2   3
ATOM      3  C   UNL     1      16.508  15.985  25.524  1.00  0.00     0.041 C 
ATOM      4  O   UNL     1      17.740  16.232  25.610  1.00  0.00    -0.550 OA
ATOM      5  O   UNL     1      15.839  16.231  24.333  1.00  0.00    -0.550 OA
ENDBRANCH   2   3
ENDBRANCH   1   2
BRANCH   1   6
ATOM      6  C   UNL     1      16.029  15.714  29.175  1.00  0.00     0.000 C 
BRANCH   6   7
ATOM      7  C   UNL     1      16.955  15.656  30.403  1.00  0.00    -0.000 C 
BRANCH   7   8
ATOM      8  C   UNL     1      16.934  14.319  31.167  1.00  0.00    -0.003 C 
ATOM      9  C   UNL     1      18.159  14.121  32.058  1.00  0.00     0.004 C 
ENDBRANCH   7   8
ENDBRANCH   6   7
ENDBRANCH   1   6
TORSDOF 5
ENDMDL
MODEL 2
REMARK VINA RESULT:    -3.338      0.373      1.142
REMARK INTER + INTRA:          -4.428
REMARK INTER:                  -4.337
REMARK INTRA:                  -0.091
REMARK UNBOUND:                -0.114
REMARK SMILES CCCCCCC(=O)[O-]
REMARK SMILES IDX 5 1 6 2 7 3 8 4 9 5 4 6 3 7 2 8 1 9
REMARK H PARENT
REMARK Flexibility Score: inf
ROOT
ATOM      1  C   UNL     1      16.591  15.220  27.908  1.00  0.00     0.006 C 
ENDROOT
BRANCH   1   2
ATOM      2  C   UNL     1      15.962  16.019  26.762  1.00  0.00     0.053 C 
BRANCH   2   3
ATOM      3  C   UNL     1      16.850  15.999  25.559  1.00  0.00     0.041 C 
ATOM      4  O   UNL     1      16.351  15.982  24.403  1.00  0.00    -0.550 OA
ATOM      5  O   UNL     1      18.229  16.050  25.713  1.00  0.00    -0.550 OA
ENDBRANCH   2   3
ENDBRANCH   1   2
BRANCH   1   6
ATOM      6  C   UNL     1      15.964  15.605  29.255  1.00  0.00     0.000 C 
BRANCH   6   7
ATOM      7  C   UNL     1      16.968  15.547  30.421  1.00  0.00    -0.000 C 
BRANCH   7   8
ATOM      8  C   UNL     1      16.948  14.236  31.227  1.00  0.00    -0.003 C 
ATOM      9  C   UNL     1      18.150  14.089  32.159  1.00  0.00     0.004 C 
ENDBRANCH   7   8
ENDBRANCH   6   7
ENDBRANCH   1   6
TORSDOF 5
ENDMDL
MODEL 3
REMARK VINA RESULT:    -3.322      1.687      2.340
REMARK INTER + INTRA:          -4.407
REMARK INTER:                  -4.210
REMARK INTRA:                  -0.197
REMARK UNBOUND:                -0.114
REMARK SMILES CCCCCCC(=O)[O-]
REMARK SMILES IDX 5 1 6 2 7 3 8 4 9 5 4 6 3 7 2 8 1 9
REMARK H PARENT
REMARK Flexibility Score: inf
ROOT
ATOM      1  C   UNL     1      16.477  15.975  29.808  1.00  0.00     0.006 C 
ENDROOT
BRANCH   1   2
ATOM      2  C   UNL     1      15.351  15.112  29.230  1.00  0.00     0.053 C 
BRANCH   2   3
ATOM      3  C   UNL     1      15.423  15.089  27.736  1.00  0.00     0.041 C 
ATOM      4  O   UNL     1      15.960  16.043  27.113  1.00  0.00    -0.550 OA
ATOM      5  O   UNL     1      14.941  13.993  27.033  1.00  0.00    -0.550 OA
ENDBRANCH   2   3
ENDBRANCH   1   2
BRANCH   1   6
ATOM      6  C   UNL     1      17.279  15.197  30.861  1.00  0.00     0.000 C 
BRANCH   6   7
ATOM      7  C   UNL     1      16.698  13.800  31.145  1.00  0.00    -0.000 C 
BRANCH   7   8
ATOM      8  C   UNL     1      17.381  13.037  32.295  1.00  0.00    -0.003 C 
ATOM      9  C   UNL     1      18.729  13.634  32.692  1.00  0.00     0.004 C 
ENDBRANCH   7   8
ENDBRANCH   6   7
ENDBRANCH   1   6
TORSDOF 5
ENDMDL
MODEL 4
REMARK VINA RESULT:    -3.312      3.501      5.614
REMARK INTER + INTRA:          -4.394
REMARK INTER:                  -4.223
REMARK INTRA:                  -0.171
REMARK UNBOUND:                -0.114
REMARK SMILES CCCCCCC(=O)[O-]
REMARK SMILES IDX 5 1 6 2 7 3 8 4 9 5 4 6 3 7 2 8 1 9
REMARK H PARENT
REMARK Flexibility Score: inf
ROOT
ATOM      1  C   UNL     1      17.724  14.575  31.390  1.00  0.00     0.006 C 
ENDROOT
BRANCH   1   2
ATOM      2  C   UNL     1      18.654  13.839  32.359  1.00  0.00     0.053 C 
BRANCH   2   3
ATOM      3  C   UNL     1      20.043  13.778  31.807  1.00  0.00     0.041 C 
ATOM      4  O   UNL     1      20.944  13.154  32.427  1.00  0.00    -0.550 OA
ATOM      5  O   UNL     1      20.332  14.369  30.584  1.00  0.00    -0.550 OA
ENDBRANCH   2   3
ENDBRANCH   1   2
BRANCH   1   6
ATOM      6  C   UNL     1      16.431  13.778  31.159  1.00  0.00     0.000 C 
BRANCH   6   7
ATOM      7  C   UNL     1      15.490  14.447  30.141  1.00  0.00    -0.000 C 
BRANCH   7   8
ATOM      8  C   UNL     1      16.049  15.721  29.482  1.00  0.00    -0.003 C 
ATOM      9  C   UNL     1      15.954  15.696  27.957  1.00  0.00     0.004 C 
ENDBRANCH   7   8
ENDBRANCH   6   7
ENDBRANCH   1   6
TORSDOF 5
ENDMDL
MODEL 5
REMARK VINA RESULT:    -3.266      1.954      2.977
REMARK INTER + INTRA:          -4.335
REMARK INTER:                  -4.113
REMARK INTRA:                  -0.222
REMARK UNBOUND:                -0.114
REMARK SMILES CCCCCCC(=O)[O-]
REMARK SMILES IDX 5 1 6 2 7 3 8 4 9 5 4 6 3 7 2 8 1 9
REMARK H PARENT
REMARK Flexibility Score: inf
ROOT
ATOM      1  C   UNL     1      17.293  15.239  30.603  1.00  0.00     0.006 C 
ENDROOT
BRANCH   1   2
ATOM      2  C   UNL     1      16.195  16.029  29.886  1.00  0.00     0.053 C 
BRANCH   2   3
ATOM      3  C   UNL     1      15.929  15.447  28.533  1.00  0.00     0.041 C 
ATOM      4  O   UNL     1      16.834  15.440  27.658  1.00  0.00    -0.550 OA
ATOM      5  O   UNL     1      14.698  14.868  28.255  1.00  0.00    -0.550 OA
ENDBRANCH   2   3
ENDBRANCH   1   2
BRANCH   1   6
ATOM      6  C   UNL     1      16.754  13.899  31.125  1.00  0.00     0.000 C 
BRANCH   6   7
ATOM      7  C   UNL     1      17.607  13.314  32.266  1.00  0.00    -0.000 C 
BRANCH   7   8
ATOM      8  C   UNL     1      18.865  14.129  32.617  1.00  0.00    -0.003 C 
ATOM      9  C   UNL     1      20.158  13.462  32.152  1.00  0.00     0.004 C 
ENDBRANCH   7   8
ENDBRANCH   6   7
ENDBRANCH   1   6
TORSDOF 5
ENDMDL
MODEL 6
REMARK VINA RESULT:    -3.096      3.799      4.142
REMARK INTER + INTRA:          -4.115
REMARK INTER:                  -3.952
REMARK INTRA:                  -0.163
REMARK UNBOUND:                -0.114
REMARK SMILES CCCCCCC(=O)[O-]
REMARK SMILES IDX 5 1 6 2 7 3 8 4 9 5 4 6 3 7 2 8 1 9
REMARK H PARENT
REMARK Flexibility Score: inf
ROOT
ATOM      1  C   UNL     1      15.125  14.299  29.810  1.00  0.00     0.006 C 
ENDROOT
BRANCH   1   2
ATOM      2  C   UNL     1      13.915  14.456  28.885  1.00  0.00     0.053 C 
BRANCH   2   3
ATOM      3  C   UNL     1      12.643  14.393  29.670  1.00  0.00     0.041 C 
ATOM      4  O   UNL     1      12.664  14.057  30.884  1.00  0.00    -0.550 OA
ATOM      5  O   UNL     1      11.441  14.753  29.077  1.00  0.00    -0.550 OA
ENDBRANCH   2   3
ENDBRANCH   1   2
BRANCH   1   6
ATOM      6  C   UNL     1      16.056  15.516  29.706  1.00  0.00     0.000 C 
BRANCH   6   7
ATOM      7  C   UNL     1      17.252  15.440  30.673  1.00  0.00    -0.000 C 
BRANCH   7   8
ATOM      8  C   UNL     1      17.284  14.185  31.565  1.00  0.00    -0.003 C 
ATOM      9  C   UNL     1      18.565  14.070  32.390  1.00  0.00     0.004 C 
ENDBRANCH   7   8
ENDBRANCH   6   7
ENDBRANCH   1   6
TORSDOF 5
ENDMDL
MODEL 7
REMARK VINA RESULT:    -3.066      2.619      3.895
REMARK INTER + INTRA:          -4.076
REMARK INTER:                  -3.718
REMARK INTRA:                  -0.358
REMARK UNBOUND:                -0.114
REMARK SMILES CCCCCCC(=O)[O-]
REMARK SMILES IDX 5 1 6 2 7 3 8 4 9 5 4 6 3 7 2 8 1 9
REMARK H PARENT
REMARK Flexibility Score: inf
ROOT
ATOM      1  C   UNL     1      16.673  13.608  31.358  1.00  0.00     0.006 C 
ENDROOT
BRANCH   1   2
ATOM      2  C   UNL     1      16.930  15.024  30.834  1.00  0.00     0.053 C 
BRANCH   2   3
ATOM      3  C   UNL     1      16.736  15.078  29.352  1.00  0.00     0.041 C 
ATOM      4  O   UNL     1      15.939  15.913  28.847  1.00  0.00    -0.550 OA
ATOM      5  O   UNL     1      17.470  14.240  28.523  1.00  0.00    -0.550 OA
ENDBRANCH   2   3
ENDBRANCH   1   2
BRANCH   1   6
ATOM      6  C   UNL     1      17.851  13.116  32.211  1.00  0.00     0.000 C 
BRANCH   6   7
ATOM      7  C   UNL     1      18.880  14.222  32.506  1.00  0.00    -0.000 C 
BRANCH   7   8
ATOM      8  C   UNL     1      20.317  13.907  32.052  1.00  0.00    -0.003 C 
ATOM      9  C   UNL     1      20.482  13.923  30.534  1.00  0.00     0.004 C 
ENDBRANCH   7   8
ENDBRANCH   6   7
ENDBRANCH   1   6
TORSDOF 5
ENDMDL
MODEL 8
REMARK VINA RESULT:    -2.946      8.190      9.772
REMARK INTER + INTRA:          -3.921
REMARK INTER:                  -3.718
REMARK INTRA:                  -0.203
REMARK UNBOUND:                -0.114
REMARK SMILES CCCCCCC(=O)[O-]
REMARK SMILES IDX 5 1 6 2 7 3 8 4 9 5 4 6 3 7 2 8 1 9
REMARK H PARENT
REMARK Flexibility Score: inf
ROOT
ATOM      1  C   UNL     1       8.712  16.779  25.808  1.00  0.00     0.006 C 
ENDROOT
BRANCH   1   2
ATOM      2  C   UNL     1       8.694  16.492  27.312  1.00  0.00     0.053 C 
BRANCH   2   3
ATOM      3  C   UNL     1       9.471  15.251  27.617  1.00  0.00     0.041 C 
ATOM      4  O   UNL     1       9.705  14.928  28.812  1.00  0.00    -0.550 OA
ATOM      5  O   UNL     1       9.895  14.424  26.585  1.00  0.00    -0.550 OA
ENDBRANCH   2   3
ENDBRANCH   1   2
BRANCH   1   6
ATOM      6  C   UNL     1       8.290  18.228  25.521  1.00  0.00     0.000 C 
BRANCH   6   7
ATOM      7  C   UNL     1       7.997  19.031  26.801  1.00  0.00    -0.000 C 
BRANCH   7   8
ATOM      8  C   UNL     1       6.912  20.114  26.652  1.00  0.00    -0.003 C 
ATOM      9  C   UNL     1       6.265  20.125  25.268  1.00  0.00     0.004 C 
ENDBRANCH   7   8
ENDBRANCH   6   7
ENDBRANCH   1   6
TORSDOF 5
ENDMDL
