MODEL 1
REMARK VINA RESULT:    -4.721      0.000      0.000
REMARK INTER + INTRA:          -5.134
REMARK INTER:                  -5.134
REMARK INTRA:                   0.000
REMARK UNBOUND:                 0.000
REMARK SMILES Oc1cccc(O)c1O
REMARK SMILES IDX 4 1 5 2 6 3 8 4 2 5 3 6 7 7 1 9 9 11
REMARK H PARENT 7 8 1 10 9 12
REMARK Flexibility Score: inf
ROOT
ATOM      1  C   UNL     1     -14.335  39.174 -10.174  1.00  0.00     0.008 A 
ATOM      2  C   UNL     1     -13.078  39.758 -10.337  1.00  0.00     0.050 A 
ATOM      3  C   UNL     1     -12.877  41.111 -10.038  1.00  0.00     0.161 A 
ATOM      4  C   UNL     1     -13.963  41.891  -9.566  1.00  0.00     0.200 A 
ATOM      5  C   UNL     1     -15.227  41.291  -9.405  1.00  0.00     0.161 A 
ATOM      6  C   UNL     1     -15.405  39.938  -9.710  1.00  0.00     0.050 A 
ENDROOT
BRANCH   3   7
ATOM      7  O   UNL     1     -11.596  41.633 -10.224  1.00  0.00    -0.504 OA
ATOM      8  H   UNL     1     -11.378  42.619 -10.213  1.00  0.00     0.293 HD
ENDBRANCH   3   7
BRANCH   5   9
ATOM      9  O   UNL     1     -16.320  42.023  -8.943  1.00  0.00    -0.504 OA
ATOM     10  H   UNL     1     -16.306  42.516  -8.058  1.00  0.00     0.293 HD
ENDBRANCH   5   9
BRANCH   4  11
ATOM     11  O   UNL     1     -13.825  43.245  -9.250  1.00  0.00    -0.502 OA
ATOM     12  H   UNL     1     -14.540  43.799  -8.802  1.00  0.00     0.293 HD
ENDBRANCH   4  11
TORSDOF 3
ENDMDL
MODEL 2
REMARK VINA RESULT:    -4.700      0.160      2.825
REMARK INTER + INTRA:          -5.112
REMARK INTER:                  -5.112
REMARK INTRA:                   0.000
REMARK UNBOUND:                 0.000
REMARK SMILES Oc1cccc(O)c1O
REMARK SMILES IDX 4 1 5 2 6 3 8 4 2 5 3 6 7 7 1 9 9 11
REMARK H PARENT 7 8 1 10 9 12
REMARK Flexibility Score: inf
ROOT
ATOM      1  C   UNL     1     -14.344  39.136 -10.227  1.00  0.00     0.008 A 
ATOM      2  C   UNL     1     -15.438  39.834  -9.714  1.00  0.00     0.050 A 
ATOM      3  C   UNL     1     -15.332  41.193  -9.396  1.00  0.00     0.161 A 
ATOM      4  C   UNL     1     -14.099  41.864  -9.599  1.00  0.00     0.200 A 
ATOM      5  C   UNL     1     -13.001  41.150 -10.117  1.00  0.00     0.161 A 
ATOM      6  C   UNL     1     -13.130  39.792 -10.428  1.00  0.00     0.050 A 
ENDROOT
BRANCH   3   7
ATOM      7  O   UNL     1     -16.464  41.831  -8.886  1.00  0.00    -0.504 OA
ATOM      8  H   UNL     1     -17.288  41.346  -8.559  1.00  0.00     0.293 HD
ENDBRANCH   3   7
BRANCH   5   9
ATOM      9  O   UNL     1     -11.771  41.772 -10.331  1.00  0.00    -0.504 OA
ATOM     10  H   UNL     1     -10.906  41.407  -9.951  1.00  0.00     0.293 HD
ENDBRANCH   5   9
BRANCH   4  11
ATOM     11  O   UNL     1     -13.931  43.218  -9.301  1.00  0.00    -0.502 OA
ATOM     12  H   UNL     1     -13.343  43.847  -9.830  1.00  0.00     0.293 HD
ENDBRANCH   4  11
TORSDOF 3
ENDMDL
MODEL 3
REMARK VINA RESULT:    -4.565      2.285      3.792
REMARK INTER + INTRA:          -4.965
REMARK INTER:                  -4.965
REMARK INTRA:                   0.000
REMARK UNBOUND:                 0.000
REMARK SMILES Oc1cccc(O)c1O
REMARK SMILES IDX 4 1 5 2 6 3 8 4 2 5 3 6 7 7 1 9 9 11
REMARK H PARENT 7 8 1 10 9 12
REMARK Flexibility Score: inf
ROOT
ATOM      1  C   UNL     1     -14.627  40.931 -11.018  1.00  0.00     0.008 A 
ATOM      2  C   UNL     1     -15.834  41.188 -10.368  1.00  0.00     0.050 A 
ATOM      3  C   UNL     1     -16.183  40.487  -9.207  1.00  0.00     0.161 A 
ATOM      4  C   UNL     1     -15.297  39.507  -8.690  1.00  0.00     0.200 A 
ATOM      5  C   UNL     1     -14.081  39.255  -9.354  1.00  0.00     0.161 A 
ATOM      6  C   UNL     1     -13.753  39.968 -10.512  1.00  0.00     0.050 A 
ENDROOT
BRANCH   3   7
ATOM      7  O   UNL     1     -17.406  40.792  -8.607  1.00  0.00    -0.504 OA
ATOM      8  H   UNL     1     -18.219  41.116  -9.111  1.00  0.00     0.293 HD
ENDBRANCH   3   7
BRANCH   5   9
ATOM      9  O   UNL     1     -13.183  38.301  -8.878  1.00  0.00    -0.504 OA
ATOM     10  H   UNL     1     -12.406  38.542  -8.275  1.00  0.00     0.293 HD
ENDBRANCH   5   9
BRANCH   4  11
ATOM     11  O   UNL     1     -15.588  38.775  -7.536  1.00  0.00    -0.502 OA
ATOM     12  H   UNL     1     -16.505  38.420  -7.306  1.00  0.00     0.293 HD
ENDBRANCH   4  11
TORSDOF 3
ENDMDL
MODEL 4
REMARK VINA RESULT:    -4.548      1.131      2.081
REMARK INTER + INTRA:          -4.947
REMARK INTER:                  -4.947
REMARK INTRA:                   0.000
REMARK UNBOUND:                 0.000
REMARK SMILES Oc1cccc(O)c1O
REMARK SMILES IDX 4 1 5 2 6 3 8 4 2 5 3 6 7 7 1 9 9 11
REMARK H PARENT 7 8 1 10 9 12
REMARK Flexibility Score: inf
ROOT
ATOM      1  C   UNL     1     -13.095  39.702  -9.702  1.00  0.00     0.008 A 
ATOM      2  C   UNL     1     -12.944  41.033  -9.310  1.00  0.00     0.050 A 
ATOM      3  C   UNL     1     -14.032  41.914  -9.344  1.00  0.00     0.161 A 
ATOM      4  C   UNL     1     -15.297  41.446  -9.781  1.00  0.00     0.200 A 
ATOM      5  C   UNL     1     -15.438  40.101 -10.175  1.00  0.00     0.161 A 
ATOM      6  C   UNL     1     -14.338  39.238 -10.133  1.00  0.00     0.050 A 
ENDROOT
BRANCH   3   7
ATOM      7  O   UNL     1     -13.812  43.231  -8.938  1.00  0.00    -0.504 OA
ATOM      8  H   UNL     1     -13.064  43.814  -9.287  1.00  0.00     0.293 HD
ENDBRANCH   3   7
BRANCH   5   9
ATOM      9  O   UNL     1     -16.665  39.602 -10.611  1.00  0.00    -0.504 OA
ATOM     10  H   UNL     1     -17.360  40.189 -11.056  1.00  0.00     0.293 HD
ENDBRANCH   5   9
BRANCH   4  11
ATOM     11  O   UNL     1     -16.419  42.276  -9.836  1.00  0.00    -0.502 OA
ATOM     12  H   UNL     1     -16.780  42.795  -9.049  1.00  0.00     0.293 HD
ENDBRANCH   4  11
TORSDOF 3
ENDMDL
MODEL 5
REMARK VINA RESULT:    -4.533      2.388      2.776
REMARK INTER + INTRA:          -4.931
REMARK INTER:                  -4.931
REMARK INTRA:                   0.000
REMARK UNBOUND:                 0.000
REMARK SMILES Oc1cccc(O)c1O
REMARK SMILES IDX 4 1 5 2 6 3 8 4 2 5 3 6 7 7 1 9 9 11
REMARK H PARENT 7 8 1 10 9 12
REMARK Flexibility Score: inf
ROOT
ATOM      1  C   UNL     1     -14.671  40.679 -10.877  1.00  0.00     0.008 A 
ATOM      2  C   UNL     1     -13.893  39.779 -10.150  1.00  0.00     0.050 A 
ATOM      3  C   UNL     1     -14.340  39.280  -8.920  1.00  0.00     0.161 A 
ATOM      4  C   UNL     1     -15.597  39.697  -8.413  1.00  0.00     0.200 A 
ATOM      5  C   UNL     1     -16.375  40.607  -9.156  1.00  0.00     0.161 A 
ATOM      6  C   UNL     1     -15.908  41.092 -10.381  1.00  0.00     0.050 A 
ENDROOT
BRANCH   3   7
ATOM      7  O   UNL     1     -13.512  38.383  -8.244  1.00  0.00    -0.504 OA
ATOM      8  H   UNL     1     -12.681  37.969  -8.641  1.00  0.00     0.293 HD
ENDBRANCH   3   7
BRANCH   5   9
ATOM      9  O   UNL     1     -17.616  41.041  -8.692  1.00  0.00    -0.504 OA
ATOM     10  H   UNL     1     -18.481  40.818  -9.172  1.00  0.00     0.293 HD
ENDBRANCH   5   9
BRANCH   4  11
ATOM     11  O   UNL     1     -16.098  39.234  -7.194  1.00  0.00    -0.502 OA
ATOM     12  H   UNL     1     -15.525  39.005  -6.395  1.00  0.00     0.293 HD
ENDBRANCH   4  11
TORSDOF 3
ENDMDL
MODEL 6
REMARK VINA RESULT:    -4.507      1.486      2.378
REMARK INTER + INTRA:          -4.902
REMARK INTER:                  -4.902
REMARK INTRA:                   0.000
REMARK UNBOUND:                 0.000
REMARK SMILES Oc1cccc(O)c1O
REMARK SMILES IDX 4 1 5 2 6 3 8 4 2 5 3 6 7 7 1 9 9 11
REMARK H PARENT 7 8 1 10 9 12
REMARK Flexibility Score: inf
ROOT
ATOM      1  C   UNL     1     -16.224  40.512 -10.234  1.00  0.00     0.008 A 
ATOM      2  C   UNL     1     -15.411  39.379 -10.186  1.00  0.00     0.050 A 
ATOM      3  C   UNL     1     -14.061  39.485  -9.832  1.00  0.00     0.161 A 
ATOM      4  C   UNL     1     -13.518  40.757  -9.520  1.00  0.00     0.200 A 
ATOM      5  C   UNL     1     -14.347  41.894  -9.573  1.00  0.00     0.161 A 
ATOM      6  C   UNL     1     -15.693  41.765  -9.929  1.00  0.00     0.050 A 
ENDROOT
BRANCH   3   7
ATOM      7  O   UNL     1     -13.304  38.312  -9.803  1.00  0.00    -0.504 OA
ATOM      8  H   UNL     1     -12.516  38.160  -9.189  1.00  0.00     0.293 HD
ENDBRANCH   3   7
BRANCH   5   9
ATOM      9  O   UNL     1     -13.851  43.163  -9.274  1.00  0.00    -0.504 OA
ATOM     10  H   UNL     1     -13.567  43.426  -8.338  1.00  0.00     0.293 HD
ENDBRANCH   5   9
BRANCH   4  11
ATOM     11  O   UNL     1     -12.178  40.926  -9.160  1.00  0.00    -0.502 OA
ATOM     12  H   UNL     1     -11.770  40.568  -8.309  1.00  0.00     0.293 HD
ENDBRANCH   4  11
TORSDOF 3
ENDMDL
MODEL 7
REMARK VINA RESULT:    -4.503      1.530      2.730
REMARK INTER + INTRA:          -4.898
REMARK INTER:                  -4.898
REMARK INTRA:                   0.000
REMARK UNBOUND:                 0.000
REMARK SMILES Oc1cccc(O)c1O
REMARK SMILES IDX 4 1 5 2 6 3 8 4 2 5 3 6 7 7 1 9 9 11
REMARK H PARENT 7 8 1 10 9 12
REMARK Flexibility Score: inf
ROOT
ATOM      1  C   UNL     1     -16.223  40.514 -10.403  1.00  0.00     0.008 A 
ATOM      2  C   UNL     1     -15.696  41.759 -10.060  1.00  0.00     0.050 A 
ATOM      3  C   UNL     1     -14.372  41.877  -9.622  1.00  0.00     0.161 A 
ATOM      4  C   UNL     1     -13.561  40.718  -9.528  1.00  0.00     0.200 A 
ATOM      5  C   UNL     1     -14.103  39.465  -9.877  1.00  0.00     0.161 A 
ATOM      6  C   UNL     1     -15.429  39.371 -10.312  1.00  0.00     0.050 A 
ENDROOT
BRANCH   3   7
ATOM      7  O   UNL     1     -13.908  43.152  -9.294  1.00  0.00    -0.504 OA
ATOM      8  H   UNL     1     -14.495  43.897  -8.945  1.00  0.00     0.293 HD
ENDBRANCH   3   7
BRANCH   5   9
ATOM      9  O   UNL     1     -13.339  38.301  -9.798  1.00  0.00    -0.504 OA
ATOM     10  H   UNL     1     -13.296  37.630 -10.556  1.00  0.00     0.293 HD
ENDBRANCH   5   9
BRANCH   4  11
ATOM     11  O   UNL     1     -12.233  40.771  -9.099  1.00  0.00    -0.502 OA
ATOM     12  H   UNL     1     -11.466  40.309  -9.566  1.00  0.00     0.293 HD
ENDBRANCH   4  11
TORSDOF 3
ENDMDL
MODEL 8
REMARK VINA RESULT:    -4.442     13.279     13.650
REMARK INTER + INTRA:          -4.831
REMARK INTER:                  -4.831
REMARK INTRA:                   0.000
REMARK UNBOUND:                 0.000
REMARK SMILES Oc1cccc(O)c1O
REMARK SMILES IDX 4 1 5 2 6 3 8 4 2 5 3 6 7 7 1 9 9 11
REMARK H PARENT 7 8 1 10 9 12
REMARK Flexibility Score: inf
ROOT
ATOM      1  C   UNL     1     -12.890  39.042   5.068  1.00  0.00     0.008 A 
ATOM      2  C   UNL     1     -13.631  38.413   4.066  1.00  0.00     0.050 A 
ATOM      3  C   UNL     1     -13.134  38.327   2.760  1.00  0.00     0.161 A 
ATOM      4  C   UNL     1     -11.866  38.884   2.457  1.00  0.00     0.200 A 
ATOM      5  C   UNL     1     -11.127  39.517   3.475  1.00  0.00     0.161 A 
ATOM      6  C   UNL     1     -11.643  39.592   4.773  1.00  0.00     0.050 A 
ENDROOT
BRANCH   3   7
ATOM      7  O   UNL     1     -13.926  37.685   1.807  1.00  0.00    -0.504 OA
ATOM      8  H   UNL     1     -14.915  37.511   1.915  1.00  0.00     0.293 HD
ENDBRANCH   3   7
BRANCH   5   9
ATOM      9  O   UNL     1      -9.876  40.077   3.217  1.00  0.00    -0.504 OA
ATOM     10  H   UNL     1      -9.055  39.510   3.042  1.00  0.00     0.293 HD
ENDBRANCH   5   9
BRANCH   4  11
ATOM     11  O   UNL     1     -11.317  38.829   1.173  1.00  0.00    -0.502 OA
ATOM     12  H   UNL     1     -10.782  38.050   0.818  1.00  0.00     0.293 HD
ENDBRANCH   4  11
TORSDOF 3
ENDMDL
MODEL 9
REMARK VINA RESULT:    -4.412      1.150      2.731
REMARK INTER + INTRA:          -4.798
REMARK INTER:                  -4.798
REMARK INTRA:                   0.000
REMARK UNBOUND:                 0.000
REMARK SMILES Oc1cccc(O)c1O
REMARK SMILES IDX 4 1 5 2 6 3 8 4 2 5 3 6 7 7 1 9 9 11
REMARK H PARENT 7 8 1 10 9 12
REMARK Flexibility Score: inf
ROOT
ATOM      1  C   UNL     1     -12.882  39.990 -10.155  1.00  0.00     0.008 A 
ATOM      2  C   UNL     1     -14.142  39.484 -10.475  1.00  0.00     0.050 A 
ATOM      3  C   UNL     1     -15.302  40.187 -10.129  1.00  0.00     0.161 A 
ATOM      4  C   UNL     1     -15.191  41.425  -9.446  1.00  0.00     0.200 A 
ATOM      5  C   UNL     1     -13.914  41.927  -9.127  1.00  0.00     0.161 A 
ATOM      6  C   UNL     1     -12.769  41.207  -9.484  1.00  0.00     0.050 A 
ENDROOT
BRANCH   3   7
ATOM      7  O   UNL     1     -16.531  39.624 -10.478  1.00  0.00    -0.504 OA
ATOM      8  H   UNL     1     -16.747  38.641 -10.399  1.00  0.00     0.293 HD
ENDBRANCH   3   7
BRANCH   5   9
ATOM      9  O   UNL     1     -13.762  43.140  -8.457  1.00  0.00    -0.504 OA
ATOM     10  H   UNL     1     -14.290  43.967  -8.709  1.00  0.00     0.293 HD
ENDBRANCH   5   9
BRANCH   4  11
ATOM     11  O   UNL     1     -16.311  42.173  -9.074  1.00  0.00    -0.502 OA
ATOM     12  H   UNL     1     -16.365  43.179  -9.132  1.00  0.00     0.293 HD
ENDBRANCH   4  11
TORSDOF 3
ENDMDL
