MODEL 1
REMARK VINA RESULT:    -3.886      0.000      0.000
REMARK INTER + INTRA:          -5.627
REMARK INTER:                  -5.249
REMARK INTRA:                  -0.378
REMARK UNBOUND:                -0.378
REMARK SMILES [NH3+]CCCC[C@H]([NH3+])C(=O)[O-]
REMARK SMILES IDX 4 1 3 2 2 3 1 4 5 8 6 9 7 10 8 14 9 15 10 16
REMARK H PARENT 1 5 1 6 1 7 7 11 7 12 7 13
REMARK Flexibility Score: inf
ROOT
ATOM      1  C   UNL     1     166.489 176.265  75.331  1.00  0.00     0.012 C 
ENDROOT
BRANCH   1   2
ATOM      2  C   UNL     1     165.114 176.959  75.251  1.00  0.00     0.061 C 
BRANCH   2   3
ATOM      3  C   UNL     1     164.044 176.182  74.460  1.00  0.00     0.258 C 
BRANCH   3   4
ATOM      4  N   UNL     1     164.283 176.224  73.017  1.00  0.00    -0.358 N 
ATOM      5  H   UNL     1     163.454 176.626  72.523  1.00  0.00     0.344 HD
ATOM      6  H   UNL     1     164.487 175.265  72.652  1.00  0.00     0.344 HD
ATOM      7  H   UNL     1     165.107 176.837  72.827  1.00  0.00     0.344 HD
ENDBRANCH   3   4
ENDBRANCH   2   3
ENDBRANCH   1   2
BRANCH   1   8
ATOM      8  C   UNL     1     167.654 177.038  74.684  1.00  0.00     0.072 C 
BRANCH   8   9
ATOM      9  C   UNL     1     168.664 176.163  73.905  1.00  0.00     0.227 C 
BRANCH   9  10
ATOM     10  N   UNL     1     170.047 176.621  74.100  1.00  0.00    -0.350 N 
ATOM     11  H   UNL     1     170.095 177.662  74.019  1.00  0.00     0.345 HD
ATOM     12  H   UNL     1     170.684 176.187  73.392  1.00  0.00     0.345 HD
ATOM     13  H   UNL     1     170.376 176.363  75.059  1.00  0.00     0.345 HD
ENDBRANCH   9  10
BRANCH   9  14
ATOM     14  C   UNL     1     168.314 176.185  72.440  1.00  0.00     0.099 C 
ATOM     15  O   UNL     1     169.147 176.612  71.597  1.00  0.00    -0.544 OA
ATOM     16  O   UNL     1     167.085 175.704  72.006  1.00  0.00    -0.544 OA
ENDBRANCH   9  14
ENDBRANCH   8   9
ENDBRANCH   1   8
TORSDOF 7
ENDMDL
MODEL 2
REMARK VINA RESULT:    -3.768      3.164      5.375
REMARK INTER + INTRA:          -5.467
REMARK INTER:                  -5.368
REMARK INTRA:                  -0.099
REMARK UNBOUND:                -0.378
REMARK SMILES [NH3+]CCCC[C@H]([NH3+])C(=O)[O-]
REMARK SMILES IDX 4 1 3 2 2 3 1 4 5 8 6 9 7 10 8 14 9 15 10 16
REMARK H PARENT 1 5 1 6 1 7 7 11 7 12 7 13
REMARK Flexibility Score: inf
ROOT
ATOM      1  C   UNL     1     166.622 176.234  75.458  1.00  0.00     0.012 C 
ENDROOT
BRANCH   1   2
ATOM      2  C   UNL     1     167.811 177.021  74.871  1.00  0.00     0.061 C 
BRANCH   2   3
ATOM      3  C   UNL     1     168.931 176.148  74.273  1.00  0.00     0.258 C 
BRANCH   3   4
ATOM      4  N   UNL     1     170.098 176.939  73.879  1.00  0.00    -0.358 N 
ATOM      5  H   UNL     1     169.804 177.757  73.299  1.00  0.00     0.344 HD
ATOM      6  H   UNL     1     170.776 176.347  73.346  1.00  0.00     0.344 HD
ATOM      7  H   UNL     1     170.570 177.299  74.739  1.00  0.00     0.344 HD
ENDBRANCH   3   4
ENDBRANCH   2   3
ENDBRANCH   1   2
BRANCH   1   8
ATOM      8  C   UNL     1     165.285 176.999  75.498  1.00  0.00     0.072 C 
BRANCH   8   9
ATOM      9  C   UNL     1     164.041 176.156  75.133  1.00  0.00     0.227 C 
BRANCH   9  10
ATOM     10  N   UNL     1     162.949 176.991  74.610  1.00  0.00    -0.350 N 
ATOM     11  H   UNL     1     162.500 177.522  75.390  1.00  0.00     0.345 HD
ATOM     12  H   UNL     1     162.229 176.402  74.130  1.00  0.00     0.345 HD
ATOM     13  H   UNL     1     163.329 177.690  73.930  1.00  0.00     0.345 HD
ENDBRANCH   9  10
BRANCH   9  14
ATOM     14  C   UNL     1     163.576 175.401  76.350  1.00  0.00     0.099 C 
ATOM     15  O   UNL     1     163.871 174.185  76.491  1.00  0.00    -0.544 OA
ATOM     16  O   UNL     1     162.848 176.049  77.341  1.00  0.00    -0.544 OA
ENDBRANCH   9  14
ENDBRANCH   8   9
ENDBRANCH   1   8
TORSDOF 7
ENDMDL
MODEL 3
REMARK VINA RESULT:    -3.729      1.849      3.994
REMARK INTER + INTRA:          -5.415
REMARK INTER:                  -4.870
REMARK INTRA:                  -0.545
REMARK UNBOUND:                -0.378
REMARK SMILES [NH3+]CCCC[C@H]([NH3+])C(=O)[O-]
REMARK SMILES IDX 4 1 3 2 2 3 1 4 5 8 6 9 7 10 8 14 9 15 10 16
REMARK H PARENT 1 5 1 6 1 7 7 11 7 12 7 13
REMARK Flexibility Score: inf
ROOT
ATOM      1  C   UNL     1     167.202 176.265  75.174  1.00  0.00     0.012 C 
ENDROOT
BRANCH   1   2
ATOM      2  C   UNL     1     168.237 177.161  74.464  1.00  0.00     0.061 C 
BRANCH   2   3
ATOM      3  C   UNL     1     169.400 176.401  73.799  1.00  0.00     0.258 C 
BRANCH   3   4
ATOM      4  N   UNL     1     169.093 176.014  72.422  1.00  0.00    -0.358 N 
ATOM      5  H   UNL     1     168.386 176.664  72.011  1.00  0.00     0.344 HD
ATOM      6  H   UNL     1     168.738 175.030  72.389  1.00  0.00     0.344 HD
ATOM      7  H   UNL     1     169.966 176.074  71.849  1.00  0.00     0.344 HD
ENDBRANCH   3   4
ENDBRANCH   2   3
ENDBRANCH   1   2
BRANCH   1   8
ATOM      8  C   UNL     1     165.757 176.392  74.653  1.00  0.00     0.072 C 
BRANCH   8   9
ATOM      9  C   UNL     1     165.528 175.837  73.227  1.00  0.00     0.227 C 
BRANCH   9  10
ATOM     10  N   UNL     1     164.152 176.070  72.765  1.00  0.00    -0.350 N 
ATOM     11  H   UNL     1     163.515 176.196  73.584  1.00  0.00     0.345 HD
ATOM     12  H   UNL     1     163.815 175.268  72.183  1.00  0.00     0.345 HD
ATOM     13  H   UNL     1     164.111 176.947  72.196  1.00  0.00     0.345 HD
ENDBRANCH   9  10
BRANCH   9  14
ATOM     14  C   UNL     1     165.834 174.362  73.213  1.00  0.00     0.099 C 
ATOM     15  O   UNL     1     165.039 173.546  73.750  1.00  0.00    -0.544 OA
ATOM     16  O   UNL     1     166.977 173.890  72.578  1.00  0.00    -0.544 OA
ENDBRANCH   9  14
ENDBRANCH   8   9
ENDBRANCH   1   8
TORSDOF 7
ENDMDL
MODEL 4
REMARK VINA RESULT:    -3.662      2.615      4.570
REMARK INTER + INTRA:          -5.325
REMARK INTER:                  -4.796
REMARK INTRA:                  -0.528
REMARK UNBOUND:                -0.378
REMARK SMILES [NH3+]CCCC[C@H]([NH3+])C(=O)[O-]
REMARK SMILES IDX 4 1 3 2 2 3 1 4 5 8 6 9 7 10 8 14 9 15 10 16
REMARK H PARENT 1 5 1 6 1 7 7 11 7 12 7 13
REMARK Flexibility Score: inf
ROOT
ATOM      1  C   UNL     1     166.746 175.516  72.790  1.00  0.00     0.012 C 
ENDROOT
BRANCH   1   2
ATOM      2  C   UNL     1     168.036 176.217  73.262  1.00  0.00     0.061 C 
BRANCH   2   3
ATOM      3  C   UNL     1     168.187 176.331  74.790  1.00  0.00     0.258 C 
BRANCH   3   4
ATOM      4  N   UNL     1     167.783 177.646  75.291  1.00  0.00    -0.358 N 
ATOM      5  H   UNL     1     168.280 177.863  76.184  1.00  0.00     0.344 HD
ATOM      6  H   UNL     1     166.748 177.678  75.439  1.00  0.00     0.344 HD
ATOM      7  H   UNL     1     168.044 178.372  74.586  1.00  0.00     0.344 HD
ENDBRANCH   3   4
ENDBRANCH   2   3
ENDBRANCH   1   2
BRANCH   1   8
ATOM      8  C   UNL     1     165.919 174.845  73.904  1.00  0.00     0.072 C 
BRANCH   8   9
ATOM      9  C   UNL     1     164.477 175.382  74.058  1.00  0.00     0.227 C 
BRANCH   9  10
ATOM     10  N   UNL     1     164.075 176.204  72.908  1.00  0.00    -0.350 N 
ATOM     11  H   UNL     1     164.080 177.216  73.170  1.00  0.00     0.345 HD
ATOM     12  H   UNL     1     163.119 175.936  72.577  1.00  0.00     0.345 HD
ATOM     13  H   UNL     1     164.756 176.078  72.124  1.00  0.00     0.345 HD
ENDBRANCH   9  10
BRANCH   9  14
ATOM     14  C   UNL     1     164.379 176.187  75.327  1.00  0.00     0.099 C 
ATOM     15  O   UNL     1     164.805 177.372  75.359  1.00  0.00    -0.544 OA
ATOM     16  O   UNL     1     163.790 175.640  76.461  1.00  0.00    -0.544 OA
ENDBRANCH   9  14
ENDBRANCH   8   9
ENDBRANCH   1   8
TORSDOF 7
ENDMDL
MODEL 5
REMARK VINA RESULT:    -3.589      2.521      3.430
REMARK INTER + INTRA:          -5.226
REMARK INTER:                  -4.968
REMARK INTRA:                  -0.258
REMARK UNBOUND:                -0.378
REMARK SMILES [NH3+]CCCC[C@H]([NH3+])C(=O)[O-]
REMARK SMILES IDX 4 1 3 2 2 3 1 4 5 8 6 9 7 10 8 14 9 15 10 16
REMARK H PARENT 1 5 1 6 1 7 7 11 7 12 7 13
REMARK Flexibility Score: inf
ROOT
ATOM      1  C   UNL     1     167.092 174.549  72.998  1.00  0.00     0.012 C 
ENDROOT
BRANCH   1   2
ATOM      2  C   UNL     1     167.573 174.388  71.542  1.00  0.00     0.061 C 
BRANCH   2   3
ATOM      3  C   UNL     1     167.701 175.706  70.755  1.00  0.00     0.258 C 
BRANCH   3   4
ATOM      4  N   UNL     1     166.801 175.751  69.601  1.00  0.00    -0.358 N 
ATOM      5  H   UNL     1     166.887 174.875  69.039  1.00  0.00     0.344 HD
ATOM      6  H   UNL     1     167.015 176.583  69.004  1.00  0.00     0.344 HD
ATOM      7  H   UNL     1     165.816 175.827  69.942  1.00  0.00     0.344 HD
ENDBRANCH   3   4
ENDBRANCH   2   3
ENDBRANCH   1   2
BRANCH   1   8
ATOM      8  C   UNL     1     167.005 176.002  73.504  1.00  0.00     0.072 C 
BRANCH   8   9
ATOM      9  C   UNL     1     168.001 176.361  74.631  1.00  0.00     0.227 C 
BRANCH   9  10
ATOM     10  N   UNL     1     167.675 177.648  75.260  1.00  0.00    -0.350 N 
ATOM     11  H   UNL     1     167.262 177.491  76.206  1.00  0.00     0.345 HD
ATOM     12  H   UNL     1     166.998 178.187  74.671  1.00  0.00     0.345 HD
ATOM     13  H   UNL     1     168.545 178.215  75.385  1.00  0.00     0.345 HD
ENDBRANCH   9  10
BRANCH   9  14
ATOM     14  C   UNL     1     169.397 176.401  74.066  1.00  0.00     0.099 C 
ATOM     15  O   UNL     1     170.283 175.625  74.512  1.00  0.00    -0.544 OA
ATOM     16  O   UNL     1     169.708 177.270  73.027  1.00  0.00    -0.544 OA
ENDBRANCH   9  14
ENDBRANCH   8   9
ENDBRANCH   1   8
TORSDOF 7
ENDMDL
MODEL 6
REMARK VINA RESULT:    -3.571      2.901      3.964
REMARK INTER + INTRA:          -5.201
REMARK INTER:                  -5.111
REMARK INTRA:                  -0.090
REMARK UNBOUND:                -0.378
REMARK SMILES [NH3+]CCCC[C@H]([NH3+])C(=O)[O-]
REMARK SMILES IDX 4 1 3 2 2 3 1 4 5 8 6 9 7 10 8 14 9 15 10 16
REMARK H PARENT 1 5 1 6 1 7 7 11 7 12 7 13
REMARK Flexibility Score: inf
ROOT
ATOM      1  C   UNL     1     169.093 176.618  72.755  1.00  0.00     0.012 C 
ENDROOT
BRANCH   1   2
ATOM      2  C   UNL     1     168.798 176.356  71.265  1.00  0.00     0.061 C 
BRANCH   2   3
ATOM      3  C   UNL     1     167.471 175.623  70.988  1.00  0.00     0.258 C 
BRANCH   3   4
ATOM      4  N   UNL     1     166.952 175.905  69.649  1.00  0.00    -0.358 N 
ATOM      5  H   UNL     1     166.264 175.171  69.365  1.00  0.00     0.344 HD
ATOM      6  H   UNL     1     167.734 175.952  68.957  1.00  0.00     0.344 HD
ATOM      7  H   UNL     1     166.460 176.827  69.663  1.00  0.00     0.344 HD
ENDBRANCH   3   4
ENDBRANCH   2   3
ENDBRANCH   1   2
BRANCH   1   8
ATOM      8  C   UNL     1     168.269 175.771  73.746  1.00  0.00     0.072 C 
BRANCH   8   9
ATOM      9  C   UNL     1     167.185 176.552  74.525  1.00  0.00     0.227 C 
BRANCH   9  10
ATOM     10  N   UNL     1     167.762 177.656  75.305  1.00  0.00    -0.350 N 
ATOM     11  H   UNL     1     168.804 177.645  75.227  1.00  0.00     0.345 HD
ATOM     12  H   UNL     1     167.488 177.581  76.313  1.00  0.00     0.345 HD
ATOM     13  H   UNL     1     167.426 178.573  74.928  1.00  0.00     0.345 HD
ENDBRANCH   9  10
BRANCH   9  14
ATOM     14  C   UNL     1     166.449 175.605  75.436  1.00  0.00     0.099 C 
ATOM     15  O   UNL     1     167.073 174.692  76.037  1.00  0.00    -0.544 OA
ATOM     16  O   UNL     1     165.083 175.754  75.645  1.00  0.00    -0.544 OA
ENDBRANCH   9  14
ENDBRANCH   8   9
ENDBRANCH   1   8
TORSDOF 7
ENDMDL
MODEL 7
REMARK VINA RESULT:    -3.562      2.119      2.832
REMARK INTER + INTRA:          -5.190
REMARK INTER:                  -4.690
REMARK INTRA:                  -0.499
REMARK UNBOUND:                -0.378
REMARK SMILES [NH3+]CCCC[C@H]([NH3+])C(=O)[O-]
REMARK SMILES IDX 4 1 3 2 2 3 1 4 5 8 6 9 7 10 8 14 9 15 10 16
REMARK H PARENT 1 5 1 6 1 7 7 11 7 12 7 13
REMARK Flexibility Score: inf
ROOT
ATOM      1  C   UNL     1     166.866 175.751  71.793  1.00  0.00     0.012 C 
ENDROOT
BRANCH   1   2
ATOM      2  C   UNL     1     165.963 174.518  71.994  1.00  0.00     0.061 C 
BRANCH   2   3
ATOM      3  C   UNL     1     164.736 174.757  72.895  1.00  0.00     0.258 C 
BRANCH   3   4
ATOM      4  N   UNL     1     164.245 176.133  72.809  1.00  0.00    -0.358 N 
ATOM      5  H   UNL     1     164.824 176.764  73.408  1.00  0.00     0.344 HD
ATOM      6  H   UNL     1     163.242 176.182  73.101  1.00  0.00     0.344 HD
ATOM      7  H   UNL     1     164.322 176.460  71.819  1.00  0.00     0.344 HD
ENDBRANCH   3   4
ENDBRANCH   2   3
ENDBRANCH   1   2
BRANCH   1   8
ATOM      8  C   UNL     1     168.204 175.718  72.558  1.00  0.00     0.072 C 
BRANCH   8   9
ATOM      9  C   UNL     1     168.347 176.787  73.666  1.00  0.00     0.227 C 
BRANCH   9  10
ATOM     10  N   UNL     1     169.743 176.937  74.103  1.00  0.00    -0.350 N 
ATOM     11  H   UNL     1     170.392 176.684  73.323  1.00  0.00     0.345 HD
ATOM     12  H   UNL     1     169.940 176.327  74.930  1.00  0.00     0.345 HD
ATOM     13  H   UNL     1     169.931 177.934  74.360  1.00  0.00     0.345 HD
ENDBRANCH   9  10
BRANCH   9  14
ATOM     14  C   UNL     1     167.477 176.411  74.836  1.00  0.00     0.099 C 
ATOM     15  O   UNL     1     167.836 175.493  75.621  1.00  0.00    -0.544 OA
ATOM     16  O   UNL     1     166.292 177.095  75.078  1.00  0.00    -0.544 OA
ENDBRANCH   9  14
ENDBRANCH   8   9
ENDBRANCH   1   8
TORSDOF 7
ENDMDL
MODEL 8
REMARK VINA RESULT:    -3.477      3.040      4.570
REMARK INTER + INTRA:          -5.075
REMARK INTER:                  -4.858
REMARK INTRA:                  -0.216
REMARK UNBOUND:                -0.378
REMARK SMILES [NH3+]CCCC[C@H]([NH3+])C(=O)[O-]
REMARK SMILES IDX 4 1 3 2 2 3 1 4 5 8 6 9 7 10 8 14 9 15 10 16
REMARK H PARENT 1 5 1 6 1 7 7 11 7 12 7 13
REMARK Flexibility Score: inf
ROOT
ATOM      1  C   UNL     1     167.428 174.832  73.339  1.00  0.00     0.012 C 
ENDROOT
BRANCH   1   2
ATOM      2  C   UNL     1     167.637 174.531  71.842  1.00  0.00     0.061 C 
BRANCH   2   3
ATOM      3  C   UNL     1     167.995 175.757  70.981  1.00  0.00     0.258 C 
BRANCH   3   4
ATOM      4  N   UNL     1     167.047 175.960  69.885  1.00  0.00    -0.358 N 
ATOM      5  H   UNL     1     167.473 175.666  68.977  1.00  0.00     0.344 HD
ATOM      6  H   UNL     1     166.755 176.963  69.835  1.00  0.00     0.344 HD
ATOM      7  H   UNL     1     166.200 175.372  70.056  1.00  0.00     0.344 HD
ENDBRANCH   3   4
ENDBRANCH   2   3
ENDBRANCH   1   2
BRANCH   1   8
ATOM      8  C   UNL     1     166.537 176.052  73.646  1.00  0.00     0.072 C 
BRANCH   8   9
ATOM      9  C   UNL     1     165.030 175.737  73.792  1.00  0.00     0.227 C 
BRANCH   9  10
ATOM     10  N   UNL     1     164.292 176.013  72.551  1.00  0.00    -0.350 N 
ATOM     11  H   UNL     1     163.496 175.343  72.451  1.00  0.00     0.345 HD
ATOM     12  H   UNL     1     164.922 175.931  71.719  1.00  0.00     0.345 HD
ATOM     13  H   UNL     1     163.890 176.978  72.582  1.00  0.00     0.345 HD
ENDBRANCH   9  10
BRANCH   9  14
ATOM     14  C   UNL     1     164.460 176.552  74.923  1.00  0.00     0.099 C 
ATOM     15  O   UNL     1     165.223 177.223  75.667  1.00  0.00    -0.544 OA
ATOM     16  O   UNL     1     163.086 176.594  75.133  1.00  0.00    -0.544 OA
ENDBRANCH   9  14
ENDBRANCH   8   9
ENDBRANCH   1   8
TORSDOF 7
ENDMDL
MODEL 9
REMARK VINA RESULT:    -3.224      2.473      3.382
REMARK INTER + INTRA:          -4.732
REMARK INTER:                  -4.230
REMARK INTRA:                  -0.503
REMARK UNBOUND:                -0.378
REMARK SMILES [NH3+]CCCC[C@H]([NH3+])C(=O)[O-]
REMARK SMILES IDX 4 1 3 2 2 3 1 4 5 8 6 9 7 10 8 14 9 15 10 16
REMARK H PARENT 1 5 1 6 1 7 7 11 7 12 7 13
REMARK Flexibility Score: inf
ROOT
ATOM      1  C   UNL     1     163.286 176.362  76.507  1.00  0.00     0.012 C 
ENDROOT
BRANCH   1   2
ATOM      2  C   UNL     1     161.999 175.781  75.887  1.00  0.00     0.061 C 
BRANCH   2   3
ATOM      3  C   UNL     1     162.041 174.265  75.615  1.00  0.00     0.258 C 
BRANCH   3   4
ATOM      4  N   UNL     1     162.487 173.958  74.255  1.00  0.00    -0.358 N 
ATOM      5  H   UNL     1     163.100 173.112  74.256  1.00  0.00     0.344 HD
ATOM      6  H   UNL     1     163.000 174.773  73.847  1.00  0.00     0.344 HD
ATOM      7  H   UNL     1     161.651 173.757  73.662  1.00  0.00     0.344 HD
ENDBRANCH   3   4
ENDBRANCH   2   3
ENDBRANCH   1   2
BRANCH   1   8
ATOM      8  C   UNL     1     164.228 177.075  75.517  1.00  0.00     0.072 C 
BRANCH   8   9
ATOM      9  C   UNL     1     165.537 176.315  75.201  1.00  0.00     0.227 C 
BRANCH   9  10
ATOM     10  N   UNL     1     166.726 177.112  75.537  1.00  0.00    -0.350 N 
ATOM     11  H   UNL     1     167.445 177.018  74.784  1.00  0.00     0.345 HD
ATOM     12  H   UNL     1     167.135 176.801  76.449  1.00  0.00     0.345 HD
ATOM     13  H   UNL     1     166.469 178.124  75.604  1.00  0.00     0.345 HD
ENDBRANCH   9  10
BRANCH   9  14
ATOM     14  C   UNL     1     165.558 175.946  73.741  1.00  0.00     0.099 C 
ATOM     15  O   UNL     1     164.485 175.909  73.083  1.00  0.00    -0.544 OA
ATOM     16  O   UNL     1     166.763 175.676  73.103  1.00  0.00    -0.544 OA
ENDBRANCH   9  14
ENDBRANCH   8   9
ENDBRANCH   1   8
TORSDOF 7
ENDMDL
