MODEL 1
REMARK VINA RESULT:    -5.720      0.000      0.000
REMARK INTER + INTRA:          -6.055
REMARK INTER:                  -6.055
REMARK INTRA:                   0.000
REMARK UNBOUND:                 0.000
REMARK SMILES O=c1ccc2cc(O)c(O)cc2o1
REMARK SMILES IDX 4 1 3 2 2 3 1 4 13 5 12 6 11 7 9 8 7 9 6 10 5 11 8 12 10 14
REMARK H PARENT 8 13 10 15
REMARK Flexibility Score: inf
ROOT
ATOM      1  C   UNL     1      89.481  -2.388  43.637  1.00  0.00     0.019 A 
ATOM      2  C   UNL     1      88.377  -3.140  44.039  1.00  0.00     0.094 A 
ATOM      3  C   UNL     1      87.367  -2.518  44.780  1.00  0.00     0.336 A 
ATOM      4  O   UNL     1      86.363  -3.179  45.152  1.00  0.00    -0.246 OA
ATOM      5  O   UNL     1      87.460  -1.228  45.096  1.00  0.00    -0.423 OA
ATOM      6  C   UNL     1      88.494  -0.475  44.732  1.00  0.00     0.142 A 
ATOM      7  C   UNL     1      88.537   0.875  45.092  1.00  0.00     0.098 A 
ATOM      8  C   UNL     1      89.626   1.674  44.712  1.00  0.00     0.161 A 
ATOM      9  C   UNL     1      90.676   1.119  43.966  1.00  0.00     0.158 A 
ATOM     10  C   UNL     1      90.639  -0.236  43.602  1.00  0.00     0.062 A 
ATOM     11  C   UNL     1      89.551  -1.035  43.982  1.00  0.00     0.022 A 
ENDROOT
BRANCH   9  12
ATOM     12  O   UNL     1      91.754   1.919  43.592  1.00  0.00    -0.504 OA
ATOM     13  H   UNL     1      91.737   2.925  43.718  1.00  0.00     0.293 HD
ENDBRANCH   9  12
BRANCH   8  14
ATOM     14  O   UNL     1      89.671   3.020  45.070  1.00  0.00    -0.504 OA
ATOM     15  H   UNL     1      89.293   3.741  44.467  1.00  0.00     0.293 HD
ENDBRANCH   8  14
TORSDOF 2
ENDMDL
MODEL 2
REMARK VINA RESULT:    -5.715      1.216      4.544
REMARK INTER + INTRA:          -6.049
REMARK INTER:                  -6.049
REMARK INTRA:                   0.000
REMARK UNBOUND:                 0.000
REMARK SMILES O=c1ccc2cc(O)c(O)cc2o1
REMARK SMILES IDX 4 1 3 2 2 3 1 4 13 5 12 6 11 7 9 8 7 9 6 10 5 11 8 12 10 14
REMARK H PARENT 8 13 10 15
REMARK Flexibility Score: inf
ROOT
ATOM      1  C   UNL     1      90.367  -0.200  43.617  1.00  0.00     0.019 A 
ATOM      2  C   UNL     1      90.127   1.131  43.958  1.00  0.00     0.094 A 
ATOM      3  C   UNL     1      88.965   1.450  44.669  1.00  0.00     0.336 A 
ATOM      4  O   UNL     1      88.730   2.645  44.986  1.00  0.00    -0.246 OA
ATOM      5  O   UNL     1      88.103   0.496  45.013  1.00  0.00    -0.423 OA
ATOM      6  C   UNL     1      88.293  -0.785  44.708  1.00  0.00     0.142 A 
ATOM      7  C   UNL     1      87.353  -1.744  45.096  1.00  0.00     0.098 A 
ATOM      8  C   UNL     1      87.549  -3.096  44.777  1.00  0.00     0.161 A 
ATOM      9  C   UNL     1      88.692  -3.490  44.067  1.00  0.00     0.158 A 
ATOM     10  C   UNL     1      89.640  -2.532  43.674  1.00  0.00     0.062 A 
ATOM     11  C   UNL     1      89.444  -1.181  43.993  1.00  0.00     0.022 A 
ENDROOT
BRANCH   9  12
ATOM     12  O   UNL     1      88.879  -4.835  43.754  1.00  0.00    -0.504 OA
ATOM     13  H   UNL     1      88.988  -5.147  42.795  1.00  0.00     0.293 HD
ENDBRANCH   9  12
BRANCH   8  14
ATOM     14  O   UNL     1      86.613  -4.054  45.163  1.00  0.00    -0.504 OA
ATOM     15  H   UNL     1      86.815  -5.045  45.102  1.00  0.00     0.293 HD
ENDBRANCH   8  14
TORSDOF 2
ENDMDL
MODEL 3
REMARK VINA RESULT:    -5.704      1.458      2.124
REMARK INTER + INTRA:          -6.038
REMARK INTER:                  -6.038
REMARK INTRA:                   0.000
REMARK UNBOUND:                 0.000
REMARK SMILES O=c1ccc2cc(O)c(O)cc2o1
REMARK SMILES IDX 4 1 3 2 2 3 1 4 13 5 12 6 11 7 9 8 7 9 6 10 5 11 8 12 10 14
REMARK H PARENT 8 13 10 15
REMARK Flexibility Score: inf
ROOT
ATOM      1  C   UNL     1      90.387  -0.332  43.491  1.00  0.00     0.019 A 
ATOM      2  C   UNL     1      89.449  -1.254  43.957  1.00  0.00     0.094 A 
ATOM      3  C   UNL     1      88.355  -0.793  44.696  1.00  0.00     0.336 A 
ATOM      4  O   UNL     1      87.497  -1.608  45.125  1.00  0.00    -0.246 OA
ATOM      5  O   UNL     1      88.212   0.506  44.949  1.00  0.00    -0.423 OA
ATOM      6  C   UNL     1      89.083   1.418  44.524  1.00  0.00     0.142 A 
ATOM      7  C   UNL     1      88.881   2.769  44.821  1.00  0.00     0.098 A 
ATOM      8  C   UNL     1      89.796   3.735  44.375  1.00  0.00     0.161 A 
ATOM      9  C   UNL     1      90.917   3.346  43.628  1.00  0.00     0.158 A 
ATOM     10  C   UNL     1      91.126   1.991  43.327  1.00  0.00     0.062 A 
ATOM     11  C   UNL     1      90.211   1.026  43.772  1.00  0.00     0.022 A 
ENDROOT
BRANCH   9  12
ATOM     12  O   UNL     1      91.822   4.312  43.188  1.00  0.00    -0.504 OA
ATOM     13  H   UNL     1      92.663   4.528  43.711  1.00  0.00     0.293 HD
ENDBRANCH   9  12
BRANCH   8  14
ATOM     14  O   UNL     1      89.598   5.083  44.669  1.00  0.00    -0.504 OA
ATOM     15  H   UNL     1      89.527   5.779  43.937  1.00  0.00     0.293 HD
ENDBRANCH   8  14
TORSDOF 2
ENDMDL
MODEL 4
REMARK VINA RESULT:    -5.682      1.267      5.043
REMARK INTER + INTRA:          -6.015
REMARK INTER:                  -6.015
REMARK INTRA:                   0.000
REMARK UNBOUND:                 0.000
REMARK SMILES O=c1ccc2cc(O)c(O)cc2o1
REMARK SMILES IDX 4 1 3 2 2 3 1 4 13 5 12 6 11 7 9 8 7 9 6 10 5 11 8 12 10 14
REMARK H PARENT 8 13 10 15
REMARK Flexibility Score: inf
ROOT
ATOM      1  C   UNL     1      88.818   1.806  44.773  1.00  0.00     0.019 A 
ATOM      2  C   UNL     1      89.990   2.451  44.375  1.00  0.00     0.094 A 
ATOM      3  C   UNL     1      90.937   1.737  43.634  1.00  0.00     0.336 A 
ATOM      4  O   UNL     1      92.001   2.301  43.264  1.00  0.00    -0.246 OA
ATOM      5  O   UNL     1      90.723   0.463  43.315  1.00  0.00    -0.423 OA
ATOM      6  C   UNL     1      89.621  -0.189  43.674  1.00  0.00     0.142 A 
ATOM      7  C   UNL     1      89.450  -1.528  43.311  1.00  0.00     0.098 A 
ATOM      8  C   UNL     1      88.290  -2.221  43.687  1.00  0.00     0.161 A 
ATOM      9  C   UNL     1      87.295  -1.570  44.431  1.00  0.00     0.158 A 
ATOM     10  C   UNL     1      87.460  -0.225  44.800  1.00  0.00     0.062 A 
ATOM     11  C   UNL     1      88.620   0.467  44.423  1.00  0.00     0.022 A 
ENDROOT
BRANCH   9  12
ATOM     12  O   UNL     1      86.145  -2.265  44.801  1.00  0.00    -0.504 OA
ATOM     13  H   UNL     1      85.372  -1.802  45.267  1.00  0.00     0.293 HD
ENDBRANCH   9  12
BRANCH   8  14
ATOM     14  O   UNL     1      88.117  -3.556  43.326  1.00  0.00    -0.504 OA
ATOM     15  H   UNL     1      87.913  -4.269  44.017  1.00  0.00     0.293 HD
ENDBRANCH   8  14
TORSDOF 2
ENDMDL
MODEL 5
REMARK VINA RESULT:    -5.673      2.094      3.340
REMARK INTER + INTRA:          -6.004
REMARK INTER:                  -6.004
REMARK INTRA:                   0.000
REMARK UNBOUND:                 0.000
REMARK SMILES O=c1ccc2cc(O)c(O)cc2o1
REMARK SMILES IDX 4 1 3 2 2 3 1 4 13 5 12 6 11 7 9 8 7 9 6 10 5 11 8 12 10 14
REMARK H PARENT 8 13 10 15
REMARK Flexibility Score: inf
ROOT
ATOM      1  C   UNL     1      88.468   0.441  44.757  1.00  0.00     0.019 A 
ATOM      2  C   UNL     1      88.829  -0.862  44.415  1.00  0.00     0.094 A 
ATOM      3  C   UNL     1      90.022  -1.074  43.717  1.00  0.00     0.336 A 
ATOM      4  O   UNL     1      90.365  -2.243  43.399  1.00  0.00    -0.246 OA
ATOM      5  O   UNL     1      90.799  -0.046  43.384  1.00  0.00    -0.423 OA
ATOM      6  C   UNL     1      90.493   1.211  43.690  1.00  0.00     0.142 A 
ATOM      7  C   UNL     1      91.349   2.251  43.315  1.00  0.00     0.098 A 
ATOM      8  C   UNL     1      91.031   3.579  43.635  1.00  0.00     0.161 A 
ATOM      9  C   UNL     1      89.851   3.868  44.335  1.00  0.00     0.158 A 
ATOM     10  C   UNL     1      88.987   2.828  44.715  1.00  0.00     0.062 A 
ATOM     11  C   UNL     1      89.305   1.501  44.395  1.00  0.00     0.022 A 
ENDROOT
BRANCH   9  12
ATOM     12  O   UNL     1      89.541   5.190  44.650  1.00  0.00    -0.504 OA
ATOM     13  H   UNL     1      88.691   5.433  45.145  1.00  0.00     0.293 HD
ENDBRANCH   9  12
BRANCH   8  14
ATOM     14  O   UNL     1      91.882   4.617  43.262  1.00  0.00    -0.504 OA
ATOM     15  H   UNL     1      91.907   5.491  43.774  1.00  0.00     0.293 HD
ENDBRANCH   8  14
TORSDOF 2
ENDMDL
MODEL 6
REMARK VINA RESULT:    -5.587      1.125      2.254
REMARK INTER + INTRA:          -5.914
REMARK INTER:                  -5.914
REMARK INTRA:                   0.000
REMARK UNBOUND:                 0.000
REMARK SMILES O=c1ccc2cc(O)c(O)cc2o1
REMARK SMILES IDX 4 1 3 2 2 3 1 4 13 5 12 6 11 7 9 8 7 9 6 10 5 11 8 12 10 14
REMARK H PARENT 8 13 10 15
REMARK Flexibility Score: inf
ROOT
ATOM      1  C   UNL     1      87.265  -1.354  45.128  1.00  0.00     0.019 A 
ATOM      2  C   UNL     1      87.176  -2.709  44.806  1.00  0.00     0.094 A 
ATOM      3  C   UNL     1      88.197  -3.295  44.050  1.00  0.00     0.336 A 
ATOM      4  O   UNL     1      88.135  -4.516  43.750  1.00  0.00    -0.246 OA
ATOM      5  O   UNL     1      89.237  -2.569  43.645  1.00  0.00    -0.423 OA
ATOM      6  C   UNL     1      89.361  -1.275  43.930  1.00  0.00     0.142 A 
ATOM      7  C   UNL     1      90.476  -0.564  43.478  1.00  0.00     0.098 A 
ATOM      8  C   UNL     1      90.612   0.800  43.775  1.00  0.00     0.161 A 
ATOM      9  C   UNL     1      89.628   1.455  44.530  1.00  0.00     0.158 A 
ATOM     10  C   UNL     1      88.505   0.746  44.986  1.00  0.00     0.062 A 
ATOM     11  C   UNL     1      88.370  -0.617  44.689  1.00  0.00     0.022 A 
ENDROOT
BRANCH   9  12
ATOM     12  O   UNL     1      89.770   2.811  44.821  1.00  0.00    -0.504 OA
ATOM     13  H   UNL     1      89.490   3.193  45.717  1.00  0.00     0.293 HD
ENDBRANCH   9  12
BRANCH   8  14
ATOM     14  O   UNL     1      91.722   1.513  43.326  1.00  0.00    -0.504 OA
ATOM     15  H   UNL     1      91.975   1.536  42.345  1.00  0.00     0.293 HD
ENDBRANCH   8  14
TORSDOF 2
ENDMDL
MODEL 7
REMARK VINA RESULT:    -5.460      2.442      3.839
REMARK INTER + INTRA:          -5.779
REMARK INTER:                  -5.779
REMARK INTRA:                   0.000
REMARK UNBOUND:                 0.000
REMARK SMILES O=c1ccc2cc(O)c(O)cc2o1
REMARK SMILES IDX 4 1 3 2 2 3 1 4 13 5 12 6 11 7 9 8 7 9 6 10 5 11 8 12 10 14
REMARK H PARENT 8 13 10 15
REMARK Flexibility Score: inf
ROOT
ATOM      1  C   UNL     1      88.740  -0.080  44.349  1.00  0.00     0.019 A 
ATOM      2  C   UNL     1      87.376  -0.069  44.644  1.00  0.00     0.094 A 
ATOM      3  C   UNL     1      86.695  -1.286  44.742  1.00  0.00     0.336 A 
ATOM      4  O   UNL     1      85.464  -1.298  45.009  1.00  0.00    -0.246 OA
ATOM      5  O   UNL     1      87.339  -2.436  44.556  1.00  0.00    -0.423 OA
ATOM      6  C   UNL     1      88.638  -2.491  44.272  1.00  0.00     0.142 A 
ATOM      7  C   UNL     1      89.261  -3.729  44.087  1.00  0.00     0.098 A 
ATOM      8  C   UNL     1      90.630  -3.793  43.787  1.00  0.00     0.161 A 
ATOM      9  C   UNL     1      91.379  -2.612  43.674  1.00  0.00     0.158 A 
ATOM     10  C   UNL     1      90.758  -1.367  43.859  1.00  0.00     0.062 A 
ATOM     11  C   UNL     1      89.390  -1.303  44.158  1.00  0.00     0.022 A 
ENDROOT
BRANCH   9  12
ATOM     12  O   UNL     1      92.738  -2.684  43.377  1.00  0.00    -0.504 OA
ATOM     13  H   UNL     1      93.231  -1.906  42.952  1.00  0.00     0.293 HD
ENDBRANCH   9  12
BRANCH   8  14
ATOM     14  O   UNL     1      91.254  -5.025  43.602  1.00  0.00    -0.504 OA
ATOM     15  H   UNL     1      90.844  -5.884  43.950  1.00  0.00     0.293 HD
ENDBRANCH   8  14
TORSDOF 2
ENDMDL
MODEL 8
REMARK VINA RESULT:    -5.454      1.623      2.876
REMARK INTER + INTRA:          -5.773
REMARK INTER:                  -5.773
REMARK INTRA:                   0.000
REMARK UNBOUND:                 0.000
REMARK SMILES O=c1ccc2cc(O)c(O)cc2o1
REMARK SMILES IDX 4 1 3 2 2 3 1 4 13 5 12 6 11 7 9 8 7 9 6 10 5 11 8 12 10 14
REMARK H PARENT 8 13 10 15
REMARK Flexibility Score: inf
ROOT
ATOM      1  C   UNL     1      86.927  -0.596  44.733  1.00  0.00     0.019 A 
ATOM      2  C   UNL     1      86.022  -1.574  45.145  1.00  0.00     0.094 A 
ATOM      3  C   UNL     1      86.424  -2.914  45.142  1.00  0.00     0.336 A 
ATOM      4  O   UNL     1      85.622  -3.812  45.511  1.00  0.00    -0.246 OA
ATOM      5  O   UNL     1      87.651  -3.248  44.751  1.00  0.00    -0.423 OA
ATOM      6  C   UNL     1      88.545  -2.347  44.351  1.00  0.00     0.142 A 
ATOM      7  C   UNL     1      89.820  -2.757  43.951  1.00  0.00     0.098 A 
ATOM      8  C   UNL     1      90.766  -1.812  43.527  1.00  0.00     0.161 A 
ATOM      9  C   UNL     1      90.434  -0.450  43.505  1.00  0.00     0.158 A 
ATOM     10  C   UNL     1      89.155  -0.032  43.905  1.00  0.00     0.062 A 
ATOM     11  C   UNL     1      88.210  -0.976  44.328  1.00  0.00     0.022 A 
ENDROOT
BRANCH   9  12
ATOM     12  O   UNL     1      91.380   0.484  43.083  1.00  0.00    -0.504 OA
ATOM     13  H   UNL     1      91.175   1.477  43.068  1.00  0.00     0.293 HD
ENDBRANCH   9  12
BRANCH   8  14
ATOM     14  O   UNL     1      92.038  -2.218  43.128  1.00  0.00    -0.504 OA
ATOM     15  H   UNL     1      92.587  -2.862  43.685  1.00  0.00     0.293 HD
ENDBRANCH   8  14
TORSDOF 2
ENDMDL
MODEL 9
REMARK VINA RESULT:    -5.434      2.248      3.505
REMARK INTER + INTRA:          -5.752
REMARK INTER:                  -5.752
REMARK INTRA:                   0.000
REMARK UNBOUND:                 0.000
REMARK SMILES O=c1ccc2cc(O)c(O)cc2o1
REMARK SMILES IDX 4 1 3 2 2 3 1 4 13 5 12 6 11 7 9 8 7 9 6 10 5 11 8 12 10 14
REMARK H PARENT 8 13 10 15
REMARK Flexibility Score: inf
ROOT
ATOM      1  C   UNL     1      89.151  -3.624  44.134  1.00  0.00     0.019 A 
ATOM      2  C   UNL     1      90.415  -4.092  43.771  1.00  0.00     0.094 A 
ATOM      3  C   UNL     1      91.430  -3.167  43.508  1.00  0.00     0.336 A 
ATOM      4  O   UNL     1      92.577  -3.569  43.180  1.00  0.00    -0.246 OA
ATOM      5  O   UNL     1      91.193  -1.860  43.603  1.00  0.00    -0.423 OA
ATOM      6  C   UNL     1      90.004  -1.372  43.946  1.00  0.00     0.142 A 
ATOM      7  C   UNL     1      89.813   0.010  44.030  1.00  0.00     0.098 A 
ATOM      8  C   UNL     1      88.562   0.531  44.390  1.00  0.00     0.161 A 
ATOM      9  C   UNL     1      87.495  -0.337  44.669  1.00  0.00     0.158 A 
ATOM     10  C   UNL     1      87.680  -1.726  44.587  1.00  0.00     0.062 A 
ATOM     11  C   UNL     1      88.931  -2.246  44.226  1.00  0.00     0.022 A 
ENDROOT
BRANCH   9  12
ATOM     12  O   UNL     1      86.255   0.188  45.027  1.00  0.00    -0.504 OA
ATOM     13  H   UNL     1      86.156   1.143  45.353  1.00  0.00     0.293 HD
ENDBRANCH   9  12
BRANCH   8  14
ATOM     14  O   UNL     1      88.368   1.908  44.474  1.00  0.00    -0.504 OA
ATOM     15  H   UNL     1      87.669   2.380  43.912  1.00  0.00     0.293 HD
ENDBRANCH   8  14
TORSDOF 2
ENDMDL
