MODEL 1
REMARK VINA RESULT:    -4.528      0.000      0.000
REMARK INTER + INTRA:          -5.096
REMARK INTER:                  -5.058
REMARK INTRA:                  -0.038
REMARK UNBOUND:                -0.038
REMARK SMILES O=C([O-])c1ccc(O)c(O)c1
REMARK SMILES IDX 4 1 11 2 5 3 9 4 6 5 7 6 2 7 1 8 3 9 10 10 8 12
REMARK H PARENT 10 11 8 13
REMARK Flexibility Score: inf
ROOT
ATOM      1  C   UNL     1      11.915  14.398  10.308  1.00  0.00     0.001 A 
ATOM      2  C   UNL     1      11.442  15.441   9.491  1.00  0.00     0.060 A 
ATOM      3  C   UNL     1      12.028  14.613  11.692  1.00  0.00     0.014 A 
ATOM      4  C   UNL     1      11.088  16.679  10.048  1.00  0.00     0.158 A 
ATOM      5  C   UNL     1      11.676  15.847  12.248  1.00  0.00     0.051 A 
ATOM      6  C   UNL     1      11.205  16.881  11.429  1.00  0.00     0.157 A 
ENDROOT
BRANCH   1   7
ATOM      7  C   UNL     1      12.289  13.090   9.724  1.00  0.00     0.072 C 
ATOM      8  O   UNL     1      11.460  12.434   9.040  1.00  0.00    -0.545 OA
ATOM      9  O   UNL     1      13.562  12.569   9.921  1.00  0.00    -0.545 OA
ENDBRANCH   1   7
BRANCH   4  10
ATOM     10  O   UNL     1      10.620  17.710   9.237  1.00  0.00    -0.504 OA
ATOM     11  H   UNL     1       9.631  17.835   9.057  1.00  0.00     0.293 HD
ENDBRANCH   4  10
BRANCH   6  12
ATOM     12  O   UNL     1      10.853  18.112  11.979  1.00  0.00    -0.504 OA
ATOM     13  H   UNL     1      10.119  18.193  12.673  1.00  0.00     0.293 HD
ENDBRANCH   6  12
TORSDOF 3
ENDMDL
MODEL 2
REMARK VINA RESULT:    -4.395      3.106      4.345
REMARK INTER + INTRA:          -4.947
REMARK INTER:                  -4.906
REMARK INTRA:                  -0.040
REMARK UNBOUND:                -0.038
REMARK SMILES O=C([O-])c1ccc(O)c(O)c1
REMARK SMILES IDX 4 1 11 2 5 3 9 4 6 5 7 6 2 7 1 8 3 9 10 10 8 12
REMARK H PARENT 10 11 8 13
REMARK Flexibility Score: inf
ROOT
ATOM      1  C   UNL     1      14.092  16.956  12.368  1.00  0.00     0.001 A 
ATOM      2  C   UNL     1      13.496  15.686  12.253  1.00  0.00     0.060 A 
ATOM      3  C   UNL     1      13.288  18.100  12.229  1.00  0.00     0.014 A 
ATOM      4  C   UNL     1      12.122  15.563  12.003  1.00  0.00     0.158 A 
ATOM      5  C   UNL     1      11.918  17.978  11.980  1.00  0.00     0.051 A 
ATOM      6  C   UNL     1      11.332  16.711  11.867  1.00  0.00     0.157 A 
ENDROOT
BRANCH   1   7
ATOM      7  C   UNL     1      15.541  17.090  12.632  1.00  0.00     0.072 C 
ATOM      8  O   UNL     1      16.373  16.364  12.024  1.00  0.00    -0.545 OA
ATOM      9  O   UNL     1      16.007  18.019  13.554  1.00  0.00    -0.545 OA
ENDBRANCH   1   7
BRANCH   4  10
ATOM     10  O   UNL     1      11.534  14.304  11.890  1.00  0.00    -0.504 OA
ATOM     11  H   UNL     1      10.673  14.076  12.372  1.00  0.00     0.293 HD
ENDBRANCH   4  10
BRANCH   6  12
ATOM     12  O   UNL     1       9.966  16.585  11.619  1.00  0.00    -0.504 OA
ATOM     13  H   UNL     1       9.344  16.141  12.283  1.00  0.00     0.293 HD
ENDBRANCH   6  12
TORSDOF 3
ENDMDL
MODEL 3
REMARK VINA RESULT:    -4.335      3.036      3.693
REMARK INTER + INTRA:          -4.880
REMARK INTER:                  -4.839
REMARK INTRA:                  -0.041
REMARK UNBOUND:                -0.038
REMARK SMILES O=C([O-])c1ccc(O)c(O)c1
REMARK SMILES IDX 4 1 11 2 5 3 9 4 6 5 7 6 2 7 1 8 3 9 10 10 8 12
REMARK H PARENT 10 11 8 13
REMARK Flexibility Score: inf
ROOT
ATOM      1  C   UNL     1      13.777  16.963   9.244  1.00  0.00     0.001 A 
ATOM      2  C   UNL     1      14.034  17.198  10.608  1.00  0.00     0.060 A 
ATOM      3  C   UNL     1      12.448  16.987   8.787  1.00  0.00     0.014 A 
ATOM      4  C   UNL     1      12.980  17.453  11.498  1.00  0.00     0.158 A 
ATOM      5  C   UNL     1      11.398  17.241   9.674  1.00  0.00     0.051 A 
ATOM      6  C   UNL     1      11.661  17.474  11.030  1.00  0.00     0.157 A 
ENDROOT
BRANCH   1   7
ATOM      7  C   UNL     1      14.885  16.694   8.302  1.00  0.00     0.072 C 
ATOM      8  O   UNL     1      14.847  17.139   7.123  1.00  0.00    -0.545 OA
ATOM      9  O   UNL     1      15.987  15.948   8.704  1.00  0.00    -0.545 OA
ENDBRANCH   1   7
BRANCH   4  10
ATOM     10  O   UNL     1      13.237  17.686  12.848  1.00  0.00    -0.504 OA
ATOM     11  H   UNL     1      14.173  17.882  13.183  1.00  0.00     0.293 HD
ENDBRANCH   4  10
BRANCH   6  12
ATOM     12  O   UNL     1      10.616  17.728  11.917  1.00  0.00    -0.504 OA
ATOM     13  H   UNL     1       9.660  17.822  11.598  1.00  0.00     0.293 HD
ENDBRANCH   6  12
TORSDOF 3
ENDMDL
MODEL 4
REMARK VINA RESULT:    -4.330      2.215      2.538
REMARK INTER + INTRA:          -4.874
REMARK INTER:                  -4.830
REMARK INTRA:                  -0.044
REMARK UNBOUND:                -0.038
REMARK SMILES O=C([O-])c1ccc(O)c(O)c1
REMARK SMILES IDX 4 1 11 2 5 3 9 4 6 5 7 6 2 7 1 8 3 9 10 10 8 12
REMARK H PARENT 10 11 8 13
REMARK Flexibility Score: inf
ROOT
ATOM      1  C   UNL     1      13.665  15.767  10.036  1.00  0.00     0.001 A 
ATOM      2  C   UNL     1      12.859  16.796   9.516  1.00  0.00     0.060 A 
ATOM      3  C   UNL     1      13.201  15.027  11.137  1.00  0.00     0.014 A 
ATOM      4  C   UNL     1      11.610  17.082  10.089  1.00  0.00     0.158 A 
ATOM      5  C   UNL     1      11.958  15.311  11.708  1.00  0.00     0.051 A 
ATOM      6  C   UNL     1      11.159  16.337  11.186  1.00  0.00     0.157 A 
ENDROOT
BRANCH   1   7
ATOM      7  C   UNL     1      14.983  15.463   9.434  1.00  0.00     0.072 C 
ATOM      8  O   UNL     1      15.700  14.536   9.898  1.00  0.00    -0.545 OA
ATOM      9  O   UNL     1      15.447  16.195   8.348  1.00  0.00    -0.545 OA
ENDBRANCH   1   7
BRANCH   4  10
ATOM     10  O   UNL     1      10.813  18.101   9.573  1.00  0.00    -0.504 OA
ATOM     11  H   UNL     1       9.802  18.066   9.633  1.00  0.00     0.293 HD
ENDBRANCH   4  10
BRANCH   6  12
ATOM     12  O   UNL     1       9.919  16.623  11.752  1.00  0.00    -0.504 OA
ATOM     13  H   UNL     1       9.054  16.337  11.310  1.00  0.00     0.293 HD
ENDBRANCH   6  12
TORSDOF 3
ENDMDL
MODEL 5
REMARK VINA RESULT:    -4.256      1.184      2.360
REMARK INTER + INTRA:          -4.791
REMARK INTER:                  -4.747
REMARK INTRA:                  -0.044
REMARK UNBOUND:                -0.038
REMARK SMILES O=C([O-])c1ccc(O)c(O)c1
REMARK SMILES IDX 4 1 11 2 5 3 9 4 6 5 7 6 2 7 1 8 3 9 10 10 8 12
REMARK H PARENT 10 11 8 13
REMARK Flexibility Score: inf
ROOT
ATOM      1  C   UNL     1      12.464  14.433  11.047  1.00  0.00     0.001 A 
ATOM      2  C   UNL     1      12.126  15.405  12.007  1.00  0.00     0.060 A 
ATOM      3  C   UNL     1      12.247  14.712   9.687  1.00  0.00     0.014 A 
ATOM      4  C   UNL     1      11.579  16.635  11.613  1.00  0.00     0.158 A 
ATOM      5  C   UNL     1      11.702  15.938   9.295  1.00  0.00     0.051 A 
ATOM      6  C   UNL     1      11.367  16.902  10.255  1.00  0.00     0.157 A 
ENDROOT
BRANCH   1   7
ATOM      7  C   UNL     1      13.042  13.134  11.459  1.00  0.00     0.072 C 
ATOM      8  O   UNL     1      13.262  12.887  12.675  1.00  0.00    -0.545 OA
ATOM      9  O   UNL     1      13.349  12.167  10.509  1.00  0.00    -0.545 OA
ENDBRANCH   1   7
BRANCH   4  10
ATOM     10  O   UNL     1      11.245  17.596  12.565  1.00  0.00    -0.504 OA
ATOM     11  H   UNL     1      11.380  18.585  12.390  1.00  0.00     0.293 HD
ENDBRANCH   4  10
BRANCH   6  12
ATOM     12  O   UNL     1      10.824  18.125   9.867  1.00  0.00    -0.504 OA
ATOM     13  H   UNL     1      10.850  18.935  10.475  1.00  0.00     0.293 HD
ENDBRANCH   6  12
TORSDOF 3
ENDMDL
MODEL 6
REMARK VINA RESULT:    -4.124      4.888      5.556
REMARK INTER + INTRA:          -4.644
REMARK INTER:                  -4.607
REMARK INTRA:                  -0.037
REMARK UNBOUND:                -0.038
REMARK SMILES O=C([O-])c1ccc(O)c(O)c1
REMARK SMILES IDX 4 1 11 2 5 3 9 4 6 5 7 6 2 7 1 8 3 9 10 10 8 12
REMARK H PARENT 10 11 8 13
REMARK Flexibility Score: inf
ROOT
ATOM      1  C   UNL     1      16.664  16.680   8.877  1.00  0.00     0.001 A 
ATOM      2  C   UNL     1      15.751  17.048   9.883  1.00  0.00     0.060 A 
ATOM      3  C   UNL     1      16.236  16.671   7.538  1.00  0.00     0.014 A 
ATOM      4  C   UNL     1      14.433  17.400   9.556  1.00  0.00     0.158 A 
ATOM      5  C   UNL     1      14.923  17.021   7.212  1.00  0.00     0.051 A 
ATOM      6  C   UNL     1      14.019  17.387   8.218  1.00  0.00     0.157 A 
ENDROOT
BRANCH   1   7
ATOM      7  C   UNL     1      18.055  16.309   9.218  1.00  0.00     0.072 C 
ATOM      8  O   UNL     1      18.444  15.115   9.111  1.00  0.00    -0.545 OA
ATOM      9  O   UNL     1      18.953  17.272   9.661  1.00  0.00    -0.545 OA
ENDBRANCH   1   7
BRANCH   4  10
ATOM     10  O   UNL     1      13.531  17.764  10.553  1.00  0.00    -0.504 OA
ATOM     11  H   UNL     1      12.576  17.426  10.553  1.00  0.00     0.293 HD
ENDBRANCH   4  10
BRANCH   6  12
ATOM     12  O   UNL     1      12.709  17.737   7.897  1.00  0.00    -0.504 OA
ATOM     13  H   UNL     1      12.463  18.682   7.625  1.00  0.00     0.293 HD
ENDBRANCH   6  12
TORSDOF 3
ENDMDL
MODEL 7
REMARK VINA RESULT:    -4.076      3.145      4.263
REMARK INTER + INTRA:          -4.591
REMARK INTER:                  -4.548
REMARK INTRA:                  -0.043
REMARK UNBOUND:                -0.038
REMARK SMILES O=C([O-])c1ccc(O)c(O)c1
REMARK SMILES IDX 4 1 11 2 5 3 9 4 6 5 7 6 2 7 1 8 3 9 10 10 8 12
REMARK H PARENT 10 11 8 13
REMARK Flexibility Score: inf
ROOT
ATOM      1  C   UNL     1      14.272  17.355  10.962  1.00  0.00     0.001 A 
ATOM      2  C   UNL     1      13.150  17.731  11.723  1.00  0.00     0.060 A 
ATOM      3  C   UNL     1      14.094  17.002   9.613  1.00  0.00     0.014 A 
ATOM      4  C   UNL     1      11.871  17.752  11.145  1.00  0.00     0.158 A 
ATOM      5  C   UNL     1      12.821  17.024   9.037  1.00  0.00     0.051 A 
ATOM      6  C   UNL     1      11.707  17.399   9.800  1.00  0.00     0.157 A 
ENDROOT
BRANCH   1   7
ATOM      7  C   UNL     1      15.622  17.331  11.567  1.00  0.00     0.072 C 
ATOM      8  O   UNL     1      16.649  17.451  10.848  1.00  0.00    -0.545 OA
ATOM      9  O   UNL     1      15.775  17.177  12.940  1.00  0.00    -0.545 OA
ENDBRANCH   1   7
BRANCH   4  10
ATOM     10  O   UNL     1      10.761  18.125  11.900  1.00  0.00    -0.504 OA
ATOM     11  H   UNL     1      10.011  18.677  11.503  1.00  0.00     0.293 HD
ENDBRANCH   4  10
BRANCH   6  12
ATOM     12  O   UNL     1      10.436  17.422   9.229  1.00  0.00    -0.504 OA
ATOM     13  H   UNL     1       9.988  18.291   8.964  1.00  0.00     0.293 HD
ENDBRANCH   6  12
TORSDOF 3
ENDMDL
MODEL 8
REMARK VINA RESULT:    -4.068      4.311      4.620
REMARK INTER + INTRA:          -4.582
REMARK INTER:                  -4.543
REMARK INTRA:                  -0.039
REMARK UNBOUND:                -0.038
REMARK SMILES O=C([O-])c1ccc(O)c(O)c1
REMARK SMILES IDX 4 1 11 2 5 3 9 4 6 5 7 6 2 7 1 8 3 9 10 10 8 12
REMARK H PARENT 10 11 8 13
REMARK Flexibility Score: inf
ROOT
ATOM      1  C   UNL     1      16.159  16.083   8.656  1.00  0.00     0.001 A 
ATOM      2  C   UNL     1      15.195  16.670   7.815  1.00  0.00     0.060 A 
ATOM      3  C   UNL     1      15.914  16.024  10.038  1.00  0.00     0.014 A 
ATOM      4  C   UNL     1      14.006  17.189   8.349  1.00  0.00     0.158 A 
ATOM      5  C   UNL     1      14.729  16.541  10.570  1.00  0.00     0.051 A 
ATOM      6  C   UNL     1      13.773  17.125   9.728  1.00  0.00     0.157 A 
ENDROOT
BRANCH   1   7
ATOM      7  C   UNL     1      17.414  15.533   8.097  1.00  0.00     0.072 C 
ATOM      8  O   UNL     1      18.530  15.862   8.582  1.00  0.00    -0.545 OA
ATOM      9  O   UNL     1      17.381  14.645   7.029  1.00  0.00    -0.545 OA
ENDBRANCH   1   7
BRANCH   4  10
ATOM     10  O   UNL     1      13.053  17.770   7.515  1.00  0.00    -0.504 OA
ATOM     11  H   UNL     1      12.068  17.763   7.751  1.00  0.00     0.293 HD
ENDBRANCH   4  10
BRANCH   6  12
ATOM     12  O   UNL     1      12.591  17.642  10.255  1.00  0.00    -0.504 OA
ATOM     13  H   UNL     1      11.800  17.047  10.469  1.00  0.00     0.293 HD
ENDBRANCH   6  12
TORSDOF 3
ENDMDL
MODEL 9
REMARK VINA RESULT:    -4.035      2.693      3.126
REMARK INTER + INTRA:          -4.545
REMARK INTER:                  -4.500
REMARK INTRA:                  -0.044
REMARK UNBOUND:                -0.038
REMARK SMILES O=C([O-])c1ccc(O)c(O)c1
REMARK SMILES IDX 4 1 11 2 5 3 9 4 6 5 7 6 2 7 1 8 3 9 10 10 8 12
REMARK H PARENT 10 11 8 13
REMARK Flexibility Score: inf
ROOT
ATOM      1  C   UNL     1      13.740  16.084  11.253  1.00  0.00     0.001 A 
ATOM      2  C   UNL     1      13.862  16.633   9.963  1.00  0.00     0.060 A 
ATOM      3  C   UNL     1      12.486  16.102  11.886  1.00  0.00     0.014 A 
ATOM      4  C   UNL     1      12.749  17.192   9.319  1.00  0.00     0.158 A 
ATOM      5  C   UNL     1      11.376  16.659  11.244  1.00  0.00     0.051 A 
ATOM      6  C   UNL     1      11.504  17.204   9.960  1.00  0.00     0.157 A 
ENDROOT
BRANCH   1   7
ATOM      7  C   UNL     1      14.912  15.493  11.936  1.00  0.00     0.072 C 
ATOM      8  O   UNL     1      14.820  15.075  13.122  1.00  0.00    -0.545 OA
ATOM      9  O   UNL     1      16.133  15.389  11.280  1.00  0.00    -0.545 OA
ENDBRANCH   1   7
BRANCH   4  10
ATOM     10  O   UNL     1      12.872  17.736   8.042  1.00  0.00    -0.504 OA
ATOM     11  H   UNL     1      12.224  18.436   7.699  1.00  0.00     0.293 HD
ENDBRANCH   4  10
BRANCH   6  12
ATOM     12  O   UNL     1      10.400  17.760   9.317  1.00  0.00    -0.504 OA
ATOM     13  H   UNL     1       9.460  17.637   9.674  1.00  0.00     0.293 HD
ENDBRANCH   6  12
TORSDOF 3
ENDMDL
