MODEL 1
REMARK VINA RESULT:     0.921      0.000      0.000
REMARK INTER + INTRA:           1.637
REMARK INTER:                   1.002
REMARK INTRA:                   0.635
REMARK UNBOUND:                 0.635
REMARK SMILES C[C@@H]1[C@H]2C3=CC[C@H]4[C@]5(C)CC[C@@H](O)C(C)(C)[C@H]5CC[C@]4(C)[C@@]3(C)CC[C@]2(C(=O)[O-])CC[C@@H]1C
REMARK SMILES IDX 26 1 30 2 25 3 3 4 31 5 24 6 4 7 2 8 32 9 22 10 5 11 1 12
REMARK SMILES IDX 33 13 23 14 20 15 6 16 7 17 19 18 21 19 8 20 18 21 17 22
REMARK SMILES IDX 10 23 9 24 14 25 11 26 12 27 15 28 16 29 27 30 28 31 29 32
REMARK SMILES IDX 13 33
REMARK H PARENT 13 34
REMARK Flexibility Score: inf
ROOT
ATOM      1  C   UNL     1      15.184  -2.086   7.943  1.00  0.00     0.017 C 
ATOM      2  C   UNL     1      15.081  -0.539   7.882  1.00  0.00     0.014 C 
ATOM      3  C   UNL     1      15.346  -2.683   6.494  1.00  0.00     0.014 C 
ATOM      4  C   UNL     1      16.454  -2.415   8.786  1.00  0.00     0.030 C 
ATOM      5  C   UNL     1      14.888   0.125   9.267  1.00  0.00     0.004 C 
ATOM      6  C   UNL     1      16.589  -3.592   6.249  1.00  0.00     0.013 C 
ATOM      7  C   UNL     1      16.678  -3.928   8.780  1.00  0.00    -0.063 C 
ATOM      8  C   UNL     1      16.614  -1.616  10.142  1.00  0.00    -0.003 C 
ATOM      9  C   UNL     1      15.365  -0.738  10.464  1.00  0.00    -0.011 C 
ATOM     10  C   UNL     1      17.061  -4.549   7.428  1.00  0.00    -0.006 C 
ATOM     11  C   UNL     1      16.441  -4.697   9.868  1.00  0.00    -0.027 C 
ATOM     12  C   UNL     1      17.913  -0.774  10.138  1.00  0.00     0.008 C 
ATOM     13  C   UNL     1      15.531   0.125  11.720  1.00  0.00     0.008 C 
ATOM     14  C   UNL     1      18.623  -4.522   7.395  1.00  0.00     0.017 C 
ATOM     15  C   UNL     1      16.463  -6.045   7.301  1.00  0.00    -0.020 C 
ATOM     16  C   UNL     1      16.541  -6.194   9.913  1.00  0.00     0.032 C 
ATOM     17  C   UNL     1      16.901  -6.883   8.569  1.00  0.00     0.006 C 
ATOM     18  C   UNL     1      16.997  -6.777   6.023  1.00  0.00     0.008 C 
ATOM     19  C   UNL     1      14.913  -5.963   7.180  1.00  0.00     0.012 C 
ATOM     20  C   UNL     1      16.600  -8.446   8.542  1.00  0.00    -0.025 C 
ATOM     21  C   UNL     1      16.668  -8.277   5.968  1.00  0.00     0.005 C 
ATOM     22  C   UNL     1      17.225  -9.013   7.212  1.00  0.00     0.003 C 
ATOM     23  C   UNL     1      17.351  -9.114   9.741  1.00  0.00     0.010 C 
ATOM     24  C   UNL     1      15.069  -8.749   8.684  1.00  0.00     0.012 C 
ATOM     25  C   UNL     1      17.300 -10.588   7.096  1.00  0.00    -0.006 C 
ATOM     26  C   UNL     1      17.388 -10.648   9.678  1.00  0.00     0.033 C 
ATOM     27  C   UNL     1      18.009 -11.152   8.368  1.00  0.00     0.120 C 
ATOM     28  C   UNL     1      18.179 -10.980   5.875  1.00  0.00     0.014 C 
ATOM     29  C   UNL     1      15.916 -11.253   6.884  1.00  0.00     0.014 C 
ENDROOT
BRANCH   1  30
ATOM     30  C   UNL     1      13.875  -2.632   8.523  1.00  0.00     0.048 C 
ATOM     31  O   UNL     1      12.909  -2.887   7.751  1.00  0.00    -0.550 OA
ATOM     32  O   UNL     1      13.712  -2.872   9.880  1.00  0.00    -0.550 OA
ENDBRANCH   1  30
BRANCH  27  33
ATOM     33  O   UNL     1      17.983 -12.560   8.362  1.00  0.00    -0.393 OA
ATOM     34  H   UNL     1      17.881 -12.852   9.305  1.00  0.00     0.210 HD
ENDBRANCH  27  33
TORSDOF 2
ENDMDL
MODEL 2
REMARK VINA RESULT:     1.370      1.993      8.038
REMARK INTER + INTRA:           2.125
REMARK INTER:                   1.489
REMARK INTRA:                   0.636
REMARK UNBOUND:                 0.635
REMARK SMILES C[C@@H]1[C@H]2C3=CC[C@H]4[C@]5(C)CC[C@@H](O)C(C)(C)[C@H]5CC[C@]4(C)[C@@]3(C)CC[C@]2(C(=O)[O-])CC[C@@H]1C
REMARK SMILES IDX 26 1 30 2 25 3 3 4 31 5 24 6 4 7 2 8 32 9 22 10 5 11 1 12
REMARK SMILES IDX 33 13 23 14 20 15 6 16 7 17 19 18 21 19 8 20 18 21 17 22
REMARK SMILES IDX 10 23 9 24 14 25 11 26 12 27 15 28 16 29 27 30 28 31 29 32
REMARK SMILES IDX 13 33
REMARK H PARENT 13 34
REMARK Flexibility Score: inf
ROOT
ATOM      1  C   UNL     1      17.774  -8.818   9.084  1.00  0.00     0.017 C 
ATOM      2  C   UNL     1      18.638 -10.094   9.261  1.00  0.00     0.014 C 
ATOM      3  C   UNL     1      18.642  -7.529   9.342  1.00  0.00     0.014 C 
ATOM      4  C   UNL     1      17.274  -8.820   7.606  1.00  0.00     0.030 C 
ATOM      5  C   UNL     1      17.849 -11.410   9.055  1.00  0.00     0.004 C 
ATOM      6  C   UNL     1      18.681  -6.473   8.195  1.00  0.00     0.013 C 
ATOM      7  C   UNL     1      16.516  -7.520   7.335  1.00  0.00    -0.063 C 
ATOM      8  C   UNL     1      16.678 -10.188   7.077  1.00  0.00    -0.003 C 
ATOM      9  C   UNL     1      16.559 -11.259   8.206  1.00  0.00    -0.011 C 
ATOM     10  C   UNL     1      17.354  -6.233   7.352  1.00  0.00    -0.006 C 
ATOM     11  C   UNL     1      15.169  -7.484   7.203  1.00  0.00    -0.027 C 
ATOM     12  C   UNL     1      17.495 -10.718   5.875  1.00  0.00     0.008 C 
ATOM     13  C   UNL     1      16.079 -12.625   7.703  1.00  0.00     0.008 C 
ATOM     14  C   UNL     1      17.821  -6.032   5.875  1.00  0.00     0.017 C 
ATOM     15  C   UNL     1      16.476  -4.992   7.901  1.00  0.00    -0.020 C 
ATOM     16  C   UNL     1      14.345  -6.241   7.035  1.00  0.00     0.032 C 
ATOM     17  C   UNL     1      15.134  -4.904   7.069  1.00  0.00     0.006 C 
ATOM     18  C   UNL     1      17.236  -3.631   7.748  1.00  0.00     0.008 C 
ATOM     19  C   UNL     1      16.194  -5.202   9.418  1.00  0.00     0.012 C 
ATOM     20  C   UNL     1      14.221  -3.620   7.302  1.00  0.00    -0.025 C 
ATOM     21  C   UNL     1      16.373  -2.389   8.019  1.00  0.00     0.005 C 
ATOM     22  C   UNL     1      15.138  -2.357   7.085  1.00  0.00     0.003 C 
ATOM     23  C   UNL     1      13.113  -3.596   6.199  1.00  0.00     0.010 C 
ATOM     24  C   UNL     1      13.526  -3.645   8.706  1.00  0.00     0.012 C 
ATOM     25  C   UNL     1      14.392  -0.966   6.986  1.00  0.00    -0.006 C 
ATOM     26  C   UNL     1      12.337  -2.273   6.122  1.00  0.00     0.033 C 
ATOM     27  C   UNL     1      13.270  -1.075   5.905  1.00  0.00     0.120 C 
ATOM     28  C   UNL     1      15.387   0.125   6.499  1.00  0.00     0.014 C 
ATOM     29  C   UNL     1      13.821  -0.481   8.341  1.00  0.00     0.014 C 
ENDROOT
BRANCH   1  30
ATOM     30  C   UNL     1      16.660  -8.841  10.135  1.00  0.00     0.048 C 
ATOM     31  O   UNL     1      16.932  -9.158  11.326  1.00  0.00    -0.550 OA
ATOM     32  O   UNL     1      15.348  -8.509   9.826  1.00  0.00    -0.550 OA
ENDBRANCH   1  30
BRANCH  27  33
ATOM     33  O   UNL     1      12.501   0.105   5.875  1.00  0.00    -0.393 OA
ATOM     34  H   UNL     1      13.073   0.814   5.481  1.00  0.00     0.210 HD
ENDBRANCH  27  33
TORSDOF 2
ENDMDL
MODEL 3
REMARK VINA RESULT:     1.607      1.198      1.367
REMARK INTER + INTRA:           2.382
REMARK INTER:                   1.779
REMARK INTRA:                   0.604
REMARK UNBOUND:                 0.635
REMARK SMILES C[C@@H]1[C@H]2C3=CC[C@H]4[C@]5(C)CC[C@@H](O)C(C)(C)[C@H]5CC[C@]4(C)[C@@]3(C)CC[C@]2(C(=O)[O-])CC[C@@H]1C
REMARK SMILES IDX 26 1 30 2 25 3 3 4 31 5 24 6 4 7 2 8 32 9 22 10 5 11 1 12
REMARK SMILES IDX 33 13 23 14 20 15 6 16 7 17 19 18 21 19 8 20 18 21 17 22
REMARK SMILES IDX 10 23 9 24 14 25 11 26 12 27 15 28 16 29 27 30 28 31 29 32
REMARK SMILES IDX 13 33
REMARK H PARENT 13 34
REMARK Flexibility Score: inf
ROOT
ATOM      1  C   UNL     1      16.269  -2.156   7.253  1.00  0.00     0.017 C 
ATOM      2  C   UNL     1      16.533  -0.628   7.302  1.00  0.00     0.014 C 
ATOM      3  C   UNL     1      17.125  -2.823   6.111  1.00  0.00     0.014 C 
ATOM      4  C   UNL     1      16.711  -2.728   8.635  1.00  0.00     0.030 C 
ATOM      5  C   UNL     1      15.703   0.110   8.381  1.00  0.00     0.004 C 
ATOM      6  C   UNL     1      18.066  -3.992   6.536  1.00  0.00     0.013 C 
ATOM      7  C   UNL     1      16.590  -4.252   8.605  1.00  0.00    -0.063 C 
ATOM      8  C   UNL     1      16.203  -1.938   9.909  1.00  0.00    -0.003 C 
ATOM      9  C   UNL     1      15.207  -0.795   9.539  1.00  0.00    -0.011 C 
ATOM     10  C   UNL     1      17.558  -4.989   7.666  1.00  0.00    -0.006 C 
ATOM     11  C   UNL     1      15.615  -4.912   9.272  1.00  0.00    -0.027 C 
ATOM     12  C   UNL     1      17.395  -1.404  10.739  1.00  0.00     0.008 C 
ATOM     13  C   UNL     1      14.776   0.052  10.741  1.00  0.00     0.008 C 
ATOM     14  C   UNL     1      18.811  -5.308   8.543  1.00  0.00     0.017 C 
ATOM     15  C   UNL     1      16.863  -6.320   7.066  1.00  0.00    -0.020 C 
ATOM     16  C   UNL     1      15.369  -6.392   9.214  1.00  0.00     0.032 C 
ATOM     17  C   UNL     1      16.300  -7.189   8.261  1.00  0.00     0.006 C 
ATOM     18  C   UNL     1      17.885  -7.195   6.263  1.00  0.00     0.008 C 
ATOM     19  C   UNL     1      15.731  -5.901   6.082  1.00  0.00     0.012 C 
ATOM     20  C   UNL     1      15.768  -8.647   7.906  1.00  0.00    -0.025 C 
ATOM     21  C   UNL     1      17.360  -8.586   5.875  1.00  0.00     0.005 C 
ATOM     22  C   UNL     1      16.924  -9.383   7.130  1.00  0.00     0.003 C 
ATOM     23  C   UNL     1      15.526  -9.423   9.243  1.00  0.00     0.010 C 
ATOM     24  C   UNL     1      14.421  -8.599   7.108  1.00  0.00     0.012 C 
ATOM     25  C   UNL     1      16.738 -10.939   6.918  1.00  0.00    -0.006 C 
ATOM     26  C   UNL     1      15.287 -10.928   9.057  1.00  0.00     0.033 C 
ATOM     27  C   UNL     1      16.440 -11.602   8.301  1.00  0.00     0.120 C 
ATOM     28  C   UNL     1      18.065 -11.557   6.396  1.00  0.00     0.014 C 
ATOM     29  C   UNL     1      15.641 -11.289   5.882  1.00  0.00     0.014 C 
ENDROOT
BRANCH   1  30
ATOM     30  C   UNL     1      14.792  -2.379   6.913  1.00  0.00     0.048 C 
ATOM     31  O   UNL     1      14.271  -1.749   5.951  1.00  0.00    -0.550 OA
ATOM     32  O   UNL     1      13.998  -3.268   7.623  1.00  0.00    -0.550 OA
ENDBRANCH   1  30
BRANCH  27  33
ATOM     33  O   UNL     1      16.143 -12.968   8.138  1.00  0.00    -0.393 OA
ATOM     34  H   UNL     1      16.092 -13.364   9.047  1.00  0.00     0.210 HD
ENDBRANCH  27  33
TORSDOF 2
ENDMDL
MODEL 4
REMARK VINA RESULT:     1.751      2.019      8.227
REMARK INTER + INTRA:           2.539
REMARK INTER:                   1.555
REMARK INTRA:                   0.984
REMARK UNBOUND:                 0.635
REMARK SMILES C[C@@H]1[C@H]2C3=CC[C@H]4[C@]5(C)CC[C@@H](O)C(C)(C)[C@H]5CC[C@]4(C)[C@@]3(C)CC[C@]2(C(=O)[O-])CC[C@@H]1C
REMARK SMILES IDX 26 1 30 2 25 3 3 4 31 5 24 6 4 7 2 8 32 9 22 10 5 11 1 12
REMARK SMILES IDX 33 13 23 14 20 15 6 16 7 17 19 18 21 19 8 20 18 21 17 22
REMARK SMILES IDX 10 23 9 24 14 25 11 26 12 27 15 28 16 29 27 30 28 31 29 32
REMARK SMILES IDX 13 33
REMARK H PARENT 13 34
REMARK Flexibility Score: inf
ROOT
ATOM      1  C   UNL     1      15.246 -10.539   7.937  1.00  0.00     0.017 C 
ATOM      2  C   UNL     1      15.203 -12.057   8.252  1.00  0.00     0.014 C 
ATOM      3  C   UNL     1      14.363  -9.740   8.969  1.00  0.00     0.014 C 
ATOM      4  C   UNL     1      16.736 -10.098   8.078  1.00  0.00     0.030 C 
ATOM      5  C   UNL     1      16.023 -12.919   7.261  1.00  0.00     0.004 C 
ATOM      6  C   UNL     1      15.072  -8.597   9.758  1.00  0.00     0.013 C 
ATOM      7  C   UNL     1      16.825  -8.581   7.899  1.00  0.00    -0.063 C 
ATOM      8  C   UNL     1      17.805 -11.023   7.368  1.00  0.00    -0.003 C 
ATOM      9  C   UNL     1      17.141 -12.147   6.512  1.00  0.00    -0.011 C 
ATOM     10  C   UNL     1      16.169  -7.731   8.998  1.00  0.00    -0.006 C 
ATOM     11  C   UNL     1      17.346  -8.015   6.786  1.00  0.00    -0.027 C 
ATOM     12  C   UNL     1      18.800 -11.609   8.398  1.00  0.00     0.008 C 
ATOM     13  C   UNL     1      18.149 -13.121   5.893  1.00  0.00     0.008 C 
ATOM     14  C   UNL     1      17.301  -7.471  10.042  1.00  0.00     0.017 C 
ATOM     15  C   UNL     1      15.570  -6.364   8.376  1.00  0.00    -0.020 C 
ATOM     16  C   UNL     1      17.378  -6.543   6.492  1.00  0.00     0.032 C 
ATOM     17  C   UNL     1      16.707  -5.632   7.555  1.00  0.00     0.006 C 
ATOM     18  C   UNL     1      15.070  -5.389   9.495  1.00  0.00     0.008 C 
ATOM     19  C   UNL     1      14.348  -6.709   7.475  1.00  0.00     0.012 C 
ATOM     20  C   UNL     1      16.392  -4.160   7.040  1.00  0.00    -0.025 C 
ATOM     21  C   UNL     1      14.718  -3.979   8.996  1.00  0.00     0.005 C 
ATOM     22  C   UNL     1      15.931  -3.322   8.292  1.00  0.00     0.003 C 
ATOM     23  C   UNL     1      17.722  -3.528   6.510  1.00  0.00     0.010 C 
ATOM     24  C   UNL     1      15.343  -4.160   5.876  1.00  0.00     0.012 C 
ATOM     25  C   UNL     1      15.834  -1.757   8.083  1.00  0.00    -0.006 C 
ATOM     26  C   UNL     1      17.634  -2.017   6.246  1.00  0.00     0.033 C 
ATOM     27  C   UNL     1      17.186  -1.244   7.494  1.00  0.00     0.120 C 
ATOM     28  C   UNL     1      15.643  -1.058   9.458  1.00  0.00     0.014 C 
ATOM     29  C   UNL     1      14.638  -1.332   7.194  1.00  0.00     0.014 C 
ENDROOT
BRANCH   1  30
ATOM     30  C   UNL     1      14.644 -10.318   6.546  1.00  0.00     0.048 C 
ATOM     31  O   UNL     1      14.973  -9.299   5.878  1.00  0.00    -0.550 OA
ATOM     32  O   UNL     1      13.749 -11.214   5.980  1.00  0.00    -0.550 OA
ENDBRANCH   1  30
BRANCH  27  33
ATOM     33  O   UNL     1      17.096   0.125   7.176  1.00  0.00    -0.393 OA
ATOM     34  H   UNL     1      16.254   0.461   7.580  1.00  0.00     0.210 HD
ENDBRANCH  27  33
TORSDOF 2
ENDMDL
