MODEL 1
REMARK VINA RESULT:    -5.639      0.000      0.000
REMARK INTER + INTRA:          -8.443
REMARK INTER:                  -7.782
REMARK INTRA:                  -0.662
REMARK UNBOUND:                -0.662
REMARK SMILES CCCCc1cccc(O)c1CCCC
REMARK SMILES IDX 5 1 11 2 9 3 8 4 7 5 6 6 4 7 3 8 2 9 1 10 12 11 13 12 14 13
REMARK SMILES IDX 15 14 10 15
REMARK H PARENT 10 16
REMARK Flexibility Score: inf
ROOT
ATOM      1  C   UNL     1      18.257  29.190  29.381  1.00  0.00    -0.041 A 
ATOM      2  C   UNL     1      18.145  29.765  30.681  1.00  0.00    -0.003 A 
ATOM      3  C   UNL     1      18.291  31.165  30.828  1.00  0.00     0.119 A 
ATOM      4  C   UNL     1      18.502  31.974  29.706  1.00  0.00     0.046 A 
ATOM      5  C   UNL     1      18.589  31.411  28.438  1.00  0.00     0.004 A 
ATOM      6  C   UNL     1      18.471  30.033  28.276  1.00  0.00     0.004 A 
ENDROOT
BRANCH   1   7
ATOM      7  C   UNL     1      18.144  27.700  29.115  1.00  0.00     0.036 C 
BRANCH   7   8
ATOM      8  C   UNL     1      17.567  27.401  27.721  1.00  0.00     0.004 C 
BRANCH   8   9
ATOM      9  C   UNL     1      18.347  26.305  26.985  1.00  0.00    -0.003 C 
ATOM     10  C   UNL     1      18.839  25.235  27.956  1.00  0.00     0.004 C 
ENDBRANCH   8   9
ENDBRANCH   7   8
ENDBRANCH   1   7
BRANCH   2  11
ATOM     11  C   UNL     1      17.947  28.920  31.925  1.00  0.00     0.040 C 
BRANCH  11  12
ATOM     12  C   UNL     1      19.295  28.433  32.471  1.00  0.00     0.005 C 
BRANCH  12  13
ATOM     13  C   UNL     1      19.178  28.027  33.943  1.00  0.00    -0.003 C 
ATOM     14  C   UNL     1      18.068  28.806  34.643  1.00  0.00     0.004 C 
ENDBRANCH  12  13
ENDBRANCH  11  12
ENDBRANCH   2  11
BRANCH   3  15
ATOM     15  O   UNL     1      18.229  31.750  32.094  1.00  0.00    -0.508 OA
ATOM     16  H   UNL     1      18.747  32.591  32.318  1.00  0.00     0.293 HD
ENDBRANCH   3  15
TORSDOF 7
ENDMDL
MODEL 2
REMARK VINA RESULT:    -5.578      2.272      6.273
REMARK INTER + INTRA:          -8.359
REMARK INTER:                  -7.698
REMARK INTRA:                  -0.661
REMARK UNBOUND:                -0.662
REMARK SMILES CCCCc1cccc(O)c1CCCC
REMARK SMILES IDX 5 1 11 2 9 3 8 4 7 5 6 6 4 7 3 8 2 9 1 10 12 11 13 12 14 13
REMARK SMILES IDX 15 14 10 15
REMARK H PARENT 10 16
REMARK Flexibility Score: inf
ROOT
ATOM      1  C   UNL     1      17.897  29.288  33.562  1.00  0.00    -0.041 A 
ATOM      2  C   UNL     1      18.336  28.762  32.312  1.00  0.00    -0.003 A 
ATOM      3  C   UNL     1      19.278  27.706  32.304  1.00  0.00     0.119 A 
ATOM      4  C   UNL     1      19.739  27.162  33.508  1.00  0.00     0.046 A 
ATOM      5  C   UNL     1      19.291  27.665  34.725  1.00  0.00     0.004 A 
ATOM      6  C   UNL     1      18.382  28.720  34.753  1.00  0.00     0.004 A 
ENDROOT
BRANCH   1   7
ATOM      7  C   UNL     1      16.911  30.436  33.684  1.00  0.00     0.036 C 
BRANCH   7   8
ATOM      8  C   UNL     1      16.737  30.899  35.140  1.00  0.00     0.004 C 
BRANCH   8   9
ATOM      9  C   UNL     1      16.354  32.381  35.244  1.00  0.00    -0.003 C 
ATOM     10  C   UNL     1      16.123  32.986  33.862  1.00  0.00     0.004 C 
ENDBRANCH   8   9
ENDBRANCH   7   8
ENDBRANCH   1   7
BRANCH   2  11
ATOM     11  C   UNL     1      17.884  29.343  30.986  1.00  0.00     0.040 C 
BRANCH  11  12
ATOM     12  C   UNL     1      18.721  30.574  30.619  1.00  0.00     0.005 C 
BRANCH  12  13
ATOM     13  C   UNL     1      18.455  31.010  29.175  1.00  0.00    -0.003 C 
ATOM     14  C   UNL     1      18.388  29.807  28.239  1.00  0.00     0.004 C 
ENDBRANCH  12  13
ENDBRANCH  11  12
ENDBRANCH   2  11
BRANCH   3  15
ATOM     15  O   UNL     1      19.758  27.200  31.094  1.00  0.00    -0.508 OA
ATOM     16  H   UNL     1      20.411  27.720  30.521  1.00  0.00     0.293 HD
ENDBRANCH   3  15
TORSDOF 7
ENDMDL
MODEL 3
REMARK VINA RESULT:    -5.468      1.274      4.091
REMARK INTER + INTRA:          -8.208
REMARK INTER:                  -7.137
REMARK INTRA:                  -1.071
REMARK UNBOUND:                -0.662
REMARK SMILES CCCCc1cccc(O)c1CCCC
REMARK SMILES IDX 5 1 11 2 9 3 8 4 7 5 6 6 4 7 3 8 2 9 1 10 12 11 13 12 14 13
REMARK SMILES IDX 15 14 10 15
REMARK H PARENT 10 16
REMARK Flexibility Score: inf
ROOT
ATOM      1  C   UNL     1      19.495  27.736  31.464  1.00  0.00    -0.041 A 
ATOM      2  C   UNL     1      18.626  28.751  31.962  1.00  0.00    -0.003 A 
ATOM      3  C   UNL     1      18.376  28.819  33.353  1.00  0.00     0.119 A 
ATOM      4  C   UNL     1      19.006  27.927  34.228  1.00  0.00     0.046 A 
ATOM      5  C   UNL     1      19.869  26.952  33.739  1.00  0.00     0.004 A 
ATOM      6  C   UNL     1      20.109  26.855  32.371  1.00  0.00     0.004 A 
ENDROOT
BRANCH   1   7
ATOM      7  C   UNL     1      19.810  27.558  29.990  1.00  0.00     0.036 C 
BRANCH   7   8
ATOM      8  C   UNL     1      18.959  26.451  29.344  1.00  0.00     0.004 C 
BRANCH   8   9
ATOM      9  C   UNL     1      17.710  27.002  28.646  1.00  0.00    -0.003 C 
ATOM     10  C   UNL     1      17.931  27.127  27.142  1.00  0.00     0.004 C 
ENDBRANCH   8   9
ENDBRANCH   7   8
ENDBRANCH   1   7
BRANCH   2  11
ATOM     11  C   UNL     1      17.901  29.717  31.046  1.00  0.00     0.040 C 
BRANCH  11  12
ATOM     12  C   UNL     1      18.701  31.016  30.884  1.00  0.00     0.005 C 
BRANCH  12  13
ATOM     13  C   UNL     1      18.443  31.656  29.517  1.00  0.00    -0.003 C 
ATOM     14  C   UNL     1      18.496  30.615  28.402  1.00  0.00     0.004 C 
ENDBRANCH  12  13
ENDBRANCH  11  12
ENDBRANCH   2  11
BRANCH   3  15
ATOM     15  O   UNL     1      17.497  29.775  33.865  1.00  0.00    -0.508 OA
ATOM     16  H   UNL     1      17.377  30.679  33.424  1.00  0.00     0.293 HD
ENDBRANCH   3  15
TORSDOF 7
ENDMDL
MODEL 4
REMARK VINA RESULT:    -5.445      2.260      4.235
REMARK INTER + INTRA:          -8.176
REMARK INTER:                  -7.037
REMARK INTRA:                  -1.139
REMARK UNBOUND:                -0.662
REMARK SMILES CCCCc1cccc(O)c1CCCC
REMARK SMILES IDX 5 1 11 2 9 3 8 4 7 5 6 6 4 7 3 8 2 9 1 10 12 11 13 12 14 13
REMARK SMILES IDX 15 14 10 15
REMARK H PARENT 10 16
REMARK Flexibility Score: inf
ROOT
ATOM      1  C   UNL     1      18.355  30.684  31.137  1.00  0.00    -0.041 A 
ATOM      2  C   UNL     1      18.305  29.593  30.221  1.00  0.00    -0.003 A 
ATOM      3  C   UNL     1      18.347  29.860  28.832  1.00  0.00     0.119 A 
ATOM      4  C   UNL     1      18.477  31.174  28.369  1.00  0.00     0.046 A 
ATOM      5  C   UNL     1      18.547  32.234  29.268  1.00  0.00     0.004 A 
ATOM      6  C   UNL     1      18.483  31.992  30.638  1.00  0.00     0.004 A 
ENDROOT
BRANCH   1   7
ATOM      7  C   UNL     1      18.290  30.511  32.643  1.00  0.00     0.036 C 
BRANCH   7   8
ATOM      8  C   UNL     1      16.850  30.596  33.176  1.00  0.00     0.004 C 
BRANCH   8   9
ATOM      9  C   UNL     1      16.704  29.987  34.576  1.00  0.00    -0.003 C 
ATOM     10  C   UNL     1      17.801  28.961  34.846  1.00  0.00     0.004 C 
ENDBRANCH   8   9
ENDBRANCH   7   8
ENDBRANCH   1   7
BRANCH   2  11
ATOM     11  C   UNL     1      18.135  28.158  30.680  1.00  0.00     0.040 C 
BRANCH  11  12
ATOM     12  C   UNL     1      19.498  27.480  30.860  1.00  0.00     0.005 C 
BRANCH  12  13
ATOM     13  C   UNL     1      19.718  27.062  32.317  1.00  0.00    -0.003 C 
ATOM     14  C   UNL     1      20.866  27.845  32.948  1.00  0.00     0.004 C 
ENDBRANCH  12  13
ENDBRANCH  11  12
ENDBRANCH   2  11
BRANCH   3  15
ATOM     15  O   UNL     1      18.257  28.815  27.910  1.00  0.00    -0.508 OA
ATOM     16  H   UNL     1      18.878  28.016  27.949  1.00  0.00     0.293 HD
ENDBRANCH   3  15
TORSDOF 7
ENDMDL
MODEL 5
REMARK VINA RESULT:    -5.416      1.769      4.742
REMARK INTER + INTRA:          -8.136
REMARK INTER:                  -7.412
REMARK INTRA:                  -0.724
REMARK UNBOUND:                -0.662
REMARK SMILES CCCCc1cccc(O)c1CCCC
REMARK SMILES IDX 5 1 11 2 9 3 8 4 7 5 6 6 4 7 3 8 2 9 1 10 12 11 13 12 14 13
REMARK SMILES IDX 15 14 10 15
REMARK H PARENT 10 16
REMARK Flexibility Score: inf
ROOT
ATOM      1  C   UNL     1      18.237  29.715  30.612  1.00  0.00    -0.041 A 
ATOM      2  C   UNL     1      18.345  28.890  29.455  1.00  0.00    -0.003 A 
ATOM      3  C   UNL     1      18.502  29.500  28.188  1.00  0.00     0.119 A 
ATOM      4  C   UNL     1      18.589  30.893  28.081  1.00  0.00     0.046 A 
ATOM      5  C   UNL     1      18.505  31.693  29.216  1.00  0.00     0.004 A 
ATOM      6  C   UNL     1      18.327  31.112  30.468  1.00  0.00     0.004 A 
ENDROOT
BRANCH   1   7
ATOM      7  C   UNL     1      18.040  29.166  32.013  1.00  0.00     0.036 C 
BRANCH   7   8
ATOM      8  C   UNL     1      17.224  30.120  32.902  1.00  0.00     0.004 C 
BRANCH   8   9
ATOM      9  C   UNL     1      17.418  29.841  34.397  1.00  0.00    -0.003 C 
ATOM     10  C   UNL     1      18.267  28.592  34.617  1.00  0.00     0.004 C 
ENDBRANCH   8   9
ENDBRANCH   7   8
ENDBRANCH   1   7
BRANCH   2  11
ATOM     11  C   UNL     1      18.225  27.380  29.524  1.00  0.00     0.040 C 
BRANCH  11  12
ATOM     12  C   UNL     1      19.591  26.739  29.801  1.00  0.00     0.005 C 
BRANCH  12  13
ATOM     13  C   UNL     1      19.960  25.734  28.705  1.00  0.00    -0.003 C 
ATOM     14  C   UNL     1      18.712  25.135  28.064  1.00  0.00     0.004 C 
ENDBRANCH  12  13
ENDBRANCH  11  12
ENDBRANCH   2  11
BRANCH   3  15
ATOM     15  O   UNL     1      18.567  28.719  27.033  1.00  0.00    -0.508 OA
ATOM     16  H   UNL     1      18.933  29.085  26.162  1.00  0.00     0.293 HD
ENDBRANCH   3  15
TORSDOF 7
ENDMDL
MODEL 6
REMARK VINA RESULT:    -5.347      2.183      5.365
REMARK INTER + INTRA:          -8.040
REMARK INTER:                  -6.997
REMARK INTRA:                  -1.043
REMARK UNBOUND:                -0.662
REMARK SMILES CCCCc1cccc(O)c1CCCC
REMARK SMILES IDX 5 1 11 2 9 3 8 4 7 5 6 6 4 7 3 8 2 9 1 10 12 11 13 12 14 13
REMARK SMILES IDX 15 14 10 15
REMARK H PARENT 10 16
REMARK Flexibility Score: inf
ROOT
ATOM      1  C   UNL     1      18.741  28.386  31.502  1.00  0.00    -0.041 A 
ATOM      2  C   UNL     1      19.449  27.331  30.856  1.00  0.00    -0.003 A 
ATOM      3  C   UNL     1      20.159  26.396  31.646  1.00  0.00     0.119 A 
ATOM      4  C   UNL     1      20.131  26.486  33.043  1.00  0.00     0.046 A 
ATOM      5  C   UNL     1      19.421  27.506  33.669  1.00  0.00     0.004 A 
ATOM      6  C   UNL     1      18.736  28.449  32.907  1.00  0.00     0.004 A 
ENDROOT
BRANCH   1   7
ATOM      7  C   UNL     1      17.971  29.456  30.750  1.00  0.00     0.036 C 
BRANCH   7   8
ATOM      8  C   UNL     1      18.813  30.721  30.514  1.00  0.00     0.004 C 
BRANCH   8   9
ATOM      9  C   UNL     1      18.377  31.492  29.262  1.00  0.00    -0.003 C 
ATOM     10  C   UNL     1      18.879  30.808  27.993  1.00  0.00     0.004 C 
ENDBRANCH   8   9
ENDBRANCH   7   8
ENDBRANCH   1   7
BRANCH   2  11
ATOM     11  C   UNL     1      19.529  27.215  29.347  1.00  0.00     0.040 C 
BRANCH  11  12
ATOM     12  C   UNL     1      18.281  26.518  28.789  1.00  0.00     0.005 C 
BRANCH  12  13
ATOM     13  C   UNL     1      17.694  27.301  27.610  1.00  0.00    -0.003 C 
ATOM     14  C   UNL     1      18.693  27.400  26.462  1.00  0.00     0.004 C 
ENDBRANCH  12  13
ENDBRANCH  11  12
ENDBRANCH   2  11
BRANCH   3  15
ATOM     15  O   UNL     1      20.896  25.377  31.040  1.00  0.00    -0.508 OA
ATOM     16  H   UNL     1      21.842  25.527  30.712  1.00  0.00     0.293 HD
ENDBRANCH   3  15
TORSDOF 7
ENDMDL
MODEL 7
REMARK VINA RESULT:    -5.265      1.970      4.009
REMARK INTER + INTRA:          -7.927
REMARK INTER:                  -7.296
REMARK INTRA:                  -0.632
REMARK UNBOUND:                -0.662
REMARK SMILES CCCCc1cccc(O)c1CCCC
REMARK SMILES IDX 5 1 11 2 9 3 8 4 7 5 6 6 4 7 3 8 2 9 1 10 12 11 13 12 14 13
REMARK SMILES IDX 15 14 10 15
REMARK H PARENT 10 16
REMARK Flexibility Score: inf
ROOT
ATOM      1  C   UNL     1      18.621  28.439  31.984  1.00  0.00    -0.041 A 
ATOM      2  C   UNL     1      18.145  29.256  33.051  1.00  0.00    -0.003 A 
ATOM      3  C   UNL     1      18.489  28.918  34.381  1.00  0.00     0.119 A 
ATOM      4  C   UNL     1      19.318  27.821  34.639  1.00  0.00     0.046 A 
ATOM      5  C   UNL     1      19.797  27.039  33.593  1.00  0.00     0.004 A 
ATOM      6  C   UNL     1      19.450  27.342  32.279  1.00  0.00     0.004 A 
ENDROOT
BRANCH   1   7
ATOM      7  C   UNL     1      18.291  28.696  30.526  1.00  0.00     0.036 C 
BRANCH   7   8
ATOM      8  C   UNL     1      18.804  27.574  29.607  1.00  0.00     0.004 C 
BRANCH   8   9
ATOM      9  C   UNL     1      17.710  27.023  28.685  1.00  0.00    -0.003 C 
ATOM     10  C   UNL     1      17.762  27.687  27.313  1.00  0.00     0.004 C 
ENDBRANCH   8   9
ENDBRANCH   7   8
ENDBRANCH   1   7
BRANCH   2  11
ATOM     11  C   UNL     1      17.222  30.436  32.817  1.00  0.00     0.040 C 
BRANCH  11  12
ATOM     12  C   UNL     1      18.023  31.685  32.430  1.00  0.00     0.005 C 
BRANCH  12  13
ATOM     13  C   UNL     1      17.593  32.896  33.264  1.00  0.00    -0.003 C 
ATOM     14  C   UNL     1      16.226  32.668  33.902  1.00  0.00     0.004 C 
ENDBRANCH  12  13
ENDBRANCH  11  12
ENDBRANCH   2  11
BRANCH   3  15
ATOM     15  O   UNL     1      18.002  29.675  35.449  1.00  0.00    -0.508 OA
ATOM     16  H   UNL     1      18.540  30.432  35.854  1.00  0.00     0.293 HD
ENDBRANCH   3  15
TORSDOF 7
ENDMDL
MODEL 8
REMARK VINA RESULT:    -5.208      1.720      2.480
REMARK INTER + INTRA:          -7.849
REMARK INTER:                  -6.932
REMARK INTRA:                  -0.917
REMARK UNBOUND:                -0.662
REMARK SMILES CCCCc1cccc(O)c1CCCC
REMARK SMILES IDX 5 1 11 2 9 3 8 4 7 5 6 6 4 7 3 8 2 9 1 10 12 11 13 12 14 13
REMARK SMILES IDX 15 14 10 15
REMARK H PARENT 10 16
REMARK Flexibility Score: inf
ROOT
ATOM      1  C   UNL     1      18.409  29.267  30.094  1.00  0.00    -0.041 A 
ATOM      2  C   UNL     1      18.350  30.419  30.932  1.00  0.00    -0.003 A 
ATOM      3  C   UNL     1      18.394  31.703  30.338  1.00  0.00     0.119 A 
ATOM      4  C   UNL     1      18.455  31.835  28.946  1.00  0.00     0.046 A 
ATOM      5  C   UNL     1      18.490  30.708  28.132  1.00  0.00     0.004 A 
ATOM      6  C   UNL     1      18.471  29.436  28.700  1.00  0.00     0.004 A 
ENDROOT
BRANCH   1   7
ATOM      7  C   UNL     1      18.395  27.846  30.628  1.00  0.00     0.036 C 
BRANCH   7   8
ATOM      8  C   UNL     1      19.690  27.087  30.294  1.00  0.00     0.004 C 
BRANCH   8   9
ATOM      9  C   UNL     1      20.173  26.209  31.455  1.00  0.00    -0.003 C 
ATOM     10  C   UNL     1      19.962  26.907  32.796  1.00  0.00     0.004 C 
ENDBRANCH   8   9
ENDBRANCH   7   8
ENDBRANCH   1   7
BRANCH   2  11
ATOM     11  C   UNL     1      18.314  30.319  32.444  1.00  0.00     0.040 C 
BRANCH  11  12
ATOM     12  C   UNL     1      16.870  30.377  32.958  1.00  0.00     0.005 C 
BRANCH  12  13
ATOM     13  C   UNL     1      16.803  30.045  34.452  1.00  0.00    -0.003 C 
ATOM     14  C   UNL     1      17.843  28.994  34.830  1.00  0.00     0.004 C 
ENDBRANCH  12  13
ENDBRANCH  11  12
ENDBRANCH   2  11
BRANCH   3  15
ATOM     15  O   UNL     1      18.381  32.849  31.136  1.00  0.00    -0.508 OA
ATOM     16  H   UNL     1      18.320  32.794  32.145  1.00  0.00     0.293 HD
ENDBRANCH   3  15
TORSDOF 7
ENDMDL
MODEL 9
REMARK VINA RESULT:    -5.196      1.999      5.179
REMARK INTER + INTRA:          -7.833
REMARK INTER:                  -6.960
REMARK INTRA:                  -0.872
REMARK UNBOUND:                -0.662
REMARK SMILES CCCCc1cccc(O)c1CCCC
REMARK SMILES IDX 5 1 11 2 9 3 8 4 7 5 6 6 4 7 3 8 2 9 1 10 12 11 13 12 14 13
REMARK SMILES IDX 15 14 10 15
REMARK H PARENT 10 16
REMARK Flexibility Score: inf
ROOT
ATOM      1  C   UNL     1      19.593  26.934  29.840  1.00  0.00    -0.041 A 
ATOM      2  C   UNL     1      18.521  27.537  29.119  1.00  0.00    -0.003 A 
ATOM      3  C   UNL     1      17.982  26.863  27.998  1.00  0.00     0.119 A 
ATOM      4  C   UNL     1      18.471  25.605  27.629  1.00  0.00     0.046 A 
ATOM      5  C   UNL     1      19.503  25.011  28.347  1.00  0.00     0.004 A 
ATOM      6  C   UNL     1      20.062  25.670  29.440  1.00  0.00     0.004 A 
ENDROOT
BRANCH   1   7
ATOM      7  C   UNL     1      20.261  27.581  31.039  1.00  0.00     0.036 C 
BRANCH   7   8
ATOM      8  C   UNL     1      19.620  27.144  32.367  1.00  0.00     0.004 C 
BRANCH   8   9
ATOM      9  C   UNL     1      18.952  28.308  33.109  1.00  0.00    -0.003 C 
ATOM     10  C   UNL     1      18.973  28.082  34.618  1.00  0.00     0.004 C 
ENDBRANCH   8   9
ENDBRANCH   7   8
ENDBRANCH   1   7
BRANCH   2  11
ATOM     11  C   UNL     1      17.983  28.911  29.469  1.00  0.00     0.040 C 
BRANCH  11  12
ATOM     12  C   UNL     1      18.653  29.991  28.610  1.00  0.00     0.005 C 
BRANCH  12  13
ATOM     13  C   UNL     1      18.459  31.381  29.223  1.00  0.00    -0.003 C 
ATOM     14  C   UNL     1      18.493  31.321  30.747  1.00  0.00     0.004 C 
ENDBRANCH  12  13
ENDBRANCH  11  12
ENDBRANCH   2  11
BRANCH   3  15
ATOM     15  O   UNL     1      16.961  27.449  27.248  1.00  0.00    -0.508 OA
ATOM     16  H   UNL     1      16.571  26.994  26.432  1.00  0.00     0.293 HD
ENDBRANCH   3  15
TORSDOF 7
ENDMDL
