MODEL 1
REMARK VINA RESULT:    -4.433      0.000      0.000
REMARK INTER + INTRA:          -4.924
REMARK INTER:                  -4.822
REMARK INTRA:                  -0.102
REMARK UNBOUND:                -0.102
REMARK SMILES Cc1ccc(C(C)C)cc1O
REMARK SMILES IDX 1 1 2 2 10 3 9 4 5 5 4 6 3 7 11 8 6 10 7 11 8 12
REMARK H PARENT 11 9
REMARK Flexibility Score: inf
ROOT
ATOM      1  C   UNL     1     144.257 128.370 120.697  1.00  0.00     0.048 C 
ATOM      2  C   UNL     1     144.396 128.257 119.206  1.00  0.00    -0.009 A 
ATOM      3  C   UNL     1     145.354 129.028 118.523  1.00  0.00     0.118 A 
ATOM      4  C   UNL     1     145.478 128.917 117.131  1.00  0.00     0.050 A 
ATOM      5  C   UNL     1     144.651 128.041 116.403  1.00  0.00    -0.042 A 
ATOM      6  C   UNL     1     143.697 127.276 117.094  1.00  0.00     0.004 A 
ATOM      7  C   UNL     1     143.571 127.384 118.482  1.00  0.00     0.007 A 
ENDROOT
BRANCH   3   8
ATOM      8  O   UNL     1     146.182 129.900 119.231  1.00  0.00    -0.508 OA
ATOM      9  H   UNL     1     146.985 129.566 119.750  1.00  0.00     0.293 HD
ENDBRANCH   3   8
BRANCH   5  10
ATOM     10  C   UNL     1     144.777 127.914 114.896  1.00  0.00     0.013 C 
ATOM     11  C   UNL     1     145.838 126.875 114.516  1.00  0.00     0.012 C 
ATOM     12  C   UNL     1     145.079 129.273 114.250  1.00  0.00     0.012 C 
ENDBRANCH   5  10
TORSDOF 2
ENDMDL
MODEL 2
REMARK VINA RESULT:    -4.338      3.156      4.240
REMARK INTER + INTRA:          -4.821
REMARK INTER:                  -4.693
REMARK INTRA:                  -0.128
REMARK UNBOUND:                -0.102
REMARK SMILES Cc1ccc(C(C)C)cc1O
REMARK SMILES IDX 1 1 2 2 10 3 9 4 5 5 4 6 3 7 11 8 6 10 7 11 8 12
REMARK H PARENT 11 9
REMARK Flexibility Score: inf
ROOT
ATOM      1  C   UNL     1     139.719 128.777 114.804  1.00  0.00     0.048 C 
ATOM      2  C   UNL     1     141.213 128.640 114.858  1.00  0.00    -0.009 A 
ATOM      3  C   UNL     1     142.035 129.763 114.653  1.00  0.00     0.118 A 
ATOM      4  C   UNL     1     143.429 129.629 114.705  1.00  0.00     0.050 A 
ATOM      5  C   UNL     1     144.022 128.377 114.959  1.00  0.00    -0.042 A 
ATOM      6  C   UNL     1     143.192 127.262 115.162  1.00  0.00     0.004 A 
ATOM      7  C   UNL     1     141.802 127.392 115.111  1.00  0.00     0.007 A 
ENDROOT
BRANCH   3   8
ATOM      8  O   UNL     1     141.463 131.010 114.401  1.00  0.00    -0.508 OA
ATOM      9  H   UNL     1     142.031 131.826 114.208  1.00  0.00     0.293 HD
ENDBRANCH   3   8
BRANCH   5  10
ATOM     10  C   UNL     1     145.530 128.221 115.017  1.00  0.00     0.013 C 
ATOM     11  C   UNL     1     145.997 127.041 114.155  1.00  0.00     0.012 C 
ATOM     12  C   UNL     1     146.015 128.073 116.464  1.00  0.00     0.012 C 
ENDBRANCH   5  10
TORSDOF 2
ENDMDL
MODEL 3
REMARK VINA RESULT:    -4.222      3.227      4.548
REMARK INTER + INTRA:          -4.695
REMARK INTER:                  -4.567
REMARK INTRA:                  -0.128
REMARK UNBOUND:                -0.102
REMARK SMILES Cc1ccc(C(C)C)cc1O
REMARK SMILES IDX 1 1 2 2 10 3 9 4 5 5 4 6 3 7 11 8 6 10 7 11 8 12
REMARK H PARENT 11 9
REMARK Flexibility Score: inf
ROOT
ATOM      1  C   UNL     1     140.450 130.373 114.544  1.00  0.00     0.048 C 
ATOM      2  C   UNL     1     141.662 129.511 114.755  1.00  0.00    -0.009 A 
ATOM      3  C   UNL     1     141.516 128.168 115.145  1.00  0.00     0.118 A 
ATOM      4  C   UNL     1     142.651 127.369 115.341  1.00  0.00     0.050 A 
ATOM      5  C   UNL     1     143.943 127.896 115.152  1.00  0.00    -0.042 A 
ATOM      6  C   UNL     1     144.077 129.239 114.762  1.00  0.00     0.004 A 
ATOM      7  C   UNL     1     142.948 130.039 114.567  1.00  0.00     0.007 A 
ENDROOT
BRANCH   3   8
ATOM      8  O   UNL     1     140.243 127.631 115.336  1.00  0.00    -0.508 OA
ATOM      9  H   UNL     1     139.465 128.203 115.640  1.00  0.00     0.293 HD
ENDBRANCH   3   8
BRANCH   5  10
ATOM     10  C   UNL     1     145.178 127.040 115.362  1.00  0.00     0.013 C 
ATOM     11  C   UNL     1     146.008 127.547 116.547  1.00  0.00     0.012 C 
ATOM     12  C   UNL     1     146.025 126.971 114.085  1.00  0.00     0.012 C 
ENDBRANCH   5  10
TORSDOF 2
ENDMDL
MODEL 4
REMARK VINA RESULT:    -4.210      1.732      3.548
REMARK INTER + INTRA:          -4.682
REMARK INTER:                  -4.555
REMARK INTRA:                  -0.127
REMARK UNBOUND:                -0.102
REMARK SMILES Cc1ccc(C(C)C)cc1O
REMARK SMILES IDX 1 1 2 2 10 3 9 4 5 5 4 6 3 7 11 8 6 10 7 11 8 12
REMARK H PARENT 11 9
REMARK Flexibility Score: inf
ROOT
ATOM      1  C   UNL     1     146.966 131.076 115.804  1.00  0.00     0.048 C 
ATOM      2  C   UNL     1     145.827 130.111 115.964  1.00  0.00    -0.009 A 
ATOM      3  C   UNL     1     145.414 129.709 117.247  1.00  0.00     0.118 A 
ATOM      4  C   UNL     1     144.350 128.807 117.389  1.00  0.00     0.050 A 
ATOM      5  C   UNL     1     143.686 128.294 116.258  1.00  0.00    -0.042 A 
ATOM      6  C   UNL     1     144.106 128.702 114.982  1.00  0.00     0.004 A 
ATOM      7  C   UNL     1     145.167 129.601 114.836  1.00  0.00     0.007 A 
ENDROOT
BRANCH   3   8
ATOM      8  O   UNL     1     146.061 130.209 118.377  1.00  0.00    -0.508 OA
ATOM      9  H   UNL     1     145.630 130.180 119.293  1.00  0.00     0.293 HD
ENDBRANCH   3   8
BRANCH   5  10
ATOM     10  C   UNL     1     142.534 127.318 116.401  1.00  0.00     0.013 C 
ATOM     11  C   UNL     1     141.679 127.281 115.129  1.00  0.00     0.012 C 
ATOM     12  C   UNL     1     141.679 127.648 117.631  1.00  0.00     0.012 C 
ENDBRANCH   5  10
TORSDOF 2
ENDMDL
MODEL 5
REMARK VINA RESULT:    -4.131     15.622     16.440
REMARK INTER + INTRA:          -4.595
REMARK INTER:                  -4.474
REMARK INTRA:                  -0.121
REMARK UNBOUND:                -0.102
REMARK SMILES Cc1ccc(C(C)C)cc1O
REMARK SMILES IDX 1 1 2 2 10 3 9 4 5 5 4 6 3 7 11 8 6 10 7 11 8 12
REMARK H PARENT 11 9
REMARK Flexibility Score: inf
ROOT
ATOM      1  C   UNL     1     127.599 134.323 115.778  1.00  0.00     0.048 C 
ATOM      2  C   UNL     1     128.242 132.978 115.601  1.00  0.00    -0.009 A 
ATOM      3  C   UNL     1     128.034 131.962 116.552  1.00  0.00     0.118 A 
ATOM      4  C   UNL     1     128.639 130.709 116.381  1.00  0.00     0.050 A 
ATOM      5  C   UNL     1     129.456 130.452 115.264  1.00  0.00    -0.042 A 
ATOM      6  C   UNL     1     129.657 131.472 114.320  1.00  0.00     0.004 A 
ATOM      7  C   UNL     1     129.057 132.723 114.488  1.00  0.00     0.007 A 
ENDROOT
BRANCH   3   8
ATOM      8  O   UNL     1     127.227 132.202 117.664  1.00  0.00    -0.508 OA
ATOM      9  H   UNL     1     126.750 133.086 117.793  1.00  0.00     0.293 HD
ENDBRANCH   3   8
BRANCH   5  10
ATOM     10  C   UNL     1     130.115 129.099 115.069  1.00  0.00     0.013 C 
ATOM     11  C   UNL     1     129.897 128.197 116.290  1.00  0.00     0.012 C 
ATOM     12  C   UNL     1     131.609 129.251 114.755  1.00  0.00     0.012 C 
ENDBRANCH   5  10
TORSDOF 2
ENDMDL
MODEL 6
REMARK VINA RESULT:    -4.130      2.526      3.626
REMARK INTER + INTRA:          -4.595
REMARK INTER:                  -4.467
REMARK INTRA:                  -0.127
REMARK UNBOUND:                -0.102
REMARK SMILES Cc1ccc(C(C)C)cc1O
REMARK SMILES IDX 1 1 2 2 10 3 9 4 5 5 4 6 3 7 11 8 6 10 7 11 8 12
REMARK H PARENT 11 9
REMARK Flexibility Score: inf
ROOT
ATOM      1  C   UNL     1     139.720 127.214 116.556  1.00  0.00     0.048 C 
ATOM      2  C   UNL     1     141.205 127.319 116.360  1.00  0.00    -0.009 A 
ATOM      3  C   UNL     1     142.074 127.225 117.462  1.00  0.00     0.118 A 
ATOM      4  C   UNL     1     143.459 127.324 117.272  1.00  0.00     0.050 A 
ATOM      5  C   UNL     1     143.996 127.518 115.985  1.00  0.00    -0.042 A 
ATOM      6  C   UNL     1     143.120 127.609 114.891  1.00  0.00     0.004 A 
ATOM      7  C   UNL     1     141.738 127.512 115.077  1.00  0.00     0.007 A 
ENDROOT
BRANCH   3   8
ATOM      8  O   UNL     1     141.557 127.033 118.744  1.00  0.00    -0.508 OA
ATOM      9  H   UNL     1     140.746 127.545 119.072  1.00  0.00     0.293 HD
ENDBRANCH   3   8
BRANCH   5  10
ATOM     10  C   UNL     1     145.494 127.626 115.768  1.00  0.00     0.013 C 
ATOM     11  C   UNL     1     145.984 129.060 115.999  1.00  0.00     0.012 C 
ATOM     12  C   UNL     1     145.888 127.126 114.373  1.00  0.00     0.012 C 
ENDBRANCH   5  10
TORSDOF 2
ENDMDL
MODEL 7
REMARK VINA RESULT:    -4.083      3.065      3.774
REMARK INTER + INTRA:          -4.543
REMARK INTER:                  -4.415
REMARK INTRA:                  -0.128
REMARK UNBOUND:                -0.102
REMARK SMILES Cc1ccc(C(C)C)cc1O
REMARK SMILES IDX 1 1 2 2 10 3 9 4 5 5 4 6 3 7 11 8 6 10 7 11 8 12
REMARK H PARENT 11 9
REMARK Flexibility Score: inf
ROOT
ATOM      1  C   UNL     1     139.960 127.425 117.938  1.00  0.00     0.048 C 
ATOM      2  C   UNL     1     141.215 127.467 117.113  1.00  0.00    -0.009 A 
ATOM      3  C   UNL     1     141.146 127.353 115.713  1.00  0.00     0.118 A 
ATOM      4  C   UNL     1     142.321 127.391 114.949  1.00  0.00     0.050 A 
ATOM      5  C   UNL     1     143.576 127.542 115.568  1.00  0.00    -0.042 A 
ATOM      6  C   UNL     1     143.634 127.655 116.967  1.00  0.00     0.004 A 
ATOM      7  C   UNL     1     142.464 127.617 117.732  1.00  0.00     0.007 A 
ENDROOT
BRANCH   3   8
ATOM      8  O   UNL     1     139.909 127.203 115.084  1.00  0.00    -0.508 OA
ATOM      9  H   UNL     1     139.560 126.293 114.809  1.00  0.00     0.293 HD
ENDBRANCH   3   8
BRANCH   5  10
ATOM     10  C   UNL     1     144.854 127.585 114.751  1.00  0.00     0.013 C 
ATOM     11  C   UNL     1     146.001 126.876 115.480  1.00  0.00     0.012 C 
ATOM     12  C   UNL     1     145.235 129.028 114.396  1.00  0.00     0.012 C 
ENDBRANCH   5  10
TORSDOF 2
ENDMDL
MODEL 8
REMARK VINA RESULT:    -4.048      2.239      3.665
REMARK INTER + INTRA:          -4.505
REMARK INTER:                  -4.378
REMARK INTRA:                  -0.127
REMARK UNBOUND:                -0.102
REMARK SMILES Cc1ccc(C(C)C)cc1O
REMARK SMILES IDX 1 1 2 2 10 3 9 4 5 5 4 6 3 7 11 8 6 10 7 11 8 12
REMARK H PARENT 11 9
REMARK Flexibility Score: inf
ROOT
ATOM      1  C   UNL     1     145.781 133.369 116.452  1.00  0.00     0.048 C 
ATOM      2  C   UNL     1     145.727 131.876 116.599  1.00  0.00    -0.009 A 
ATOM      3  C   UNL     1     145.299 131.298 117.808  1.00  0.00     0.118 A 
ATOM      4  C   UNL     1     145.252 129.903 117.939  1.00  0.00     0.050 A 
ATOM      5  C   UNL     1     145.630 129.067 116.870  1.00  0.00    -0.042 A 
ATOM      6  C   UNL     1     146.055 129.655 115.667  1.00  0.00     0.004 A 
ATOM      7  C   UNL     1     146.104 131.045 115.533  1.00  0.00     0.007 A 
ENDROOT
BRANCH   3   8
ATOM      8  O   UNL     1     144.922 132.112 118.876  1.00  0.00    -0.508 OA
ATOM      9  H   UNL     1     145.608 132.567 119.465  1.00  0.00     0.293 HD
ENDBRANCH   3   8
BRANCH   5  10
ATOM     10  C   UNL     1     145.582 127.557 117.001  1.00  0.00     0.013 C 
ATOM     11  C   UNL     1     145.924 126.875 115.671  1.00  0.00     0.012 C 
ATOM     12  C   UNL     1     144.219 127.090 117.526  1.00  0.00     0.012 C 
ENDBRANCH   5  10
TORSDOF 2
ENDMDL
