MODEL 1
REMARK VINA RESULT:    -4.552      0.000      0.000
REMARK INTER + INTRA:          -4.685
REMARK INTER:                  -4.685
REMARK INTRA:                   0.000
REMARK UNBOUND:                 0.000
REMARK SMILES CC(C)=C1CC[C@]2(C)CCC[C@@](C)(O)[C@@H]2C1
REMARK SMILES IDX 1 1 2 2 4 3 5 4 6 5 7 6 9 7 10 8 11 9 12 10 15 11 16 12
REMARK SMILES IDX 13 13 8 14 3 15 14 16
REMARK H PARENT 14 17
REMARK Flexibility Score: inf
ROOT
ATOM      1  C   UNL     1       2.520 -11.888  13.631  1.00  0.00     0.039 C 
ATOM      2  C   UNL     1       3.200 -12.674  12.531  1.00  0.00    -0.077 C 
ATOM      3  C   UNL     1       2.582 -12.899  11.327  1.00  0.00    -0.071 C 
ATOM      4  C   UNL     1       1.264 -12.221  10.980  1.00  0.00     0.031 C 
ATOM      5  C   UNL     1       0.351 -13.097  10.112  1.00  0.00     0.011 C 
ATOM      6  C   UNL     1       1.065 -13.745   8.893  1.00  0.00    -0.026 C 
ATOM      7  C   UNL     1       0.091 -14.717   8.169  1.00  0.00     0.007 C 
ATOM      8  C   UNL     1      -0.102 -16.048   8.894  1.00  0.00     0.004 C 
ATOM      9  C   UNL     1       1.238 -16.761   9.055  1.00  0.00     0.035 C 
ATOM     10  C   UNL     1       2.252 -15.946   9.894  1.00  0.00     0.066 C 
ATOM     11  C   UNL     1       2.391 -14.484   9.316  1.00  0.00     0.031 C 
ATOM     12  C   UNL     1       3.313 -13.583  10.177  1.00  0.00     0.038 C 
ATOM     13  C   UNL     1       1.867 -16.000  11.394  1.00  0.00     0.042 C 
ATOM     14  C   UNL     1       1.397 -12.621   7.872  1.00  0.00     0.012 C 
ATOM     15  C   UNL     1       4.598 -13.187  12.812  1.00  0.00     0.039 C 
ENDROOT
BRANCH  10  16
ATOM     16  O   UNL     1       3.517 -16.561   9.758  1.00  0.00    -0.390 OA
ATOM     17  H   UNL     1       3.826 -16.446   8.821  1.00  0.00     0.211 HD
ENDBRANCH  10  16
TORSDOF 1
ENDMDL
MODEL 2
REMARK VINA RESULT:    -4.413      1.592      2.355
REMARK INTER + INTRA:          -4.542
REMARK INTER:                  -4.542
REMARK INTRA:                   0.000
REMARK UNBOUND:                 0.000
REMARK SMILES CC(C)=C1CC[C@]2(C)CCC[C@@](C)(O)[C@@H]2C1
REMARK SMILES IDX 1 1 2 2 4 3 5 4 6 5 7 6 9 7 10 8 11 9 12 10 15 11 16 12
REMARK SMILES IDX 13 13 8 14 3 15 14 16
REMARK H PARENT 14 17
REMARK Flexibility Score: inf
ROOT
ATOM      1  C   UNL     1       5.232 -13.953  13.855  1.00  0.00     0.039 C 
ATOM      2  C   UNL     1       4.924 -14.934  12.744  1.00  0.00    -0.077 C 
ATOM      3  C   UNL     1       4.437 -14.512  11.533  1.00  0.00    -0.071 C 
ATOM      4  C   UNL     1       4.352 -13.031  11.192  1.00  0.00     0.031 C 
ATOM      5  C   UNL     1       3.148 -12.690  10.303  1.00  0.00     0.011 C 
ATOM      6  C   UNL     1       2.978 -13.628   9.077  1.00  0.00    -0.026 C 
ATOM      7  C   UNL     1       1.658 -13.284   8.330  1.00  0.00     0.007 C 
ATOM      8  C   UNL     1       0.403 -13.802   9.030  1.00  0.00     0.004 C 
ATOM      9  C   UNL     1       0.471 -15.319   9.185  1.00  0.00     0.035 C 
ATOM     10  C   UNL     1       1.675 -15.779  10.043  1.00  0.00     0.066 C 
ATOM     11  C   UNL     1       3.013 -15.147   9.492  1.00  0.00     0.031 C 
ATOM     12  C   UNL     1       4.244 -15.484  10.375  1.00  0.00     0.038 C 
ATOM     13  C   UNL     1       1.405 -15.483  11.541  1.00  0.00     0.042 C 
ATOM     14  C   UNL     1       4.132 -13.335   8.077  1.00  0.00     0.012 C 
ATOM     15  C   UNL     1       5.192 -16.400  13.022  1.00  0.00     0.039 C 
ENDROOT
BRANCH  10  16
ATOM     16  O   UNL     1       1.796 -17.179   9.903  1.00  0.00    -0.390 OA
ATOM     17  H   UNL     1       2.241 -17.542  10.713  1.00  0.00     0.211 HD
ENDBRANCH  10  16
TORSDOF 1
ENDMDL
MODEL 3
REMARK VINA RESULT:    -4.373      4.771      6.814
REMARK INTER + INTRA:          -4.501
REMARK INTER:                  -4.501
REMARK INTRA:                   0.000
REMARK UNBOUND:                 0.000
REMARK SMILES CC(C)=C1CC[C@]2(C)CCC[C@@](C)(O)[C@@H]2C1
REMARK SMILES IDX 1 1 2 2 4 3 5 4 6 5 7 6 9 7 10 8 11 9 12 10 15 11 16 12
REMARK SMILES IDX 13 13 8 14 3 15 14 16
REMARK H PARENT 14 17
REMARK Flexibility Score: inf
ROOT
ATOM      1  C   UNL     1       5.551 -19.531  14.992  1.00  0.00     0.039 C 
ATOM      2  C   UNL     1       4.121 -19.539  14.497  1.00  0.00    -0.077 C 
ATOM      3  C   UNL     1       3.409 -18.375  14.352  1.00  0.00    -0.071 C 
ATOM      4  C   UNL     1       4.079 -17.018  14.513  1.00  0.00     0.031 C 
ATOM      5  C   UNL     1       3.148 -15.959  15.120  1.00  0.00     0.011 C 
ATOM      6  C   UNL     1       1.744 -15.893  14.457  1.00  0.00    -0.026 C 
ATOM      7  C   UNL     1       0.842 -14.895  15.235  1.00  0.00     0.007 C 
ATOM      8  C   UNL     1       0.306 -15.449  16.553  1.00  0.00     0.004 C 
ATOM      9  C   UNL     1      -0.506 -16.717  16.303  1.00  0.00     0.035 C 
ATOM     10  C   UNL     1       0.333 -17.848  15.659  1.00  0.00     0.066 C 
ATOM     11  C   UNL     1       1.071 -17.315  14.369  1.00  0.00     0.031 C 
ATOM     12  C   UNL     1       2.014 -18.371  13.738  1.00  0.00     0.038 C 
ATOM     13  C   UNL     1       1.279 -18.475  16.715  1.00  0.00     0.042 C 
ATOM     14  C   UNL     1       1.910 -15.306  13.027  1.00  0.00     0.012 C 
ATOM     15  C   UNL     1       3.516 -20.885  14.153  1.00  0.00     0.039 C 
ENDROOT
BRANCH  10  16
ATOM     16  O   UNL     1      -0.558 -18.857  15.233  1.00  0.00    -0.390 OA
ATOM     17  H   UNL     1      -1.139 -19.111  15.998  1.00  0.00     0.211 HD
ENDBRANCH  10  16
TORSDOF 1
ENDMDL
MODEL 4
REMARK VINA RESULT:    -4.165      2.130      3.867
REMARK INTER + INTRA:          -4.287
REMARK INTER:                  -4.287
REMARK INTRA:                   0.000
REMARK UNBOUND:                 0.000
REMARK SMILES CC(C)=C1CC[C@]2(C)CCC[C@@](C)(O)[C@@H]2C1
REMARK SMILES IDX 1 1 2 2 4 3 5 4 6 5 7 6 9 7 10 8 11 9 12 10 15 11 16 12
REMARK SMILES IDX 13 13 8 14 3 15 14 16
REMARK H PARENT 14 17
REMARK Flexibility Score: inf
ROOT
ATOM      1  C   UNL     1       3.564 -16.015  14.670  1.00  0.00     0.039 C 
ATOM      2  C   UNL     1       2.753 -16.330  13.431  1.00  0.00    -0.077 C 
ATOM      3  C   UNL     1       3.232 -16.057  12.176  1.00  0.00    -0.071 C 
ATOM      4  C   UNL     1       4.666 -15.590  11.964  1.00  0.00     0.031 C 
ATOM      5  C   UNL     1       4.809 -14.606  10.795  1.00  0.00     0.011 C 
ATOM      6  C   UNL     1       4.098 -15.064   9.491  1.00  0.00    -0.026 C 
ATOM      7  C   UNL     1       4.185 -13.938   8.422  1.00  0.00     0.007 C 
ATOM      8  C   UNL     1       3.216 -12.782   8.667  1.00  0.00     0.004 C 
ATOM      9  C   UNL     1       1.778 -13.292   8.693  1.00  0.00     0.035 C 
ATOM     10  C   UNL     1       1.529 -14.321   9.823  1.00  0.00     0.066 C 
ATOM     11  C   UNL     1       2.601 -15.479   9.755  1.00  0.00     0.031 C 
ATOM     12  C   UNL     1       2.471 -16.486  10.927  1.00  0.00     0.038 C 
ATOM     13  C   UNL     1       1.462 -13.600  11.193  1.00  0.00     0.042 C 
ATOM     14  C   UNL     1       4.880 -16.275   8.911  1.00  0.00     0.012 C 
ATOM     15  C   UNL     1       1.398 -16.976  13.639  1.00  0.00     0.039 C 
ENDROOT
BRANCH  10  16
ATOM     16  O   UNL     1       0.269 -14.917   9.594  1.00  0.00    -0.390 OA
ATOM     17  H   UNL     1      -0.129 -14.512   8.779  1.00  0.00     0.211 HD
ENDBRANCH  10  16
TORSDOF 1
ENDMDL
MODEL 5
REMARK VINA RESULT:    -4.041      2.047      3.951
REMARK INTER + INTRA:          -4.159
REMARK INTER:                  -4.159
REMARK INTRA:                   0.000
REMARK UNBOUND:                 0.000
REMARK SMILES CC(C)=C1CC[C@]2(C)CCC[C@@](C)(O)[C@@H]2C1
REMARK SMILES IDX 1 1 2 2 4 3 5 4 6 5 7 6 9 7 10 8 11 9 12 10 15 11 16 12
REMARK SMILES IDX 13 13 8 14 3 15 14 16
REMARK H PARENT 14 17
REMARK Flexibility Score: inf
ROOT
ATOM      1  C   UNL     1       2.116 -17.843  13.372  1.00  0.00     0.039 C 
ATOM      2  C   UNL     1       1.843 -16.354  13.325  1.00  0.00    -0.077 C 
ATOM      3  C   UNL     1       1.776 -15.678  12.134  1.00  0.00    -0.071 C 
ATOM      4  C   UNL     1       1.796 -16.420  10.805  1.00  0.00     0.031 C 
ATOM      5  C   UNL     1       2.507 -15.637   9.693  1.00  0.00     0.011 C 
ATOM      6  C   UNL     1       2.062 -14.153   9.577  1.00  0.00    -0.026 C 
ATOM      7  C   UNL     1       2.940 -13.422   8.523  1.00  0.00     0.007 C 
ATOM      8  C   UNL     1       4.339 -13.070   9.024  1.00  0.00     0.004 C 
ATOM      9  C   UNL     1       4.250 -12.178  10.259  1.00  0.00     0.035 C 
ATOM     10  C   UNL     1       3.518 -12.861  11.440  1.00  0.00     0.066 C 
ATOM     11  C   UNL     1       2.117 -13.415  10.968  1.00  0.00     0.031 C 
ATOM     12  C   UNL     1       1.379 -14.207  12.080  1.00  0.00     0.038 C 
ATOM     13  C   UNL     1       4.436 -13.930  12.087  1.00  0.00     0.042 C 
ATOM     14  C   UNL     1       0.608 -14.123   9.029  1.00  0.00     0.012 C 
ATOM     15  C   UNL     1       1.632 -15.648  14.650  1.00  0.00     0.039 C 
ENDROOT
BRANCH  10  16
ATOM     16  O   UNL     1       3.260 -11.875  12.417  1.00  0.00    -0.390 OA
ATOM     17  H   UNL     1       2.401 -12.092  12.867  1.00  0.00     0.211 HD
ENDBRANCH  10  16
TORSDOF 1
ENDMDL
MODEL 6
REMARK VINA RESULT:    -4.022      1.872      4.375
REMARK INTER + INTRA:          -4.139
REMARK INTER:                  -4.139
REMARK INTRA:                   0.000
REMARK UNBOUND:                 0.000
REMARK SMILES CC(C)=C1CC[C@]2(C)CCC[C@@](C)(O)[C@@H]2C1
REMARK SMILES IDX 1 1 2 2 4 3 5 4 6 5 7 6 9 7 10 8 11 9 12 10 15 11 16 12
REMARK SMILES IDX 13 13 8 14 3 15 14 16
REMARK H PARENT 14 17
REMARK Flexibility Score: inf
ROOT
ATOM      1  C   UNL     1      -0.041 -12.192  10.392  1.00  0.00     0.039 C 
ATOM      2  C   UNL     1       0.626 -13.433   9.839  1.00  0.00    -0.077 C 
ATOM      3  C   UNL     1       1.285 -14.315  10.657  1.00  0.00    -0.071 C 
ATOM      4  C   UNL     1       1.223 -14.179  12.172  1.00  0.00     0.031 C 
ATOM      5  C   UNL     1       2.522 -14.614  12.866  1.00  0.00     0.011 C 
ATOM      6  C   UNL     1       3.073 -15.983  12.379  1.00  0.00    -0.026 C 
ATOM      7  C   UNL     1       4.454 -16.258  13.039  1.00  0.00     0.007 C 
ATOM      8  C   UNL     1       5.600 -15.460  12.420  1.00  0.00     0.004 C 
ATOM      9  C   UNL     1       5.721 -15.775  10.932  1.00  0.00     0.035 C 
ATOM     10  C   UNL     1       4.447 -15.402  10.136  1.00  0.00     0.066 C 
ATOM     11  C   UNL     1       3.173 -16.049  10.808  1.00  0.00     0.031 C 
ATOM     12  C   UNL     1       1.850 -15.624  10.119  1.00  0.00     0.038 C 
ATOM     13  C   UNL     1       4.359 -13.864   9.962  1.00  0.00     0.042 C 
ATOM     14  C   UNL     1       2.118 -17.099  12.888  1.00  0.00     0.012 C 
ATOM     15  C   UNL     1       0.521 -13.666   8.345  1.00  0.00     0.039 C 
ENDROOT
BRANCH  10  16
ATOM     16  O   UNL     1       4.561 -15.969   8.847  1.00  0.00    -0.390 OA
ATOM     17  H   UNL     1       3.756 -15.721   8.319  1.00  0.00     0.211 HD
ENDBRANCH  10  16
TORSDOF 1
ENDMDL
MODEL 7
REMARK VINA RESULT:    -3.712      4.990      7.134
REMARK INTER + INTRA:          -3.821
REMARK INTER:                  -3.821
REMARK INTRA:                   0.000
REMARK UNBOUND:                 0.000
REMARK SMILES CC(C)=C1CC[C@]2(C)CCC[C@@](C)(O)[C@@H]2C1
REMARK SMILES IDX 1 1 2 2 4 3 5 4 6 5 7 6 9 7 10 8 11 9 12 10 15 11 16 12
REMARK SMILES IDX 13 13 8 14 3 15 14 16
REMARK H PARENT 14 17
REMARK Flexibility Score: inf
ROOT
ATOM      1  C   UNL     1       1.413 -15.370  11.675  1.00  0.00     0.039 C 
ATOM      2  C   UNL     1       1.613 -15.234  13.170  1.00  0.00    -0.077 C 
ATOM      3  C   UNL     1       2.089 -16.275  13.925  1.00  0.00    -0.071 C 
ATOM      4  C   UNL     1       2.603 -17.550  13.272  1.00  0.00     0.031 C 
ATOM      5  C   UNL     1       2.323 -18.806  14.109  1.00  0.00     0.011 C 
ATOM      6  C   UNL     1       2.709 -18.668  15.608  1.00  0.00    -0.026 C 
ATOM      7  C   UNL     1       2.256 -19.936  16.386  1.00  0.00     0.007 C 
ATOM      8  C   UNL     1       0.756 -19.980  16.670  1.00  0.00     0.004 C 
ATOM      9  C   UNL     1       0.334 -18.757  17.481  1.00  0.00     0.035 C 
ATOM     10  C   UNL     1       0.603 -17.425  16.738  1.00  0.00     0.066 C 
ATOM     11  C   UNL     1       2.103 -17.364  16.251  1.00  0.00     0.031 C 
ATOM     12  C   UNL     1       2.408 -16.099  15.405  1.00  0.00     0.038 C 
ATOM     13  C   UNL     1      -0.439 -17.227  15.608  1.00  0.00     0.042 C 
ATOM     14  C   UNL     1       4.259 -18.627  15.708  1.00  0.00     0.012 C 
ATOM     15  C   UNL     1       1.280 -13.892  13.791  1.00  0.00     0.039 C 
ENDROOT
BRANCH  10  16
ATOM     16  O   UNL     1       0.430 -16.373  17.664  1.00  0.00    -0.390 OA
ATOM     17  H   UNL     1       1.309 -15.931  17.809  1.00  0.00     0.211 HD
ENDBRANCH  10  16
TORSDOF 1
ENDMDL
MODEL 8
REMARK VINA RESULT:    -3.676      1.836      4.946
REMARK INTER + INTRA:          -3.784
REMARK INTER:                  -3.784
REMARK INTRA:                   0.000
REMARK UNBOUND:                 0.000
REMARK SMILES CC(C)=C1CC[C@]2(C)CCC[C@@](C)(O)[C@@H]2C1
REMARK SMILES IDX 1 1 2 2 4 3 5 4 6 5 7 6 9 7 10 8 11 9 12 10 15 11 16 12
REMARK SMILES IDX 13 13 8 14 3 15 14 16
REMARK H PARENT 14 17
REMARK Flexibility Score: inf
ROOT
ATOM      1  C   UNL     1       0.545 -14.361   8.808  1.00  0.00     0.039 C 
ATOM      2  C   UNL     1       1.111 -15.347   9.808  1.00  0.00    -0.077 C 
ATOM      3  C   UNL     1       1.411 -14.970  11.092  1.00  0.00    -0.071 C 
ATOM      4  C   UNL     1       1.024 -13.595  11.619  1.00  0.00     0.031 C 
ATOM      5  C   UNL     1       2.039 -13.032  12.623  1.00  0.00     0.011 C 
ATOM      6  C   UNL     1       2.457 -14.036  13.733  1.00  0.00    -0.026 C 
ATOM      7  C   UNL     1       3.585 -13.415  14.605  1.00  0.00     0.007 C 
ATOM      8  C   UNL     1       4.957 -13.427  13.934  1.00  0.00     0.004 C 
ATOM      9  C   UNL     1       5.366 -14.856  13.589  1.00  0.00     0.035 C 
ATOM     10  C   UNL     1       4.387 -15.535  12.599  1.00  0.00     0.066 C 
ATOM     11  C   UNL     1       2.905 -15.421  13.131  1.00  0.00     0.031 C 
ATOM     12  C   UNL     1       1.863 -15.989  12.131  1.00  0.00     0.038 C 
ATOM     13  C   UNL     1       4.593 -14.966  11.172  1.00  0.00     0.042 C 
ATOM     14  C   UNL     1       1.242 -14.247  14.680  1.00  0.00     0.012 C 
ATOM     15  C   UNL     1       1.317 -16.771   9.332  1.00  0.00     0.039 C 
ENDROOT
BRANCH  10  16
ATOM     16  O   UNL     1       4.701 -16.911  12.557  1.00  0.00    -0.390 OA
ATOM     17  H   UNL     1       5.690 -17.009  12.523  1.00  0.00     0.211 HD
ENDBRANCH  10  16
TORSDOF 1
ENDMDL
