MODEL 1
REMARK VINA RESULT:    -5.628      0.000      0.000
REMARK INTER + INTRA:          -9.008
REMARK INTER:                  -7.931
REMARK INTRA:                  -1.077
REMARK UNBOUND:                -1.077
REMARK SMILES COc1c(O[C@@H]2O[C@@H](C(=O)[O-])[C@H](O)[C@@H](O)[C@H]2O)cc(O)c2c(=O)cc(-c3ccccc3)oc12
REMARK SMILES IDX 5 1 6 2 8 3 12 4 7 5 14 6 16 7 9 8 10 9 11 10 13 11 15 13
REMARK SMILES IDX 17 15 4 17 3 18 18 19 33 20 19 21 21 22 32 23 22 24 25 25
REMARK SMILES IDX 24 26 23 27 2 28 1 29 20 30 26 32 27 33 31 34 28 35 30 36
REMARK SMILES IDX 29 37
REMARK H PARENT 13 12 15 14 17 16 20 31
REMARK Flexibility Score: inf
ROOT
ATOM      1  O   UNL     1     -54.689  23.713 -14.495  1.00  0.00    -0.458 OA
ENDROOT
BRANCH   1   2
ATOM      2  C   UNL     1     -53.812  23.826 -13.365  1.00  0.00     0.339 C 
ATOM      3  C   UNL     1     -52.027  24.595 -14.689  1.00  0.00     0.199 C 
ATOM      4  C   UNL     1     -51.193  23.311 -14.470  1.00  0.00     0.180 C 
ATOM      5  O   UNL     1     -52.862  24.860 -13.574  1.00  0.00    -0.328 OA
ATOM      6  C   UNL     1     -52.129  22.130 -14.183  1.00  0.00     0.181 C 
ATOM      7  C   UNL     1     -53.111  22.484 -13.055  1.00  0.00     0.214 C 
BRANCH   3   8
ATOM      8  C   UNL     1     -51.115  25.771 -14.878  1.00  0.00     0.073 C 
ATOM      9  O   UNL     1     -51.159  26.744 -14.078  1.00  0.00    -0.547 OA
ATOM     10  O   UNL     1     -50.241  25.811 -15.957  1.00  0.00    -0.547 OA
ENDBRANCH   3   8
BRANCH   4  11
ATOM     11  O   UNL     1     -50.435  23.022 -15.618  1.00  0.00    -0.387 OA
ATOM     12  H   UNL     1     -49.484  22.994 -15.339  1.00  0.00     0.211 HD
ENDBRANCH   4  11
BRANCH   6  13
ATOM     13  O   UNL     1     -51.367  21.004 -13.831  1.00  0.00    -0.387 OA
ATOM     14  H   UNL     1     -51.228  20.479 -14.663  1.00  0.00     0.211 HD
ENDBRANCH   6  13
BRANCH   7  15
ATOM     15  O   UNL     1     -52.417  22.581 -11.836  1.00  0.00    -0.384 OA
ATOM     16  H   UNL     1     -51.612  23.137 -12.008  1.00  0.00     0.211 HD
ENDBRANCH   7  15
ENDBRANCH   1   2
BRANCH   1  17
ATOM     17  C   UNL     1     -55.576  24.702 -14.958  1.00  0.00     0.172 A 
ATOM     18  C   UNL     1     -56.693  25.025 -14.172  1.00  0.00     0.205 A 
ATOM     19  C   UNL     1     -55.395  25.357 -16.189  1.00  0.00     0.097 A 
ATOM     20  C   UNL     1     -57.649  25.934 -14.643  1.00  0.00     0.188 A 
ATOM     21  C   UNL     1     -56.310  26.307 -16.651  1.00  0.00     0.134 A 
ATOM     22  C   UNL     1     -57.490  26.572 -15.899  1.00  0.00     0.111 A 
ATOM     23  O   UNL     1     -58.713  26.185 -13.886  1.00  0.00    -0.452 OA
ATOM     24  C   UNL     1     -58.546  27.410 -16.331  1.00  0.00     0.197 A 
ATOM     25  C   UNL     1     -59.690  27.011 -14.240  1.00  0.00     0.138 A 
ATOM     26  C   UNL     1     -59.636  27.640 -15.492  1.00  0.00     0.100 A 
ATOM     27  O   UNL     1     -58.554  27.935 -17.475  1.00  0.00    -0.289 OA
BRANCH  18  28
ATOM     28  O   UNL     1     -56.894  24.428 -12.924  1.00  0.00    -0.490 OA
ATOM     29  C   UNL     1     -57.656  23.236 -12.765  1.00  0.00     0.278 C 
ENDBRANCH  18  28
BRANCH  21  30
ATOM     30  O   UNL     1     -55.983  26.964 -17.840  1.00  0.00    -0.507 OA
ATOM     31  H   UNL     1     -56.264  27.904 -18.074  1.00  0.00     0.293 HD
ENDBRANCH  21  30
BRANCH  25  32
ATOM     32  C   UNL     1     -60.824  27.221 -13.304  1.00  0.00     0.017 A 
ATOM     33  C   UNL     1     -61.716  28.303 -13.449  1.00  0.00     0.012 A 
ATOM     34  C   UNL     1     -61.000  26.339 -12.221  1.00  0.00     0.012 A 
ATOM     35  C   UNL     1     -62.768  28.480 -12.545  1.00  0.00     0.001 A 
ATOM     36  C   UNL     1     -62.053  26.521 -11.321  1.00  0.00     0.001 A 
ATOM     37  C   UNL     1     -62.938  27.588 -11.483  1.00  0.00     0.000 A 
ENDBRANCH  25  32
ENDBRANCH   1  17
TORSDOF 9
ENDMDL
MODEL 2
REMARK VINA RESULT:    -5.607      4.166      8.516
REMARK INTER + INTRA:          -8.979
REMARK INTER:                  -7.727
REMARK INTRA:                  -1.252
REMARK UNBOUND:                -1.077
REMARK SMILES COc1c(O[C@@H]2O[C@@H](C(=O)[O-])[C@H](O)[C@@H](O)[C@H]2O)cc(O)c2c(=O)cc(-c3ccccc3)oc12
REMARK SMILES IDX 5 1 6 2 8 3 12 4 7 5 14 6 16 7 9 8 10 9 11 10 13 11 15 13
REMARK SMILES IDX 17 15 4 17 3 18 18 19 33 20 19 21 21 22 32 23 22 24 25 25
REMARK SMILES IDX 24 26 23 27 2 28 1 29 20 30 26 32 27 33 31 34 28 35 30 36
REMARK SMILES IDX 29 37
REMARK H PARENT 13 12 15 14 17 16 20 31
REMARK Flexibility Score: inf
ROOT
ATOM      1  O   UNL     1     -57.437  24.143 -13.217  1.00  0.00    -0.458 OA
ENDROOT
BRANCH   1   2
ATOM      2  C   UNL     1     -56.838  25.444 -13.297  1.00  0.00     0.339 C 
ATOM      3  C   UNL     1     -58.520  26.250 -14.730  1.00  0.00     0.199 C 
ATOM      4  C   UNL     1     -57.560  26.373 -15.936  1.00  0.00     0.180 C 
ATOM      5  O   UNL     1     -57.831  26.437 -13.505  1.00  0.00    -0.328 OA
ATOM      6  C   UNL     1     -56.410  25.369 -15.786  1.00  0.00     0.181 C 
ATOM      7  C   UNL     1     -55.757  25.503 -14.401  1.00  0.00     0.214 C 
BRANCH   3   8
ATOM      8  C   UNL     1     -59.595  27.292 -14.823  1.00  0.00     0.073 C 
ATOM      9  O   UNL     1     -59.410  28.338 -15.502  1.00  0.00    -0.547 OA
ATOM     10  O   UNL     1     -60.790  27.127 -14.133  1.00  0.00    -0.547 OA
ENDBRANCH   3   8
BRANCH   4  11
ATOM     11  O   UNL     1     -58.246  26.103 -17.132  1.00  0.00    -0.387 OA
ATOM     12  H   UNL     1     -58.034  25.167 -17.384  1.00  0.00     0.211 HD
ENDBRANCH   4  11
BRANCH   6  13
ATOM     13  O   UNL     1     -55.461  25.591 -16.796  1.00  0.00    -0.387 OA
ATOM     14  H   UNL     1     -54.631  25.119 -16.519  1.00  0.00     0.211 HD
ENDBRANCH   6  13
BRANCH   7  15
ATOM     15  O   UNL     1     -55.062  26.722 -14.321  1.00  0.00    -0.384 OA
ATOM     16  H   UNL     1     -55.382  27.181 -13.500  1.00  0.00     0.211 HD
ENDBRANCH   7  15
ENDBRANCH   1   2
BRANCH   1  17
ATOM     17  C   UNL     1     -57.732  23.439 -12.034  1.00  0.00     0.172 A 
ATOM     18  C   UNL     1     -57.201  22.151 -11.868  1.00  0.00     0.205 A 
ATOM     19  C   UNL     1     -58.561  23.971 -11.031  1.00  0.00     0.097 A 
ATOM     20  C   UNL     1     -57.550  21.381 -10.751  1.00  0.00     0.188 A 
ATOM     21  C   UNL     1     -58.876  23.239  -9.882  1.00  0.00     0.134 A 
ATOM     22  C   UNL     1     -58.412  21.900  -9.752  1.00  0.00     0.111 A 
ATOM     23  O   UNL     1     -57.056  20.151 -10.648  1.00  0.00    -0.452 OA
ATOM     24  C   UNL     1     -58.777  21.022  -8.702  1.00  0.00     0.197 A 
ATOM     25  C   UNL     1     -57.335  19.328  -9.645  1.00  0.00     0.138 A 
ATOM     26  C   UNL     1     -58.224  19.743  -8.644  1.00  0.00     0.100 A 
ATOM     27  O   UNL     1     -59.622  21.345  -7.827  1.00  0.00    -0.289 OA
BRANCH  18  28
ATOM     28  O   UNL     1     -56.343  21.596 -12.822  1.00  0.00    -0.490 OA
ATOM     29  C   UNL     1     -54.943  21.849 -12.826  1.00  0.00     0.278 C 
ENDBRANCH  18  28
BRANCH  21  30
ATOM     30  O   UNL     1     -59.629  23.899  -8.907  1.00  0.00    -0.507 OA
ATOM     31  H   UNL     1     -60.509  24.361  -9.075  1.00  0.00     0.293 HD
ENDBRANCH  21  30
BRANCH  25  32
ATOM     32  C   UNL     1     -56.713  17.979  -9.633  1.00  0.00     0.017 A 
ATOM     33  C   UNL     1     -55.968  17.495 -10.728  1.00  0.00     0.012 A 
ATOM     34  C   UNL     1     -56.894  17.143  -8.515  1.00  0.00     0.012 A 
ATOM     35  C   UNL     1     -55.403  16.216 -10.690  1.00  0.00     0.001 A 
ATOM     36  C   UNL     1     -56.326  15.866  -8.483  1.00  0.00     0.001 A 
ATOM     37  C   UNL     1     -55.580  15.403  -9.569  1.00  0.00     0.000 A 
ENDBRANCH  25  32
ENDBRANCH   1  17
TORSDOF 9
ENDMDL
MODEL 3
REMARK VINA RESULT:    -5.460      1.595      2.652
REMARK INTER + INTRA:          -8.771
REMARK INTER:                  -7.501
REMARK INTRA:                  -1.271
REMARK UNBOUND:                -1.077
REMARK SMILES COc1c(O[C@@H]2O[C@@H](C(=O)[O-])[C@H](O)[C@@H](O)[C@H]2O)cc(O)c2c(=O)cc(-c3ccccc3)oc12
REMARK SMILES IDX 5 1 6 2 8 3 12 4 7 5 14 6 16 7 9 8 10 9 11 10 13 11 15 13
REMARK SMILES IDX 17 15 4 17 3 18 18 19 33 20 19 21 21 22 32 23 22 24 25 25
REMARK SMILES IDX 24 26 23 27 2 28 1 29 20 30 26 32 27 33 31 34 28 35 30 36
REMARK SMILES IDX 29 37
REMARK H PARENT 13 12 15 14 17 16 20 31
REMARK Flexibility Score: inf
ROOT
ATOM      1  O   UNL     1     -54.978  23.287 -14.493  1.00  0.00    -0.458 OA
ENDROOT
BRANCH   1   2
ATOM      2  C   UNL     1     -53.707  23.386 -13.836  1.00  0.00     0.339 C 
ATOM      3  C   UNL     1     -53.119  21.181 -14.402  1.00  0.00     0.199 C 
ATOM      4  C   UNL     1     -53.184  20.691 -12.937  1.00  0.00     0.180 C 
ATOM      5  O   UNL     1     -52.752  22.549 -14.470  1.00  0.00    -0.328 OA
ATOM      6  C   UNL     1     -54.159  21.568 -12.141  1.00  0.00     0.181 C 
ATOM      7  C   UNL     1     -53.820  23.056 -12.331  1.00  0.00     0.214 C 
BRANCH   3   8
ATOM      8  C   UNL     1     -52.098  20.387 -15.162  1.00  0.00     0.073 C 
ATOM      9  O   UNL     1     -52.368  19.222 -15.562  1.00  0.00    -0.547 OA
ATOM     10  O   UNL     1     -50.837  20.917 -15.402  1.00  0.00    -0.547 OA
ENDBRANCH   3   8
BRANCH   4  11
ATOM     11  O   UNL     1     -53.628  19.359 -12.888  1.00  0.00    -0.387 OA
ATOM     12  H   UNL     1     -54.218  19.278 -12.095  1.00  0.00     0.211 HD
ENDBRANCH   4  11
BRANCH   6  13
ATOM     13  O   UNL     1     -54.096  21.223 -10.782  1.00  0.00    -0.387 OA
ATOM     14  H   UNL     1     -53.291  21.670 -10.409  1.00  0.00     0.211 HD
ENDBRANCH   6  13
BRANCH   7  15
ATOM     15  O   UNL     1     -52.606  23.351 -11.686  1.00  0.00    -0.384 OA
ATOM     16  H   UNL     1     -52.168  24.068 -12.215  1.00  0.00     0.211 HD
ENDBRANCH   7  15
ENDBRANCH   1   2
BRANCH   1  17
ATOM     17  C   UNL     1     -55.798  24.365 -14.878  1.00  0.00     0.172 A 
ATOM     18  C   UNL     1     -56.895  24.697 -14.068  1.00  0.00     0.205 A 
ATOM     19  C   UNL     1     -55.571  25.099 -16.055  1.00  0.00     0.097 A 
ATOM     20  C   UNL     1     -57.790  25.698 -14.467  1.00  0.00     0.188 A 
ATOM     21  C   UNL     1     -56.422  26.139 -16.441  1.00  0.00     0.134 A 
ATOM     22  C   UNL     1     -57.585  26.420 -15.669  1.00  0.00     0.111 A 
ATOM     23  O   UNL     1     -58.839  25.958 -13.691  1.00  0.00    -0.452 OA
ATOM     24  C   UNL     1     -58.583  27.355 -16.034  1.00  0.00     0.197 A 
ATOM     25  C   UNL     1     -59.759  26.870 -13.980  1.00  0.00     0.138 A 
ATOM     26  C   UNL     1     -59.660  27.588 -15.179  1.00  0.00     0.100 A 
ATOM     27  O   UNL     1     -58.554  27.966 -17.134  1.00  0.00    -0.289 OA
BRANCH  18  28
ATOM     28  O   UNL     1     -57.139  24.019 -12.870  1.00  0.00    -0.490 OA
ATOM     29  C   UNL     1     -57.843  22.783 -12.825  1.00  0.00     0.278 C 
ENDBRANCH  18  28
BRANCH  21  30
ATOM     30  O   UNL     1     -56.048  26.863 -17.576  1.00  0.00    -0.507 OA
ATOM     31  H   UNL     1     -55.490  26.498 -18.333  1.00  0.00     0.293 HD
ENDBRANCH  21  30
BRANCH  25  32
ATOM     32  C   UNL     1     -60.881  27.079 -13.028  1.00  0.00     0.017 A 
ATOM     33  C   UNL     1     -61.144  26.174 -11.980  1.00  0.00     0.012 A 
ATOM     34  C   UNL     1     -61.729  28.190 -13.191  1.00  0.00     0.012 A 
ATOM     35  C   UNL     1     -62.214  26.392 -11.107  1.00  0.00     0.001 A 
ATOM     36  C   UNL     1     -62.797  28.404 -12.316  1.00  0.00     0.001 A 
ATOM     37  C   UNL     1     -63.039  27.507 -11.274  1.00  0.00     0.000 A 
ENDBRANCH  25  32
ENDBRANCH   1  17
TORSDOF 9
ENDMDL
MODEL 4
REMARK VINA RESULT:    -5.454      2.157      3.511
REMARK INTER + INTRA:          -8.763
REMARK INTER:                  -7.331
REMARK INTRA:                  -1.432
REMARK UNBOUND:                -1.077
REMARK SMILES COc1c(O[C@@H]2O[C@@H](C(=O)[O-])[C@H](O)[C@@H](O)[C@H]2O)cc(O)c2c(=O)cc(-c3ccccc3)oc12
REMARK SMILES IDX 5 1 6 2 8 3 12 4 7 5 14 6 16 7 9 8 10 9 11 10 13 11 15 13
REMARK SMILES IDX 17 15 4 17 3 18 18 19 33 20 19 21 21 22 32 23 22 24 25 25
REMARK SMILES IDX 24 26 23 27 2 28 1 29 20 30 26 32 27 33 31 34 28 35 30 36
REMARK SMILES IDX 29 37
REMARK H PARENT 13 12 15 14 17 16 20 31
REMARK Flexibility Score: inf
ROOT
ATOM      1  O   UNL     1     -55.114  23.430 -14.099  1.00  0.00    -0.458 OA
ENDROOT
BRANCH   1   2
ATOM      2  C   UNL     1     -55.287  22.035 -14.386  1.00  0.00     0.339 C 
ATOM      3  C   UNL     1     -55.544  21.487 -12.113  1.00  0.00     0.199 C 
ATOM      4  C   UNL     1     -54.208  20.713 -12.055  1.00  0.00     0.180 C 
ATOM      5  O   UNL     1     -56.117  21.425 -13.409  1.00  0.00    -0.328 OA
ATOM      6  C   UNL     1     -53.245  21.263 -13.115  1.00  0.00     0.181 C 
ATOM      7  C   UNL     1     -53.929  21.306 -14.492  1.00  0.00     0.214 C 
BRANCH   3   8
ATOM      8  C   UNL     1     -56.523  20.894 -11.143  1.00  0.00     0.073 C 
ATOM      9  O   UNL     1     -56.209  19.879 -10.465  1.00  0.00    -0.547 OA
ATOM     10  O   UNL     1     -57.793  21.440 -11.010  1.00  0.00    -0.547 OA
ENDBRANCH   3   8
BRANCH   4  11
ATOM     11  O   UNL     1     -53.617  20.856 -10.788  1.00  0.00    -0.387 OA
ATOM     12  H   UNL     1     -53.808  21.780 -10.481  1.00  0.00     0.211 HD
ENDBRANCH   4  11
BRANCH   6  13
ATOM     13  O   UNL     1     -52.096  20.458 -13.167  1.00  0.00    -0.387 OA
ATOM     14  H   UNL     1     -51.525  20.817 -13.897  1.00  0.00     0.211 HD
ENDBRANCH   6  13
BRANCH   7  15
ATOM     15  O   UNL     1     -54.128  19.996 -14.962  1.00  0.00    -0.384 OA
ATOM     16  H   UNL     1     -53.240  19.659 -15.254  1.00  0.00     0.211 HD
ENDBRANCH   7  15
ENDBRANCH   1   2
BRANCH   1  17
ATOM     17  C   UNL     1     -55.890  24.485 -14.615  1.00  0.00     0.172 A 
ATOM     18  C   UNL     1     -57.010  24.914 -13.886  1.00  0.00     0.205 A 
ATOM     19  C   UNL     1     -55.598  25.101 -15.844  1.00  0.00     0.097 A 
ATOM     20  C   UNL     1     -57.862  25.894 -14.412  1.00  0.00     0.188 A 
ATOM     21  C   UNL     1     -56.406  26.119 -16.359  1.00  0.00     0.134 A 
ATOM     22  C   UNL     1     -57.591  26.496 -15.666  1.00  0.00     0.111 A 
ATOM     23  O   UNL     1     -58.934  26.247 -13.707  1.00  0.00    -0.452 OA
ATOM     24  C   UNL     1     -58.551  27.414 -16.157  1.00  0.00     0.197 A 
ATOM     25  C   UNL     1     -59.819  27.148 -14.117  1.00  0.00     0.138 A 
ATOM     26  C   UNL     1     -59.654  27.749 -15.372  1.00  0.00     0.100 A 
ATOM     27  O   UNL     1     -58.462  27.920 -17.306  1.00  0.00    -0.289 OA
BRANCH  18  28
ATOM     28  O   UNL     1     -57.318  24.356 -12.641  1.00  0.00    -0.490 OA
ATOM     29  C   UNL     1     -56.779  24.861 -11.425  1.00  0.00     0.278 C 
ENDBRANCH  18  28
BRANCH  21  30
ATOM     30  O   UNL     1     -55.970  26.727 -17.540  1.00  0.00    -0.507 OA
ATOM     31  H   UNL     1     -55.789  26.239 -18.404  1.00  0.00     0.293 HD
ENDBRANCH  21  30
BRANCH  25  32
ATOM     32  C   UNL     1     -60.972  27.468 -13.237  1.00  0.00     0.017 A 
ATOM     33  C   UNL     1     -61.801  28.583 -13.476  1.00  0.00     0.012 A 
ATOM     34  C   UNL     1     -61.230  26.662 -12.113  1.00  0.00     0.012 A 
ATOM     35  C   UNL     1     -62.873  28.865 -12.623  1.00  0.00     0.001 A 
ATOM     36  C   UNL     1     -62.303  26.948 -11.264  1.00  0.00     0.001 A 
ATOM     37  C   UNL     1     -63.125  28.047 -11.520  1.00  0.00     0.000 A 
ENDBRANCH  25  32
ENDBRANCH   1  17
TORSDOF 9
ENDMDL
MODEL 5
REMARK VINA RESULT:    -5.454      3.300      8.205
REMARK INTER + INTRA:          -8.763
REMARK INTER:                  -7.642
REMARK INTRA:                  -1.121
REMARK UNBOUND:                -1.077
REMARK SMILES COc1c(O[C@@H]2O[C@@H](C(=O)[O-])[C@H](O)[C@@H](O)[C@H]2O)cc(O)c2c(=O)cc(-c3ccccc3)oc12
REMARK SMILES IDX 5 1 6 2 8 3 12 4 7 5 14 6 16 7 9 8 10 9 11 10 13 11 15 13
REMARK SMILES IDX 17 15 4 17 3 18 18 19 33 20 19 21 21 22 32 23 22 24 25 25
REMARK SMILES IDX 24 26 23 27 2 28 1 29 20 30 26 32 27 33 31 34 28 35 30 36
REMARK SMILES IDX 29 37
REMARK H PARENT 13 12 15 14 17 16 20 31
REMARK Flexibility Score: inf
ROOT
ATOM      1  O   UNL     1     -56.214  24.609 -14.593  1.00  0.00    -0.458 OA
ENDROOT
BRANCH   1   2
ATOM      2  C   UNL     1     -55.916  25.878 -15.192  1.00  0.00     0.339 C 
ATOM      3  C   UNL     1     -57.531  26.993 -13.896  1.00  0.00     0.199 C 
ATOM      4  C   UNL     1     -58.437  27.286 -15.113  1.00  0.00     0.180 C 
ATOM      5  O   UNL     1     -56.166  26.933 -14.276  1.00  0.00    -0.328 OA
ATOM      6  C   UNL     1     -58.208  26.225 -16.196  1.00  0.00     0.181 C 
ATOM      7  C   UNL     1     -56.708  26.086 -16.503  1.00  0.00     0.214 C 
BRANCH   3   8
ATOM      8  C   UNL     1     -57.682  28.078 -12.871  1.00  0.00     0.073 C 
ATOM      9  O   UNL     1     -56.752  28.908 -12.683  1.00  0.00    -0.547 OA
ATOM     10  O   UNL     1     -58.835  28.156 -12.100  1.00  0.00    -0.547 OA
ENDBRANCH   3   8
BRANCH   4  11
ATOM     11  O   UNL     1     -59.789  27.260 -14.730  1.00  0.00    -0.387 OA
ATOM     12  H   UNL     1     -60.080  26.312 -14.755  1.00  0.00     0.211 HD
ENDBRANCH   4  11
BRANCH   6  13
ATOM     13  O   UNL     1     -58.912  26.581 -17.357  1.00  0.00    -0.387 OA
ATOM     14  H   UNL     1     -59.068  25.743 -17.868  1.00  0.00     0.211 HD
ENDBRANCH   6  13
BRANCH   7  15
ATOM     15  O   UNL     1     -56.250  27.242 -17.158  1.00  0.00    -0.384 OA
ATOM     16  H   UNL     1     -55.694  27.741 -16.503  1.00  0.00     0.211 HD
ENDBRANCH   7  15
ENDBRANCH   1   2
BRANCH   1  17
ATOM     17  C   UNL     1     -55.281  23.605 -14.273  1.00  0.00     0.172 A 
ATOM     18  C   UNL     1     -55.737  22.441 -13.638  1.00  0.00     0.205 A 
ATOM     19  C   UNL     1     -53.908  23.742 -14.543  1.00  0.00     0.097 A 
ATOM     20  C   UNL     1     -54.828  21.462 -13.216  1.00  0.00     0.188 A 
ATOM     21  C   UNL     1     -52.991  22.751 -14.179  1.00  0.00     0.134 A 
ATOM     22  C   UNL     1     -53.439  21.610 -13.456  1.00  0.00     0.111 A 
ATOM     23  O   UNL     1     -55.296  20.390 -12.584  1.00  0.00    -0.452 OA
ATOM     24  C   UNL     1     -52.586  20.613 -12.922  1.00  0.00     0.197 A 
ATOM     25  C   UNL     1     -54.525  19.412 -12.123  1.00  0.00     0.138 A 
ATOM     26  C   UNL     1     -53.135  19.509 -12.271  1.00  0.00     0.100 A 
ATOM     27  O   UNL     1     -51.333  20.706 -12.982  1.00  0.00    -0.289 OA
BRANCH  18  28
ATOM     28  O   UNL     1     -57.098  22.244 -13.382  1.00  0.00    -0.490 OA
ATOM     29  C   UNL     1     -57.728  22.727 -12.201  1.00  0.00     0.278 C 
ENDBRANCH  18  28
BRANCH  21  30
ATOM     30  O   UNL     1     -51.667  22.947 -14.582  1.00  0.00    -0.507 OA
ATOM     31  H   UNL     1     -50.917  23.233 -13.971  1.00  0.00     0.293 HD
ENDBRANCH  21  30
BRANCH  25  32
ATOM     32  C   UNL     1     -55.166  18.257 -11.443  1.00  0.00     0.017 A 
ATOM     33  C   UNL     1     -54.970  16.933 -11.885  1.00  0.00     0.012 A 
ATOM     34  C   UNL     1     -56.018  18.486 -10.346  1.00  0.00     0.012 A 
ATOM     35  C   UNL     1     -55.595  15.868 -11.229  1.00  0.00     0.001 A 
ATOM     36  C   UNL     1     -56.640  17.417  -9.695  1.00  0.00     0.001 A 
ATOM     37  C   UNL     1     -56.428  16.110 -10.134  1.00  0.00     0.000 A 
ENDBRANCH  25  32
ENDBRANCH   1  17
TORSDOF 9
ENDMDL
MODEL 6
REMARK VINA RESULT:    -5.390      4.095      7.527
REMARK INTER + INTRA:          -8.674
REMARK INTER:                  -7.479
REMARK INTRA:                  -1.195
REMARK UNBOUND:                -1.077
REMARK SMILES COc1c(O[C@@H]2O[C@@H](C(=O)[O-])[C@H](O)[C@@H](O)[C@H]2O)cc(O)c2c(=O)cc(-c3ccccc3)oc12
REMARK SMILES IDX 5 1 6 2 8 3 12 4 7 5 14 6 16 7 9 8 10 9 11 10 13 11 15 13
REMARK SMILES IDX 17 15 4 17 3 18 18 19 33 20 19 21 21 22 32 23 22 24 25 25
REMARK SMILES IDX 24 26 23 27 2 28 1 29 20 30 26 32 27 33 31 34 28 35 30 36
REMARK SMILES IDX 29 37
REMARK H PARENT 13 12 15 14 17 16 20 31
REMARK Flexibility Score: inf
ROOT
ATOM      1  O   UNL     1     -57.646  24.986 -13.025  1.00  0.00    -0.458 OA
ENDROOT
BRANCH   1   2
ATOM      2  C   UNL     1     -56.811  26.142 -13.187  1.00  0.00     0.339 C 
ATOM      3  C   UNL     1     -58.153  27.006 -14.913  1.00  0.00     0.199 C 
ATOM      4  C   UNL     1     -57.066  26.790 -15.990  1.00  0.00     0.180 C 
ATOM      5  O   UNL     1     -57.574  27.248 -13.641  1.00  0.00    -0.328 OA
ATOM      6  C   UNL     1     -56.144  25.637 -15.571  1.00  0.00     0.181 C 
ATOM      7  C   UNL     1     -55.628  25.857 -14.140  1.00  0.00     0.214 C 
BRANCH   3   8
ATOM      8  C   UNL     1     -59.001  28.191 -15.272  1.00  0.00     0.073 C 
ATOM      9  O   UNL     1     -58.710  28.901 -16.272  1.00  0.00    -0.547 OA
ATOM     10  O   UNL     1     -60.093  28.533 -14.484  1.00  0.00    -0.547 OA
ENDBRANCH   3   8
BRANCH   4  11
ATOM     11  O   UNL     1     -57.660  26.471 -17.224  1.00  0.00    -0.387 OA
ATOM     12  H   UNL     1     -56.925  26.369 -17.882  1.00  0.00     0.211 HD
ENDBRANCH   4  11
BRANCH   6  13
ATOM     13  O   UNL     1     -55.069  25.547 -16.469  1.00  0.00    -0.387 OA
ATOM     14  H   UNL     1     -54.620  24.678 -16.293  1.00  0.00     0.211 HD
ENDBRANCH   6  13
BRANCH   7  15
ATOM     15  O   UNL     1     -54.731  26.939 -14.121  1.00  0.00    -0.384 OA
ATOM     16  H   UNL     1     -53.909  26.638 -14.590  1.00  0.00     0.211 HD
ENDBRANCH   7  15
ENDBRANCH   1   2
BRANCH   1  17
ATOM     17  C   UNL     1     -58.535  24.749 -11.961  1.00  0.00     0.172 A 
ATOM     18  C   UNL     1     -58.302  23.650 -11.121  1.00  0.00     0.205 A 
ATOM     19  C   UNL     1     -59.660  25.560 -11.727  1.00  0.00     0.097 A 
ATOM     20  C   UNL     1     -59.217  23.324 -10.112  1.00  0.00     0.188 A 
ATOM     21  C   UNL     1     -60.556  25.283 -10.690  1.00  0.00     0.134 A 
ATOM     22  C   UNL     1     -60.371  24.118  -9.893  1.00  0.00     0.111 A 
ATOM     23  O   UNL     1     -58.980  22.252  -9.362  1.00  0.00    -0.452 OA
ATOM     24  C   UNL     1     -61.282  23.667  -8.907  1.00  0.00     0.197 A 
ATOM     25  C   UNL     1     -59.788  21.839  -8.392  1.00  0.00     0.138 A 
ATOM     26  C   UNL     1     -60.979  22.537  -8.149  1.00  0.00     0.100 A 
ATOM     27  O   UNL     1     -62.388  24.236  -8.712  1.00  0.00    -0.289 OA
BRANCH  18  28
ATOM     28  O   UNL     1     -57.177  22.837 -11.292  1.00  0.00    -0.490 OA
ATOM     29  C   UNL     1     -55.915  23.154 -10.716  1.00  0.00     0.278 C 
ENDBRANCH  18  28
BRANCH  21  30
ATOM     30  O   UNL     1     -61.585  26.207 -10.489  1.00  0.00    -0.507 OA
ATOM     31  H   UNL     1     -61.551  26.970  -9.830  1.00  0.00     0.293 HD
ENDBRANCH  21  30
BRANCH  25  32
ATOM     32  C   UNL     1     -59.411  20.631  -7.613  1.00  0.00     0.017 A 
ATOM     33  C   UNL     1     -58.223  19.919  -7.876  1.00  0.00     0.012 A 
ATOM     34  C   UNL     1     -60.274  20.160  -6.606  1.00  0.00     0.012 A 
ATOM     35  C   UNL     1     -57.901  18.780  -7.132  1.00  0.00     0.001 A 
ATOM     36  C   UNL     1     -59.947  19.021  -5.866  1.00  0.00     0.001 A 
ATOM     37  C   UNL     1     -58.761  18.332  -6.127  1.00  0.00     0.000 A 
ENDBRANCH  25  32
ENDBRANCH   1  17
TORSDOF 9
ENDMDL
MODEL 7
REMARK VINA RESULT:    -5.323      3.407      7.259
REMARK INTER + INTRA:          -8.579
REMARK INTER:                  -7.346
REMARK INTRA:                  -1.233
REMARK UNBOUND:                -1.077
REMARK SMILES COc1c(O[C@@H]2O[C@@H](C(=O)[O-])[C@H](O)[C@@H](O)[C@H]2O)cc(O)c2c(=O)cc(-c3ccccc3)oc12
REMARK SMILES IDX 5 1 6 2 8 3 12 4 7 5 14 6 16 7 9 8 10 9 11 10 13 11 15 13
REMARK SMILES IDX 17 15 4 17 3 18 18 19 33 20 19 21 21 22 32 23 22 24 25 25
REMARK SMILES IDX 24 26 23 27 2 28 1 29 20 30 26 32 27 33 31 34 28 35 30 36
REMARK SMILES IDX 29 37
REMARK H PARENT 13 12 15 14 17 16 20 31
REMARK Flexibility Score: inf
ROOT
ATOM      1  O   UNL     1     -56.928  24.675 -14.759  1.00  0.00    -0.458 OA
ENDROOT
BRANCH   1   2
ATOM      2  C   UNL     1     -56.136  25.646 -15.458  1.00  0.00     0.339 C 
ATOM      3  C   UNL     1     -56.977  27.423 -14.167  1.00  0.00     0.199 C 
ATOM      4  C   UNL     1     -57.741  28.045 -15.357  1.00  0.00     0.180 C 
ATOM      5  O   UNL     1     -55.817  26.735 -14.606  1.00  0.00    -0.328 OA
ATOM      6  C   UNL     1     -58.095  26.952 -16.374  1.00  0.00     0.181 C 
ATOM      7  C   UNL     1     -56.845  26.136 -16.741  1.00  0.00     0.214 C 
BRANCH   3   8
ATOM      8  C   UNL     1     -56.547  28.499 -13.214  1.00  0.00     0.073 C 
ATOM      9  O   UNL     1     -57.387  29.037 -12.443  1.00  0.00    -0.547 OA
ATOM     10  O   UNL     1     -55.228  28.934 -13.200  1.00  0.00    -0.547 OA
ENDBRANCH   3   8
BRANCH   4  11
ATOM     11  O   UNL     1     -58.928  28.650 -14.910  1.00  0.00    -0.387 OA
ATOM     12  H   UNL     1     -58.835  29.626 -15.067  1.00  0.00     0.211 HD
ENDBRANCH   4  11
BRANCH   6  13
ATOM     13  O   UNL     1     -58.646  27.542 -17.522  1.00  0.00    -0.387 OA
ATOM     14  H   UNL     1     -58.384  28.501 -17.507  1.00  0.00     0.211 HD
ENDBRANCH   6  13
BRANCH   7  15
ATOM     15  O   UNL     1     -55.965  26.931 -17.496  1.00  0.00    -0.384 OA
ATOM     16  H   UNL     1     -55.168  27.097 -16.926  1.00  0.00     0.211 HD
ENDBRANCH   7  15
ENDBRANCH   1   2
BRANCH   1  17
ATOM     17  C   UNL     1     -56.444  23.521 -14.114  1.00  0.00     0.172 A 
ATOM     18  C   UNL     1     -57.108  23.064 -12.965  1.00  0.00     0.205 A 
ATOM     19  C   UNL     1     -55.307  22.829 -14.566  1.00  0.00     0.097 A 
ATOM     20  C   UNL     1     -56.601  21.978 -12.241  1.00  0.00     0.188 A 
ATOM     21  C   UNL     1     -54.818  21.708 -13.888  1.00  0.00     0.134 A 
ATOM     22  C   UNL     1     -55.436  21.296 -12.673  1.00  0.00     0.111 A 
ATOM     23  O   UNL     1     -57.237  21.599 -11.136  1.00  0.00    -0.452 OA
ATOM     24  C   UNL     1     -54.948  20.265 -11.835  1.00  0.00     0.197 A 
ATOM     25  C   UNL     1     -56.835  20.598 -10.363  1.00  0.00     0.138 A 
ATOM     26  C   UNL     1     -55.660  19.908 -10.690  1.00  0.00     0.100 A 
ATOM     27  O   UNL     1     -53.862  19.673 -12.069  1.00  0.00    -0.289 OA
BRANCH  18  28
ATOM     28  O   UNL     1     -58.264  23.698 -12.500  1.00  0.00    -0.490 OA
ATOM     29  C   UNL     1     -58.217  24.845 -11.658  1.00  0.00     0.278 C 
ENDBRANCH  18  28
BRANCH  21  30
ATOM     30  O   UNL     1     -53.741  21.041 -14.478  1.00  0.00    -0.507 OA
ATOM     31  H   UNL     1     -53.251  20.263 -14.064  1.00  0.00     0.293 HD
ENDBRANCH  21  30
BRANCH  25  32
ATOM     32  C   UNL     1     -57.636  20.259  -9.158  1.00  0.00     0.017 A 
ATOM     33  C   UNL     1     -58.807  20.968  -8.822  1.00  0.00     0.012 A 
ATOM     34  C   UNL     1     -57.202  19.226  -8.306  1.00  0.00     0.012 A 
ATOM     35  C   UNL     1     -59.534  20.632  -7.675  1.00  0.00     0.001 A 
ATOM     36  C   UNL     1     -57.932  18.895  -7.161  1.00  0.00     0.001 A 
ATOM     37  C   UNL     1     -59.098  19.596  -6.847  1.00  0.00     0.000 A 
ENDBRANCH  25  32
ENDBRANCH   1  17
TORSDOF 9
ENDMDL
MODEL 8
REMARK VINA RESULT:    -5.214      3.932      7.787
REMARK INTER + INTRA:          -8.425
REMARK INTER:                  -7.181
REMARK INTRA:                  -1.244
REMARK UNBOUND:                -1.077
REMARK SMILES COc1c(O[C@@H]2O[C@@H](C(=O)[O-])[C@H](O)[C@@H](O)[C@H]2O)cc(O)c2c(=O)cc(-c3ccccc3)oc12
REMARK SMILES IDX 5 1 6 2 8 3 12 4 7 5 14 6 16 7 9 8 10 9 11 10 13 11 15 13
REMARK SMILES IDX 17 15 4 17 3 18 18 19 33 20 19 21 21 22 32 23 22 24 25 25
REMARK SMILES IDX 24 26 23 27 2 28 1 29 20 30 26 32 27 33 31 34 28 35 30 36
REMARK SMILES IDX 29 37
REMARK H PARENT 13 12 15 14 17 16 20 31
REMARK Flexibility Score: inf
ROOT
ATOM      1  O   UNL     1     -57.012  23.773 -13.792  1.00  0.00    -0.458 OA
ENDROOT
BRANCH   1   2
ATOM      2  C   UNL     1     -56.580  25.133 -13.646  1.00  0.00     0.339 C 
ATOM      3  C   UNL     1     -58.502  25.974 -14.710  1.00  0.00     0.199 C 
ATOM      4  C   UNL     1     -57.713  26.468 -15.944  1.00  0.00     0.180 C 
ATOM      5  O   UNL     1     -57.697  26.002 -13.542  1.00  0.00    -0.328 OA
ATOM      6  C   UNL     1     -56.446  25.621 -16.121  1.00  0.00     0.181 C 
ATOM      7  C   UNL     1     -55.652  25.561 -14.805  1.00  0.00     0.214 C 
BRANCH   3   8
ATOM      8  C   UNL     1     -59.693  26.855 -14.476  1.00  0.00     0.073 C 
ATOM      9  O   UNL     1     -59.779  27.972 -15.054  1.00  0.00    -0.547 OA
ATOM     10  O   UNL     1     -60.692  26.461 -13.595  1.00  0.00    -0.547 OA
ENDBRANCH   3   8
BRANCH   4  11
ATOM     11  O   UNL     1     -58.501  26.354 -17.102  1.00  0.00    -0.387 OA
ATOM     12  H   UNL     1     -57.898  26.070 -17.837  1.00  0.00     0.211 HD
ENDBRANCH   4  11
BRANCH   6  13
ATOM     13  O   UNL     1     -55.655  26.170 -17.142  1.00  0.00    -0.387 OA
ATOM     14  H   UNL     1     -55.622  25.497 -17.873  1.00  0.00     0.211 HD
ENDBRANCH   6  13
BRANCH   7  15
ATOM     15  O   UNL     1     -55.097  26.822 -14.529  1.00  0.00    -0.384 OA
ATOM     16  H   UNL     1     -54.632  27.117 -15.356  1.00  0.00     0.211 HD
ENDBRANCH   7  15
ENDBRANCH   1   2
BRANCH   1  17
ATOM     17  C   UNL     1     -56.610  22.686 -12.994  1.00  0.00     0.172 A 
ATOM     18  C   UNL     1     -57.397  22.339 -11.885  1.00  0.00     0.205 A 
ATOM     19  C   UNL     1     -55.437  21.956 -13.254  1.00  0.00     0.097 A 
ATOM     20  C   UNL     1     -56.979  21.326 -11.011  1.00  0.00     0.188 A 
ATOM     21  C   UNL     1     -55.033  20.906 -12.425  1.00  0.00     0.134 A 
ATOM     22  C   UNL     1     -55.781  20.609 -11.250  1.00  0.00     0.111 A 
ATOM     23  O   UNL     1     -57.734  21.053  -9.950  1.00  0.00    -0.452 OA
ATOM     24  C   UNL     1     -55.394  19.662 -10.271  1.00  0.00     0.197 A 
ATOM     25  C   UNL     1     -57.425  20.129  -9.047  1.00  0.00     0.138 A 
ATOM     26  C   UNL     1     -56.228  19.414  -9.180  1.00  0.00     0.100 A 
ATOM     27  O   UNL     1     -54.295  19.052 -10.330  1.00  0.00    -0.289 OA
BRANCH  18  28
ATOM     28  O   UNL     1     -58.591  23.012 -11.607  1.00  0.00    -0.490 OA
ATOM     29  C   UNL     1     -58.651  24.116 -10.711  1.00  0.00     0.278 C 
ENDBRANCH  18  28
BRANCH  21  30
ATOM     30  O   UNL     1     -53.905  20.187 -12.830  1.00  0.00    -0.507 OA
ATOM     31  H   UNL     1     -52.973  20.567 -12.889  1.00  0.00     0.293 HD
ENDBRANCH  21  30
BRANCH  25  32
ATOM     32  C   UNL     1     -58.353  19.905  -7.909  1.00  0.00     0.017 A 
ATOM     33  C   UNL     1     -58.127  18.891  -6.956  1.00  0.00     0.012 A 
ATOM     34  C   UNL     1     -59.508  20.700  -7.791  1.00  0.00     0.012 A 
ATOM     35  C   UNL     1     -59.024  18.698  -5.901  1.00  0.00     0.001 A 
ATOM     36  C   UNL     1     -60.402  20.502  -6.734  1.00  0.00     0.001 A 
ATOM     37  C   UNL     1     -60.160  19.504  -5.789  1.00  0.00     0.000 A 
ENDBRANCH  25  32
ENDBRANCH   1  17
TORSDOF 9
ENDMDL
MODEL 9
REMARK VINA RESULT:    -5.163      4.251      7.019
REMARK INTER + INTRA:          -8.353
REMARK INTER:                  -7.126
REMARK INTRA:                  -1.227
REMARK UNBOUND:                -1.077
REMARK SMILES COc1c(O[C@@H]2O[C@@H](C(=O)[O-])[C@H](O)[C@@H](O)[C@H]2O)cc(O)c2c(=O)cc(-c3ccccc3)oc12
REMARK SMILES IDX 5 1 6 2 8 3 12 4 7 5 14 6 16 7 9 8 10 9 11 10 13 11 15 13
REMARK SMILES IDX 17 15 4 17 3 18 18 19 33 20 19 21 21 22 32 23 22 24 25 25
REMARK SMILES IDX 24 26 23 27 2 28 1 29 20 30 26 32 27 33 31 34 28 35 30 36
REMARK SMILES IDX 29 37
REMARK H PARENT 13 12 15 14 17 16 20 31
REMARK Flexibility Score: inf
ROOT
ATOM      1  O   UNL     1     -55.266  19.623 -11.825  1.00  0.00    -0.458 OA
ENDROOT
BRANCH   1   2
ATOM      2  C   UNL     1     -54.698  19.047 -10.640  1.00  0.00     0.339 C 
ATOM      3  C   UNL     1     -55.664  16.946 -11.066  1.00  0.00     0.199 C 
ATOM      4  C   UNL     1     -56.623  17.041  -9.857  1.00  0.00     0.180 C 
ATOM      5  O   UNL     1     -54.462  17.659 -10.825  1.00  0.00    -0.328 OA
ATOM      6  C   UNL     1     -56.907  18.514  -9.537  1.00  0.00     0.181 C 
ATOM      7  C   UNL     1     -55.591  19.297  -9.404  1.00  0.00     0.214 C 
BRANCH   3   8
ATOM      8  C   UNL     1     -55.309  15.511 -11.327  1.00  0.00     0.073 C 
ATOM      9  O   UNL     1     -54.936  15.147 -12.474  1.00  0.00    -0.547 OA
ATOM     10  O   UNL     1     -55.422  14.568 -10.313  1.00  0.00    -0.547 OA
ENDBRANCH   3   8
BRANCH   4  11
ATOM     11  O   UNL     1     -57.838  16.397 -10.149  1.00  0.00    -0.387 OA
ATOM     12  H   UNL     1     -58.271  16.187  -9.281  1.00  0.00     0.211 HD
ENDBRANCH   4  11
BRANCH   6  13
ATOM     13  O   UNL     1     -57.647  18.600  -8.347  1.00  0.00    -0.387 OA
ATOM     14  H   UNL     1     -57.004  18.822  -7.623  1.00  0.00     0.211 HD
ENDBRANCH   6  13
BRANCH   7  15
ATOM     15  O   UNL     1     -54.915  18.894  -8.240  1.00  0.00    -0.384 OA
ATOM     16  H   UNL     1     -55.611  18.676  -7.565  1.00  0.00     0.211 HD
ENDBRANCH   7  15
ENDBRANCH   1   2
BRANCH   1  17
ATOM     17  C   UNL     1     -54.824  20.792 -12.471  1.00  0.00     0.172 A 
ATOM     18  C   UNL     1     -55.778  21.731 -12.891  1.00  0.00     0.205 A 
ATOM     19  C   UNL     1     -53.464  21.037 -12.734  1.00  0.00     0.097 A 
ATOM     20  C   UNL     1     -55.387  22.859 -13.623  1.00  0.00     0.188 A 
ATOM     21  C   UNL     1     -53.049  22.186 -13.415  1.00  0.00     0.134 A 
ATOM     22  C   UNL     1     -54.021  23.095 -13.919  1.00  0.00     0.111 A 
ATOM     23  O   UNL     1     -56.326  23.706 -14.035  1.00  0.00    -0.452 OA
ATOM     24  C   UNL     1     -53.726  24.214 -14.734  1.00  0.00     0.197 A 
ATOM     25  C   UNL     1     -56.071  24.795 -14.751  1.00  0.00     0.138 A 
ATOM     26  C   UNL     1     -54.752  25.070 -15.134  1.00  0.00     0.100 A 
ATOM     27  O   UNL     1     -52.560  24.449 -15.147  1.00  0.00    -0.289 OA
BRANCH  18  28
ATOM     28  O   UNL     1     -57.138  21.548 -12.620  1.00  0.00    -0.490 OA
ATOM     29  C   UNL     1     -57.726  21.931 -11.382  1.00  0.00     0.278 C 
ENDBRANCH  18  28
BRANCH  21  30
ATOM     30  O   UNL     1     -51.669  22.375 -13.537  1.00  0.00    -0.507 OA
ATOM     31  H   UNL     1     -50.969  21.810 -13.081  1.00  0.00     0.293 HD
ENDBRANCH  21  30
BRANCH  25  32
ATOM     32  C   UNL     1     -57.204  25.672 -15.144  1.00  0.00     0.017 A 
ATOM     33  C   UNL     1     -58.271  25.946 -14.265  1.00  0.00     0.012 A 
ATOM     34  C   UNL     1     -57.236  26.222 -16.439  1.00  0.00     0.012 A 
ATOM     35  C   UNL     1     -59.328  26.768 -14.667  1.00  0.00     0.001 A 
ATOM     36  C   UNL     1     -58.295  27.043 -16.837  1.00  0.00     0.001 A 
ATOM     37  C   UNL     1     -59.339  27.318 -15.952  1.00  0.00     0.000 A 
ENDBRANCH  25  32
ENDBRANCH   1  17
TORSDOF 9
ENDMDL
