MODEL 1
REMARK VINA RESULT:    -4.548      0.000      0.000
REMARK INTER + INTRA:          -9.425
REMARK INTER:                  -8.270
REMARK INTRA:                  -1.155
REMARK UNBOUND:                -1.155
REMARK SMILES CCCCCCCCCCCCCC[C@H](C)C(=O)[O-]
REMARK SMILES IDX 9 1 10 2 11 3 12 4 13 5 14 6 15 7 16 8 17 9 18 10 19 11 8 12
REMARK SMILES IDX 7 13 6 14 5 15 4 16 3 17 2 18 1 19
REMARK H PARENT
REMARK Flexibility Score: inf
ROOT
ATOM      1  C   UNL     1      15.515  11.926  16.588  1.00  0.00     0.000 C 
ENDROOT
BRANCH   1   2
ATOM      2  C   UNL     1      14.173  11.828  15.853  1.00  0.00     0.000 C 
BRANCH   2   3
ATOM      3  C   UNL     1      14.382  11.553  14.356  1.00  0.00     0.000 C 
BRANCH   3   4
ATOM      4  C   UNL     1      13.057  11.235  13.631  1.00  0.00     0.000 C 
BRANCH   4   5
ATOM      5  C   UNL     1      12.757  12.178  12.453  1.00  0.00     0.001 C 
BRANCH   5   6
ATOM      6  C   UNL     1      11.300  12.681  12.448  1.00  0.00     0.009 C 
BRANCH   6   7
ATOM      7  C   UNL     1      11.125  14.122  11.922  1.00  0.00     0.032 C 
ATOM      8  C   UNL     1       9.750  14.717  12.260  1.00  0.00     0.014 C 
BRANCH   7   9
ATOM      9  C   UNL     1      11.433  14.220  10.451  1.00  0.00     0.044 C 
ATOM     10  O   UNL     1      10.894  13.439   9.623  1.00  0.00    -0.550 OA
ATOM     11  O   UNL     1      12.364  15.151  10.004  1.00  0.00    -0.550 OA
ENDBRANCH   7   9
ENDBRANCH   6   7
ENDBRANCH   5   6
ENDBRANCH   4   5
ENDBRANCH   3   4
ENDBRANCH   2   3
ENDBRANCH   1   2
BRANCH   1  12
ATOM     12  C   UNL     1      15.302  12.178  18.089  1.00  0.00     0.000 C 
BRANCH  12  13
ATOM     13  C   UNL     1      16.561  11.886  18.922  1.00  0.00    -0.000 C 
BRANCH  13  14
ATOM     14  C   UNL     1      17.814  12.580  18.366  1.00  0.00    -0.000 C 
BRANCH  14  15
ATOM     15  C   UNL     1      18.923  11.560  18.078  1.00  0.00    -0.000 C 
BRANCH  15  16
ATOM     16  C   UNL     1      19.815  12.029  16.922  1.00  0.00    -0.000 C 
BRANCH  16  17
ATOM     17  C   UNL     1      18.995  12.768  15.858  1.00  0.00    -0.000 C 
BRANCH  17  18
ATOM     18  C   UNL     1      18.658  11.843  14.683  1.00  0.00    -0.003 C 
ATOM     19  C   UNL     1      18.129  12.636  13.492  1.00  0.00     0.004 C 
ENDBRANCH  17  18
ENDBRANCH  16  17
ENDBRANCH  15  16
ENDBRANCH  14  15
ENDBRANCH  13  14
ENDBRANCH  12  13
ENDBRANCH   1  12
TORSDOF 14
ENDMDL
MODEL 2
REMARK VINA RESULT:    -4.542      1.721      2.071
REMARK INTER + INTRA:          -9.414
REMARK INTER:                  -8.108
REMARK INTRA:                  -1.306
REMARK UNBOUND:                -1.155
REMARK SMILES CCCCCCCCCCCCCC[C@H](C)C(=O)[O-]
REMARK SMILES IDX 9 1 10 2 11 3 12 4 13 5 14 6 15 7 16 8 17 9 18 10 19 11 8 12
REMARK SMILES IDX 7 13 6 14 5 15 4 16 3 17 2 18 1 19
REMARK H PARENT
REMARK Flexibility Score: inf
ROOT
ATOM      1  C   UNL     1      15.776  12.173  16.950  1.00  0.00     0.000 C 
ENDROOT
BRANCH   1   2
ATOM      2  C   UNL     1      14.442  11.870  16.258  1.00  0.00     0.000 C 
BRANCH   2   3
ATOM      3  C   UNL     1      14.661  11.462  14.793  1.00  0.00     0.000 C 
BRANCH   3   4
ATOM      4  C   UNL     1      13.364  11.560  13.960  1.00  0.00     0.000 C 
BRANCH   4   5
ATOM      5  C   UNL     1      13.470  12.524  12.766  1.00  0.00     0.001 C 
BRANCH   5   6
ATOM      6  C   UNL     1      12.612  12.082  11.565  1.00  0.00     0.009 C 
BRANCH   6   7
ATOM      7  C   UNL     1      11.470  11.106  11.922  1.00  0.00     0.032 C 
ATOM      8  C   UNL     1      11.434   9.869  11.013  1.00  0.00     0.014 C 
BRANCH   7   9
ATOM      9  C   UNL     1      10.136  11.804  11.974  1.00  0.00     0.044 C 
ATOM     10  O   UNL     1       9.248  11.567  11.113  1.00  0.00    -0.550 OA
ATOM     11  O   UNL     1       9.897  12.761  12.954  1.00  0.00    -0.550 OA
ENDBRANCH   7   9
ENDBRANCH   6   7
ENDBRANCH   5   6
ENDBRANCH   4   5
ENDBRANCH   3   4
ENDBRANCH   2   3
ENDBRANCH   1   2
BRANCH   1  12
ATOM     12  C   UNL     1      15.624  12.128  18.479  1.00  0.00     0.000 C 
BRANCH  12  13
ATOM     13  C   UNL     1      16.954  11.850  19.197  1.00  0.00    -0.000 C 
BRANCH  13  14
ATOM     14  C   UNL     1      18.147  12.549  18.529  1.00  0.00    -0.000 C 
BRANCH  14  15
ATOM     15  C   UNL     1      19.174  11.526  18.030  1.00  0.00    -0.000 C 
BRANCH  15  16
ATOM     16  C   UNL     1      20.082  12.135  16.955  1.00  0.00    -0.000 C 
BRANCH  16  17
ATOM     17  C   UNL     1      19.257  12.854  15.881  1.00  0.00    -0.000 C 
BRANCH  17  18
ATOM     18  C   UNL     1      18.722  11.860  14.843  1.00  0.00    -0.003 C 
ATOM     19  C   UNL     1      18.169  12.586  13.620  1.00  0.00     0.004 C 
ENDBRANCH  17  18
ENDBRANCH  16  17
ENDBRANCH  15  16
ENDBRANCH  14  15
ENDBRANCH  13  14
ENDBRANCH  12  13
ENDBRANCH   1  12
TORSDOF 14
ENDMDL
MODEL 3
REMARK VINA RESULT:    -4.494      1.307      2.965
REMARK INTER + INTRA:          -9.327
REMARK INTER:                  -8.323
REMARK INTRA:                  -1.004
REMARK UNBOUND:                -1.155
REMARK SMILES CCCCCCCCCCCCCC[C@H](C)C(=O)[O-]
REMARK SMILES IDX 9 1 10 2 11 3 12 4 13 5 14 6 15 7 16 8 17 9 18 10 19 11 8 12
REMARK SMILES IDX 7 13 6 14 5 15 4 16 3 17 2 18 1 19
REMARK H PARENT
REMARK Flexibility Score: inf
ROOT
ATOM      1  C   UNL     1      14.961  11.028  14.724  1.00  0.00     0.000 C 
ENDROOT
BRANCH   1   2
ATOM      2  C   UNL     1      13.635  11.785  14.584  1.00  0.00     0.000 C 
BRANCH   2   3
ATOM      3  C   UNL     1      13.087  11.679  13.153  1.00  0.00     0.000 C 
BRANCH   3   4
ATOM      4  C   UNL     1      13.479  12.894  12.286  1.00  0.00     0.000 C 
BRANCH   4   5
ATOM      5  C   UNL     1      12.682  12.999  10.973  1.00  0.00     0.001 C 
BRANCH   5   6
ATOM      6  C   UNL     1      12.650  14.432  10.408  1.00  0.00     0.009 C 
BRANCH   6   7
ATOM      7  C   UNL     1      11.274  15.126  10.507  1.00  0.00     0.032 C 
ATOM      8  C   UNL     1      10.682  15.078  11.923  1.00  0.00     0.014 C 
BRANCH   7   9
ATOM      9  C   UNL     1      10.309  14.601   9.477  1.00  0.00     0.044 C 
ATOM     10  O   UNL     1      10.301  15.060   8.304  1.00  0.00    -0.550 OA
ATOM     11  O   UNL     1       9.378  13.633   9.836  1.00  0.00    -0.550 OA
ENDBRANCH   7   9
ENDBRANCH   6   7
ENDBRANCH   5   6
ENDBRANCH   4   5
ENDBRANCH   3   4
ENDBRANCH   2   3
ENDBRANCH   1   2
BRANCH   1  12
ATOM     12  C   UNL     1      16.107  11.987  15.080  1.00  0.00     0.000 C 
BRANCH  12  13
ATOM     13  C   UNL     1      17.256  11.941  14.060  1.00  0.00    -0.000 C 
BRANCH  13  14
ATOM     14  C   UNL     1      18.635  11.821  14.726  1.00  0.00    -0.000 C 
BRANCH  14  15
ATOM     15  C   UNL     1      18.734  12.738  15.951  1.00  0.00    -0.000 C 
BRANCH  15  16
ATOM     16  C   UNL     1      19.764  12.205  16.956  1.00  0.00    -0.000 C 
BRANCH  16  17
ATOM     17  C   UNL     1      19.072  11.580  18.173  1.00  0.00    -0.000 C 
BRANCH  17  18
ATOM     18  C   UNL     1      17.742  12.283  18.470  1.00  0.00    -0.003 C 
ATOM     19  C   UNL     1      17.208  11.893  19.845  1.00  0.00     0.004 C 
ENDBRANCH  17  18
ENDBRANCH  16  17
ENDBRANCH  15  16
ENDBRANCH  14  15
ENDBRANCH  13  14
ENDBRANCH  12  13
ENDBRANCH   1  12
TORSDOF 14
ENDMDL
MODEL 4
REMARK VINA RESULT:    -4.333      1.509      3.040
REMARK INTER + INTRA:          -9.035
REMARK INTER:                  -7.861
REMARK INTRA:                  -1.174
REMARK UNBOUND:                -1.155
REMARK SMILES CCCCCCCCCCCCCC[C@H](C)C(=O)[O-]
REMARK SMILES IDX 9 1 10 2 11 3 12 4 13 5 14 6 15 7 16 8 17 9 18 10 19 11 8 12
REMARK SMILES IDX 7 13 6 14 5 15 4 16 3 17 2 18 1 19
REMARK H PARENT
REMARK Flexibility Score: inf
ROOT
ATOM      1  C   UNL     1      14.437  11.253  15.133  1.00  0.00     0.000 C 
ENDROOT
BRANCH   1   2
ATOM      2  C   UNL     1      13.750  11.893  13.922  1.00  0.00     0.000 C 
BRANCH   2   3
ATOM      3  C   UNL     1      12.772  10.912  13.259  1.00  0.00     0.000 C 
BRANCH   3   4
ATOM      4  C   UNL     1      11.405  11.563  12.959  1.00  0.00     0.000 C 
BRANCH   4   5
ATOM      5  C   UNL     1      11.073  11.637  11.458  1.00  0.00     0.001 C 
BRANCH   5   6
ATOM      6  C   UNL     1      12.328  11.576  10.567  1.00  0.00     0.009 C 
BRANCH   6   7
ATOM      7  C   UNL     1      12.663  12.900   9.847  1.00  0.00     0.032 C 
ATOM      8  C   UNL     1      13.206  13.976  10.800  1.00  0.00     0.014 C 
BRANCH   7   9
ATOM      9  C   UNL     1      11.500  13.404   9.034  1.00  0.00     0.044 C 
ATOM     10  O   UNL     1      11.182  12.852   7.948  1.00  0.00    -0.550 OA
ATOM     11  O   UNL     1      10.798  14.526   9.460  1.00  0.00    -0.550 OA
ENDBRANCH   7   9
ENDBRANCH   6   7
ENDBRANCH   5   6
ENDBRANCH   4   5
ENDBRANCH   3   4
ENDBRANCH   2   3
ENDBRANCH   1   2
BRANCH   1  12
ATOM     12  C   UNL     1      15.738  11.992  15.481  1.00  0.00     0.000 C 
BRANCH  12  13
ATOM     13  C   UNL     1      16.868  11.708  14.479  1.00  0.00    -0.000 C 
BRANCH  13  14
ATOM     14  C   UNL     1      18.093  12.609  14.693  1.00  0.00    -0.000 C 
BRANCH  14  15
ATOM     15  C   UNL     1      19.048  11.999  15.727  1.00  0.00    -0.000 C 
BRANCH  15  16
ATOM     16  C   UNL     1      19.022  12.795  17.038  1.00  0.00    -0.000 C 
BRANCH  16  17
ATOM     17  C   UNL     1      18.586  11.909  18.211  1.00  0.00    -0.000 C 
BRANCH  17  18
ATOM     18  C   UNL     1      17.461  12.574  19.013  1.00  0.00    -0.003 C 
ATOM     19  C   UNL     1      16.741  11.560  19.896  1.00  0.00     0.004 C 
ENDBRANCH  17  18
ENDBRANCH  16  17
ENDBRANCH  15  16
ENDBRANCH  14  15
ENDBRANCH  13  14
ENDBRANCH  12  13
ENDBRANCH   1  12
TORSDOF 14
ENDMDL
MODEL 5
REMARK VINA RESULT:    -4.284      4.783      6.003
REMARK INTER + INTRA:          -8.945
REMARK INTER:                  -7.755
REMARK INTRA:                  -1.190
REMARK UNBOUND:                -1.155
REMARK SMILES CCCCCCCCCCCCCC[C@H](C)C(=O)[O-]
REMARK SMILES IDX 9 1 10 2 11 3 12 4 13 5 14 6 15 7 16 8 17 9 18 10 19 11 8 12
REMARK SMILES IDX 7 13 6 14 5 15 4 16 3 17 2 18 1 19
REMARK H PARENT
REMARK Flexibility Score: inf
ROOT
ATOM      1  C   UNL     1      15.508  11.999  17.688  1.00  0.00     0.000 C 
ENDROOT
BRANCH   1   2
ATOM      2  C   UNL     1      14.116  12.605  17.476  1.00  0.00     0.000 C 
BRANCH   2   3
ATOM      3  C   UNL     1      13.046  11.809  18.239  1.00  0.00     0.000 C 
BRANCH   3   4
ATOM      4  C   UNL     1      11.627  12.374  18.014  1.00  0.00     0.000 C 
BRANCH   4   5
ATOM      5  C   UNL     1      10.888  12.725  19.318  1.00  0.00     0.001 C 
BRANCH   5   6
ATOM      6  C   UNL     1       9.605  11.896  19.516  1.00  0.00     0.009 C 
BRANCH   6   7
ATOM      7  C   UNL     1       9.811  10.579  20.297  1.00  0.00     0.032 C 
ATOM      8  C   UNL     1      11.081  10.589  21.159  1.00  0.00     0.014 C 
BRANCH   7   9
ATOM      9  C   UNL     1       9.757   9.378  19.389  1.00  0.00     0.044 C 
ATOM     10  O   UNL     1      10.212   8.264  19.762  1.00  0.00    -0.550 OA
ATOM     11  O   UNL     1       9.245   9.510  18.104  1.00  0.00    -0.550 OA
ENDBRANCH   7   9
ENDBRANCH   6   7
ENDBRANCH   5   6
ENDBRANCH   4   5
ENDBRANCH   3   4
ENDBRANCH   2   3
ENDBRANCH   1   2
BRANCH   1  12
ATOM     12  C   UNL     1      15.971  12.179  19.142  1.00  0.00     0.000 C 
BRANCH  12  13
ATOM     13  C   UNL     1      17.469  12.502  19.251  1.00  0.00    -0.000 C 
BRANCH  13  14
ATOM     14  C   UNL     1      18.275  11.997  18.044  1.00  0.00    -0.000 C 
BRANCH  14  15
ATOM     15  C   UNL     1      19.099  13.130  17.421  1.00  0.00    -0.000 C 
BRANCH  15  16
ATOM     16  C   UNL     1      19.579  12.752  16.014  1.00  0.00    -0.000 C 
BRANCH  16  17
ATOM     17  C   UNL     1      18.725  11.622  15.426  1.00  0.00    -0.000 C 
BRANCH  17  18
ATOM     18  C   UNL     1      17.720  12.167  14.405  1.00  0.00    -0.003 C 
ATOM     19  C   UNL     1      18.432  12.808  13.218  1.00  0.00     0.004 C 
ENDBRANCH  17  18
ENDBRANCH  16  17
ENDBRANCH  15  16
ENDBRANCH  14  15
ENDBRANCH  13  14
ENDBRANCH  12  13
ENDBRANCH   1  12
TORSDOF 14
ENDMDL
MODEL 6
REMARK VINA RESULT:    -4.279      3.745      7.958
REMARK INTER + INTRA:          -8.936
REMARK INTER:                  -7.415
REMARK INTRA:                  -1.521
REMARK UNBOUND:                -1.155
REMARK SMILES CCCCCCCCCCCCCC[C@H](C)C(=O)[O-]
REMARK SMILES IDX 9 1 10 2 11 3 12 4 13 5 14 6 15 7 16 8 17 9 18 10 19 11 8 12
REMARK SMILES IDX 7 13 6 14 5 15 4 16 3 17 2 18 1 19
REMARK H PARENT
REMARK Flexibility Score: inf
ROOT
ATOM      1  C   UNL     1      11.117  10.901  12.763  1.00  0.00     0.000 C 
ENDROOT
BRANCH   1   2
ATOM      2  C   UNL     1      12.601  10.548  12.917  1.00  0.00     0.000 C 
BRANCH   2   3
ATOM      3  C   UNL     1      13.347  11.632  13.709  1.00  0.00     0.000 C 
BRANCH   3   4
ATOM      4  C   UNL     1      14.332  11.032  14.734  1.00  0.00     0.000 C 
BRANCH   4   5
ATOM      5  C   UNL     1      15.453  12.001  15.154  1.00  0.00     0.001 C 
BRANCH   5   6
ATOM      6  C   UNL     1      16.843  11.552  14.664  1.00  0.00     0.009 C 
BRANCH   6   7
ATOM      7  C   UNL     1      17.943  12.628  14.795  1.00  0.00     0.032 C 
ATOM      8  C   UNL     1      18.728  12.840  13.492  1.00  0.00     0.014 C 
BRANCH   7   9
ATOM      9  C   UNL     1      18.855  12.354  15.962  1.00  0.00     0.044 C 
ATOM     10  O   UNL     1      19.442  11.246  16.079  1.00  0.00    -0.550 OA
ATOM     11  O   UNL     1      19.013  13.316  16.953  1.00  0.00    -0.550 OA
ENDBRANCH   7   9
ENDBRANCH   6   7
ENDBRANCH   5   6
ENDBRANCH   4   5
ENDBRANCH   3   4
ENDBRANCH   2   3
ENDBRANCH   1   2
BRANCH   1  12
ATOM     12  C   UNL     1      10.638  11.782  13.927  1.00  0.00     0.000 C 
BRANCH  12  13
ATOM     13  C   UNL     1       9.496  12.728  13.523  1.00  0.00    -0.000 C 
BRANCH  13  14
ATOM     14  C   UNL     1       9.686  13.321  12.118  1.00  0.00    -0.000 C 
BRANCH  14  15
ATOM     15  C   UNL     1      10.208  14.760  12.197  1.00  0.00    -0.000 C 
BRANCH  15  16
ATOM     16  C   UNL     1      11.086  15.094  10.984  1.00  0.00    -0.000 C 
BRANCH  16  17
ATOM     17  C   UNL     1      12.244  14.098  10.850  1.00  0.00    -0.000 C 
BRANCH  17  18
ATOM     18  C   UNL     1      12.210  13.395   9.488  1.00  0.00    -0.003 C 
ATOM     19  C   UNL     1      12.936  12.054   9.542  1.00  0.00     0.004 C 
ENDBRANCH  17  18
ENDBRANCH  16  17
ENDBRANCH  15  16
ENDBRANCH  14  15
ENDBRANCH  13  14
ENDBRANCH  12  13
ENDBRANCH   1  12
TORSDOF 14
ENDMDL
MODEL 7
REMARK VINA RESULT:    -4.262      3.741      8.480
REMARK INTER + INTRA:          -8.906
REMARK INTER:                  -7.360
REMARK INTRA:                  -1.546
REMARK UNBOUND:                -1.155
REMARK SMILES CCCCCCCCCCCCCC[C@H](C)C(=O)[O-]
REMARK SMILES IDX 9 1 10 2 11 3 12 4 13 5 14 6 15 7 16 8 17 9 18 10 19 11 8 12
REMARK SMILES IDX 7 13 6 14 5 15 4 16 3 17 2 18 1 19
REMARK H PARENT
REMARK Flexibility Score: inf
ROOT
ATOM      1  C   UNL     1      11.320  10.768  12.272  1.00  0.00     0.000 C 
ENDROOT
BRANCH   1   2
ATOM      2  C   UNL     1      12.275  11.659  13.075  1.00  0.00     0.000 C 
BRANCH   2   3
ATOM      3  C   UNL     1      13.372  10.824  13.751  1.00  0.00     0.000 C 
BRANCH   3   4
ATOM      4  C   UNL     1      14.226  11.663  14.726  1.00  0.00     0.000 C 
BRANCH   4   5
ATOM      5  C   UNL     1      15.716  11.276  14.730  1.00  0.00     0.001 C 
BRANCH   5   6
ATOM      6  C   UNL     1      16.526  12.037  15.798  1.00  0.00     0.009 C 
BRANCH   6   7
ATOM      7  C   UNL     1      17.930  12.484  15.334  1.00  0.00     0.032 C 
ATOM      8  C   UNL     1      18.398  11.758  14.064  1.00  0.00     0.014 C 
BRANCH   7   9
ATOM      9  C   UNL     1      18.942  12.385  16.444  1.00  0.00     0.044 C 
ATOM     10  O   UNL     1      19.496  11.288  16.720  1.00  0.00    -0.550 OA
ATOM     11  O   UNL     1      19.235  13.507  17.211  1.00  0.00    -0.550 OA
ENDBRANCH   7   9
ENDBRANCH   6   7
ENDBRANCH   5   6
ENDBRANCH   4   5
ENDBRANCH   3   4
ENDBRANCH   2   3
ENDBRANCH   1   2
BRANCH   1  12
ATOM     12  C   UNL     1      11.766  10.664  10.806  1.00  0.00     0.000 C 
BRANCH  12  13
ATOM     13  C   UNL     1      12.627  11.858  10.363  1.00  0.00    -0.000 C 
BRANCH  13  14
ATOM     14  C   UNL     1      12.083  12.547   9.103  1.00  0.00    -0.000 C 
BRANCH  14  15
ATOM     15  C   UNL     1      11.272  13.796   9.467  1.00  0.00    -0.000 C 
BRANCH  15  16
ATOM     16  C   UNL     1      12.022  14.661  10.488  1.00  0.00    -0.000 C 
BRANCH  16  17
ATOM     17  C   UNL     1      11.116  15.028  11.669  1.00  0.00    -0.000 C 
BRANCH  17  18
ATOM     18  C   UNL     1       9.718  14.422  11.499  1.00  0.00    -0.003 C 
ATOM     19  C   UNL     1       9.198  13.859  12.819  1.00  0.00     0.004 C 
ENDBRANCH  17  18
ENDBRANCH  16  17
ENDBRANCH  15  16
ENDBRANCH  14  15
ENDBRANCH  13  14
ENDBRANCH  12  13
ENDBRANCH   1  12
TORSDOF 14
ENDMDL
MODEL 8
REMARK VINA RESULT:    -4.163      5.960      8.510
REMARK INTER + INTRA:          -8.726
REMARK INTER:                  -7.402
REMARK INTRA:                  -1.324
REMARK UNBOUND:                -1.155
REMARK SMILES CCCCCCCCCCCCCC[C@H](C)C(=O)[O-]
REMARK SMILES IDX 9 1 10 2 11 3 12 4 13 5 14 6 15 7 16 8 17 9 18 10 19 11 8 12
REMARK SMILES IDX 7 13 6 14 5 15 4 16 3 17 2 18 1 19
REMARK H PARENT
REMARK Flexibility Score: inf
ROOT
ATOM      1  C   UNL     1       9.522  13.234  12.619  1.00  0.00     0.000 C 
ENDROOT
BRANCH   1   2
ATOM      2  C   UNL     1       8.919  12.848  13.975  1.00  0.00     0.000 C 
BRANCH   2   3
ATOM      3  C   UNL     1       9.731  11.727  14.640  1.00  0.00     0.000 C 
BRANCH   3   4
ATOM      4  C   UNL     1       8.973  11.079  15.820  1.00  0.00     0.000 C 
BRANCH   4   5
ATOM      5  C   UNL     1       9.608  11.366  17.192  1.00  0.00     0.001 C 
BRANCH   5   6
ATOM      6  C   UNL     1       9.051  10.459  18.307  1.00  0.00     0.009 C 
BRANCH   6   7
ATOM      7  C   UNL     1       9.915  10.418  19.586  1.00  0.00     0.032 C 
ATOM      8  C   UNL     1      11.180  11.283  19.480  1.00  0.00     0.014 C 
BRANCH   7   9
ATOM      9  C   UNL     1      10.233   9.006  20.000  1.00  0.00     0.044 C 
ATOM     10  O   UNL     1       9.957   8.033  19.248  1.00  0.00    -0.550 OA
ATOM     11  O   UNL     1      10.792   8.763  21.249  1.00  0.00    -0.550 OA
ENDBRANCH   7   9
ENDBRANCH   6   7
ENDBRANCH   5   6
ENDBRANCH   4   5
ENDBRANCH   3   4
ENDBRANCH   2   3
ENDBRANCH   1   2
BRANCH   1  12
ATOM     12  C   UNL     1       9.642  14.760  12.486  1.00  0.00     0.000 C 
BRANCH  12  13
ATOM     13  C   UNL     1      10.811  15.186  11.583  1.00  0.00    -0.000 C 
BRANCH  13  14
ATOM     14  C   UNL     1      11.191  14.108  10.556  1.00  0.00    -0.000 C 
BRANCH  14  15
ATOM     15  C   UNL     1      12.701  13.847  10.567  1.00  0.00    -0.000 C 
BRANCH  15  16
ATOM     16  C   UNL     1      13.000  12.351  10.731  1.00  0.00    -0.000 C 
BRANCH  16  17
ATOM     17  C   UNL     1      12.802  11.906  12.185  1.00  0.00    -0.000 C 
BRANCH  17  18
ATOM     18  C   UNL     1      12.165  10.513  12.251  1.00  0.00    -0.003 C 
ATOM     19  C   UNL     1      11.716  10.046  10.870  1.00  0.00     0.004 C 
ENDBRANCH  17  18
ENDBRANCH  16  17
ENDBRANCH  15  16
ENDBRANCH  14  15
ENDBRANCH  13  14
ENDBRANCH  12  13
ENDBRANCH   1  12
TORSDOF 14
ENDMDL
MODEL 9
REMARK VINA RESULT:    -4.074      5.746      8.418
REMARK INTER + INTRA:          -8.564
REMARK INTER:                  -6.794
REMARK INTRA:                  -1.769
REMARK UNBOUND:                -1.155
REMARK SMILES CCCCCCCCCCCCCC[C@H](C)C(=O)[O-]
REMARK SMILES IDX 9 1 10 2 11 3 12 4 13 5 14 6 15 7 16 8 17 9 18 10 19 11 8 12
REMARK SMILES IDX 7 13 6 14 5 15 4 16 3 17 2 18 1 19
REMARK H PARENT
REMARK Flexibility Score: inf
ROOT
ATOM      1  C   UNL     1      11.649  11.539  13.641  1.00  0.00     0.000 C 
ENDROOT
BRANCH   1   2
ATOM      2  C   UNL     1      10.185  11.291  13.256  1.00  0.00     0.000 C 
BRANCH   2   3
ATOM      3  C   UNL     1       9.231  11.987  14.237  1.00  0.00     0.000 C 
BRANCH   3   4
ATOM      4  C   UNL     1       9.010  11.160  15.523  1.00  0.00     0.000 C 
BRANCH   4   5
ATOM      5  C   UNL     1       9.337  11.931  16.814  1.00  0.00     0.001 C 
BRANCH   5   6
ATOM      6  C   UNL     1       9.518  11.003  18.031  1.00  0.00     0.009 C 
BRANCH   6   7
ATOM      7  C   UNL     1      10.545  11.506  19.070  1.00  0.00     0.032 C 
ATOM      8  C   UNL     1      11.513  12.550  18.493  1.00  0.00     0.014 C 
BRANCH   7   9
ATOM      9  C   UNL     1      11.274  10.367  19.730  1.00  0.00     0.044 C 
ATOM     10  O   UNL     1      10.667   9.313  20.060  1.00  0.00    -0.550 OA
ATOM     11  O   UNL     1      12.626  10.495  20.029  1.00  0.00    -0.550 OA
ENDBRANCH   7   9
ENDBRANCH   6   7
ENDBRANCH   5   6
ENDBRANCH   4   5
ENDBRANCH   3   4
ENDBRANCH   2   3
ENDBRANCH   1   2
BRANCH   1  12
ATOM     12  C   UNL     1      12.595  11.101  12.512  1.00  0.00     0.000 C 
BRANCH  12  13
ATOM     13  C   UNL     1      11.882  10.279  11.427  1.00  0.00    -0.000 C 
BRANCH  13  14
ATOM     14  C   UNL     1      12.064  10.868  10.021  1.00  0.00    -0.000 C 
BRANCH  14  15
ATOM     15  C   UNL     1      10.727  11.362   9.456  1.00  0.00    -0.000 C 
BRANCH  15  16
ATOM     16  C   UNL     1      10.434  12.798   9.907  1.00  0.00    -0.000 C 
BRANCH  16  17
ATOM     17  C   UNL     1      11.608  13.728   9.579  1.00  0.00    -0.000 C 
BRANCH  17  18
ATOM     18  C   UNL     1      11.909  14.667  10.753  1.00  0.00    -0.003 C 
ATOM     19  C   UNL     1      10.750  14.698  11.745  1.00  0.00     0.004 C 
ENDBRANCH  17  18
ENDBRANCH  16  17
ENDBRANCH  15  16
ENDBRANCH  14  15
ENDBRANCH  13  14
ENDBRANCH  12  13
ENDBRANCH   1  12
TORSDOF 14
ENDMDL
