MODEL 1
REMARK VINA RESULT:    -4.632      0.000      0.000
REMARK INTER + INTRA:          -8.413
REMARK INTER:                  -7.070
REMARK INTRA:                  -1.343
REMARK UNBOUND:                -1.343
REMARK SMILES CCCCCCCCCCC(=O)[O-]
REMARK SMILES IDX 7 1 8 2 9 3 10 4 11 5 12 6 13 7 6 8 5 9 4 10 3 11 2 12 1 13
REMARK H PARENT
REMARK Flexibility Score: inf
ROOT
ATOM      1  C   UNL     1      22.091  -4.294 -36.300  1.00  0.00     0.000 C 
ENDROOT
BRANCH   1   2
ATOM      2  C   UNL     1      23.497  -4.879 -36.119  1.00  0.00     0.000 C 
BRANCH   2   3
ATOM      3  C   UNL     1      23.527  -6.364 -36.497  1.00  0.00     0.006 C 
BRANCH   3   4
ATOM      4  C   UNL     1      24.928  -6.786 -36.954  1.00  0.00     0.053 C 
BRANCH   4   5
ATOM      5  C   UNL     1      24.838  -7.808 -38.042  1.00  0.00     0.041 C 
ATOM      6  O   UNL     1      25.756  -7.905 -38.899  1.00  0.00    -0.550 OA
ATOM      7  O   UNL     1      23.717  -8.623 -38.140  1.00  0.00    -0.550 OA
ENDBRANCH   4   5
ENDBRANCH   3   4
ENDBRANCH   2   3
ENDBRANCH   1   2
BRANCH   1   8
ATOM      8  C   UNL     1      21.298  -5.084 -37.352  1.00  0.00     0.000 C 
BRANCH   8   9
ATOM      9  C   UNL     1      20.630  -4.176 -38.396  1.00  0.00    -0.000 C 
BRANCH   9  10
ATOM     10  C   UNL     1      21.547  -3.873 -39.594  1.00  0.00    -0.000 C 
BRANCH  10  11
ATOM     11  C   UNL     1      22.453  -5.070 -39.952  1.00  0.00    -0.000 C 
BRANCH  11  12
ATOM     12  C   UNL     1      23.955  -4.744 -39.888  1.00  0.00    -0.003 C 
ATOM     13  C   UNL     1      24.237  -3.287 -39.530  1.00  0.00     0.004 C 
ENDBRANCH  11  12
ENDBRANCH  10  11
ENDBRANCH   9  10
ENDBRANCH   8   9
ENDBRANCH   1   8
TORSDOF 9
ENDMDL
MODEL 2
REMARK VINA RESULT:    -4.613      1.166      1.604
REMARK INTER + INTRA:          -8.384
REMARK INTER:                  -6.994
REMARK INTRA:                  -1.389
REMARK UNBOUND:                -1.343
REMARK SMILES CCCCCCCCCCC(=O)[O-]
REMARK SMILES IDX 7 1 8 2 9 3 10 4 11 5 12 6 13 7 6 8 5 9 4 10 3 11 2 12 1 13
REMARK H PARENT
REMARK Flexibility Score: inf
ROOT
ATOM      1  C   UNL     1      21.979  -4.710 -36.221  1.00  0.00     0.000 C 
ENDROOT
BRANCH   1   2
ATOM      2  C   UNL     1      23.478  -5.025 -36.152  1.00  0.00     0.000 C 
BRANCH   2   3
ATOM      3  C   UNL     1      23.783  -6.392 -36.775  1.00  0.00     0.006 C 
BRANCH   3   4
ATOM      4  C   UNL     1      22.491  -7.123 -37.154  1.00  0.00     0.053 C 
BRANCH   4   5
ATOM      5  C   UNL     1      22.699  -7.953 -38.380  1.00  0.00     0.041 C 
ATOM      6  O   UNL     1      23.624  -8.807 -38.418  1.00  0.00    -0.550 OA
ATOM      7  O   UNL     1      21.904  -7.751 -39.501  1.00  0.00    -0.550 OA
ENDBRANCH   4   5
ENDBRANCH   3   4
ENDBRANCH   2   3
ENDBRANCH   1   2
BRANCH   1   8
ATOM      8  C   UNL     1      21.742  -3.208 -36.439  1.00  0.00     0.000 C 
BRANCH   8   9
ATOM      9  C   UNL     1      21.012  -2.909 -37.758  1.00  0.00    -0.000 C 
BRANCH   9  10
ATOM     10  C   UNL     1      20.839  -4.158 -38.639  1.00  0.00    -0.000 C 
BRANCH  10  11
ATOM     11  C   UNL     1      21.621  -4.049 -39.964  1.00  0.00    -0.000 C 
BRANCH  11  12
ATOM     12  C   UNL     1      23.080  -4.526 -39.858  1.00  0.00    -0.003 C 
ATOM     13  C   UNL     1      24.063  -3.390 -39.587  1.00  0.00     0.004 C 
ENDBRANCH  11  12
ENDBRANCH  10  11
ENDBRANCH   9  10
ENDBRANCH   8   9
ENDBRANCH   1   8
TORSDOF 9
ENDMDL
MODEL 3
REMARK VINA RESULT:    -4.559      1.212      2.134
REMARK INTER + INTRA:          -8.300
REMARK INTER:                  -6.963
REMARK INTRA:                  -1.338
REMARK UNBOUND:                -1.343
REMARK SMILES CCCCCCCCCCC(=O)[O-]
REMARK SMILES IDX 7 1 8 2 9 3 10 4 11 5 12 6 13 7 6 8 5 9 4 10 3 11 2 12 1 13
REMARK H PARENT
REMARK Flexibility Score: inf
ROOT
ATOM      1  C   UNL     1      21.176  -5.159 -37.831  1.00  0.00     0.000 C 
ENDROOT
BRANCH   1   2
ATOM      2  C   UNL     1      22.185  -5.066 -36.680  1.00  0.00     0.000 C 
BRANCH   2   3
ATOM      3  C   UNL     1      23.123  -6.278 -36.672  1.00  0.00     0.006 C 
BRANCH   3   4
ATOM      4  C   UNL     1      22.482  -7.474 -37.384  1.00  0.00     0.053 C 
BRANCH   4   5
ATOM      5  C   UNL     1      23.433  -8.063 -38.376  1.00  0.00     0.041 C 
ATOM      6  O   UNL     1      23.017  -8.448 -39.501  1.00  0.00    -0.550 OA
ATOM      7  O   UNL     1      24.770  -8.233 -38.043  1.00  0.00    -0.550 OA
ENDBRANCH   4   5
ENDBRANCH   3   4
ENDBRANCH   2   3
ENDBRANCH   1   2
BRANCH   1   8
ATOM      8  C   UNL     1      21.568  -4.220 -38.983  1.00  0.00     0.000 C 
BRANCH   8   9
ATOM      9  C   UNL     1      22.330  -4.945 -40.103  1.00  0.00    -0.000 C 
BRANCH   9  10
ATOM     10  C   UNL     1      23.854  -4.756 -40.004  1.00  0.00    -0.000 C 
BRANCH  10  11
ATOM     11  C   UNL     1      24.240  -3.306 -39.646  1.00  0.00    -0.000 C 
BRANCH  11  12
ATOM     12  C   UNL     1      25.306  -3.207 -38.542  1.00  0.00    -0.003 C 
ATOM     13  C   UNL     1      25.923  -4.557 -38.183  1.00  0.00     0.004 C 
ENDBRANCH  11  12
ENDBRANCH  10  11
ENDBRANCH   9  10
ENDBRANCH   8   9
ENDBRANCH   1   8
TORSDOF 9
ENDMDL
MODEL 4
REMARK VINA RESULT:    -4.508      1.599      2.930
REMARK INTER + INTRA:          -8.223
REMARK INTER:                  -7.092
REMARK INTRA:                  -1.131
REMARK UNBOUND:                -1.343
REMARK SMILES CCCCCCCCCCC(=O)[O-]
REMARK SMILES IDX 7 1 8 2 9 3 10 4 11 5 12 6 13 7 6 8 5 9 4 10 3 11 2 12 1 13
REMARK H PARENT
REMARK Flexibility Score: inf
ROOT
ATOM      1  C   UNL     1      24.184  -4.847 -37.218  1.00  0.00     0.000 C 
ENDROOT
BRANCH   1   2
ATOM      2  C   UNL     1      23.709  -6.137 -36.537  1.00  0.00     0.000 C 
BRANCH   2   3
ATOM      3  C   UNL     1      22.348  -6.580 -37.085  1.00  0.00     0.006 C 
BRANCH   3   4
ATOM      4  C   UNL     1      22.399  -8.030 -37.577  1.00  0.00     0.053 C 
BRANCH   4   5
ATOM      5  C   UNL     1      22.641  -8.074 -39.052  1.00  0.00     0.041 C 
ATOM      6  O   UNL     1      21.769  -7.639 -39.851  1.00  0.00    -0.550 OA
ATOM      7  O   UNL     1      23.808  -8.639 -39.550  1.00  0.00    -0.550 OA
ENDBRANCH   4   5
ENDBRANCH   3   4
ENDBRANCH   2   3
ENDBRANCH   1   2
BRANCH   1   8
ATOM      8  C   UNL     1      24.908  -5.157 -38.537  1.00  0.00     0.000 C 
BRANCH   8   9
ATOM      9  C   UNL     1      24.096  -4.734 -39.772  1.00  0.00    -0.000 C 
BRANCH   9  10
ATOM     10  C   UNL     1      23.055  -3.647 -39.456  1.00  0.00    -0.000 C 
BRANCH  10  11
ATOM     11  C   UNL     1      21.620  -4.096 -39.800  1.00  0.00    -0.000 C 
BRANCH  11  12
ATOM     12  C   UNL     1      20.583  -3.712 -38.731  1.00  0.00    -0.003 C 
ATOM     13  C   UNL     1      19.485  -2.795 -39.263  1.00  0.00     0.004 C 
ENDBRANCH  11  12
ENDBRANCH  10  11
ENDBRANCH   9  10
ENDBRANCH   8   9
ENDBRANCH   1   8
TORSDOF 9
ENDMDL
MODEL 5
REMARK VINA RESULT:    -4.435      2.300      4.171
REMARK INTER + INTRA:          -8.111
REMARK INTER:                  -6.991
REMARK INTRA:                  -1.120
REMARK UNBOUND:                -1.343
REMARK SMILES CCCCCCCCCCC(=O)[O-]
REMARK SMILES IDX 7 1 8 2 9 3 10 4 11 5 12 6 13 7 6 8 5 9 4 10 3 11 2 12 1 13
REMARK H PARENT
REMARK Flexibility Score: inf
ROOT
ATOM      1  C   UNL     1      23.087  -4.748 -36.128  1.00  0.00     0.000 C 
ENDROOT
BRANCH   1   2
ATOM      2  C   UNL     1      21.616  -4.560 -36.519  1.00  0.00     0.000 C 
BRANCH   2   3
ATOM      3  C   UNL     1      21.429  -3.291 -37.359  1.00  0.00     0.006 C 
BRANCH   3   4
ATOM      4  C   UNL     1      20.845  -3.625 -38.735  1.00  0.00     0.053 C 
BRANCH   4   5
ATOM      5  C   UNL     1      21.932  -4.030 -39.680  1.00  0.00     0.041 C 
ATOM      6  O   UNL     1      21.710  -4.893 -40.570  1.00  0.00    -0.550 OA
ATOM      7  O   UNL     1      23.206  -3.491 -39.547  1.00  0.00    -0.550 OA
ENDBRANCH   4   5
ENDBRANCH   3   4
ENDBRANCH   2   3
ENDBRANCH   1   2
BRANCH   1   8
ATOM      8  C   UNL     1      23.617  -6.104 -36.619  1.00  0.00     0.000 C 
BRANCH   8   9
ATOM      9  C   UNL     1      22.517  -6.981 -37.238  1.00  0.00    -0.000 C 
BRANCH   9  10
ATOM     10  C   UNL     1      22.950  -7.629 -38.565  1.00  0.00    -0.000 C 
BRANCH  10  11
ATOM     11  C   UNL     1      24.206  -6.958 -39.159  1.00  0.00    -0.000 C 
BRANCH  11  12
ATOM     12  C   UNL     1      25.402  -7.913 -39.306  1.00  0.00    -0.003 C 
ATOM     13  C   UNL     1      25.030  -9.377 -39.085  1.00  0.00     0.004 C 
ENDBRANCH  11  12
ENDBRANCH  10  11
ENDBRANCH   9  10
ENDBRANCH   8   9
ENDBRANCH   1   8
TORSDOF 9
ENDMDL
MODEL 6
REMARK VINA RESULT:    -4.398      1.247      2.825
REMARK INTER + INTRA:          -8.055
REMARK INTER:                  -6.708
REMARK INTRA:                  -1.347
REMARK UNBOUND:                -1.343
REMARK SMILES CCCCCCCCCCC(=O)[O-]
REMARK SMILES IDX 7 1 8 2 9 3 10 4 11 5 12 6 13 7 6 8 5 9 4 10 3 11 2 12 1 13
REMARK H PARENT
REMARK Flexibility Score: inf
ROOT
ATOM      1  C   UNL     1      24.803  -4.216 -38.435  1.00  0.00     0.000 C 
ENDROOT
BRANCH   1   2
ATOM      2  C   UNL     1      24.662  -5.742 -38.514  1.00  0.00     0.000 C 
BRANCH   2   3
ATOM      3  C   UNL     1      24.325  -6.335 -37.142  1.00  0.00     0.006 C 
BRANCH   3   4
ATOM      4  C   UNL     1      22.973  -7.056 -37.173  1.00  0.00     0.053 C 
BRANCH   4   5
ATOM      5  C   UNL     1      22.930  -8.037 -38.300  1.00  0.00     0.041 C 
ATOM      6  O   UNL     1      23.736  -9.004 -38.331  1.00  0.00    -0.550 OA
ATOM      7  O   UNL     1      22.031  -7.858 -39.344  1.00  0.00    -0.550 OA
ENDBRANCH   4   5
ENDBRANCH   3   4
ENDBRANCH   2   3
ENDBRANCH   1   2
BRANCH   1   8
ATOM      8  C   UNL     1      23.890  -3.527 -39.461  1.00  0.00     0.000 C 
BRANCH   8   9
ATOM      9  C   UNL     1      22.707  -4.409 -39.889  1.00  0.00    -0.000 C 
BRANCH   9  10
ATOM     10  C   UNL     1      21.346  -3.821 -39.478  1.00  0.00    -0.000 C 
BRANCH  10  11
ATOM     11  C   UNL     1      20.916  -4.276 -38.068  1.00  0.00    -0.000 C 
BRANCH  11  12
ATOM     12  C   UNL     1      21.209  -3.239 -36.971  1.00  0.00    -0.003 C 
ATOM     13  C   UNL     1      21.947  -3.829 -35.771  1.00  0.00     0.004 C 
ENDBRANCH  11  12
ENDBRANCH  10  11
ENDBRANCH   9  10
ENDBRANCH   8   9
ENDBRANCH   1   8
TORSDOF 9
ENDMDL
MODEL 7
REMARK VINA RESULT:    -4.396      1.286      2.395
REMARK INTER + INTRA:          -8.052
REMARK INTER:                  -6.818
REMARK INTRA:                  -1.233
REMARK UNBOUND:                -1.343
REMARK SMILES CCCCCCCCCCC(=O)[O-]
REMARK SMILES IDX 7 1 8 2 9 3 10 4 11 5 12 6 13 7 6 8 5 9 4 10 3 11 2 12 1 13
REMARK H PARENT
REMARK Flexibility Score: inf
ROOT
ATOM      1  C   UNL     1      24.410  -4.430 -37.322  1.00  0.00     0.000 C 
ENDROOT
BRANCH   1   2
ATOM      2  C   UNL     1      25.207  -5.530 -38.034  1.00  0.00     0.000 C 
BRANCH   2   3
ATOM      3  C   UNL     1      25.121  -6.855 -37.268  1.00  0.00     0.006 C 
BRANCH   3   4
ATOM      4  C   UNL     1      25.145  -8.048 -38.230  1.00  0.00     0.053 C 
BRANCH   4   5
ATOM      5  C   UNL     1      23.752  -8.459 -38.589  1.00  0.00     0.041 C 
ATOM      6  O   UNL     1      22.816  -8.320 -37.758  1.00  0.00    -0.550 OA
ATOM      7  O   UNL     1      23.495  -9.040 -39.824  1.00  0.00    -0.550 OA
ENDBRANCH   4   5
ENDBRANCH   3   4
ENDBRANCH   2   3
ENDBRANCH   1   2
BRANCH   1   8
ATOM      8  C   UNL     1      23.478  -5.028 -36.257  1.00  0.00     0.000 C 
BRANCH   8   9
ATOM      9  C   UNL     1      22.044  -4.485 -36.352  1.00  0.00    -0.000 C 
BRANCH   9  10
ATOM     10  C   UNL     1      21.247  -5.107 -37.512  1.00  0.00    -0.000 C 
BRANCH  10  11
ATOM     11  C   UNL     1      20.837  -4.057 -38.566  1.00  0.00    -0.000 C 
BRANCH  11  12
ATOM     12  C   UNL     1      21.651  -4.142 -39.867  1.00  0.00    -0.003 C 
ATOM     13  C   UNL     1      22.133  -5.557 -40.182  1.00  0.00     0.004 C 
ENDBRANCH  11  12
ENDBRANCH  10  11
ENDBRANCH   9  10
ENDBRANCH   8   9
ENDBRANCH   1   8
TORSDOF 9
ENDMDL
MODEL 8
REMARK VINA RESULT:    -4.310      1.309      3.003
REMARK INTER + INTRA:          -7.920
REMARK INTER:                  -6.755
REMARK INTRA:                  -1.165
REMARK UNBOUND:                -1.343
REMARK SMILES CCCCCCCCCCC(=O)[O-]
REMARK SMILES IDX 7 1 8 2 9 3 10 4 11 5 12 6 13 7 6 8 5 9 4 10 3 11 2 12 1 13
REMARK H PARENT
REMARK Flexibility Score: inf
ROOT
ATOM      1  C   UNL     1      25.411  -4.778 -37.739  1.00  0.00     0.000 C 
ENDROOT
BRANCH   1   2
ATOM      2  C   UNL     1      26.751  -5.496 -37.942  1.00  0.00     0.000 C 
BRANCH   2   3
ATOM      3  C   UNL     1      26.538  -6.986 -38.233  1.00  0.00     0.006 C 
BRANCH   3   4
ATOM      4  C   UNL     1      25.220  -7.481 -37.629  1.00  0.00     0.053 C 
BRANCH   4   5
ATOM      5  C   UNL     1      24.566  -8.471 -38.540  1.00  0.00     0.041 C 
ATOM      6  O   UNL     1      23.325  -8.675 -38.469  1.00  0.00    -0.550 OA
ATOM      7  O   UNL     1      25.333  -9.205 -39.436  1.00  0.00    -0.550 OA
ENDBRANCH   4   5
ENDBRANCH   3   4
ENDBRANCH   2   3
ENDBRANCH   1   2
BRANCH   1   8
ATOM      8  C   UNL     1      25.278  -3.582 -38.694  1.00  0.00     0.000 C 
BRANCH   8   9
ATOM      9  C   UNL     1      24.018  -3.660 -39.570  1.00  0.00    -0.000 C 
BRANCH   9  10
ATOM     10  C   UNL     1      23.593  -5.107 -39.872  1.00  0.00    -0.000 C 
BRANCH  10  11
ATOM     11  C   UNL     1      22.062  -5.292 -39.801  1.00  0.00    -0.000 C 
BRANCH  11  12
ATOM     12  C   UNL     1      21.445  -4.802 -38.480  1.00  0.00    -0.003 C 
ATOM     13  C   UNL     1      21.801  -5.686 -37.288  1.00  0.00     0.004 C 
ENDBRANCH  11  12
ENDBRANCH  10  11
ENDBRANCH   9  10
ENDBRANCH   8   9
ENDBRANCH   1   8
TORSDOF 9
ENDMDL
MODEL 9
REMARK VINA RESULT:    -4.282      2.407      4.262
REMARK INTER + INTRA:          -7.877
REMARK INTER:                  -6.581
REMARK INTRA:                  -1.296
REMARK UNBOUND:                -1.343
REMARK SMILES CCCCCCCCCCC(=O)[O-]
REMARK SMILES IDX 7 1 8 2 9 3 10 4 11 5 12 6 13 7 6 8 5 9 4 10 3 11 2 12 1 13
REMARK H PARENT
REMARK Flexibility Score: inf
ROOT
ATOM      1  C   UNL     1      22.273  -5.913 -37.612  1.00  0.00     0.000 C 
ENDROOT
BRANCH   1   2
ATOM      2  C   UNL     1      22.024  -5.725 -39.114  1.00  0.00     0.000 C 
BRANCH   2   3
ATOM      3  C   UNL     1      22.483  -4.338 -39.579  1.00  0.00     0.006 C 
BRANCH   3   4
ATOM      4  C   UNL     1      23.989  -4.321 -39.854  1.00  0.00     0.053 C 
BRANCH   4   5
ATOM      5  C   UNL     1      24.672  -3.326 -38.971  1.00  0.00     0.041 C 
ATOM      6  O   UNL     1      25.898  -3.447 -38.709  1.00  0.00    -0.550 OA
ATOM      7  O   UNL     1      23.945  -2.292 -38.396  1.00  0.00    -0.550 OA
ENDBRANCH   4   5
ENDBRANCH   3   4
ENDBRANCH   2   3
ENDBRANCH   1   2
BRANCH   1   8
ATOM      8  C   UNL     1      22.373  -7.404 -37.254  1.00  0.00     0.000 C 
BRANCH   8   9
ATOM      9  C   UNL     1      22.833  -8.268 -38.439  1.00  0.00    -0.000 C 
BRANCH   9  10
ATOM     10  C   UNL     1      24.322  -8.646 -38.357  1.00  0.00    -0.000 C 
BRANCH  10  11
ATOM     11  C   UNL     1      25.184  -7.836 -39.347  1.00  0.00    -0.000 C 
BRANCH  11  12
ATOM     12  C   UNL     1      26.249  -6.962 -38.663  1.00  0.00    -0.003 C 
ATOM     13  C   UNL     1      26.037  -6.828 -37.157  1.00  0.00     0.004 C 
ENDBRANCH  11  12
ENDBRANCH  10  11
ENDBRANCH   9  10
ENDBRANCH   8   9
ENDBRANCH   1   8
TORSDOF 9
ENDMDL
