MODEL 1
REMARK VINA RESULT:    -6.053      0.000      0.000
REMARK INTER + INTRA:          -7.411
REMARK INTER:                  -7.114
REMARK INTRA:                  -0.296
REMARK UNBOUND:                -0.296
REMARK SMILES O=c1c(O)c(-c2ccc(O)cc2)oc2cc(O)cc(O)c12
REMARK SMILES IDX 5 1 3 2 2 3 1 4 21 5 19 6 18 7 16 8 15 9 14 10 13 11 6 12
REMARK SMILES IDX 7 13 8 14 9 15 12 16 11 17 10 18 4 20 20 22 17 24
REMARK H PARENT 10 19 4 21 20 23 17 25
REMARK Flexibility Score: inf
ROOT
ATOM      1  C   UNL     1      25.775   3.520 102.886  1.00  0.00     0.180 A 
ATOM      2  C   UNL     1      26.677   3.974 103.863  1.00  0.00     0.208 A 
ATOM      3  C   UNL     1      27.906   3.311 104.015  1.00  0.00     0.238 A 
ATOM      4  O   UNL     1      28.739   3.768 104.840  1.00  0.00    -0.285 OA
ATOM      5  C   UNL     1      28.194   2.170 103.228  1.00  0.00     0.111 A 
ATOM      6  C   UNL     1      29.388   1.394 103.328  1.00  0.00     0.134 A 
ATOM      7  C   UNL     1      29.611   0.349 102.423  1.00  0.00     0.093 A 
ATOM      8  C   UNL     1      28.655   0.011 101.463  1.00  0.00     0.123 A 
ATOM      9  C   UNL     1      27.463   0.726 101.392  1.00  0.00     0.094 A 
ATOM     10  C   UNL     1      27.228   1.799 102.256  1.00  0.00     0.146 A 
ATOM     11  O   UNL     1      26.086   2.468 102.140  1.00  0.00    -0.452 OA
ENDROOT
BRANCH   1  12
ATOM     12  C   UNL     1      24.466   4.175 102.656  1.00  0.00     0.021 A 
ATOM     13  C   UNL     1      24.321   5.214 101.719  1.00  0.00     0.016 A 
ATOM     14  C   UNL     1      23.070   5.800 101.502  1.00  0.00     0.047 A 
ATOM     15  C   UNL     1      21.948   5.348 102.208  1.00  0.00     0.115 A 
ATOM     16  C   UNL     1      23.333   3.713 103.344  1.00  0.00     0.016 A 
ATOM     17  C   UNL     1      22.083   4.302 103.127  1.00  0.00     0.047 A 
BRANCH  15  18
ATOM     18  O   UNL     1      20.698   5.925 102.002  1.00  0.00    -0.508 OA
ATOM     19  H   UNL     1      20.589   6.774 101.458  1.00  0.00     0.293 HD
ENDBRANCH  15  18
ENDBRANCH   1  12
BRANCH   2  20
ATOM     20  O   UNL     1      26.342   5.054 104.684  1.00  0.00    -0.502 OA
ATOM     21  H   UNL     1      25.833   4.940 105.552  1.00  0.00     0.293 HD
ENDBRANCH   2  20
BRANCH   6  22
ATOM     22  O   UNL     1      30.369   1.589 104.305  1.00  0.00    -0.507 OA
ATOM     23  H   UNL     1      30.616   2.481 104.707  1.00  0.00     0.293 HD
ENDBRANCH   6  22
BRANCH   8  24
ATOM     24  O   UNL     1      28.878  -1.042 100.578  1.00  0.00    -0.508 OA
ATOM     25  H   UNL     1      28.838  -0.908  99.574  1.00  0.00     0.293 HD
ENDBRANCH   8  24
TORSDOF 5
ENDMDL
MODEL 2
REMARK VINA RESULT:    -6.007      3.946      5.350
REMARK INTER + INTRA:          -7.356
REMARK INTER:                  -7.058
REMARK INTRA:                  -0.298
REMARK UNBOUND:                -0.296
REMARK SMILES O=c1c(O)c(-c2ccc(O)cc2)oc2cc(O)cc(O)c12
REMARK SMILES IDX 5 1 3 2 2 3 1 4 21 5 19 6 18 7 16 8 15 9 14 10 13 11 6 12
REMARK SMILES IDX 7 13 8 14 9 15 12 16 11 17 10 18 4 20 20 22 17 24
REMARK H PARENT 10 19 4 21 20 23 17 25
REMARK Flexibility Score: inf
ROOT
ATOM      1  C   UNL     1      23.019   0.472 103.058  1.00  0.00     0.180 A 
ATOM      2  C   UNL     1      22.490  -0.305 102.013  1.00  0.00     0.208 A 
ATOM      3  C   UNL     1      23.074  -1.551 101.728  1.00  0.00     0.238 A 
ATOM      4  O   UNL     1      22.550  -2.273 100.842  1.00  0.00    -0.285 OA
ATOM      5  C   UNL     1      24.213  -1.978 102.452  1.00  0.00     0.111 A 
ATOM      6  C   UNL     1      24.914  -3.199 102.218  1.00  0.00     0.134 A 
ATOM      7  C   UNL     1      25.964  -3.567 103.069  1.00  0.00     0.093 A 
ATOM      8  C   UNL     1      26.380  -2.729 104.105  1.00  0.00     0.123 A 
ATOM      9  C   UNL     1      25.739  -1.509 104.308  1.00  0.00     0.094 A 
ATOM     10  C   UNL     1      24.663  -1.132 103.500  1.00  0.00     0.146 A 
ATOM     11  O   UNL     1      24.067   0.030 103.742  1.00  0.00    -0.452 OA
ENDROOT
BRANCH   1  12
ATOM     12  C   UNL     1      22.448   1.787 103.429  1.00  0.00     0.021 A 
ATOM     13  C   UNL     1      21.386   1.895 104.345  1.00  0.00     0.016 A 
ATOM     14  C   UNL     1      20.881   3.150 104.698  1.00  0.00     0.047 A 
ATOM     15  C   UNL     1      21.439   4.313 104.149  1.00  0.00     0.115 A 
ATOM     16  C   UNL     1      23.015   2.958 102.900  1.00  0.00     0.016 A 
ATOM     17  C   UNL     1      22.507   4.213 103.253  1.00  0.00     0.047 A 
BRANCH  15  18
ATOM     18  O   UNL     1      20.943   5.569 104.492  1.00  0.00    -0.508 OA
ATOM     19  H   UNL     1      20.262   6.046 103.911  1.00  0.00     0.293 HD
ENDBRANCH  15  18
ENDBRANCH   1  12
BRANCH   2  20
ATOM     20  O   UNL     1      21.413   0.168 101.259  1.00  0.00    -0.502 OA
ATOM     21  H   UNL     1      21.476   1.000 100.683  1.00  0.00     0.293 HD
ENDBRANCH   2  20
BRANCH   6  22
ATOM     22  O   UNL     1      24.639  -4.069 101.159  1.00  0.00    -0.507 OA
ATOM     23  H   UNL     1      23.875  -4.728 101.135  1.00  0.00     0.293 HD
ENDBRANCH   6  22
BRANCH   8  24
ATOM     24  O   UNL     1      27.437  -3.095 104.935  1.00  0.00    -0.508 OA
ATOM     25  H   UNL     1      28.146  -2.428 105.217  1.00  0.00     0.293 HD
ENDBRANCH   8  24
TORSDOF 5
ENDMDL
MODEL 3
REMARK VINA RESULT:    -5.850      2.556      3.030
REMARK INTER + INTRA:          -7.172
REMARK INTER:                  -6.908
REMARK INTRA:                  -0.264
REMARK UNBOUND:                -0.296
REMARK SMILES O=c1c(O)c(-c2ccc(O)cc2)oc2cc(O)cc(O)c12
REMARK SMILES IDX 5 1 3 2 2 3 1 4 21 5 19 6 18 7 16 8 15 9 14 10 13 11 6 12
REMARK SMILES IDX 7 13 8 14 9 15 12 16 11 17 10 18 4 20 20 22 17 24
REMARK H PARENT 10 19 4 21 20 23 17 25
REMARK Flexibility Score: inf
ROOT
ATOM      1  C   UNL     1      23.858   2.645 102.957  1.00  0.00     0.180 A 
ATOM      2  C   UNL     1      25.229   2.950 102.920  1.00  0.00     0.208 A 
ATOM      3  C   UNL     1      26.160   1.900 102.866  1.00  0.00     0.238 A 
ATOM      4  O   UNL     1      27.381   2.181 102.758  1.00  0.00    -0.285 OA
ATOM      5  C   UNL     1      25.711   0.557 102.907  1.00  0.00     0.111 A 
ATOM      6  C   UNL     1      26.566  -0.586 102.903  1.00  0.00     0.134 A 
ATOM      7  C   UNL     1      26.006  -1.868 102.838  1.00  0.00     0.093 A 
ATOM      8  C   UNL     1      24.621  -2.050 102.841  1.00  0.00     0.123 A 
ATOM      9  C   UNL     1      23.778  -0.944 102.900  1.00  0.00     0.094 A 
ATOM     10  C   UNL     1      24.306   0.349 102.926  1.00  0.00     0.146 A 
ATOM     11  O   UNL     1      23.466   1.377 102.961  1.00  0.00    -0.452 OA
ENDROOT
BRANCH   1  12
ATOM     12  C   UNL     1      22.816   3.697 102.999  1.00  0.00     0.021 A 
ATOM     13  C   UNL     1      22.442   4.405 101.843  1.00  0.00     0.016 A 
ATOM     14  C   UNL     1      21.438   5.377 101.904  1.00  0.00     0.047 A 
ATOM     15  C   UNL     1      20.789   5.644 103.116  1.00  0.00     0.115 A 
ATOM     16  C   UNL     1      22.146   3.956 104.205  1.00  0.00     0.016 A 
ATOM     17  C   UNL     1      21.143   4.929 104.264  1.00  0.00     0.047 A 
BRANCH  15  18
ATOM     18  O   UNL     1      19.789   6.611 103.189  1.00  0.00    -0.508 OA
ATOM     19  H   UNL     1      19.742   7.376 102.525  1.00  0.00     0.293 HD
ENDBRANCH  15  18
ENDBRANCH   1  12
BRANCH   2  20
ATOM     20  O   UNL     1      25.655   4.281 102.958  1.00  0.00    -0.502 OA
ATOM     21  H   UNL     1      25.821   4.774 103.828  1.00  0.00     0.293 HD
ENDBRANCH   2  20
BRANCH   6  22
ATOM     22  O   UNL     1      27.960  -0.521 102.987  1.00  0.00    -0.507 OA
ATOM     23  H   UNL     1      28.506  -0.825 103.779  1.00  0.00     0.293 HD
ENDBRANCH   6  22
BRANCH   8  24
ATOM     24  O   UNL     1      24.073  -3.330 102.794  1.00  0.00    -0.508 OA
ATOM     25  H   UNL     1      23.219  -3.522 102.284  1.00  0.00     0.293 HD
ENDBRANCH   8  24
TORSDOF 5
ENDMDL
MODEL 4
REMARK VINA RESULT:    -5.846      2.022      3.395
REMARK INTER + INTRA:          -7.167
REMARK INTER:                  -6.903
REMARK INTRA:                  -0.264
REMARK UNBOUND:                -0.296
REMARK SMILES O=c1c(O)c(-c2ccc(O)cc2)oc2cc(O)cc(O)c12
REMARK SMILES IDX 5 1 3 2 2 3 1 4 21 5 19 6 18 7 16 8 15 9 14 10 13 11 6 12
REMARK SMILES IDX 7 13 8 14 9 15 12 16 11 17 10 18 4 20 20 22 17 24
REMARK H PARENT 10 19 4 21 20 23 17 25
REMARK Flexibility Score: inf
ROOT
ATOM      1  C   UNL     1      23.835   2.575 103.002  1.00  0.00     0.180 A 
ATOM      2  C   UNL     1      23.541   1.201 102.962  1.00  0.00     0.208 A 
ATOM      3  C   UNL     1      24.599   0.279 102.918  1.00  0.00     0.238 A 
ATOM      4  O   UNL     1      24.331  -0.949 102.957  1.00  0.00    -0.285 OA
ATOM      5  C   UNL     1      25.936   0.742 102.858  1.00  0.00     0.111 A 
ATOM      6  C   UNL     1      27.084  -0.100 102.765  1.00  0.00     0.134 A 
ATOM      7  C   UNL     1      28.364   0.467 102.820  1.00  0.00     0.093 A 
ATOM      8  C   UNL     1      28.536   1.850 102.900  1.00  0.00     0.123 A 
ATOM      9  C   UNL     1      27.422   2.685 102.935  1.00  0.00     0.094 A 
ATOM     10  C   UNL     1      26.133   2.147 102.921  1.00  0.00     0.146 A 
ATOM     11  O   UNL     1      25.099   2.978 102.978  1.00  0.00    -0.452 OA
ENDROOT
BRANCH   1  12
ATOM     12  C   UNL     1      22.774   3.607 103.065  1.00  0.00     0.021 A 
ATOM     13  C   UNL     1      22.104   3.898 104.267  1.00  0.00     0.016 A 
ATOM     14  C   UNL     1      21.123   4.894 104.306  1.00  0.00     0.047 A 
ATOM     15  C   UNL     1      20.810   5.619 103.149  1.00  0.00     0.115 A 
ATOM     16  C   UNL     1      22.469   4.353 101.915  1.00  0.00     0.016 A 
ATOM     17  C   UNL     1      21.487   5.348 101.956  1.00  0.00     0.047 A 
BRANCH  15  18
ATOM     18  O   UNL     1      19.833   6.612 103.176  1.00  0.00    -0.508 OA
ATOM     19  H   UNL     1      19.835   7.338 103.884  1.00  0.00     0.293 HD
ENDBRANCH  15  18
ENDBRANCH   1  12
BRANCH   2  20
ATOM     20  O   UNL     1      22.213   0.766 102.944  1.00  0.00    -0.502 OA
ATOM     21  H   UNL     1      21.695   0.565 103.791  1.00  0.00     0.293 HD
ENDBRANCH   2  20
BRANCH   6  22
ATOM     22  O   UNL     1      27.027  -1.487 102.594  1.00  0.00    -0.507 OA
ATOM     23  H   UNL     1      27.821  -2.079 102.404  1.00  0.00     0.293 HD
ENDBRANCH   6  22
BRANCH   8  24
ATOM     24  O   UNL     1      29.813   2.407 102.936  1.00  0.00    -0.508 OA
ATOM     25  H   UNL     1      30.613   1.923 102.546  1.00  0.00     0.293 HD
ENDBRANCH   8  24
TORSDOF 5
ENDMDL
MODEL 5
REMARK VINA RESULT:    -5.728      6.932      8.177
REMARK INTER + INTRA:          -7.028
REMARK INTER:                  -7.100
REMARK INTRA:                   0.071
REMARK UNBOUND:                -0.296
REMARK SMILES O=c1c(O)c(-c2ccc(O)cc2)oc2cc(O)cc(O)c12
REMARK SMILES IDX 5 1 3 2 2 3 1 4 21 5 19 6 18 7 16 8 15 9 14 10 13 11 6 12
REMARK SMILES IDX 7 13 8 14 9 15 12 16 11 17 10 18 4 20 20 22 17 24
REMARK H PARENT 10 19 4 21 20 23 17 25
REMARK Flexibility Score: inf
ROOT
ATOM      1  C   UNL     1      32.683   3.888 102.199  1.00  0.00     0.180 A 
ATOM      2  C   UNL     1      33.402   2.783 102.686  1.00  0.00     0.208 A 
ATOM      3  C   UNL     1      33.545   2.621 104.074  1.00  0.00     0.238 A 
ATOM      4  O   UNL     1      34.125   1.592 104.504  1.00  0.00    -0.285 OA
ATOM      5  C   UNL     1      33.016   3.595 104.955  1.00  0.00     0.111 A 
ATOM      6  C   UNL     1      33.141   3.557 106.377  1.00  0.00     0.134 A 
ATOM      7  C   UNL     1      32.484   4.521 107.154  1.00  0.00     0.093 A 
ATOM      8  C   UNL     1      31.761   5.557 106.558  1.00  0.00     0.123 A 
ATOM      9  C   UNL     1      31.680   5.634 105.170  1.00  0.00     0.094 A 
ATOM     10  C   UNL     1      32.291   4.666 104.369  1.00  0.00     0.146 A 
ATOM     11  O   UNL     1      32.170   4.767 103.051  1.00  0.00    -0.452 OA
ENDROOT
BRANCH   1  12
ATOM     12  C   UNL     1      32.476   4.118 100.750  1.00  0.00     0.021 A 
ATOM     13  C   UNL     1      32.079   3.077  99.892  1.00  0.00     0.016 A 
ATOM     14  C   UNL     1      31.866   3.326  98.532  1.00  0.00     0.047 A 
ATOM     15  C   UNL     1      32.037   4.617  98.017  1.00  0.00     0.115 A 
ATOM     16  C   UNL     1      32.624   5.414 100.230  1.00  0.00     0.016 A 
ATOM     17  C   UNL     1      32.413   5.659  98.869  1.00  0.00     0.047 A 
BRANCH  15  18
ATOM     18  O   UNL     1      31.830   4.876  96.664  1.00  0.00    -0.508 OA
ATOM     19  H   UNL     1      32.570   4.754  95.982  1.00  0.00     0.293 HD
ENDBRANCH  15  18
ENDBRANCH   1  12
BRANCH   2  20
ATOM     20  O   UNL     1      33.983   1.873 101.797  1.00  0.00    -0.502 OA
ATOM     21  H   UNL     1      34.727   1.244 102.073  1.00  0.00     0.293 HD
ENDBRANCH   2  20
BRANCH   6  22
ATOM     22  O   UNL     1      33.910   2.619 107.071  1.00  0.00    -0.507 OA
ATOM     23  H   UNL     1      33.602   2.107 107.884  1.00  0.00     0.293 HD
ENDBRANCH   6  22
BRANCH   8  24
ATOM     24  O   UNL     1      31.127   6.520 107.339  1.00  0.00    -0.508 OA
ATOM     25  H   UNL     1      30.117   6.568 107.404  1.00  0.00     0.293 HD
ENDBRANCH   8  24
TORSDOF 5
ENDMDL
MODEL 6
REMARK VINA RESULT:    -5.663      4.524      6.717
REMARK INTER + INTRA:          -6.952
REMARK INTER:                  -6.695
REMARK INTRA:                  -0.256
REMARK UNBOUND:                -0.296
REMARK SMILES O=c1c(O)c(-c2ccc(O)cc2)oc2cc(O)cc(O)c12
REMARK SMILES IDX 5 1 3 2 2 3 1 4 21 5 19 6 18 7 16 8 15 9 14 10 13 11 6 12
REMARK SMILES IDX 7 13 8 14 9 15 12 16 11 17 10 18 4 20 20 22 17 24
REMARK H PARENT 10 19 4 21 20 23 17 25
REMARK Flexibility Score: inf
ROOT
ATOM      1  C   UNL     1      30.488   2.150 102.351  1.00  0.00     0.180 A 
ATOM      2  C   UNL     1      31.475   2.732 101.538  1.00  0.00     0.208 A 
ATOM      3  C   UNL     1      32.328   3.702 102.090  1.00  0.00     0.238 A 
ATOM      4  O   UNL     1      33.256   4.163 101.378  1.00  0.00    -0.285 OA
ATOM      5  C   UNL     1      32.147   4.119 103.431  1.00  0.00     0.111 A 
ATOM      6  C   UNL     1      32.923   5.126 104.080  1.00  0.00     0.134 A 
ATOM      7  C   UNL     1      32.723   5.380 105.443  1.00  0.00     0.093 A 
ATOM      8  C   UNL     1      31.734   4.709 106.164  1.00  0.00     0.123 A 
ATOM      9  C   UNL     1      30.934   3.764 105.526  1.00  0.00     0.094 A 
ATOM     10  C   UNL     1      31.135   3.460 104.177  1.00  0.00     0.146 A 
ATOM     11  O   UNL     1      30.364   2.537 103.614  1.00  0.00    -0.452 OA
ENDROOT
BRANCH   1  12
ATOM     12  C   UNL     1      29.562   1.110 101.846  1.00  0.00     0.021 A 
ATOM     13  C   UNL     1      29.979  -0.222 101.672  1.00  0.00     0.016 A 
ATOM     14  C   UNL     1      29.079  -1.190 101.217  1.00  0.00     0.047 A 
ATOM     15  C   UNL     1      27.750  -0.843 100.943  1.00  0.00     0.115 A 
ATOM     16  C   UNL     1      28.223   1.446 101.589  1.00  0.00     0.016 A 
ATOM     17  C   UNL     1      27.324   0.475 101.133  1.00  0.00     0.047 A 
BRANCH  15  18
ATOM     18  O   UNL     1      26.845  -1.799 100.487  1.00  0.00    -0.508 OA
ATOM     19  H   UNL     1      25.852  -1.724 100.682  1.00  0.00     0.293 HD
ENDBRANCH  15  18
ENDBRANCH   1  12
BRANCH   2  20
ATOM     20  O   UNL     1      31.588   2.362 100.194  1.00  0.00    -0.502 OA
ATOM     21  H   UNL     1      30.901   2.627  99.498  1.00  0.00     0.293 HD
ENDBRANCH   2  20
BRANCH   6  22
ATOM     22  O   UNL     1      33.877   5.917 103.434  1.00  0.00    -0.507 OA
ATOM     23  H   UNL     1      33.931   6.923 103.494  1.00  0.00     0.293 HD
ENDBRANCH   6  22
BRANCH   8  24
ATOM     24  O   UNL     1      31.531   4.981 107.515  1.00  0.00    -0.508 OA
ATOM     25  H   UNL     1      30.947   5.751 107.819  1.00  0.00     0.293 HD
ENDBRANCH   8  24
TORSDOF 5
ENDMDL
MODEL 7
REMARK VINA RESULT:    -5.653      4.260      6.255
REMARK INTER + INTRA:          -6.940
REMARK INTER:                  -6.768
REMARK INTRA:                  -0.172
REMARK UNBOUND:                -0.296
REMARK SMILES O=c1c(O)c(-c2ccc(O)cc2)oc2cc(O)cc(O)c12
REMARK SMILES IDX 5 1 3 2 2 3 1 4 21 5 19 6 18 7 16 8 15 9 14 10 13 11 6 12
REMARK SMILES IDX 7 13 8 14 9 15 12 16 11 17 10 18 4 20 20 22 17 24
REMARK H PARENT 10 19 4 21 20 23 17 25
REMARK Flexibility Score: inf
ROOT
ATOM      1  C   UNL     1      29.650   2.317 103.895  1.00  0.00     0.180 A 
ATOM      2  C   UNL     1      29.051   1.838 105.072  1.00  0.00     0.208 A 
ATOM      3  C   UNL     1      27.984   0.930 104.973  1.00  0.00     0.238 A 
ATOM      4  O   UNL     1      27.502   0.449 106.030  1.00  0.00    -0.285 OA
ATOM      5  C   UNL     1      27.491   0.557 103.699  1.00  0.00     0.111 A 
ATOM      6  C   UNL     1      26.387  -0.319 103.480  1.00  0.00     0.134 A 
ATOM      7  C   UNL     1      26.056  -0.701 102.173  1.00  0.00     0.093 A 
ATOM      8  C   UNL     1      26.750  -0.188 101.075  1.00  0.00     0.123 A 
ATOM      9  C   UNL     1      27.795   0.711 101.275  1.00  0.00     0.094 A 
ATOM     10  C   UNL     1      28.173   1.081 102.568  1.00  0.00     0.146 A 
ATOM     11  O   UNL     1      29.188   1.924 102.714  1.00  0.00    -0.452 OA
ENDROOT
BRANCH   1  12
ATOM     12  C   UNL     1      30.790   3.263 103.918  1.00  0.00     0.021 A 
ATOM     13  C   UNL     1      32.071   2.879 103.485  1.00  0.00     0.016 A 
ATOM     14  C   UNL     1      33.125   3.798 103.493  1.00  0.00     0.047 A 
ATOM     15  C   UNL     1      32.909   5.114 103.923  1.00  0.00     0.115 A 
ATOM     16  C   UNL     1      30.576   4.590 104.327  1.00  0.00     0.016 A 
ATOM     17  C   UNL     1      31.632   5.507 104.336  1.00  0.00     0.047 A 
BRANCH  15  18
ATOM     18  O   UNL     1      33.951   6.037 103.937  1.00  0.00    -0.508 OA
ATOM     19  H   UNL     1      33.979   6.794 104.611  1.00  0.00     0.293 HD
ENDBRANCH  15  18
ENDBRANCH   1  12
BRANCH   2  20
ATOM     20  O   UNL     1      29.501   2.278 106.320  1.00  0.00    -0.502 OA
ATOM     21  H   UNL     1      29.012   2.983 106.857  1.00  0.00     0.293 HD
ENDBRANCH   2  20
BRANCH   6  22
ATOM     22  O   UNL     1      25.570  -0.820 104.498  1.00  0.00    -0.507 OA
ATOM     23  H   UNL     1      25.295  -0.309 105.323  1.00  0.00     0.293 HD
ENDBRANCH   6  22
BRANCH   8  24
ATOM     24  O   UNL     1      26.403  -0.560  99.778  1.00  0.00    -0.508 OA
ATOM     25  H   UNL     1      25.435  -0.671  99.499  1.00  0.00     0.293 HD
ENDBRANCH   8  24
TORSDOF 5
ENDMDL
MODEL 8
REMARK VINA RESULT:    -5.517      6.975      9.409
REMARK INTER + INTRA:          -6.780
REMARK INTER:                  -6.586
REMARK INTRA:                  -0.194
REMARK UNBOUND:                -0.296
REMARK SMILES O=c1c(O)c(-c2ccc(O)cc2)oc2cc(O)cc(O)c12
REMARK SMILES IDX 5 1 3 2 2 3 1 4 21 5 19 6 18 7 16 8 15 9 14 10 13 11 6 12
REMARK SMILES IDX 7 13 8 14 9 15 12 16 11 17 10 18 4 20 20 22 17 24
REMARK H PARENT 10 19 4 21 20 23 17 25
REMARK Flexibility Score: inf
ROOT
ATOM      1  C   UNL     1      24.634  -3.982 103.460  1.00  0.00     0.180 A 
ATOM      2  C   UNL     1      24.081  -5.018 104.232  1.00  0.00     0.208 A 
ATOM      3  C   UNL     1      23.033  -5.783 103.695  1.00  0.00     0.238 A 
ATOM      4  O   UNL     1      22.593  -6.755 104.360  1.00  0.00    -0.285 OA
ATOM      5  C   UNL     1      22.512  -5.466 102.416  1.00  0.00     0.111 A 
ATOM      6  C   UNL     1      21.422  -6.144 101.792  1.00  0.00     0.134 A 
ATOM      7  C   UNL     1      21.063  -5.813 100.479  1.00  0.00     0.093 A 
ATOM      8  C   UNL     1      21.712  -4.785  99.792  1.00  0.00     0.123 A 
ATOM      9  C   UNL     1      22.741  -4.081 100.412  1.00  0.00     0.094 A 
ATOM     10  C   UNL     1      23.148  -4.414 101.706  1.00  0.00     0.146 A 
ATOM     11  O   UNL     1      24.147  -3.730 102.252  1.00  0.00    -0.452 OA
ENDROOT
BRANCH   1  12
ATOM     12  C   UNL     1      25.751  -3.143 103.951  1.00  0.00     0.021 A 
ATOM     13  C   UNL     1      27.044  -3.669 104.124  1.00  0.00     0.016 A 
ATOM     14  C   UNL     1      28.087  -2.850 104.566  1.00  0.00     0.047 A 
ATOM     15  C   UNL     1      27.855  -1.493 104.828  1.00  0.00     0.115 A 
ATOM     16  C   UNL     1      25.531  -1.777 104.196  1.00  0.00     0.016 A 
ATOM     17  C   UNL     1      26.577  -0.960 104.639  1.00  0.00     0.047 A 
BRANCH  15  18
ATOM     18  O   UNL     1      28.887  -0.668 105.271  1.00  0.00    -0.508 OA
ATOM     19  H   UNL     1      28.784   0.340 105.298  1.00  0.00     0.293 HD
ENDBRANCH  15  18
ENDBRANCH   1  12
BRANCH   2  20
ATOM     20  O   UNL     1      24.557  -5.266 105.523  1.00  0.00    -0.502 OA
ATOM     21  H   UNL     1      25.540  -5.203 105.762  1.00  0.00     0.293 HD
ENDBRANCH   2  20
BRANCH   6  22
ATOM     22  O   UNL     1      20.648  -7.125 102.419  1.00  0.00    -0.507 OA
ATOM     23  H   UNL     1      20.778  -7.447 103.366  1.00  0.00     0.293 HD
ENDBRANCH   6  22
BRANCH   8  24
ATOM     24  O   UNL     1      21.336  -4.451  98.493  1.00  0.00    -0.508 OA
ATOM     25  H   UNL     1      21.989  -4.027  97.845  1.00  0.00     0.293 HD
ENDBRANCH   8  24
TORSDOF 5
ENDMDL
MODEL 9
REMARK VINA RESULT:    -5.426      9.938     11.031
REMARK INTER + INTRA:          -6.674
REMARK INTER:                  -6.780
REMARK INTRA:                   0.106
REMARK UNBOUND:                -0.296
REMARK SMILES O=c1c(O)c(-c2ccc(O)cc2)oc2cc(O)cc(O)c12
REMARK SMILES IDX 5 1 3 2 2 3 1 4 21 5 19 6 18 7 16 8 15 9 14 10 13 11 6 12
REMARK SMILES IDX 7 13 8 14 9 15 12 16 11 17 10 18 4 20 20 22 17 24
REMARK H PARENT 10 19 4 21 20 23 17 25
REMARK Flexibility Score: inf
ROOT
ATOM      1  C   UNL     1      22.733  -6.126 103.194  1.00  0.00     0.180 A 
ATOM      2  C   UNL     1      23.920  -6.613 102.621  1.00  0.00     0.208 A 
ATOM      3  C   UNL     1      24.057  -6.599 101.223  1.00  0.00     0.238 A 
ATOM      4  O   UNL     1      25.150  -6.966 100.721  1.00  0.00    -0.285 OA
ATOM      5  C   UNL     1      22.985  -6.151 100.414  1.00  0.00     0.111 A 
ATOM      6  C   UNL     1      22.996  -6.135  98.987  1.00  0.00     0.134 A 
ATOM      7  C   UNL     1      21.918  -5.570  98.294  1.00  0.00     0.093 A 
ATOM      8  C   UNL     1      20.801  -5.078  98.974  1.00  0.00     0.123 A 
ATOM      9  C   UNL     1      20.757  -5.140 100.364  1.00  0.00     0.094 A 
ATOM     10  C   UNL     1      21.833  -5.662 101.086  1.00  0.00     0.146 A 
ATOM     11  O   UNL     1      21.758  -5.682 102.411  1.00  0.00    -0.452 OA
ENDROOT
BRANCH   1  12
ATOM     12  C   UNL     1      22.520  -6.094 104.660  1.00  0.00     0.021 A 
ATOM     13  C   UNL     1      23.533  -5.671 105.539  1.00  0.00     0.016 A 
ATOM     14  C   UNL     1      23.299  -5.626 106.917  1.00  0.00     0.047 A 
ATOM     15  C   UNL     1      22.048  -5.992 107.431  1.00  0.00     0.115 A 
ATOM     16  C   UNL     1      21.262  -6.438 105.182  1.00  0.00     0.016 A 
ATOM     17  C   UNL     1      21.031  -6.394 106.560  1.00  0.00     0.047 A 
BRANCH  15  18
ATOM     18  O   UNL     1      21.805  -5.953 108.802  1.00  0.00    -0.508 OA
ATOM     19  H   UNL     1      21.920  -5.099 109.337  1.00  0.00     0.293 HD
ENDBRANCH  15  18
ENDBRANCH   1  12
BRANCH   2  20
ATOM     20  O   UNL     1      24.936  -7.123 103.433  1.00  0.00    -0.502 OA
ATOM     21  H   UNL     1      24.899  -7.076 104.445  1.00  0.00     0.293 HD
ENDBRANCH   2  20
BRANCH   6  22
ATOM     22  O   UNL     1      24.020  -6.679  98.205  1.00  0.00    -0.507 OA
ATOM     23  H   UNL     1      23.948  -6.885  97.221  1.00  0.00     0.293 HD
ENDBRANCH   6  22
BRANCH   8  24
ATOM     24  O   UNL     1      19.726  -4.534  98.275  1.00  0.00    -0.508 OA
ATOM     25  H   UNL     1      19.831  -4.183  97.331  1.00  0.00     0.293 HD
ENDBRANCH   8  24
TORSDOF 5
ENDMDL
