MODEL 1
REMARK VINA RESULT:    -5.908      0.000      0.000
REMARK INTER + INTRA:          -7.941
REMARK INTER:                  -8.153
REMARK INTRA:                   0.212
REMARK UNBOUND:                 0.212
REMARK SMILES O=C([O-])[C@H]1O[C@H](Oc2cc3oc(-c4ccccc4)cc(=O)c3c(O)c2O)[C@@H](O)[C@@H](O)[C@H]1O
REMARK SMILES IDX 7 1 6 2 4 3 31 4 5 5 29 6 27 7 2 8 1 9 3 10 32 11 30 13
REMARK SMILES IDX 28 15 8 17 25 18 9 19 23 20 10 21 22 22 11 23 20 24 12 25
REMARK SMILES IDX 19 26 21 27 26 28 24 30 13 32 14 33 18 34 15 35 17 36 16 37
REMARK H PARENT 32 12 30 14 28 16 26 29 24 31
REMARK Flexibility Score: inf
ROOT
ATOM      1  O   UNL     1      18.089  20.971  20.377  1.00  0.00    -0.458 OA
ENDROOT
BRANCH   1   2
ATOM      2  C   UNL     1      18.452  22.319  20.698  1.00  0.00     0.339 C 
ATOM      3  C   UNL     1      20.754  21.865  20.571  1.00  0.00     0.199 C 
ATOM      4  C   UNL     1      20.958  22.728  19.311  1.00  0.00     0.180 C 
ATOM      5  O   UNL     1      19.701  22.379  21.374  1.00  0.00    -0.328 OA
ATOM      6  C   UNL     1      19.642  22.771  18.512  1.00  0.00     0.181 C 
ATOM      7  C   UNL     1      18.466  23.183  19.419  1.00  0.00     0.214 C 
BRANCH   3   8
ATOM      8  C   UNL     1      22.016  21.817  21.383  1.00  0.00     0.073 C 
ATOM      9  O   UNL     1      22.362  22.803  22.088  1.00  0.00    -0.547 OA
ATOM     10  O   UNL     1      22.839  20.700  21.318  1.00  0.00    -0.547 OA
ENDBRANCH   3   8
BRANCH   4  11
ATOM     11  O   UNL     1      21.355  24.027  19.680  1.00  0.00    -0.387 OA
ATOM     12  H   UNL     1      20.658  24.382  20.290  1.00  0.00     0.211 HD
ENDBRANCH   4  11
BRANCH   6  13
ATOM     13  O   UNL     1      19.769  23.657  17.429  1.00  0.00    -0.387 OA
ATOM     14  H   UNL     1      19.031  24.320  17.512  1.00  0.00     0.211 HD
ENDBRANCH   6  13
BRANCH   7  15
ATOM     15  O   UNL     1      18.580  24.543  19.758  1.00  0.00    -0.384 OA
ATOM     16  H   UNL     1      19.538  24.710  19.963  1.00  0.00     0.211 HD
ENDBRANCH   7  15
ENDBRANCH   1   2
BRANCH   1  17
ATOM     17  C   UNL     1      18.644  19.796  20.917  1.00  0.00     0.172 A 
ATOM     18  C   UNL     1      18.084  19.072  21.993  1.00  0.00     0.201 A 
ATOM     19  C   UNL     1      19.830  19.345  20.339  1.00  0.00     0.098 A 
ATOM     20  C   UNL     1      18.743  17.934  22.506  1.00  0.00     0.176 A 
ATOM     21  C   UNL     1      20.475  18.203  20.806  1.00  0.00     0.146 A 
ATOM     22  C   UNL     1      19.935  17.460  21.882  1.00  0.00     0.111 A 
ATOM     23  O   UNL     1      21.607  17.829  20.217  1.00  0.00    -0.456 OA
ATOM     24  C   UNL     1      20.619  16.274  22.245  1.00  0.00     0.197 A 
ATOM     25  C   UNL     1      22.290  16.745  20.565  1.00  0.00     0.138 A 
ATOM     26  C   UNL     1      21.806  15.930  21.595  1.00  0.00     0.100 A 
ATOM     27  O   UNL     1      20.182  15.494  23.128  1.00  0.00    -0.289 OA
BRANCH  18  28
ATOM     28  O   UNL     1      16.875  19.480  22.555  1.00  0.00    -0.502 OA
ATOM     29  H   UNL     1      15.979  19.119  22.257  1.00  0.00     0.293 HD
ENDBRANCH  18  28
BRANCH  20  30
ATOM     30  O   UNL     1      18.188  17.340  23.645  1.00  0.00    -0.504 OA
ATOM     31  H   UNL     1      18.363  17.631  24.595  1.00  0.00     0.293 HD
ENDBRANCH  20  30
BRANCH  25  32
ATOM     32  C   UNL     1      23.558  16.439  19.854  1.00  0.00     0.017 A 
ATOM     33  C   UNL     1      24.639  17.344  19.842  1.00  0.00     0.012 A 
ATOM     34  C   UNL     1      23.699  15.207  19.190  1.00  0.00     0.012 A 
ATOM     35  C   UNL     1      25.820  17.028  19.160  1.00  0.00     0.001 A 
ATOM     36  C   UNL     1      24.882  14.895  18.509  1.00  0.00     0.001 A 
ATOM     37  C   UNL     1      25.940  15.805  18.492  1.00  0.00     0.000 A 
ENDBRANCH  25  32
ENDBRANCH   1  17
TORSDOF 9
ENDMDL
MODEL 2
REMARK VINA RESULT:    -5.832      3.269      4.872
REMARK INTER + INTRA:          -7.836
REMARK INTER:                  -8.519
REMARK INTRA:                   0.682
REMARK UNBOUND:                 0.212
REMARK SMILES O=C([O-])[C@H]1O[C@H](Oc2cc3oc(-c4ccccc4)cc(=O)c3c(O)c2O)[C@@H](O)[C@@H](O)[C@H]1O
REMARK SMILES IDX 7 1 6 2 4 3 31 4 5 5 29 6 27 7 2 8 1 9 3 10 32 11 30 13
REMARK SMILES IDX 28 15 8 17 25 18 9 19 23 20 10 21 22 22 11 23 20 24 12 25
REMARK SMILES IDX 19 26 21 27 26 28 24 30 13 32 14 33 18 34 15 35 17 36 16 37
REMARK H PARENT 32 12 30 14 28 16 26 29 24 31
REMARK Flexibility Score: inf
ROOT
ATOM      1  O   UNL     1      18.119  23.050  19.978  1.00  0.00    -0.458 OA
ENDROOT
BRANCH   1   2
ATOM      2  C   UNL     1      19.211  23.814  20.503  1.00  0.00     0.339 C 
ATOM      3  C   UNL     1      20.733  22.039  20.266  1.00  0.00     0.199 C 
ATOM      4  C   UNL     1      21.538  22.744  19.156  1.00  0.00     0.180 C 
ATOM      5  O   UNL     1      20.163  22.985  21.158  1.00  0.00    -0.328 OA
ATOM      6  C   UNL     1      20.610  23.709  18.397  1.00  0.00     0.181 C 
ATOM      7  C   UNL     1      19.870  24.640  19.378  1.00  0.00     0.214 C 
BRANCH   3   8
ATOM      8  C   UNL     1      21.615  21.101  21.038  1.00  0.00     0.073 C 
ATOM      9  O   UNL     1      22.606  21.538  21.683  1.00  0.00    -0.547 OA
ATOM     10  O   UNL     1      21.372  19.734  21.001  1.00  0.00    -0.547 OA
ENDBRANCH   3   8
BRANCH   4  11
ATOM     11  O   UNL     1      22.622  23.441  19.722  1.00  0.00    -0.387 OA
ATOM     12  H   UNL     1      22.248  24.239  20.177  1.00  0.00     0.211 HD
ENDBRANCH   4  11
BRANCH   6  13
ATOM     13  O   UNL     1      21.352  24.456  17.468  1.00  0.00    -0.387 OA
ATOM     14  H   UNL     1      21.295  25.407  17.753  1.00  0.00     0.211 HD
ENDBRANCH   6  13
BRANCH   7  15
ATOM     15  O   UNL     1      20.774  25.566  19.929  1.00  0.00    -0.384 OA
ATOM     16  H   UNL     1      20.270  26.411  20.074  1.00  0.00     0.211 HD
ENDBRANCH   7  15
ENDBRANCH   1   2
BRANCH   1  17
ATOM     17  C   UNL     1      18.111  21.672  19.694  1.00  0.00     0.172 A 
ATOM     18  C   UNL     1      18.133  21.128  18.390  1.00  0.00     0.201 A 
ATOM     19  C   UNL     1      18.067  20.811  20.789  1.00  0.00     0.098 A 
ATOM     20  C   UNL     1      18.063  19.731  18.200  1.00  0.00     0.176 A 
ATOM     21  C   UNL     1      18.037  19.429  20.623  1.00  0.00     0.146 A 
ATOM     22  C   UNL     1      18.058  18.858  19.328  1.00  0.00     0.111 A 
ATOM     23  O   UNL     1      17.989  18.661  21.708  1.00  0.00    -0.456 OA
ATOM     24  C   UNL     1      18.096  17.444  19.256  1.00  0.00     0.197 A 
ATOM     25  C   UNL     1      17.981  17.334  21.667  1.00  0.00     0.138 A 
ATOM     26  C   UNL     1      18.040  16.686  20.427  1.00  0.00     0.100 A 
ATOM     27  O   UNL     1      18.203  16.834  18.162  1.00  0.00    -0.289 OA
BRANCH  18  28
ATOM     28  O   UNL     1      18.222  21.970  17.282  1.00  0.00    -0.502 OA
ATOM     29  H   UNL     1      18.584  21.667  16.388  1.00  0.00     0.293 HD
ENDBRANCH  18  28
BRANCH  20  30
ATOM     30  O   UNL     1      17.972  19.274  16.880  1.00  0.00    -0.504 OA
ATOM     31  H   UNL     1      18.288  18.373  16.555  1.00  0.00     0.293 HD
ENDBRANCH  20  30
BRANCH  25  32
ATOM     32  C   UNL     1      17.898  16.579  22.942  1.00  0.00     0.017 A 
ATOM     33  C   UNL     1      16.930  15.576  23.150  1.00  0.00     0.012 A 
ATOM     34  C   UNL     1      18.821  16.851  23.969  1.00  0.00     0.012 A 
ATOM     35  C   UNL     1      16.875  14.884  24.365  1.00  0.00     0.001 A 
ATOM     36  C   UNL     1      18.763  16.156  25.183  1.00  0.00     0.001 A 
ATOM     37  C   UNL     1      17.789  15.175  25.382  1.00  0.00     0.000 A 
ENDBRANCH  25  32
ENDBRANCH   1  17
TORSDOF 9
ENDMDL
MODEL 3
REMARK VINA RESULT:    -5.555      1.429      2.219
REMARK INTER + INTRA:          -7.454
REMARK INTER:                  -7.031
REMARK INTRA:                  -0.423
REMARK UNBOUND:                 0.212
REMARK SMILES O=C([O-])[C@H]1O[C@H](Oc2cc3oc(-c4ccccc4)cc(=O)c3c(O)c2O)[C@@H](O)[C@@H](O)[C@H]1O
REMARK SMILES IDX 7 1 6 2 4 3 31 4 5 5 29 6 27 7 2 8 1 9 3 10 32 11 30 13
REMARK SMILES IDX 28 15 8 17 25 18 9 19 23 20 10 21 22 22 11 23 20 24 12 25
REMARK SMILES IDX 19 26 21 27 26 28 24 30 13 32 14 33 18 34 15 35 17 36 16 37
REMARK H PARENT 32 12 30 14 28 16 26 29 24 31
REMARK Flexibility Score: inf
ROOT
ATOM      1  O   UNL     1      18.636  21.337  21.518  1.00  0.00    -0.458 OA
ENDROOT
BRANCH   1   2
ATOM      2  C   UNL     1      17.895  22.067  20.533  1.00  0.00     0.339 C 
ATOM      3  C   UNL     1      19.787  23.253  19.802  1.00  0.00     0.199 C 
ATOM      4  C   UNL     1      19.813  22.562  18.424  1.00  0.00     0.180 C 
ATOM      5  O   UNL     1      18.460  23.350  20.296  1.00  0.00    -0.328 OA
ATOM      6  C   UNL     1      19.181  21.164  18.550  1.00  0.00     0.181 C 
ATOM      7  C   UNL     1      17.799  21.249  19.228  1.00  0.00     0.214 C 
BRANCH   3   8
ATOM      8  C   UNL     1      20.382  24.628  19.710  1.00  0.00     0.073 C 
ATOM      9  O   UNL     1      20.245  25.450  20.655  1.00  0.00    -0.547 OA
ATOM     10  O   UNL     1      21.045  25.019  18.554  1.00  0.00    -0.547 OA
ENDBRANCH   3   8
BRANCH   4  11
ATOM     11  O   UNL     1      19.109  23.341  17.486  1.00  0.00    -0.387 OA
ATOM     12  H   UNL     1      19.316  24.290  17.683  1.00  0.00     0.211 HD
ENDBRANCH   4  11
BRANCH   6  13
ATOM     13  O   UNL     1      19.077  20.570  17.282  1.00  0.00    -0.387 OA
ATOM     14  H   UNL     1      18.305  19.944  17.320  1.00  0.00     0.211 HD
ENDBRANCH   6  13
BRANCH   7  15
ATOM     15  O   UNL     1      16.875  21.847  18.352  1.00  0.00    -0.384 OA
ATOM     16  H   UNL     1      16.780  22.794  18.636  1.00  0.00     0.211 HD
ENDBRANCH   7  15
ENDBRANCH   1   2
BRANCH   1  17
ATOM     17  C   UNL     1      19.059  19.997  21.435  1.00  0.00     0.172 A 
ATOM     18  C   UNL     1      18.231  18.884  21.700  1.00  0.00     0.201 A 
ATOM     19  C   UNL     1      20.389  19.785  21.078  1.00  0.00     0.098 A 
ATOM     20  C   UNL     1      18.758  17.575  21.649  1.00  0.00     0.176 A 
ATOM     21  C   UNL     1      20.919  18.501  20.984  1.00  0.00     0.146 A 
ATOM     22  C   UNL     1      20.110  17.368  21.244  1.00  0.00     0.111 A 
ATOM     23  O   UNL     1      22.197  18.365  20.644  1.00  0.00    -0.456 OA
ATOM     24  C   UNL     1      20.712  16.100  21.056  1.00  0.00     0.197 A 
ATOM     25  C   UNL     1      22.796  17.188  20.502  1.00  0.00     0.138 A 
ATOM     26  C   UNL     1      22.060  16.015  20.703  1.00  0.00     0.100 A 
ATOM     27  O   UNL     1      20.064  15.029  21.175  1.00  0.00    -0.289 OA
BRANCH  18  28
ATOM     28  O   UNL     1      16.886  19.072  22.016  1.00  0.00    -0.502 OA
ATOM     29  H   UNL     1      16.475  18.758  22.885  1.00  0.00     0.293 HD
ENDBRANCH  18  28
BRANCH  20  30
ATOM     30  O   UNL     1      17.909  16.533  22.037  1.00  0.00    -0.504 OA
ATOM     31  H   UNL     1      18.141  15.552  22.001  1.00  0.00     0.293 HD
ENDBRANCH  20  30
BRANCH  25  32
ATOM     32  C   UNL     1      24.237  17.158  20.146  1.00  0.00     0.017 A 
ATOM     33  C   UNL     1      24.716  16.410  19.052  1.00  0.00     0.012 A 
ATOM     34  C   UNL     1      25.154  17.911  20.904  1.00  0.00     0.012 A 
ATOM     35  C   UNL     1      26.082  16.399  18.743  1.00  0.00     0.001 A 
ATOM     36  C   UNL     1      26.518  17.897  20.592  1.00  0.00     0.001 A 
ATOM     37  C   UNL     1      26.982  17.140  19.514  1.00  0.00     0.000 A 
ENDBRANCH  25  32
ENDBRANCH   1  17
TORSDOF 9
ENDMDL
MODEL 4
REMARK VINA RESULT:    -5.259      2.983      7.272
REMARK INTER + INTRA:          -7.046
REMARK INTER:                  -6.626
REMARK INTRA:                  -0.420
REMARK UNBOUND:                 0.212
REMARK SMILES O=C([O-])[C@H]1O[C@H](Oc2cc3oc(-c4ccccc4)cc(=O)c3c(O)c2O)[C@@H](O)[C@@H](O)[C@H]1O
REMARK SMILES IDX 7 1 6 2 4 3 31 4 5 5 29 6 27 7 2 8 1 9 3 10 32 11 30 13
REMARK SMILES IDX 28 15 8 17 25 18 9 19 23 20 10 21 22 22 11 23 20 24 12 25
REMARK SMILES IDX 19 26 21 27 26 28 24 30 13 32 14 33 18 34 15 35 17 36 16 37
REMARK H PARENT 32 12 30 14 28 16 26 29 24 31
REMARK Flexibility Score: inf
ROOT
ATOM      1  O   UNL     1      17.277  17.198  22.948  1.00  0.00    -0.458 OA
ENDROOT
BRANCH   1   2
ATOM      2  C   UNL     1      17.757  15.958  23.480  1.00  0.00     0.339 C 
ATOM      3  C   UNL     1      19.881  16.216  22.510  1.00  0.00     0.199 C 
ATOM      4  C   UNL     1      20.590  16.400  23.866  1.00  0.00     0.180 C 
ATOM      5  O   UNL     1      18.745  15.375  22.641  1.00  0.00    -0.328 OA
ATOM      6  C   UNL     1      19.594  16.994  24.879  1.00  0.00     0.181 C 
ATOM      7  C   UNL     1      18.293  16.168  24.913  1.00  0.00     0.214 C 
BRANCH   3   8
ATOM      8  C   UNL     1      20.823  15.621  21.503  1.00  0.00     0.073 C 
ATOM      9  O   UNL     1      22.068  15.646  21.698  1.00  0.00    -0.547 OA
ATOM     10  O   UNL     1      20.326  15.085  20.322  1.00  0.00    -0.547 OA
ENDBRANCH   3   8
BRANCH   4  11
ATOM     11  O   UNL     1      21.079  15.161  24.322  1.00  0.00    -0.387 OA
ATOM     12  H   UNL     1      21.638  14.784  23.595  1.00  0.00     0.211 HD
ENDBRANCH   4  11
BRANCH   6  13
ATOM     13  O   UNL     1      20.182  17.049  26.153  1.00  0.00    -0.387 OA
ATOM     14  H   UNL     1      21.165  16.978  26.019  1.00  0.00     0.211 HD
ENDBRANCH   6  13
BRANCH   7  15
ATOM     15  O   UNL     1      18.535  14.924  25.522  1.00  0.00    -0.384 OA
ATOM     16  H   UNL     1      19.188  14.443  24.948  1.00  0.00     0.211 HD
ENDBRANCH   7  15
ENDBRANCH   1   2
BRANCH   1  17
ATOM     17  C   UNL     1      17.547  17.731  21.674  1.00  0.00     0.172 A 
ATOM     18  C   UNL     1      17.383  17.021  20.463  1.00  0.00     0.201 A 
ATOM     19  C   UNL     1      18.014  19.044  21.634  1.00  0.00     0.098 A 
ATOM     20  C   UNL     1      17.735  17.618  19.234  1.00  0.00     0.176 A 
ATOM     21  C   UNL     1      18.329  19.665  20.428  1.00  0.00     0.146 A 
ATOM     22  C   UNL     1      18.175  18.975  19.202  1.00  0.00     0.111 A 
ATOM     23  O   UNL     1      18.777  20.916  20.457  1.00  0.00    -0.456 OA
ATOM     24  C   UNL     1      18.452  19.706  18.021  1.00  0.00     0.197 A 
ATOM     25  C   UNL     1      19.084  21.610  19.367  1.00  0.00     0.138 A 
ATOM     26  C   UNL     1      18.923  21.018  18.109  1.00  0.00     0.100 A 
ATOM     27  O   UNL     1      18.267  19.222  16.875  1.00  0.00    -0.289 OA
BRANCH  18  28
ATOM     28  O   UNL     1      16.875  15.723  20.478  1.00  0.00    -0.502 OA
ATOM     29  H   UNL     1      16.546  15.251  19.646  1.00  0.00     0.293 HD
ENDBRANCH  18  28
BRANCH  20  30
ATOM     30  O   UNL     1      17.655  16.814  18.092  1.00  0.00    -0.504 OA
ATOM     31  H   UNL     1      18.142  15.940  17.963  1.00  0.00     0.293 HD
ENDBRANCH  20  30
BRANCH  25  32
ATOM     32  C   UNL     1      19.601  22.993  19.522  1.00  0.00     0.017 A 
ATOM     33  C   UNL     1      19.502  23.690  20.743  1.00  0.00     0.012 A 
ATOM     34  C   UNL     1      20.227  23.624  18.431  1.00  0.00     0.012 A 
ATOM     35  C   UNL     1      19.997  24.995  20.857  1.00  0.00     0.001 A 
ATOM     36  C   UNL     1      20.720  24.929  18.549  1.00  0.00     0.001 A 
ATOM     37  C   UNL     1      20.603  25.615  19.760  1.00  0.00     0.000 A 
ENDBRANCH  25  32
ENDBRANCH   1  17
TORSDOF 9
ENDMDL
MODEL 5
REMARK VINA RESULT:    -4.596      2.121      5.211
REMARK INTER + INTRA:          -6.130
REMARK INTER:                  -5.219
REMARK INTRA:                  -0.911
REMARK UNBOUND:                 0.212
REMARK SMILES O=C([O-])[C@H]1O[C@H](Oc2cc3oc(-c4ccccc4)cc(=O)c3c(O)c2O)[C@@H](O)[C@@H](O)[C@H]1O
REMARK SMILES IDX 7 1 6 2 4 3 31 4 5 5 29 6 27 7 2 8 1 9 3 10 32 11 30 13
REMARK SMILES IDX 28 15 8 17 25 18 9 19 23 20 10 21 22 22 11 23 20 24 12 25
REMARK SMILES IDX 19 26 21 27 26 28 24 30 13 32 14 33 18 34 15 35 17 36 16 37
REMARK H PARENT 32 12 30 14 28 16 26 29 24 31
REMARK Flexibility Score: inf
ROOT
ATOM      1  O   UNL     1      22.025  22.045  20.650  1.00  0.00    -0.458 OA
ENDROOT
BRANCH   1   2
ATOM      2  C   UNL     1      21.640  22.815  19.504  1.00  0.00     0.339 C 
ATOM      3  C   UNL     1      19.391  22.154  19.658  1.00  0.00     0.199 C 
ATOM      4  C   UNL     1      18.897  23.563  20.043  1.00  0.00     0.180 C 
ATOM      5  O   UNL     1      20.538  22.228  18.825  1.00  0.00    -0.328 OA
ATOM      6  C   UNL     1      20.034  24.316  20.757  1.00  0.00     0.181 C 
ATOM      7  C   UNL     1      21.330  24.268  19.923  1.00  0.00     0.214 C 
BRANCH   3   8
ATOM      8  C   UNL     1      18.308  21.397  18.943  1.00  0.00     0.073 C 
ATOM      9  O   UNL     1      17.652  20.502  19.539  1.00  0.00    -0.547 OA
ATOM     10  O   UNL     1      18.061  21.648  17.599  1.00  0.00    -0.547 OA
ENDBRANCH   3   8
BRANCH   4  11
ATOM     11  O   UNL     1      18.491  24.259  18.889  1.00  0.00    -0.387 OA
ATOM     12  H   UNL     1      17.815  23.695  18.433  1.00  0.00     0.211 HD
ENDBRANCH   4  11
BRANCH   6  13
ATOM     13  O   UNL     1      19.649  25.645  21.000  1.00  0.00    -0.387 OA
ATOM     14  H   UNL     1      19.738  26.132  20.137  1.00  0.00     0.211 HD
ENDBRANCH   6  13
BRANCH   7  15
ATOM     15  O   UNL     1      21.191  25.077  18.781  1.00  0.00    -0.384 OA
ATOM     16  H   UNL     1      21.342  26.015  19.072  1.00  0.00     0.211 HD
ENDBRANCH   7  15
ENDBRANCH   1   2
BRANCH   1  17
ATOM     17  C   UNL     1      22.180  20.648  20.716  1.00  0.00     0.172 A 
ATOM     18  C   UNL     1      23.255  19.938  20.135  1.00  0.00     0.201 A 
ATOM     19  C   UNL     1      21.188  19.943  21.395  1.00  0.00     0.098 A 
ATOM     20  C   UNL     1      23.297  18.529  20.202  1.00  0.00     0.176 A 
ATOM     21  C   UNL     1      21.231  18.556  21.505  1.00  0.00     0.146 A 
ATOM     22  C   UNL     1      22.297  17.821  20.933  1.00  0.00     0.111 A 
ATOM     23  O   UNL     1      20.251  17.941  22.160  1.00  0.00    -0.456 OA
ATOM     24  C   UNL     1      22.297  16.422  21.154  1.00  0.00     0.197 A 
ATOM     25  C   UNL     1      20.205  16.627  22.346  1.00  0.00     0.138 A 
ATOM     26  C   UNL     1      21.240  15.827  21.846  1.00  0.00     0.100 A 
ATOM     27  O   UNL     1      23.237  15.684  20.766  1.00  0.00    -0.289 OA
BRANCH  18  28
ATOM     28  O   UNL     1      24.281  20.628  19.490  1.00  0.00    -0.502 OA
ATOM     29  H   UNL     1      24.897  21.271  19.968  1.00  0.00     0.293 HD
ENDBRANCH  18  28
BRANCH  20  30
ATOM     30  O   UNL     1      24.328  17.891  19.504  1.00  0.00    -0.504 OA
ATOM     31  H   UNL     1      24.216  17.076  18.920  1.00  0.00     0.293 HD
ENDBRANCH  20  30
BRANCH  25  32
ATOM     32  C   UNL     1      19.046  16.047  23.071  1.00  0.00     0.017 A 
ATOM     33  C   UNL     1      17.968  15.448  22.388  1.00  0.00     0.012 A 
ATOM     34  C   UNL     1      19.026  16.073  24.478  1.00  0.00     0.012 A 
ATOM     35  C   UNL     1      16.888  14.912  23.099  1.00  0.00     0.001 A 
ATOM     36  C   UNL     1      17.944  15.536  25.185  1.00  0.00     0.001 A 
ATOM     37  C   UNL     1      16.875  14.958  24.496  1.00  0.00     0.000 A 
ENDBRANCH  25  32
ENDBRANCH   1  17
TORSDOF 9
ENDMDL
MODEL 6
REMARK VINA RESULT:    -4.332      2.902      4.770
REMARK INTER + INTRA:          -5.766
REMARK INTER:                  -6.047
REMARK INTRA:                   0.280
REMARK UNBOUND:                 0.212
REMARK SMILES O=C([O-])[C@H]1O[C@H](Oc2cc3oc(-c4ccccc4)cc(=O)c3c(O)c2O)[C@@H](O)[C@@H](O)[C@H]1O
REMARK SMILES IDX 7 1 6 2 4 3 31 4 5 5 29 6 27 7 2 8 1 9 3 10 32 11 30 13
REMARK SMILES IDX 28 15 8 17 25 18 9 19 23 20 10 21 22 22 11 23 20 24 12 25
REMARK SMILES IDX 19 26 21 27 26 28 24 30 13 32 14 33 18 34 15 35 17 36 16 37
REMARK H PARENT 32 12 30 14 28 16 26 29 24 31
REMARK Flexibility Score: inf
ROOT
ATOM      1  O   UNL     1      19.973  22.849  19.046  1.00  0.00    -0.458 OA
ENDROOT
BRANCH   1   2
ATOM      2  C   UNL     1      19.472  23.972  19.781  1.00  0.00     0.339 C 
ATOM      3  C   UNL     1      18.731  22.635  21.565  1.00  0.00     0.199 C 
ATOM      4  C   UNL     1      19.774  23.196  22.552  1.00  0.00     0.180 C 
ATOM      5  O   UNL     1      18.368  23.611  20.601  1.00  0.00    -0.328 OA
ATOM      6  C   UNL     1      21.012  23.662  21.765  1.00  0.00     0.181 C 
ATOM      7  C   UNL     1      20.605  24.606  20.616  1.00  0.00     0.214 C 
BRANCH   3   8
ATOM      8  C   UNL     1      17.502  22.186  22.302  1.00  0.00     0.073 C 
ATOM      9  O   UNL     1      17.045  22.866  23.259  1.00  0.00    -0.547 OA
ATOM     10  O   UNL     1      16.890  20.986  21.961  1.00  0.00    -0.547 OA
ENDBRANCH   3   8
BRANCH   4  11
ATOM     11  O   UNL     1      19.218  24.266  23.278  1.00  0.00    -0.387 OA
ATOM     12  H   UNL     1      19.893  24.992  23.288  1.00  0.00     0.211 HD
ENDBRANCH   4  11
BRANCH   6  13
ATOM     13  O   UNL     1      21.919  24.295  22.630  1.00  0.00    -0.387 OA
ATOM     14  H   UNL     1      22.496  24.876  22.066  1.00  0.00     0.211 HD
ENDBRANCH   6  13
BRANCH   7  15
ATOM     15  O   UNL     1      20.181  25.840  21.142  1.00  0.00    -0.384 OA
ATOM     16  H   UNL     1      20.998  26.384  21.295  1.00  0.00     0.211 HD
ENDBRANCH   7  15
ENDBRANCH   1   2
BRANCH   1  17
ATOM     17  C   UNL     1      19.377  21.579  18.932  1.00  0.00     0.172 A 
ATOM     18  C   UNL     1      18.486  21.208  17.900  1.00  0.00     0.201 A 
ATOM     19  C   UNL     1      19.694  20.651  19.922  1.00  0.00     0.098 A 
ATOM     20  C   UNL     1      17.890  19.928  17.899  1.00  0.00     0.176 A 
ATOM     21  C   UNL     1      19.147  19.371  19.918  1.00  0.00     0.146 A 
ATOM     22  C   UNL     1      18.253  18.974  18.895  1.00  0.00     0.111 A 
ATOM     23  O   UNL     1      19.484  18.534  20.894  1.00  0.00    -0.456 OA
ATOM     24  C   UNL     1      17.800  17.632  18.931  1.00  0.00     0.197 A 
ATOM     25  C   UNL     1      19.042  17.285  20.975  1.00  0.00     0.138 A 
ATOM     26  C   UNL     1      18.183  16.797  19.982  1.00  0.00     0.100 A 
ATOM     27  O   UNL     1      17.073  17.148  18.027  1.00  0.00    -0.289 OA
BRANCH  18  28
ATOM     28  O   UNL     1      18.190  22.106  16.875  1.00  0.00    -0.502 OA
ATOM     29  H   UNL     1      17.332  22.640  16.842  1.00  0.00     0.293 HD
ENDBRANCH  18  28
BRANCH  20  30
ATOM     30  O   UNL     1      16.932  19.675  16.911  1.00  0.00    -0.504 OA
ATOM     31  H   UNL     1      16.525  20.372  16.306  1.00  0.00     0.293 HD
ENDBRANCH  20  30
BRANCH  25  32
ATOM     32  C   UNL     1      19.464  16.448  22.126  1.00  0.00     0.017 A 
ATOM     33  C   UNL     1      20.719  15.805  22.155  1.00  0.00     0.012 A 
ATOM     34  C   UNL     1      18.604  16.305  23.231  1.00  0.00     0.012 A 
ATOM     35  C   UNL     1      21.087  15.020  23.255  1.00  0.00     0.001 A 
ATOM     36  C   UNL     1      18.977  15.519  24.327  1.00  0.00     0.001 A 
ATOM     37  C   UNL     1      20.216  14.876  24.338  1.00  0.00     0.000 A 
ENDBRANCH  25  32
ENDBRANCH   1  17
TORSDOF 9
ENDMDL
MODEL 7
REMARK VINA RESULT:    -4.094      2.106      6.786
REMARK INTER + INTRA:          -5.437
REMARK INTER:                  -5.551
REMARK INTRA:                   0.114
REMARK UNBOUND:                 0.212
REMARK SMILES O=C([O-])[C@H]1O[C@H](Oc2cc3oc(-c4ccccc4)cc(=O)c3c(O)c2O)[C@@H](O)[C@@H](O)[C@H]1O
REMARK SMILES IDX 7 1 6 2 4 3 31 4 5 5 29 6 27 7 2 8 1 9 3 10 32 11 30 13
REMARK SMILES IDX 28 15 8 17 25 18 9 19 23 20 10 21 22 22 11 23 20 24 12 25
REMARK SMILES IDX 19 26 21 27 26 28 24 30 13 32 14 33 18 34 15 35 17 36 16 37
REMARK H PARENT 32 12 30 14 28 16 26 29 24 31
REMARK Flexibility Score: inf
ROOT
ATOM      1  O   UNL     1      21.372  16.113  20.623  1.00  0.00    -0.458 OA
ENDROOT
BRANCH   1   2
ATOM      2  C   UNL     1      22.715  16.014  21.111  1.00  0.00     0.339 C 
ATOM      3  C   UNL     1      23.639  16.071  18.952  1.00  0.00     0.199 C 
ATOM      4  C   UNL     1      24.288  17.455  19.157  1.00  0.00     0.180 C 
ATOM      5  O   UNL     1      23.564  15.359  20.178  1.00  0.00    -0.328 OA
ATOM      6  C   UNL     1      23.468  18.247  20.191  1.00  0.00     0.181 C 
ATOM      7  C   UNL     1      23.253  17.415  21.471  1.00  0.00     0.214 C 
BRANCH   3   8
ATOM      8  C   UNL     1      24.427  15.265  17.960  1.00  0.00     0.073 C 
ATOM      9  O   UNL     1      23.903  14.895  16.875  1.00  0.00    -0.547 OA
ATOM     10  O   UNL     1      25.727  14.878  18.259  1.00  0.00    -0.547 OA
ENDBRANCH   3   8
BRANCH   4  11
ATOM     11  O   UNL     1      25.617  17.300  19.594  1.00  0.00    -0.387 OA
ATOM     12  H   UNL     1      25.748  16.337  19.790  1.00  0.00     0.211 HD
ENDBRANCH   4  11
BRANCH   6  13
ATOM     13  O   UNL     1      24.113  19.458  20.488  1.00  0.00    -0.387 OA
ATOM     14  H   UNL     1      24.525  19.779  19.641  1.00  0.00     0.211 HD
ENDBRANCH   6  13
BRANCH   7  15
ATOM     15  O   UNL     1      24.466  17.298  22.172  1.00  0.00    -0.384 OA
ATOM     16  H   UNL     1      25.195  17.333  21.497  1.00  0.00     0.211 HD
ENDBRANCH   7  15
ENDBRANCH   1   2
BRANCH   1  17
ATOM     17  C   UNL     1      20.440  17.127  20.914  1.00  0.00     0.172 A 
ATOM     18  C   UNL     1      19.346  16.974  21.795  1.00  0.00     0.201 A 
ATOM     19  C   UNL     1      20.627  18.348  20.268  1.00  0.00     0.098 A 
ATOM     20  C   UNL     1      18.428  18.029  21.980  1.00  0.00     0.176 A 
ATOM     21  C   UNL     1      19.754  19.414  20.467  1.00  0.00     0.146 A 
ATOM     22  C   UNL     1      18.650  19.287  21.345  1.00  0.00     0.111 A 
ATOM     23  O   UNL     1      19.982  20.551  19.817  1.00  0.00    -0.456 OA
ATOM     24  C   UNL     1      17.856  20.443  21.541  1.00  0.00     0.197 A 
ATOM     25  C   UNL     1      19.229  21.636  19.951  1.00  0.00     0.138 A 
ATOM     26  C   UNL     1      18.139  21.610  20.829  1.00  0.00     0.100 A 
ATOM     27  O   UNL     1      16.904  20.469  22.362  1.00  0.00    -0.289 OA
BRANCH  18  28
ATOM     28  O   UNL     1      19.167  15.776  22.485  1.00  0.00    -0.502 OA
ATOM     29  H   UNL     1      18.261  15.345  22.615  1.00  0.00     0.293 HD
ENDBRANCH  18  28
BRANCH  20  30
ATOM     30  O   UNL     1      17.307  17.763  22.776  1.00  0.00    -0.504 OA
ATOM     31  H   UNL     1      17.023  18.306  23.577  1.00  0.00     0.293 HD
ENDBRANCH  20  30
BRANCH  25  32
ATOM     32  C   UNL     1      19.564  22.842  19.153  1.00  0.00     0.017 A 
ATOM     33  C   UNL     1      20.374  23.874  19.669  1.00  0.00     0.012 A 
ATOM     34  C   UNL     1      19.080  22.957  17.836  1.00  0.00     0.012 A 
ATOM     35  C   UNL     1      20.669  25.000  18.892  1.00  0.00     0.001 A 
ATOM     36  C   UNL     1      19.378  24.085  17.063  1.00  0.00     0.001 A 
ATOM     37  C   UNL     1      20.170  25.107  17.591  1.00  0.00     0.000 A 
ENDBRANCH  25  32
ENDBRANCH   1  17
TORSDOF 9
ENDMDL
MODEL 8
REMARK VINA RESULT:    -3.824      2.612      7.149
REMARK INTER + INTRA:          -5.065
REMARK INTER:                  -6.566
REMARK INTRA:                   1.501
REMARK UNBOUND:                 0.212
REMARK SMILES O=C([O-])[C@H]1O[C@H](Oc2cc3oc(-c4ccccc4)cc(=O)c3c(O)c2O)[C@@H](O)[C@@H](O)[C@H]1O
REMARK SMILES IDX 7 1 6 2 4 3 31 4 5 5 29 6 27 7 2 8 1 9 3 10 32 11 30 13
REMARK SMILES IDX 28 15 8 17 25 18 9 19 23 20 10 21 22 22 11 23 20 24 12 25
REMARK SMILES IDX 19 26 21 27 26 28 24 30 13 32 14 33 18 34 15 35 17 36 16 37
REMARK H PARENT 32 12 30 14 28 16 26 29 24 31
REMARK Flexibility Score: inf
ROOT
ATOM      1  O   UNL     1      18.481  16.138  21.654  1.00  0.00    -0.458 OA
ENDROOT
BRANCH   1   2
ATOM      2  C   UNL     1      19.679  15.375  21.840  1.00  0.00     0.339 C 
ATOM      3  C   UNL     1      20.516  15.930  19.717  1.00  0.00     0.199 C 
ATOM      4  C   UNL     1      21.668  16.784  20.282  1.00  0.00     0.180 C 
ATOM      5  O   UNL     1      20.180  14.877  20.607  1.00  0.00    -0.328 OA
ATOM      6  C   UNL     1      21.250  17.349  21.652  1.00  0.00     0.181 C 
ATOM      7  C   UNL     1      20.739  16.224  22.574  1.00  0.00     0.214 C 
BRANCH   3   8
ATOM      8  C   UNL     1      20.899  15.349  18.386  1.00  0.00     0.073 C 
ATOM      9  O   UNL     1      22.103  15.084  18.126  1.00  0.00    -0.547 OA
ATOM     10  O   UNL     1      19.929  15.151  17.412  1.00  0.00    -0.547 OA
ENDBRANCH   3   8
BRANCH   4  11
ATOM     11  O   UNL     1      22.830  15.999  20.404  1.00  0.00    -0.387 OA
ATOM     12  H   UNL     1      22.611  15.249  21.015  1.00  0.00     0.211 HD
ENDBRANCH   4  11
BRANCH   6  13
ATOM     13  O   UNL     1      22.332  18.022  22.243  1.00  0.00    -0.387 OA
ATOM     14  H   UNL     1      22.937  18.298  21.503  1.00  0.00     0.211 HD
ENDBRANCH   6  13
BRANCH   7  15
ATOM     15  O   UNL     1      21.815  15.409  22.972  1.00  0.00    -0.384 OA
ATOM     16  H   UNL     1      21.975  14.761  22.236  1.00  0.00     0.211 HD
ENDBRANCH   7  15
ENDBRANCH   1   2
BRANCH   1  17
ATOM     17  C   UNL     1      18.246  17.114  20.667  1.00  0.00     0.172 A 
ATOM     18  C   UNL     1      17.585  16.865  19.443  1.00  0.00     0.201 A 
ATOM     19  C   UNL     1      18.717  18.398  20.937  1.00  0.00     0.098 A 
ATOM     20  C   UNL     1      17.446  17.894  18.487  1.00  0.00     0.176 A 
ATOM     21  C   UNL     1      18.556  19.436  20.023  1.00  0.00     0.146 A 
ATOM     22  C   UNL     1      17.897  19.213  18.790  1.00  0.00     0.111 A 
ATOM     23  O   UNL     1      19.033  20.636  20.336  1.00  0.00    -0.456 OA
ATOM     24  C   UNL     1      17.715  20.341  17.952  1.00  0.00     0.197 A 
ATOM     25  C   UNL     1      18.913  21.700  19.550  1.00  0.00     0.138 A 
ATOM     26  C   UNL     1      18.241  21.578  18.329  1.00  0.00     0.100 A 
ATOM     27  O   UNL     1      17.070  20.276  16.875  1.00  0.00    -0.289 OA
BRANCH  18  28
ATOM     28  O   UNL     1      17.068  15.599  19.173  1.00  0.00    -0.502 OA
ATOM     29  H   UNL     1      17.424  15.004  18.438  1.00  0.00     0.293 HD
ENDBRANCH  18  28
BRANCH  20  30
ATOM     30  O   UNL     1      16.885  17.542  17.254  1.00  0.00    -0.504 OA
ATOM     31  H   UNL     1      15.909  17.629  17.015  1.00  0.00     0.293 HD
ENDBRANCH  20  30
BRANCH  25  32
ATOM     32  C   UNL     1      19.510  22.986  19.992  1.00  0.00     0.017 A 
ATOM     33  C   UNL     1      19.606  23.331  21.355  1.00  0.00     0.012 A 
ATOM     34  C   UNL     1      20.014  23.882  19.030  1.00  0.00     0.012 A 
ATOM     35  C   UNL     1      20.172  24.552  21.739  1.00  0.00     0.001 A 
ATOM     36  C   UNL     1      20.578  25.102  19.419  1.00  0.00     0.001 A 
ATOM     37  C   UNL     1      20.655  25.438  20.772  1.00  0.00     0.000 A 
ENDBRANCH  25  32
ENDBRANCH   1  17
TORSDOF 9
ENDMDL
MODEL 9
REMARK VINA RESULT:    -3.822      3.400      5.069
REMARK INTER + INTRA:          -5.063
REMARK INTER:                  -5.217
REMARK INTRA:                   0.155
REMARK UNBOUND:                 0.212
REMARK SMILES O=C([O-])[C@H]1O[C@H](Oc2cc3oc(-c4ccccc4)cc(=O)c3c(O)c2O)[C@@H](O)[C@@H](O)[C@H]1O
REMARK SMILES IDX 7 1 6 2 4 3 31 4 5 5 29 6 27 7 2 8 1 9 3 10 32 11 30 13
REMARK SMILES IDX 28 15 8 17 25 18 9 19 23 20 10 21 22 22 11 23 20 24 12 25
REMARK SMILES IDX 19 26 21 27 26 28 24 30 13 32 14 33 18 34 15 35 17 36 16 37
REMARK H PARENT 32 12 30 14 28 16 26 29 24 31
REMARK Flexibility Score: inf
ROOT
ATOM      1  O   UNL     1      18.773  22.872  19.397  1.00  0.00    -0.458 OA
ENDROOT
BRANCH   1   2
ATOM      2  C   UNL     1      20.038  23.541  19.347  1.00  0.00     0.339 C 
ATOM      3  C   UNL     1      20.311  23.471  21.680  1.00  0.00     0.199 C 
ATOM      4  C   UNL     1      21.490  22.480  21.614  1.00  0.00     0.180 C 
ATOM      5  O   UNL     1      20.278  24.298  20.527  1.00  0.00    -0.328 OA
ATOM      6  C   UNL     1      21.359  21.625  20.341  1.00  0.00     0.181 C 
ATOM      7  C   UNL     1      21.168  22.519  19.100  1.00  0.00     0.214 C 
BRANCH   3   8
ATOM      8  C   UNL     1      20.420  24.334  22.904  1.00  0.00     0.073 C 
ATOM      9  O   UNL     1      19.513  24.321  23.779  1.00  0.00    -0.547 OA
ATOM     10  O   UNL     1      21.502  25.192  23.052  1.00  0.00    -0.547 OA
ENDBRANCH   3   8
BRANCH   4  11
ATOM     11  O   UNL     1      22.708  23.186  21.612  1.00  0.00    -0.387 OA
ATOM     12  H   UNL     1      22.601  23.948  20.987  1.00  0.00     0.211 HD
ENDBRANCH   4  11
BRANCH   6  13
ATOM     13  O   UNL     1      22.490  20.806  20.195  1.00  0.00    -0.387 OA
ATOM     14  H   UNL     1      22.161  19.906  19.930  1.00  0.00     0.211 HD
ENDBRANCH   6  13
BRANCH   7  15
ATOM     15  O   UNL     1      22.369  23.191  18.809  1.00  0.00    -0.384 OA
ATOM     16  H   UNL     1      22.449  23.935  19.463  1.00  0.00     0.211 HD
ENDBRANCH   7  15
ENDBRANCH   1   2
BRANCH   1  17
ATOM     17  C   UNL     1      18.545  21.487  19.298  1.00  0.00     0.172 A 
ATOM     18  C   UNL     1      18.271  20.810  18.089  1.00  0.00     0.201 A 
ATOM     19  C   UNL     1      18.586  20.763  20.488  1.00  0.00     0.098 A 
ATOM     20  C   UNL     1      17.997  19.425  18.094  1.00  0.00     0.176 A 
ATOM     21  C   UNL     1      18.356  19.390  20.509  1.00  0.00     0.146 A 
ATOM     22  C   UNL     1      18.081  18.687  19.311  1.00  0.00     0.111 A 
ATOM     23  O   UNL     1      18.403  18.757  21.677  1.00  0.00    -0.456 OA
ATOM     24  C   UNL     1      17.930  17.283  19.417  1.00  0.00     0.197 A 
ATOM     25  C   UNL     1      18.224  17.448  21.809  1.00  0.00     0.138 A 
ATOM     26  C   UNL     1      17.985  16.670  20.670  1.00  0.00     0.100 A 
ATOM     27  O   UNL     1      17.768  16.551  18.408  1.00  0.00    -0.289 OA
BRANCH  18  28
ATOM     28  O   UNL     1      18.270  21.508  16.882  1.00  0.00    -0.502 OA
ATOM     29  H   UNL     1      19.078  22.005  16.532  1.00  0.00     0.293 HD
ENDBRANCH  18  28
BRANCH  20  30
ATOM     30  O   UNL     1      17.622  18.848  16.875  1.00  0.00    -0.504 OA
ATOM     31  H   UNL     1      18.242  18.679  16.098  1.00  0.00     0.293 HD
ENDBRANCH  20  30
BRANCH  25  32
ATOM     32  C   UNL     1      18.271  16.852  23.169  1.00  0.00     0.017 A 
ATOM     33  C   UNL     1      19.407  16.978  23.995  1.00  0.00     0.012 A 
ATOM     34  C   UNL     1      17.149  16.161  23.662  1.00  0.00     0.012 A 
ATOM     35  C   UNL     1      19.422  16.403  25.271  1.00  0.00     0.001 A 
ATOM     36  C   UNL     1      17.169  15.588  24.938  1.00  0.00     0.001 A 
ATOM     37  C   UNL     1      18.305  15.706  25.741  1.00  0.00     0.000 A 
ENDBRANCH  25  32
ENDBRANCH   1  17
TORSDOF 9
ENDMDL
