MODEL 1
REMARK VINA RESULT:    -3.696      0.000      0.000
REMARK INTER + INTRA:          -7.073
REMARK INTER:                  -5.857
REMARK INTRA:                  -1.215
REMARK UNBOUND:                -1.215
REMARK SMILES CCCCCCCCCCCC(=O)[O-]
REMARK SMILES IDX 7 1 8 2 9 3 10 4 11 5 12 6 13 7 14 8 6 9 5 10 4 11 3 12 2 13
REMARK SMILES IDX 1 14
REMARK H PARENT
REMARK Flexibility Score: inf
ROOT
ATOM      1  C   UNL     1      22.264  36.129  37.855  1.00  0.00     0.000 C 
ENDROOT
BRANCH   1   2
ATOM      2  C   UNL     1      22.006  36.218  36.343  1.00  0.00     0.000 C 
BRANCH   2   3
ATOM      3  C   UNL     1      22.233  37.631  35.781  1.00  0.00     0.000 C 
BRANCH   3   4
ATOM      4  C   UNL     1      21.049  38.165  34.947  1.00  0.00     0.006 C 
BRANCH   4   5
ATOM      5  C   UNL     1      20.624  37.182  33.849  1.00  0.00     0.053 C 
BRANCH   5   6
ATOM      6  C   UNL     1      19.153  36.922  33.919  1.00  0.00     0.041 C 
ATOM      7  O   UNL     1      18.418  37.627  34.661  1.00  0.00    -0.550 OA
ATOM      8  O   UNL     1      18.598  35.868  33.203  1.00  0.00    -0.550 OA
ENDBRANCH   5   6
ENDBRANCH   4   5
ENDBRANCH   3   4
ENDBRANCH   2   3
ENDBRANCH   1   2
BRANCH   1   9
ATOM      9  C   UNL     1      23.073  37.323  38.387  1.00  0.00     0.000 C 
BRANCH   9  10
ATOM     10  C   UNL     1      22.530  37.859  39.724  1.00  0.00    -0.000 C 
BRANCH  10  11
ATOM     11  C   UNL     1      21.448  38.939  39.538  1.00  0.00    -0.000 C 
BRANCH  11  12
ATOM     12  C   UNL     1      20.143  38.686  40.314  1.00  0.00    -0.000 C 
BRANCH  12  13
ATOM     13  C   UNL     1      19.101  37.909  39.496  1.00  0.00    -0.003 C 
ATOM     14  C   UNL     1      19.015  38.440  38.068  1.00  0.00     0.004 C 
ENDBRANCH  12  13
ENDBRANCH  11  12
ENDBRANCH  10  11
ENDBRANCH   9  10
ENDBRANCH   1   9
TORSDOF 10
ENDMDL
MODEL 2
REMARK VINA RESULT:    -3.670      1.568      2.735
REMARK INTER + INTRA:          -7.030
REMARK INTER:                  -5.497
REMARK INTRA:                  -1.534
REMARK UNBOUND:                -1.215
REMARK SMILES CCCCCCCCCCCC(=O)[O-]
REMARK SMILES IDX 7 1 8 2 9 3 10 4 11 5 12 6 13 7 14 8 6 9 5 10 4 11 3 12 2 13
REMARK SMILES IDX 1 14
REMARK H PARENT
REMARK Flexibility Score: inf
ROOT
ATOM      1  C   UNL     1      22.381  37.803  35.506  1.00  0.00     0.000 C 
ENDROOT
BRANCH   1   2
ATOM      2  C   UNL     1      21.211  38.682  35.037  1.00  0.00     0.000 C 
BRANCH   2   3
ATOM      3  C   UNL     1      20.792  39.727  36.084  1.00  0.00     0.000 C 
BRANCH   3   4
ATOM      4  C   UNL     1      19.275  39.751  36.365  1.00  0.00     0.006 C 
BRANCH   4   5
ATOM      5  C   UNL     1      18.599  38.420  36.011  1.00  0.00     0.053 C 
BRANCH   5   6
ATOM      6  C   UNL     1      17.446  38.648  35.086  1.00  0.00     0.041 C 
ATOM      7  O   UNL     1      16.726  37.681  34.719  1.00  0.00    -0.550 OA
ATOM      8  O   UNL     1      17.195  39.920  34.588  1.00  0.00    -0.550 OA
ENDBRANCH   5   6
ENDBRANCH   4   5
ENDBRANCH   3   4
ENDBRANCH   2   3
ENDBRANCH   1   2
BRANCH   1   9
ATOM      9  C   UNL     1      21.937  36.381  35.885  1.00  0.00     0.000 C 
BRANCH   9  10
ATOM     10  C   UNL     1      22.175  36.063  37.372  1.00  0.00    -0.000 C 
BRANCH  10  11
ATOM     11  C   UNL     1      21.056  36.599  38.284  1.00  0.00    -0.000 C 
BRANCH  11  12
ATOM     12  C   UNL     1      21.459  37.792  39.168  1.00  0.00    -0.000 C 
BRANCH  12  13
ATOM     13  C   UNL     1      20.250  38.550  39.737  1.00  0.00    -0.003 C 
ATOM     14  C   UNL     1      18.971  37.730  39.599  1.00  0.00     0.004 C 
ENDBRANCH  12  13
ENDBRANCH  11  12
ENDBRANCH  10  11
ENDBRANCH   9  10
ENDBRANCH   1   9
TORSDOF 10
ENDMDL
MODEL 3
REMARK VINA RESULT:    -3.655     10.021     11.477
REMARK INTER + INTRA:          -7.007
REMARK INTER:                  -6.666
REMARK INTRA:                  -0.341
REMARK UNBOUND:                -1.215
REMARK SMILES CCCCCCCCCCCC(=O)[O-]
REMARK SMILES IDX 7 1 8 2 9 3 10 4 11 5 12 6 13 7 14 8 6 9 5 10 4 11 3 12 2 13
REMARK SMILES IDX 1 14
REMARK H PARENT
REMARK Flexibility Score: inf
ROOT
ATOM      1  C   UNL     1      14.216  40.751  29.767  1.00  0.00     0.000 C 
ENDROOT
BRANCH   1   2
ATOM      2  C   UNL     1      13.892  41.124  28.312  1.00  0.00     0.000 C 
BRANCH   2   3
ATOM      3  C   UNL     1      14.870  40.499  27.304  1.00  0.00     0.000 C 
BRANCH   3   4
ATOM      4  C   UNL     1      14.717  38.971  27.156  1.00  0.00     0.006 C 
BRANCH   4   5
ATOM      5  C   UNL     1      15.237  38.464  25.804  1.00  0.00     0.053 C 
BRANCH   5   6
ATOM      6  C   UNL     1      14.398  37.329  25.312  1.00  0.00     0.041 C 
ATOM      7  O   UNL     1      13.340  37.555  24.668  1.00  0.00    -0.550 OA
ATOM      8  O   UNL     1      14.758  36.019  25.606  1.00  0.00    -0.550 OA
ENDBRANCH   5   6
ENDBRANCH   4   5
ENDBRANCH   3   4
ENDBRANCH   2   3
ENDBRANCH   1   2
BRANCH   1   9
ATOM      9  C   UNL     1      13.053  41.052  30.727  1.00  0.00     0.000 C 
BRANCH   9  10
ATOM     10  C   UNL     1      13.321  40.555  32.158  1.00  0.00    -0.000 C 
BRANCH  10  11
ATOM     11  C   UNL     1      12.027  40.283  32.948  1.00  0.00    -0.000 C 
BRANCH  11  12
ATOM     12  C   UNL     1      10.790  41.048  32.443  1.00  0.00    -0.000 C 
BRANCH  12  13
ATOM     13  C   UNL     1       9.604  40.125  32.127  1.00  0.00    -0.003 C 
ATOM     14  C   UNL     1       8.280  40.773  32.522  1.00  0.00     0.004 C 
ENDBRANCH  12  13
ENDBRANCH  11  12
ENDBRANCH  10  11
ENDBRANCH   9  10
ENDBRANCH   1   9
TORSDOF 10
ENDMDL
MODEL 4
REMARK VINA RESULT:    -3.602      1.265      2.547
REMARK INTER + INTRA:          -6.923
REMARK INTER:                  -5.489
REMARK INTRA:                  -1.434
REMARK UNBOUND:                -1.215
REMARK SMILES CCCCCCCCCCCC(=O)[O-]
REMARK SMILES IDX 7 1 8 2 9 3 10 4 11 5 12 6 13 7 14 8 6 9 5 10 4 11 3 12 2 13
REMARK SMILES IDX 1 14
REMARK H PARENT
REMARK Flexibility Score: inf
ROOT
ATOM      1  C   UNL     1      21.784  38.104  35.363  1.00  0.00     0.000 C 
ENDROOT
BRANCH   1   2
ATOM      2  C   UNL     1      20.475  38.889  35.544  1.00  0.00     0.000 C 
BRANCH   2   3
ATOM      3  C   UNL     1      19.257  37.976  35.760  1.00  0.00     0.000 C 
BRANCH   3   4
ATOM      4  C   UNL     1      18.133  38.187  34.725  1.00  0.00     0.006 C 
BRANCH   4   5
ATOM      5  C   UNL     1      18.659  38.164  33.284  1.00  0.00     0.053 C 
BRANCH   5   6
ATOM      6  C   UNL     1      19.059  36.777  32.893  1.00  0.00     0.041 C 
ATOM      7  O   UNL     1      20.209  36.555  32.430  1.00  0.00    -0.550 OA
ATOM      8  O   UNL     1      18.145  35.735  32.994  1.00  0.00    -0.550 OA
ENDBRANCH   5   6
ENDBRANCH   4   5
ENDBRANCH   3   4
ENDBRANCH   2   3
ENDBRANCH   1   2
BRANCH   1   9
ATOM      9  C   UNL     1      21.633  36.614  35.714  1.00  0.00     0.000 C 
BRANCH   9  10
ATOM     10  C   UNL     1      22.320  36.246  37.041  1.00  0.00    -0.000 C 
BRANCH  10  11
ATOM     11  C   UNL     1      21.396  36.422  38.260  1.00  0.00    -0.000 C 
BRANCH  11  12
ATOM     12  C   UNL     1      21.678  37.675  39.109  1.00  0.00    -0.000 C 
BRANCH  12  13
ATOM     13  C   UNL     1      20.440  38.566  39.289  1.00  0.00    -0.003 C 
ATOM     14  C   UNL     1      19.173  37.726  39.427  1.00  0.00     0.004 C 
ENDBRANCH  12  13
ENDBRANCH  11  12
ENDBRANCH  10  11
ENDBRANCH   9  10
ENDBRANCH   1   9
TORSDOF 10
ENDMDL
MODEL 5
REMARK VINA RESULT:    -3.584      2.880      5.961
REMARK INTER + INTRA:          -6.894
REMARK INTER:                  -5.405
REMARK INTRA:                  -1.489
REMARK UNBOUND:                -1.215
REMARK SMILES CCCCCCCCCCCC(=O)[O-]
REMARK SMILES IDX 7 1 8 2 9 3 10 4 11 5 12 6 13 7 14 8 6 9 5 10 4 11 3 12 2 13
REMARK SMILES IDX 1 14
REMARK H PARENT
REMARK Flexibility Score: inf
ROOT
ATOM      1  C   UNL     1      17.015  38.087  34.384  1.00  0.00     0.000 C 
ENDROOT
BRANCH   1   2
ATOM      2  C   UNL     1      17.719  39.442  34.560  1.00  0.00     0.000 C 
BRANCH   2   3
ATOM      3  C   UNL     1      18.684  39.462  35.756  1.00  0.00     0.000 C 
BRANCH   3   4
ATOM      4  C   UNL     1      18.615  38.192  36.630  1.00  0.00     0.006 C 
BRANCH   4   5
ATOM      5  C   UNL     1      19.958  37.878  37.303  1.00  0.00     0.053 C 
BRANCH   5   6
ATOM      6  C   UNL     1      19.844  38.011  38.788  1.00  0.00     0.041 C 
ATOM      7  O   UNL     1      20.862  38.274  39.481  1.00  0.00    -0.550 OA
ATOM      8  O   UNL     1      18.622  37.797  39.414  1.00  0.00    -0.550 OA
ENDBRANCH   5   6
ENDBRANCH   4   5
ENDBRANCH   3   4
ENDBRANCH   2   3
ENDBRANCH   1   2
BRANCH   1   9
ATOM      9  C   UNL     1      17.383  37.399  33.059  1.00  0.00     0.000 C 
BRANCH   9  10
ATOM     10  C   UNL     1      18.463  36.316  33.233  1.00  0.00    -0.000 C 
BRANCH  10  11
ATOM     11  C   UNL     1      19.833  36.745  32.678  1.00  0.00    -0.000 C 
BRANCH  11  12
ATOM     12  C   UNL     1      20.890  37.071  33.748  1.00  0.00    -0.000 C 
BRANCH  12  13
ATOM     13  C   UNL     1      21.491  38.476  33.588  1.00  0.00    -0.003 C 
ATOM     14  C   UNL     1      22.507  38.768  34.688  1.00  0.00     0.004 C 
ENDBRANCH  12  13
ENDBRANCH  11  12
ENDBRANCH  10  11
ENDBRANCH   9  10
ENDBRANCH   1   9
TORSDOF 10
ENDMDL
MODEL 6
REMARK VINA RESULT:    -3.568      2.984      5.562
REMARK INTER + INTRA:          -6.870
REMARK INTER:                  -5.620
REMARK INTRA:                  -1.250
REMARK UNBOUND:                -1.215
REMARK SMILES CCCCCCCCCCCC(=O)[O-]
REMARK SMILES IDX 7 1 8 2 9 3 10 4 11 5 12 6 13 7 14 8 6 9 5 10 4 11 3 12 2 13
REMARK SMILES IDX 1 14
REMARK H PARENT
REMARK Flexibility Score: inf
ROOT
ATOM      1  C   UNL     1      20.845  37.001  34.547  1.00  0.00     0.000 C 
ENDROOT
BRANCH   1   2
ATOM      2  C   UNL     1      21.370  38.411  34.859  1.00  0.00     0.000 C 
BRANCH   2   3
ATOM      3  C   UNL     1      20.900  38.934  36.226  1.00  0.00     0.000 C 
BRANCH   3   4
ATOM      4  C   UNL     1      20.121  37.891  37.055  1.00  0.00     0.006 C 
BRANCH   4   5
ATOM      5  C   UNL     1      18.991  38.527  37.875  1.00  0.00     0.053 C 
BRANCH   5   6
ATOM      6  C   UNL     1      19.293  38.444  39.337  1.00  0.00     0.041 C 
ATOM      7  O   UNL     1      18.819  37.505  40.030  1.00  0.00    -0.550 OA
ATOM      8  O   UNL     1      20.058  39.431  39.947  1.00  0.00    -0.550 OA
ENDBRANCH   5   6
ENDBRANCH   4   5
ENDBRANCH   3   4
ENDBRANCH   2   3
ENDBRANCH   1   2
BRANCH   1   9
ATOM      9  C   UNL     1      20.153  36.919  33.176  1.00  0.00     0.000 C 
BRANCH   9  10
ATOM     10  C   UNL     1      18.770  36.248  33.249  1.00  0.00    -0.000 C 
BRANCH  10  11
ATOM     11  C   UNL     1      17.665  37.086  32.581  1.00  0.00    -0.000 C 
BRANCH  11  12
ATOM     12  C   UNL     1      16.563  37.583  33.534  1.00  0.00    -0.000 C 
BRANCH  12  13
ATOM     13  C   UNL     1      17.120  38.152  34.848  1.00  0.00    -0.003 C 
ATOM     14  C   UNL     1      17.535  39.611  34.683  1.00  0.00     0.004 C 
ENDBRANCH  12  13
ENDBRANCH  11  12
ENDBRANCH  10  11
ENDBRANCH   9  10
ENDBRANCH   1   9
TORSDOF 10
ENDMDL
MODEL 7
REMARK VINA RESULT:    -3.555      1.362      3.561
REMARK INTER + INTRA:          -6.849
REMARK INTER:                  -5.343
REMARK INTRA:                  -1.506
REMARK UNBOUND:                -1.215
REMARK SMILES CCCCCCCCCCCC(=O)[O-]
REMARK SMILES IDX 7 1 8 2 9 3 10 4 11 5 12 6 13 7 14 8 6 9 5 10 4 11 3 12 2 13
REMARK SMILES IDX 1 14
REMARK H PARENT
REMARK Flexibility Score: inf
ROOT
ATOM      1  C   UNL     1      20.283  38.524  39.557  1.00  0.00     0.000 C 
ENDROOT
BRANCH   1   2
ATOM      2  C   UNL     1      19.234  38.735  38.454  1.00  0.00     0.000 C 
BRANCH   2   3
ATOM      3  C   UNL     1      19.670  39.772  37.406  1.00  0.00     0.000 C 
BRANCH   3   4
ATOM      4  C   UNL     1      19.023  39.563  36.020  1.00  0.00     0.006 C 
BRANCH   4   5
ATOM      5  C   UNL     1      18.653  38.095  35.768  1.00  0.00     0.053 C 
BRANCH   5   6
ATOM      6  C   UNL     1      18.593  37.815  34.301  1.00  0.00     0.041 C 
ATOM      7  O   UNL     1      18.680  36.632  33.876  1.00  0.00    -0.550 OA
ATOM      8  O   UNL     1      18.489  38.864  33.395  1.00  0.00    -0.550 OA
ENDBRANCH   5   6
ENDBRANCH   4   5
ENDBRANCH   3   4
ENDBRANCH   2   3
ENDBRANCH   1   2
BRANCH   1   9
ATOM      9  C   UNL     1      21.510  37.739  39.062  1.00  0.00     0.000 C 
BRANCH   9  10
ATOM     10  C   UNL     1      21.129  36.545  38.169  1.00  0.00    -0.000 C 
BRANCH  10  11
ATOM     11  C   UNL     1      22.240  36.169  37.171  1.00  0.00    -0.000 C 
BRANCH  11  12
ATOM     12  C   UNL     1      21.986  36.619  35.721  1.00  0.00    -0.000 C 
BRANCH  12  13
ATOM     13  C   UNL     1      22.425  38.068  35.459  1.00  0.00    -0.003 C 
ATOM     14  C   UNL     1      22.115  38.485  34.025  1.00  0.00     0.004 C 
ENDBRANCH  12  13
ENDBRANCH  11  12
ENDBRANCH  10  11
ENDBRANCH   9  10
ENDBRANCH   1   9
TORSDOF 10
ENDMDL
MODEL 8
REMARK VINA RESULT:    -3.543      1.382      2.080
REMARK INTER + INTRA:          -6.830
REMARK INTER:                  -5.603
REMARK INTRA:                  -1.228
REMARK UNBOUND:                -1.215
REMARK SMILES CCCCCCCCCCCC(=O)[O-]
REMARK SMILES IDX 7 1 8 2 9 3 10 4 11 5 12 6 13 7 14 8 6 9 5 10 4 11 3 12 2 13
REMARK SMILES IDX 1 14
REMARK H PARENT
REMARK Flexibility Score: inf
ROOT
ATOM      1  C   UNL     1      22.555  37.715  36.400  1.00  0.00     0.000 C 
ENDROOT
BRANCH   1   2
ATOM      2  C   UNL     1      21.948  38.029  35.023  1.00  0.00     0.000 C 
BRANCH   2   3
ATOM      3  C   UNL     1      21.087  36.879  34.474  1.00  0.00     0.000 C 
BRANCH   3   4
ATOM      4  C   UNL     1      20.094  37.317  33.378  1.00  0.00     0.006 C 
BRANCH   4   5
ATOM      5  C   UNL     1      18.833  36.444  33.355  1.00  0.00     0.053 C 
BRANCH   5   6
ATOM      6  C   UNL     1      17.621  37.279  33.093  1.00  0.00     0.041 C 
ATOM      7  O   UNL     1      17.487  37.873  31.990  1.00  0.00    -0.550 OA
ATOM      8  O   UNL     1      16.661  37.444  34.084  1.00  0.00    -0.550 OA
ENDBRANCH   5   6
ENDBRANCH   4   5
ENDBRANCH   3   4
ENDBRANCH   2   3
ENDBRANCH   1   2
BRANCH   1   9
ATOM      9  C   UNL     1      22.349  36.249  36.815  1.00  0.00     0.000 C 
BRANCH   9  10
ATOM     10  C   UNL     1      21.754  36.110  38.228  1.00  0.00    -0.000 C 
BRANCH  10  11
ATOM     11  C   UNL     1      21.246  37.448  38.795  1.00  0.00    -0.000 C 
BRANCH  11  12
ATOM     12  C   UNL     1      19.714  37.582  38.861  1.00  0.00    -0.000 C 
BRANCH  12  13
ATOM     13  C   UNL     1      19.192  38.835  38.141  1.00  0.00    -0.003 C 
ATOM     14  C   UNL     1      18.693  38.497  36.739  1.00  0.00     0.004 C 
ENDBRANCH  12  13
ENDBRANCH  11  12
ENDBRANCH  10  11
ENDBRANCH   9  10
ENDBRANCH   1   9
TORSDOF 10
ENDMDL
MODEL 9
REMARK VINA RESULT:    -3.531      2.435      5.445
REMARK INTER + INTRA:          -6.810
REMARK INTER:                  -5.526
REMARK INTRA:                  -1.285
REMARK UNBOUND:                -1.215
REMARK SMILES CCCCCCCCCCCC(=O)[O-]
REMARK SMILES IDX 7 1 8 2 9 3 10 4 11 5 12 6 13 7 14 8 6 9 5 10 4 11 3 12 2 13
REMARK SMILES IDX 1 14
REMARK H PARENT
REMARK Flexibility Score: inf
ROOT
ATOM      1  C   UNL     1      21.593  38.208  34.950  1.00  0.00     0.000 C 
ENDROOT
BRANCH   1   2
ATOM      2  C   UNL     1      21.613  36.700  35.250  1.00  0.00     0.000 C 
BRANCH   2   3
ATOM      3  C   UNL     1      22.280  36.368  36.595  1.00  0.00     0.000 C 
BRANCH   3   4
ATOM      4  C   UNL     1      21.861  37.310  37.744  1.00  0.00     0.006 C 
BRANCH   4   5
ATOM      5  C   UNL     1      20.612  36.807  38.480  1.00  0.00     0.053 C 
BRANCH   5   6
ATOM      6  C   UNL     1      19.748  37.956  38.891  1.00  0.00     0.041 C 
ATOM      7  O   UNL     1      19.992  39.117  38.467  1.00  0.00    -0.550 OA
ATOM      8  O   UNL     1      18.701  37.754  39.782  1.00  0.00    -0.550 OA
ENDBRANCH   5   6
ENDBRANCH   4   5
ENDBRANCH   3   4
ENDBRANCH   2   3
ENDBRANCH   1   2
BRANCH   1   9
ATOM      9  C   UNL     1      20.165  38.772  34.855  1.00  0.00     0.000 C 
BRANCH   9  10
ATOM     10  C   UNL     1      19.090  37.722  35.187  1.00  0.00    -0.000 C 
BRANCH  10  11
ATOM     11  C   UNL     1      18.178  37.402  33.989  1.00  0.00    -0.000 C 
BRANCH  11  12
ATOM     12  C   UNL     1      18.802  36.472  32.932  1.00  0.00    -0.000 C 
BRANCH  12  13
ATOM     13  C   UNL     1      19.055  37.176  31.590  1.00  0.00    -0.003 C 
ATOM     14  C   UNL     1      20.524  37.080  31.187  1.00  0.00     0.004 C 
ENDBRANCH  12  13
ENDBRANCH  11  12
ENDBRANCH  10  11
ENDBRANCH   9  10
ENDBRANCH   1   9
TORSDOF 10
ENDMDL
