MODEL 1
REMARK VINA RESULT:    -3.519      0.000      0.000
REMARK INTER + INTRA:          -4.932
REMARK INTER:                  -4.548
REMARK INTRA:                  -0.384
REMARK UNBOUND:                -0.384
REMARK SMILES CCO[C@@H]1O[C@@H](CO)[C@@H](O)[C@@H](O)[C@H]1O
REMARK SMILES IDX 4 1 13 2 11 3 9 4 6 5 5 6 3 7 2 8 1 9 14 10 12 12 7 14 8 15
REMARK SMILES IDX 10 17
REMARK H PARENT 14 11 12 13 8 16 10 18
REMARK Flexibility Score: inf
ROOT
ATOM      1  C   UNL     1      19.654  27.250  39.750  1.00  0.00     0.281 C 
ATOM      2  C   UNL     1      19.444  26.535  41.098  1.00  0.00     0.202 C 
ATOM      3  C   UNL     1      19.392  25.006  40.890  1.00  0.00     0.179 C 
ATOM      4  C   UNL     1      20.590  24.528  40.056  1.00  0.00     0.177 C 
ATOM      5  C   UNL     1      20.679  25.377  38.765  1.00  0.00     0.178 C 
ATOM      6  O   UNL     1      20.806  26.755  39.078  1.00  0.00    -0.341 OA
ENDROOT
BRANCH   1   7
ATOM      7  O   UNL     1      18.488  27.123  38.948  1.00  0.00    -0.350 OA
BRANCH   7   8
ATOM      8  C   UNL     1      18.250  28.302  38.202  1.00  0.00     0.160 C 
ATOM      9  C   UNL     1      18.120  27.971  36.721  1.00  0.00     0.035 C 
ENDBRANCH   7   8
ENDBRANCH   1   7
BRANCH   2  10
ATOM     10  O   UNL     1      20.491  26.881  41.969  1.00  0.00    -0.385 OA
ATOM     11  H   UNL     1      20.139  27.576  42.584  1.00  0.00     0.211 HD
ENDBRANCH   2  10
BRANCH   3  12
ATOM     12  O   UNL     1      19.376  24.335  42.124  1.00  0.00    -0.387 OA
ATOM     13  H   UNL     1      18.423  24.149  42.336  1.00  0.00     0.211 HD
ENDBRANCH   3  12
BRANCH   5  14
ATOM     14  C   UNL     1      21.872  24.964  37.888  1.00  0.00     0.191 C 
BRANCH  14  15
ATOM     15  O   UNL     1      22.093  23.580  37.956  1.00  0.00    -0.394 OA
ATOM     16  H   UNL     1      22.412  23.300  37.058  1.00  0.00     0.210 HD
ENDBRANCH  14  15
ENDBRANCH   5  14
BRANCH   4  17
ATOM     17  O   UNL     1      21.772  24.651  40.809  1.00  0.00    -0.387 OA
ATOM     18  H   UNL     1      22.335  23.860  40.601  1.00  0.00     0.211 HD
ENDBRANCH   4  17
TORSDOF 7
ENDMDL
MODEL 2
REMARK VINA RESULT:    -3.459      1.873      3.638
REMARK INTER + INTRA:          -4.854
REMARK INTER:                  -4.519
REMARK INTRA:                  -0.335
REMARK UNBOUND:                -0.384
REMARK SMILES CCO[C@@H]1O[C@@H](CO)[C@@H](O)[C@@H](O)[C@H]1O
REMARK SMILES IDX 4 1 13 2 11 3 9 4 6 5 5 6 3 7 2 8 1 9 14 10 12 12 7 14 8 15
REMARK SMILES IDX 10 17
REMARK H PARENT 14 11 12 13 8 16 10 18
REMARK Flexibility Score: inf
ROOT
ATOM      1  C   UNL     1      21.108  26.208  37.447  1.00  0.00     0.281 C 
ATOM      2  C   UNL     1      21.575  25.272  38.578  1.00  0.00     0.202 C 
ATOM      3  C   UNL     1      21.313  25.923  39.953  1.00  0.00     0.179 C 
ATOM      4  C   UNL     1      19.863  26.424  40.052  1.00  0.00     0.177 C 
ATOM      5  C   UNL     1      19.549  27.308  38.821  1.00  0.00     0.178 C 
ATOM      6  O   UNL     1      19.746  26.583  37.618  1.00  0.00    -0.341 OA
ENDROOT
BRANCH   1   7
ATOM      7  O   UNL     1      21.957  27.345  37.378  1.00  0.00    -0.350 OA
BRANCH   7   8
ATOM      8  C   UNL     1      21.870  27.971  36.111  1.00  0.00     0.160 C 
ATOM      9  C   UNL     1      22.125  26.955  35.004  1.00  0.00     0.035 C 
ENDBRANCH   7   8
ENDBRANCH   1   7
BRANCH   2  10
ATOM     10  O   UNL     1      20.893  24.047  38.471  1.00  0.00    -0.385 OA
ATOM     11  H   UNL     1      20.843  23.827  37.504  1.00  0.00     0.211 HD
ENDBRANCH   2  10
BRANCH   3  12
ATOM     12  O   UNL     1      21.571  25.014  40.992  1.00  0.00    -0.387 OA
ATOM     13  H   UNL     1      21.542  25.532  41.839  1.00  0.00     0.211 HD
ENDBRANCH   3  12
BRANCH   5  14
ATOM     14  C   UNL     1      18.104  27.831  38.845  1.00  0.00     0.191 C 
BRANCH  14  15
ATOM     15  O   UNL     1      17.272  27.054  38.026  1.00  0.00    -0.394 OA
ATOM     16  H   UNL     1      17.586  27.188  37.094  1.00  0.00     0.210 HD
ENDBRANCH  14  15
ENDBRANCH   5  14
BRANCH   4  17
ATOM     17  O   UNL     1      18.985  25.327  40.108  1.00  0.00    -0.387 OA
ATOM     18  H   UNL     1      19.517  24.540  40.397  1.00  0.00     0.211 HD
ENDBRANCH   4  17
TORSDOF 7
ENDMDL
MODEL 3
REMARK VINA RESULT:    -3.457     22.502     24.113
REMARK INTER + INTRA:          -4.851
REMARK INTER:                  -4.493
REMARK INTRA:                  -0.359
REMARK UNBOUND:                -0.384
REMARK SMILES CCO[C@@H]1O[C@@H](CO)[C@@H](O)[C@@H](O)[C@H]1O
REMARK SMILES IDX 4 1 13 2 11 3 9 4 6 5 5 6 3 7 2 8 1 9 14 10 12 12 7 14 8 15
REMARK SMILES IDX 10 17
REMARK H PARENT 14 11 12 13 8 16 10 18
REMARK Flexibility Score: inf
ROOT
ATOM      1  C   UNL     1       6.534  13.889  24.218  1.00  0.00     0.281 C 
ATOM      2  C   UNL     1       4.993  13.894  24.223  1.00  0.00     0.202 C 
ATOM      3  C   UNL     1       4.463  15.343  24.285  1.00  0.00     0.179 C 
ATOM      4  C   UNL     1       5.134  16.216  23.213  1.00  0.00     0.177 C 
ATOM      5  C   UNL     1       6.670  16.059  23.321  1.00  0.00     0.178 C 
ATOM      6  O   UNL     1       7.048  14.700  23.168  1.00  0.00    -0.341 OA
ENDROOT
BRANCH   1   7
ATOM      7  O   UNL     1       7.023  14.306  25.485  1.00  0.00    -0.350 OA
BRANCH   7   8
ATOM      8  C   UNL     1       8.115  13.506  25.899  1.00  0.00     0.160 C 
ATOM      9  C   UNL     1       7.935  13.080  27.351  1.00  0.00     0.035 C 
ENDBRANCH   7   8
ENDBRANCH   1   7
BRANCH   2  10
ATOM     10  O   UNL     1       4.529  13.246  23.065  1.00  0.00    -0.385 OA
ATOM     11  H   UNL     1       4.666  13.873  22.308  1.00  0.00     0.211 HD
ENDBRANCH   2  10
BRANCH   3  12
ATOM     12  O   UNL     1       3.069  15.372  24.115  1.00  0.00    -0.387 OA
ATOM     13  H   UNL     1       2.669  15.219  25.011  1.00  0.00     0.211 HD
ENDBRANCH   3  12
BRANCH   5  14
ATOM     14  C   UNL     1       7.407  16.894  22.262  1.00  0.00     0.191 C 
BRANCH  14  15
ATOM     15  O   UNL     1       6.676  18.042  21.925  1.00  0.00    -0.394 OA
ATOM     16  H   UNL     1       6.636  18.073  20.934  1.00  0.00     0.210 HD
ENDBRANCH  14  15
ENDBRANCH   5  14
BRANCH   4  17
ATOM     17  O   UNL     1       4.688  15.827  21.936  1.00  0.00    -0.387 OA
ATOM     18  H   UNL     1       5.210  16.348  21.272  1.00  0.00     0.211 HD
ENDBRANCH   4  17
TORSDOF 7
ENDMDL
MODEL 4
REMARK VINA RESULT:    -3.445     21.596     23.000
REMARK INTER + INTRA:          -4.835
REMARK INTER:                  -4.472
REMARK INTRA:                  -0.363
REMARK UNBOUND:                -0.384
REMARK SMILES CCO[C@@H]1O[C@@H](CO)[C@@H](O)[C@@H](O)[C@H]1O
REMARK SMILES IDX 4 1 13 2 11 3 9 4 6 5 5 6 3 7 2 8 1 9 14 10 12 12 7 14 8 15
REMARK SMILES IDX 10 17
REMARK H PARENT 14 11 12 13 8 16 10 18
REMARK Flexibility Score: inf
ROOT
ATOM      1  C   UNL     1       7.487  13.418  26.636  1.00  0.00     0.281 C 
ATOM      2  C   UNL     1       8.805  12.870  26.056  1.00  0.00     0.202 C 
ATOM      3  C   UNL     1       8.580  12.342  24.622  1.00  0.00     0.179 C 
ATOM      4  C   UNL     1       7.853  13.390  23.764  1.00  0.00     0.177 C 
ATOM      5  C   UNL     1       6.582  13.862  24.511  1.00  0.00     0.178 C 
ATOM      6  O   UNL     1       6.917  14.402  25.780  1.00  0.00    -0.341 OA
ENDROOT
BRANCH   1   7
ATOM      7  O   UNL     1       6.582  12.350  26.875  1.00  0.00    -0.350 OA
BRANCH   7   8
ATOM      8  C   UNL     1       7.154  11.377  27.731  1.00  0.00     0.160 C 
ATOM      9  C   UNL     1       6.764  11.655  29.177  1.00  0.00     0.035 C 
ENDBRANCH   7   8
ENDBRANCH   1   7
BRANCH   2  10
ATOM     10  O   UNL     1       9.769  13.892  26.062  1.00  0.00    -0.385 OA
ATOM     11  H   UNL     1       9.328  14.704  26.426  1.00  0.00     0.211 HD
ENDBRANCH   2  10
BRANCH   3  12
ATOM     12  O   UNL     1       9.802  12.001  24.020  1.00  0.00    -0.387 OA
ATOM     13  H   UNL     1       9.581  11.533  23.172  1.00  0.00     0.211 HD
ENDBRANCH   3  12
BRANCH   5  14
ATOM     14  C   UNL     1       5.813  14.928  23.714  1.00  0.00     0.191 C 
BRANCH  14  15
ATOM     15  O   UNL     1       6.441  16.179  23.807  1.00  0.00    -0.394 OA
ATOM     16  H   UNL     1       6.353  16.608  22.917  1.00  0.00     0.210 HD
ENDBRANCH  14  15
ENDBRANCH   5  14
BRANCH   4  17
ATOM     17  O   UNL     1       8.711  14.476  23.513  1.00  0.00    -0.387 OA
ATOM     18  H   UNL     1       9.631  14.111  23.438  1.00  0.00     0.211 HD
ENDBRANCH   4  17
TORSDOF 7
ENDMDL
MODEL 5
REMARK VINA RESULT:    -3.430     21.703     23.138
REMARK INTER + INTRA:          -4.817
REMARK INTER:                  -4.428
REMARK INTRA:                  -0.389
REMARK UNBOUND:                -0.384
REMARK SMILES CCO[C@@H]1O[C@@H](CO)[C@@H](O)[C@@H](O)[C@H]1O
REMARK SMILES IDX 4 1 13 2 11 3 9 4 6 5 5 6 3 7 2 8 1 9 14 10 12 12 7 14 8 15
REMARK SMILES IDX 10 17
REMARK H PARENT 14 11 12 13 8 16 10 18
REMARK Flexibility Score: inf
ROOT
ATOM      1  C   UNL     1       9.305  12.677  24.541  1.00  0.00     0.281 C 
ATOM      2  C   UNL     1       8.242  13.376  23.672  1.00  0.00     0.202 C 
ATOM      3  C   UNL     1       6.827  13.067  24.208  1.00  0.00     0.179 C 
ATOM      4  C   UNL     1       6.744  13.339  25.718  1.00  0.00     0.177 C 
ATOM      5  C   UNL     1       7.905  12.602  26.429  1.00  0.00     0.178 C 
ATOM      6  O   UNL     1       9.158  13.024  25.913  1.00  0.00    -0.341 OA
ENDROOT
BRANCH   1   7
ATOM      7  O   UNL     1       9.240  11.271  24.349  1.00  0.00    -0.350 OA
BRANCH   7   8
ATOM      8  C   UNL     1       9.988  10.875  23.215  1.00  0.00     0.160 C 
ATOM      9  C   UNL     1      11.478  11.056  23.478  1.00  0.00     0.035 C 
ENDBRANCH   7   8
ENDBRANCH   1   7
BRANCH   2  10
ATOM     10  O   UNL     1       8.482  14.760  23.677  1.00  0.00    -0.385 OA
ATOM     11  H   UNL     1       8.802  15.002  22.769  1.00  0.00     0.211 HD
ENDBRANCH   2  10
BRANCH   3  12
ATOM     12  O   UNL     1       5.861  13.834  23.535  1.00  0.00    -0.387 OA
ATOM     13  H   UNL     1       5.015  13.742  24.048  1.00  0.00     0.211 HD
ENDBRANCH   3  12
BRANCH   5  14
ATOM     14  C   UNL     1       7.894  12.846  27.946  1.00  0.00     0.191 C 
BRANCH  14  15
ATOM     15  O   UNL     1       8.759  13.894  28.296  1.00  0.00    -0.394 OA
ATOM     16  H   UNL     1       9.392  13.527  28.967  1.00  0.00     0.210 HD
ENDBRANCH  14  15
ENDBRANCH   5  14
BRANCH   4  17
ATOM     17  O   UNL     1       6.820  14.724  25.956  1.00  0.00    -0.387 OA
ATOM     18  H   UNL     1       6.117  14.945  26.622  1.00  0.00     0.211 HD
ENDBRANCH   4  17
TORSDOF 7
ENDMDL
MODEL 6
REMARK VINA RESULT:    -3.419     22.082     23.064
REMARK INTER + INTRA:          -4.802
REMARK INTER:                  -4.412
REMARK INTRA:                  -0.390
REMARK UNBOUND:                -0.384
REMARK SMILES CCO[C@@H]1O[C@@H](CO)[C@@H](O)[C@@H](O)[C@H]1O
REMARK SMILES IDX 4 1 13 2 11 3 9 4 6 5 5 6 3 7 2 8 1 9 14 10 12 12 7 14 8 15
REMARK SMILES IDX 10 17
REMARK H PARENT 14 11 12 13 8 16 10 18
REMARK Flexibility Score: inf
ROOT
ATOM      1  C   UNL     1       7.458  11.711  26.064  1.00  0.00     0.281 C 
ATOM      2  C   UNL     1       6.350  12.701  25.655  1.00  0.00     0.202 C 
ATOM      3  C   UNL     1       6.894  14.146  25.663  1.00  0.00     0.179 C 
ATOM      4  C   UNL     1       8.206  14.239  24.868  1.00  0.00     0.177 C 
ATOM      5  C   UNL     1       9.184  13.152  25.375  1.00  0.00     0.178 C 
ATOM      6  O   UNL     1       8.611  11.861  25.243  1.00  0.00    -0.341 OA
ENDROOT
BRANCH   1   7
ATOM      7  O   UNL     1       7.772  11.878  27.439  1.00  0.00    -0.350 OA
BRANCH   7   8
ATOM      8  C   UNL     1       6.865  11.166  28.260  1.00  0.00     0.160 C 
ATOM      9  C   UNL     1       6.835  11.771  29.658  1.00  0.00     0.035 C 
ENDBRANCH   7   8
ENDBRANCH   1   7
BRANCH   2  10
ATOM     10  O   UNL     1       5.877  12.357  24.377  1.00  0.00    -0.385 OA
ATOM     11  H   UNL     1       5.718  13.207  23.889  1.00  0.00     0.211 HD
ENDBRANCH   2  10
BRANCH   3  12
ATOM     12  O   UNL     1       5.951  15.037  25.127  1.00  0.00    -0.387 OA
ATOM     13  H   UNL     1       6.066  15.899  25.607  1.00  0.00     0.211 HD
ENDBRANCH   3  12
BRANCH   5  14
ATOM     14  C   UNL     1      10.515  13.176  24.607  1.00  0.00     0.191 C 
BRANCH  14  15
ATOM     15  O   UNL     1      10.446  12.384  23.451  1.00  0.00    -0.394 OA
ATOM     16  H   UNL     1      10.632  12.985  22.683  1.00  0.00     0.210 HD
ENDBRANCH  14  15
ENDBRANCH   5  14
BRANCH   4  17
ATOM     17  O   UNL     1       7.942  14.065  23.496  1.00  0.00    -0.387 OA
ATOM     18  H   UNL     1       6.965  14.187  23.369  1.00  0.00     0.211 HD
ENDBRANCH   4  17
TORSDOF 7
ENDMDL
MODEL 7
REMARK VINA RESULT:    -3.377     22.005     23.570
REMARK INTER + INTRA:          -4.748
REMARK INTER:                  -4.331
REMARK INTRA:                  -0.417
REMARK UNBOUND:                -0.384
REMARK SMILES CCO[C@@H]1O[C@@H](CO)[C@@H](O)[C@@H](O)[C@H]1O
REMARK SMILES IDX 4 1 13 2 11 3 9 4 6 5 5 6 3 7 2 8 1 9 14 10 12 12 7 14 8 15
REMARK SMILES IDX 10 17
REMARK H PARENT 14 11 12 13 8 16 10 18
REMARK Flexibility Score: inf
ROOT
ATOM      1  C   UNL     1       5.838  14.533  23.405  1.00  0.00     0.281 C 
ATOM      2  C   UNL     1       6.952  14.419  22.347  1.00  0.00     0.202 C 
ATOM      3  C   UNL     1       8.306  14.854  22.947  1.00  0.00     0.179 C 
ATOM      4  C   UNL     1       8.568  14.135  24.280  1.00  0.00     0.177 C 
ATOM      5  C   UNL     1       7.339  14.313  25.202  1.00  0.00     0.178 C 
ATOM      6  O   UNL     1       6.168  13.805  24.582  1.00  0.00    -0.341 OA
ENDROOT
BRANCH   1   7
ATOM      7  O   UNL     1       5.583  15.901  23.694  1.00  0.00    -0.350 OA
BRANCH   7   8
ATOM      8  C   UNL     1       4.894  16.528  22.627  1.00  0.00     0.160 C 
ATOM      9  C   UNL     1       5.561  17.853  22.278  1.00  0.00     0.035 C 
ENDBRANCH   7   8
ENDBRANCH   1   7
BRANCH   2  10
ATOM     10  O   UNL     1       7.016  13.091  21.891  1.00  0.00    -0.385 OA
ATOM     11  H   UNL     1       6.141  12.888  21.468  1.00  0.00     0.211 HD
ENDBRANCH   2  10
BRANCH   3  12
ATOM     12  O   UNL     1       9.356  14.591  22.052  1.00  0.00    -0.387 OA
ATOM     13  H   UNL     1       9.627  15.465  21.666  1.00  0.00     0.211 HD
ENDBRANCH   3  12
BRANCH   5  14
ATOM     14  C   UNL     1       7.526  13.600  26.550  1.00  0.00     0.191 C 
BRANCH  14  15
ATOM     15  O   UNL     1       8.882  13.534  26.903  1.00  0.00    -0.394 OA
ATOM     16  H   UNL     1       9.219  12.661  26.573  1.00  0.00     0.210 HD
ENDBRANCH  14  15
ENDBRANCH   5  14
BRANCH   4  17
ATOM     17  O   UNL     1       8.813  12.770  24.042  1.00  0.00    -0.387 OA
ATOM     18  H   UNL     1       8.011  12.405  23.584  1.00  0.00     0.211 HD
ENDBRANCH   4  17
TORSDOF 7
ENDMDL
MODEL 8
REMARK VINA RESULT:    -3.371     22.211     23.666
REMARK INTER + INTRA:          -4.741
REMARK INTER:                  -4.373
REMARK INTRA:                  -0.368
REMARK UNBOUND:                -0.384
REMARK SMILES CCO[C@@H]1O[C@@H](CO)[C@@H](O)[C@@H](O)[C@H]1O
REMARK SMILES IDX 4 1 13 2 11 3 9 4 6 5 5 6 3 7 2 8 1 9 14 10 12 12 7 14 8 15
REMARK SMILES IDX 10 17
REMARK H PARENT 14 11 12 13 8 16 10 18
REMARK Flexibility Score: inf
ROOT
ATOM      1  C   UNL     1       6.607  14.614  23.204  1.00  0.00     0.281 C 
ATOM      2  C   UNL     1       7.984  14.374  23.851  1.00  0.00     0.202 C 
ATOM      3  C   UNL     1       7.845  14.278  25.386  1.00  0.00     0.179 C 
ATOM      4  C   UNL     1       6.739  13.283  25.771  1.00  0.00     0.177 C 
ATOM      5  C   UNL     1       5.445  13.642  25.002  1.00  0.00     0.178 C 
ATOM      6  O   UNL     1       5.670  13.619  23.601  1.00  0.00    -0.341 OA
ENDROOT
BRANCH   1   7
ATOM      7  O   UNL     1       6.145  15.920  23.519  1.00  0.00    -0.350 OA
BRANCH   7   8
ATOM      8  C   UNL     1       6.634  16.873  22.593  1.00  0.00     0.160 C 
ATOM      9  C   UNL     1       5.540  17.873  22.240  1.00  0.00     0.035 C 
ENDBRANCH   7   8
ENDBRANCH   1   7
BRANCH   2  10
ATOM     10  O   UNL     1       8.536  13.192  23.328  1.00  0.00    -0.385 OA
ATOM     11  H   UNL     1       9.206  12.870  23.986  1.00  0.00     0.211 HD
ENDBRANCH   2  10
BRANCH   3  12
ATOM     12  O   UNL     1       9.059  13.887  25.973  1.00  0.00    -0.387 OA
ATOM     13  H   UNL     1       9.365  13.077  25.486  1.00  0.00     0.211 HD
ENDBRANCH   3  12
BRANCH   5  14
ATOM     14  C   UNL     1       4.298  12.672  25.328  1.00  0.00     0.191 C 
BRANCH  14  15
ATOM     15  O   UNL     1       4.484  12.072  26.581  1.00  0.00    -0.394 OA
ATOM     16  H   UNL     1       5.346  12.415  26.935  1.00  0.00     0.210 HD
ENDBRANCH  14  15
ENDBRANCH   5  14
BRANCH   4  17
ATOM     17  O   UNL     1       7.150  11.973  25.462  1.00  0.00    -0.387 OA
ATOM     18  H   UNL     1       8.137  11.994  25.357  1.00  0.00     0.211 HD
ENDBRANCH   4  17
TORSDOF 7
ENDMDL
MODEL 9
REMARK VINA RESULT:    -3.351      1.470      2.130
REMARK INTER + INTRA:          -4.714
REMARK INTER:                  -4.292
REMARK INTRA:                  -0.422
REMARK UNBOUND:                -0.384
REMARK SMILES CCO[C@@H]1O[C@@H](CO)[C@@H](O)[C@@H](O)[C@H]1O
REMARK SMILES IDX 4 1 13 2 11 3 9 4 6 5 5 6 3 7 2 8 1 9 14 10 12 12 7 14 8 15
REMARK SMILES IDX 10 17
REMARK H PARENT 14 11 12 13 8 16 10 18
REMARK Flexibility Score: inf
ROOT
ATOM      1  C   UNL     1      19.559  27.387  38.479  1.00  0.00     0.281 C 
ATOM      2  C   UNL     1      19.375  28.232  39.754  1.00  0.00     0.202 C 
ATOM      3  C   UNL     1      18.886  27.343  40.918  1.00  0.00     0.179 C 
ATOM      4  C   UNL     1      19.772  26.096  41.061  1.00  0.00     0.177 C 
ATOM      5  C   UNL     1      19.886  25.395  39.686  1.00  0.00     0.178 C 
ATOM      6  O   UNL     1      20.422  26.280  38.714  1.00  0.00    -0.341 OA
ENDROOT
BRANCH   1   7
ATOM      7  O   UNL     1      18.293  26.966  37.990  1.00  0.00    -0.350 OA
BRANCH   7   8
ATOM      8  C   UNL     1      17.597  28.039  37.383  1.00  0.00     0.160 C 
ATOM      9  C   UNL     1      18.288  28.449  36.088  1.00  0.00     0.035 C 
ENDBRANCH   7   8
ENDBRANCH   1   7
BRANCH   2  10
ATOM     10  O   UNL     1      20.596  28.845  40.078  1.00  0.00    -0.385 OA
ATOM     11  H   UNL     1      21.313  28.311  39.646  1.00  0.00     0.211 HD
ENDBRANCH   2  10
BRANCH   3  12
ATOM     12  O   UNL     1      18.880  28.061  42.125  1.00  0.00    -0.387 OA
ATOM     13  H   UNL     1      19.830  28.194  42.383  1.00  0.00     0.211 HD
ENDBRANCH   3  12
BRANCH   5  14
ATOM     14  C   UNL     1      20.777  24.145  39.752  1.00  0.00     0.191 C 
BRANCH  14  15
ATOM     15  O   UNL     1      20.796  23.606  41.047  1.00  0.00    -0.394 OA
ATOM     16  H   UNL     1      21.536  24.057  41.531  1.00  0.00     0.210 HD
ENDBRANCH  14  15
ENDBRANCH   5  14
BRANCH   4  17
ATOM     17  O   UNL     1      21.045  26.469  41.531  1.00  0.00    -0.387 OA
ATOM     18  H   UNL     1      21.048  26.323  42.514  1.00  0.00     0.211 HD
ENDBRANCH   4  17
TORSDOF 7
ENDMDL
