MODEL 1
REMARK VINA RESULT:     0.000      0.000      0.000
REMARK INTER + INTRA:          -3.325
REMARK INTER:                   0.000
REMARK INTRA:                  -3.325
REMARK UNBOUND:                -3.325
REMARK SMILES CCCCCCCCCCCCCC[C@H](C)C(=O)[O-]
REMARK SMILES IDX 9 1 10 2 11 3 12 4 13 5 14 6 15 7 16 8 17 9 18 10 19 11 8 12
REMARK SMILES IDX 7 13 6 14 5 15 4 16 3 17 2 18 1 19
REMARK H PARENT
REMARK Flexibility Score: inf
ROOT
ATOM      1  C   UNL     1     184.446 177.986 178.052  1.00  0.00     0.000 C 
ENDROOT
BRANCH   1   2
ATOM      2  C   UNL     1     183.980 179.037 179.070  1.00  0.00     0.000 C 
BRANCH   2   3
ATOM      3  C   UNL     1     182.463 178.996 179.323  1.00  0.00     0.000 C 
BRANCH   3   4
ATOM      4  C   UNL     1     182.049 178.807 180.798  1.00  0.00     0.000 C 
BRANCH   4   5
ATOM      5  C   UNL     1     180.919 177.789 181.033  1.00  0.00     0.001 C 
BRANCH   5   6
ATOM      6  C   UNL     1     180.217 177.367 179.727  1.00  0.00     0.009 C 
BRANCH   6   7
ATOM      7  C   UNL     1     180.279 175.851 179.434  1.00  0.00     0.032 C 
ATOM      8  C   UNL     1     179.798 175.503 178.018  1.00  0.00     0.014 C 
BRANCH   7   9
ATOM      9  C   UNL     1     179.550 175.051 180.482  1.00  0.00     0.044 C 
ATOM     10  O   UNL     1     180.175 174.200 181.166  1.00  0.00    -0.550 OA
ATOM     11  O   UNL     1     178.202 175.276 180.740  1.00  0.00    -0.550 OA
ENDBRANCH   7   9
ENDBRANCH   6   7
ENDBRANCH   5   6
ENDBRANCH   4   5
ENDBRANCH   3   4
ENDBRANCH   2   3
ENDBRANCH   1   2
BRANCH   1  12
ATOM     12  C   UNL     1     183.256 177.194 177.499  1.00  0.00     0.000 C 
BRANCH  12  13
ATOM     13  C   UNL     1     183.528 175.683 177.553  1.00  0.00    -0.000 C 
BRANCH  13  14
ATOM     14  C   UNL     1     184.380 175.278 178.767  1.00  0.00    -0.000 C 
BRANCH  14  15
ATOM     15  C   UNL     1     183.571 174.528 179.834  1.00  0.00    -0.000 C 
BRANCH  15  16
ATOM     16  C   UNL     1     183.591 175.283 181.171  1.00  0.00    -0.000 C 
BRANCH  16  17
ATOM     17  C   UNL     1     184.813 176.205 181.322  1.00  0.00    -0.000 C 
BRANCH  17  18
ATOM     18  C   UNL     1     184.793 177.053 182.610  1.00  0.00    -0.003 C 
ATOM     19  C   UNL     1     185.454 178.418 182.420  1.00  0.00     0.004 C 
ENDBRANCH  17  18
ENDBRANCH  16  17
ENDBRANCH  15  16
ENDBRANCH  14  15
ENDBRANCH  13  14
ENDBRANCH  12  13
ENDBRANCH   1  12
TORSDOF 14
ENDMDL
MODEL 2
REMARK VINA RESULT:     0.002      4.781      6.899
REMARK INTER + INTRA:          -3.321
REMARK INTER:                   0.000
REMARK INTRA:                  -3.321
REMARK UNBOUND:                -3.325
REMARK SMILES CCCCCCCCCCCCCC[C@H](C)C(=O)[O-]
REMARK SMILES IDX 9 1 10 2 11 3 12 4 13 5 14 6 15 7 16 8 17 9 18 10 19 11 8 12
REMARK SMILES IDX 7 13 6 14 5 15 4 16 3 17 2 18 1 19
REMARK H PARENT
REMARK Flexibility Score: inf
ROOT
ATOM      1  C   UNL     1     179.346 176.551 180.766  1.00  0.00     0.000 C 
ENDROOT
BRANCH   1   2
ATOM      2  C   UNL     1     179.191 177.345 182.071  1.00  0.00     0.000 C 
BRANCH   2   3
ATOM      3  C   UNL     1     178.596 178.748 181.852  1.00  0.00     0.000 C 
BRANCH   3   4
ATOM      4  C   UNL     1     177.282 179.028 182.610  1.00  0.00     0.000 C 
BRANCH   4   5
ATOM      5  C   UNL     1     176.176 179.696 181.774  1.00  0.00     0.001 C 
BRANCH   5   6
ATOM      6  C   UNL     1     176.693 180.233 180.424  1.00  0.00     0.009 C 
BRANCH   6   7
ATOM      7  C   UNL     1     175.931 179.691 179.193  1.00  0.00     0.032 C 
ATOM      8  C   UNL     1     176.568 180.128 177.866  1.00  0.00     0.014 C 
BRANCH   7   9
ATOM      9  C   UNL     1     174.466 180.038 179.248  1.00  0.00     0.044 C 
ATOM     10  O   UNL     1     173.605 179.120 179.230  1.00  0.00    -0.550 OA
ATOM     11  O   UNL     1     174.051 181.360 179.370  1.00  0.00    -0.550 OA
ENDBRANCH   7   9
ENDBRANCH   6   7
ENDBRANCH   5   6
ENDBRANCH   4   5
ENDBRANCH   3   4
ENDBRANCH   2   3
ENDBRANCH   1   2
BRANCH   1  12
ATOM     12  C   UNL     1     179.069 177.439 179.547  1.00  0.00     0.000 C 
BRANCH  12  13
ATOM     13  C   UNL     1     178.088 176.757 178.581  1.00  0.00    -0.000 C 
BRANCH  13  14
ATOM     14  C   UNL     1     177.221 175.692 179.273  1.00  0.00    -0.000 C 
BRANCH  14  15
ATOM     15  C   UNL     1     175.733 176.067 179.301  1.00  0.00    -0.000 C 
BRANCH  15  16
ATOM     16  C   UNL     1     175.260 176.333 180.737  1.00  0.00    -0.000 C 
BRANCH  16  17
ATOM     17  C   UNL     1     175.955 175.435 181.774  1.00  0.00    -0.000 C 
BRANCH  17  18
ATOM     18  C   UNL     1     175.565 175.757 183.232  1.00  0.00    -0.003 C 
ATOM     19  C   UNL     1     176.734 175.584 184.200  1.00  0.00     0.004 C 
ENDBRANCH  17  18
ENDBRANCH  16  17
ENDBRANCH  15  16
ENDBRANCH  14  15
ENDBRANCH  13  14
ENDBRANCH  12  13
ENDBRANCH   1  12
TORSDOF 14
ENDMDL
MODEL 3
REMARK VINA RESULT:     0.011      8.583     10.834
REMARK INTER + INTRA:          -3.305
REMARK INTER:                   0.000
REMARK INTRA:                  -3.305
REMARK UNBOUND:                -3.325
REMARK SMILES CCCCCCCCCCCCCC[C@H](C)C(=O)[O-]
REMARK SMILES IDX 9 1 10 2 11 3 12 4 13 5 14 6 15 7 16 8 17 9 18 10 19 11 8 12
REMARK SMILES IDX 7 13 6 14 5 15 4 16 3 17 2 18 1 19
REMARK H PARENT
REMARK Flexibility Score: inf
ROOT
ATOM      1  C   UNL     1     177.213 181.133 184.212  1.00  0.00     0.000 C 
ENDROOT
BRANCH   1   2
ATOM      2  C   UNL     1     177.382 182.564 183.680  1.00  0.00     0.000 C 
BRANCH   2   3
ATOM      3  C   UNL     1     178.640 183.262 184.228  1.00  0.00     0.000 C 
BRANCH   3   4
ATOM      4  C   UNL     1     179.401 182.478 185.318  1.00  0.00     0.000 C 
BRANCH   4   5
ATOM      5  C   UNL     1     179.302 183.070 186.736  1.00  0.00     0.001 C 
BRANCH   5   6
ATOM      6  C   UNL     1     179.032 181.998 187.811  1.00  0.00     0.009 C 
BRANCH   6   7
ATOM      7  C   UNL     1     179.256 180.547 187.330  1.00  0.00     0.032 C 
ATOM      8  C   UNL     1     178.023 179.658 187.545  1.00  0.00     0.014 C 
BRANCH   7   9
ATOM      9  C   UNL     1     180.492 179.942 187.942  1.00  0.00     0.044 C 
ATOM     10  O   UNL     1     181.629 180.350 187.589  1.00  0.00    -0.550 OA
ATOM     11  O   UNL     1     180.394 178.971 188.932  1.00  0.00    -0.550 OA
ENDBRANCH   7   9
ENDBRANCH   6   7
ENDBRANCH   5   6
ENDBRANCH   4   5
ENDBRANCH   3   4
ENDBRANCH   2   3
ENDBRANCH   1   2
BRANCH   1  12
ATOM     12  C   UNL     1     175.795 180.911 184.751  1.00  0.00     0.000 C 
BRANCH  12  13
ATOM     13  C   UNL     1     175.237 182.200 185.374  1.00  0.00    -0.000 C 
BRANCH  13  14
ATOM     14  C   UNL     1     175.424 182.249 186.899  1.00  0.00    -0.000 C 
BRANCH  14  15
ATOM     15  C   UNL     1     175.708 183.667 187.415  1.00  0.00    -0.000 C 
BRANCH  15  16
ATOM     16  C   UNL     1     175.554 184.702 186.292  1.00  0.00    -0.000 C 
BRANCH  16  17
ATOM     17  C   UNL     1     176.713 185.711 186.241  1.00  0.00    -0.000 C 
BRANCH  17  18
ATOM     18  C   UNL     1     176.838 186.443 184.888  1.00  0.00    -0.003 C 
ATOM     19  C   UNL     1     175.825 185.942 183.859  1.00  0.00     0.004 C 
ENDBRANCH  17  18
ENDBRANCH  16  17
ENDBRANCH  15  16
ENDBRANCH  14  15
ENDBRANCH  13  14
ENDBRANCH  12  13
ENDBRANCH   1  12
TORSDOF 14
ENDMDL
MODEL 4
REMARK VINA RESULT:     0.014      6.080      8.122
REMARK INTER + INTRA:          -3.300
REMARK INTER:                   0.000
REMARK INTRA:                  -3.300
REMARK UNBOUND:                -3.325
REMARK SMILES CCCCCCCCCCCCCC[C@H](C)C(=O)[O-]
REMARK SMILES IDX 9 1 10 2 11 3 12 4 13 5 14 6 15 7 16 8 17 9 18 10 19 11 8 12
REMARK SMILES IDX 7 13 6 14 5 15 4 16 3 17 2 18 1 19
REMARK H PARENT
REMARK Flexibility Score: inf
ROOT
ATOM      1  C   UNL     1     178.358 180.868 175.161  1.00  0.00     0.000 C 
ENDROOT
BRANCH   1   2
ATOM      2  C   UNL     1     178.458 179.367 175.473  1.00  0.00     0.000 C 
BRANCH   2   3
ATOM      3  C   UNL     1     177.090 178.662 175.469  1.00  0.00     0.000 C 
BRANCH   3   4
ATOM      4  C   UNL     1     175.882 179.576 175.760  1.00  0.00     0.000 C 
BRANCH   4   5
ATOM      5  C   UNL     1     175.419 179.598 177.228  1.00  0.00     0.001 C 
BRANCH   5   6
ATOM      6  C   UNL     1     175.116 181.021 177.736  1.00  0.00     0.009 C 
BRANCH   6   7
ATOM      7  C   UNL     1     175.072 182.095 176.626  1.00  0.00     0.032 C 
ATOM      8  C   UNL     1     175.928 183.325 176.959  1.00  0.00     0.014 C 
BRANCH   7   9
ATOM      9  C   UNL     1     173.657 182.480 176.280  1.00  0.00     0.044 C 
ATOM     10  O   UNL     1     173.444 183.458 175.517  1.00  0.00    -0.550 OA
ATOM     11  O   UNL     1     172.581 181.736 176.751  1.00  0.00    -0.550 OA
ENDBRANCH   7   9
ENDBRANCH   6   7
ENDBRANCH   5   6
ENDBRANCH   4   5
ENDBRANCH   3   4
ENDBRANCH   2   3
ENDBRANCH   1   2
BRANCH   1  12
ATOM     12  C   UNL     1     179.136 181.695 176.191  1.00  0.00     0.000 C 
BRANCH  12  13
ATOM     13  C   UNL     1     179.405 180.878 177.463  1.00  0.00    -0.000 C 
BRANCH  13  14
ATOM     14  C   UNL     1     178.688 181.450 178.697  1.00  0.00    -0.000 C 
BRANCH  14  15
ATOM     15  C   UNL     1     178.207 180.357 179.662  1.00  0.00    -0.000 C 
BRANCH  15  16
ATOM     16  C   UNL     1     178.684 178.971 179.205  1.00  0.00    -0.000 C 
BRANCH  16  17
ATOM     17  C   UNL     1     177.672 177.856 179.515  1.00  0.00    -0.000 C 
BRANCH  17  18
ATOM     18  C   UNL     1     177.736 176.670 178.529  1.00  0.00    -0.003 C 
ATOM     19  C   UNL     1     179.102 176.548 177.854  1.00  0.00     0.004 C 
ENDBRANCH  17  18
ENDBRANCH  16  17
ENDBRANCH  15  16
ENDBRANCH  14  15
ENDBRANCH  13  14
ENDBRANCH  12  13
ENDBRANCH   1  12
TORSDOF 14
ENDMDL
MODEL 5
REMARK VINA RESULT:     0.016      6.658      9.189
REMARK INTER + INTRA:          -3.296
REMARK INTER:                   0.000
REMARK INTRA:                  -3.296
REMARK UNBOUND:                -3.325
REMARK SMILES CCCCCCCCCCCCCC[C@H](C)C(=O)[O-]
REMARK SMILES IDX 9 1 10 2 11 3 12 4 13 5 14 6 15 7 16 8 17 9 18 10 19 11 8 12
REMARK SMILES IDX 7 13 6 14 5 15 4 16 3 17 2 18 1 19
REMARK H PARENT
REMARK Flexibility Score: inf
ROOT
ATOM      1  C   UNL     1     176.694 183.957 179.286  1.00  0.00     0.000 C 
ENDROOT
BRANCH   1   2
ATOM      2  C   UNL     1     177.216 183.352 180.598  1.00  0.00     0.000 C 
BRANCH   2   3
ATOM      3  C   UNL     1     177.217 181.813 180.588  1.00  0.00     0.000 C 
BRANCH   3   4
ATOM      4  C   UNL     1     178.615 181.159 180.608  1.00  0.00     0.000 C 
BRANCH   4   5
ATOM      5  C   UNL     1     179.774 182.109 180.962  1.00  0.00     0.001 C 
BRANCH   5   6
ATOM      6  C   UNL     1     180.800 182.248 179.819  1.00  0.00     0.009 C 
BRANCH   6   7
ATOM      7  C   UNL     1     181.461 183.642 179.727  1.00  0.00     0.032 C 
ATOM      8  C   UNL     1     180.735 184.697 180.574  1.00  0.00     0.014 C 
BRANCH   7   9
ATOM      9  C   UNL     1     181.618 184.090 178.297  1.00  0.00     0.044 C 
ATOM     10  O   UNL     1     182.088 183.295 177.441  1.00  0.00    -0.550 OA
ATOM     11  O   UNL     1     181.202 185.355 177.897  1.00  0.00    -0.550 OA
ENDBRANCH   7   9
ENDBRANCH   6   7
ENDBRANCH   5   6
ENDBRANCH   4   5
ENDBRANCH   3   4
ENDBRANCH   2   3
ENDBRANCH   1   2
BRANCH   1  12
ATOM     12  C   UNL     1     177.848 184.248 178.319  1.00  0.00     0.000 C 
BRANCH  12  13
ATOM     13  C   UNL     1     177.678 183.464 177.009  1.00  0.00    -0.000 C 
BRANCH  13  14
ATOM     14  C   UNL     1     178.668 182.293 176.887  1.00  0.00    -0.000 C 
BRANCH  14  15
ATOM     15  C   UNL     1     177.979 180.924 176.973  1.00  0.00    -0.000 C 
BRANCH  15  16
ATOM     16  C   UNL     1     176.487 181.036 176.626  1.00  0.00    -0.000 C 
BRANCH  16  17
ATOM     17  C   UNL     1     175.579 180.338 177.652  1.00  0.00    -0.000 C 
BRANCH  17  18
ATOM     18  C   UNL     1     174.412 181.218 178.146  1.00  0.00    -0.003 C 
ATOM     19  C   UNL     1     174.083 182.349 177.171  1.00  0.00     0.004 C 
ENDBRANCH  17  18
ENDBRANCH  16  17
ENDBRANCH  15  16
ENDBRANCH  14  15
ENDBRANCH  13  14
ENDBRANCH  12  13
ENDBRANCH   1  12
TORSDOF 14
ENDMDL
MODEL 6
REMARK VINA RESULT:     0.016      6.213      8.407
REMARK INTER + INTRA:          -3.296
REMARK INTER:                   0.000
REMARK INTRA:                  -3.296
REMARK UNBOUND:                -3.325
REMARK SMILES CCCCCCCCCCCCCC[C@H](C)C(=O)[O-]
REMARK SMILES IDX 9 1 10 2 11 3 12 4 13 5 14 6 15 7 16 8 17 9 18 10 19 11 8 12
REMARK SMILES IDX 7 13 6 14 5 15 4 16 3 17 2 18 1 19
REMARK H PARENT
REMARK Flexibility Score: inf
ROOT
ATOM      1  C   UNL     1     185.481 180.992 178.006  1.00  0.00     0.000 C 
ENDROOT
BRANCH   1   2
ATOM      2  C   UNL     1     186.708 181.669 177.379  1.00  0.00     0.000 C 
BRANCH   2   3
ATOM      3  C   UNL     1     186.736 183.190 177.610  1.00  0.00     0.000 C 
BRANCH   3   4
ATOM      4  C   UNL     1     185.358 183.841 177.854  1.00  0.00     0.000 C 
BRANCH   4   5
ATOM      5  C   UNL     1     184.706 184.471 176.610  1.00  0.00     0.001 C 
BRANCH   5   6
ATOM      6  C   UNL     1     183.254 183.999 176.396  1.00  0.00     0.009 C 
BRANCH   6   7
ATOM      7  C   UNL     1     182.578 183.432 177.664  1.00  0.00     0.032 C 
ATOM      8  C   UNL     1     181.812 182.129 177.392  1.00  0.00     0.014 C 
BRANCH   7   9
ATOM      9  C   UNL     1     181.706 184.459 178.338  1.00  0.00     0.044 C 
ATOM     10  O   UNL     1     182.225 185.316 179.101  1.00  0.00    -0.550 OA
ATOM     11  O   UNL     1     180.339 184.507 178.089  1.00  0.00    -0.550 OA
ENDBRANCH   7   9
ENDBRANCH   6   7
ENDBRANCH   5   6
ENDBRANCH   4   5
ENDBRANCH   3   4
ENDBRANCH   2   3
ENDBRANCH   1   2
BRANCH   1  12
ATOM     12  C   UNL     1     184.808 180.042 177.008  1.00  0.00     0.000 C 
BRANCH  12  13
ATOM     13  C   UNL     1     185.263 180.343 175.571  1.00  0.00    -0.000 C 
BRANCH  13  14
ATOM     14  C   UNL     1     184.116 180.844 174.679  1.00  0.00    -0.000 C 
BRANCH  14  15
ATOM     15  C   UNL     1     184.577 181.888 173.652  1.00  0.00    -0.000 C 
BRANCH  15  16
ATOM     16  C   UNL     1     186.089 182.131 173.757  1.00  0.00    -0.000 C 
BRANCH  16  17
ATOM     17  C   UNL     1     186.476 183.606 173.552  1.00  0.00    -0.000 C 
BRANCH  17  18
ATOM     18  C   UNL     1     187.834 183.982 174.180  1.00  0.00    -0.003 C 
ATOM     19  C   UNL     1     187.839 185.400 174.752  1.00  0.00     0.004 C 
ENDBRANCH  17  18
ENDBRANCH  16  17
ENDBRANCH  15  16
ENDBRANCH  14  15
ENDBRANCH  13  14
ENDBRANCH  12  13
ENDBRANCH   1  12
TORSDOF 14
ENDMDL
MODEL 7
REMARK VINA RESULT:     0.016      6.704      8.938
REMARK INTER + INTRA:          -3.295
REMARK INTER:                   0.000
REMARK INTRA:                  -3.295
REMARK UNBOUND:                -3.325
REMARK SMILES CCCCCCCCCCCCCC[C@H](C)C(=O)[O-]
REMARK SMILES IDX 9 1 10 2 11 3 12 4 13 5 14 6 15 7 16 8 17 9 18 10 19 11 8 12
REMARK SMILES IDX 7 13 6 14 5 15 4 16 3 17 2 18 1 19
REMARK H PARENT
REMARK Flexibility Score: inf
ROOT
ATOM      1  C   UNL     1     187.840 184.117 180.704  1.00  0.00     0.000 C 
ENDROOT
BRANCH   1   2
ATOM      2  C   UNL     1     187.255 184.238 182.119  1.00  0.00     0.000 C 
BRANCH   2   3
ATOM      3  C   UNL     1     186.412 185.511 182.311  1.00  0.00     0.000 C 
BRANCH   3   4
ATOM      4  C   UNL     1     184.899 185.273 182.500  1.00  0.00     0.000 C 
BRANCH   4   5
ATOM      5  C   UNL     1     184.505 183.824 182.838  1.00  0.00     0.001 C 
BRANCH   5   6
ATOM      6  C   UNL     1     183.574 183.198 181.781  1.00  0.00     0.009 C 
BRANCH   6   7
ATOM      7  C   UNL     1     183.799 181.686 181.553  1.00  0.00     0.032 C 
ATOM      8  C   UNL     1     185.087 181.175 182.215  1.00  0.00     0.014 C 
BRANCH   7   9
ATOM      9  C   UNL     1     183.747 181.330 180.090  1.00  0.00     0.044 C 
ATOM     10  O   UNL     1     184.615 180.559 179.603  1.00  0.00    -0.550 OA
ATOM     11  O   UNL     1     182.721 181.801 179.278  1.00  0.00    -0.550 OA
ENDBRANCH   7   9
ENDBRANCH   6   7
ENDBRANCH   5   6
ENDBRANCH   4   5
ENDBRANCH   3   4
ENDBRANCH   2   3
ENDBRANCH   1   2
BRANCH   1  12
ATOM     12  C   UNL     1     186.917 183.293 179.798  1.00  0.00     0.000 C 
BRANCH  12  13
ATOM     13  C   UNL     1     186.450 184.121 178.591  1.00  0.00    -0.000 C 
BRANCH  13  14
ATOM     14  C   UNL     1     184.976 184.545 178.700  1.00  0.00    -0.000 C 
BRANCH  14  15
ATOM     15  C   UNL     1     184.808 186.059 178.897  1.00  0.00    -0.000 C 
BRANCH  15  16
ATOM     16  C   UNL     1     186.058 186.816 178.427  1.00  0.00    -0.000 C 
BRANCH  16  17
ATOM     17  C   UNL     1     186.576 187.823 179.467  1.00  0.00    -0.000 C 
BRANCH  17  18
ATOM     18  C   UNL     1     188.091 187.710 179.737  1.00  0.00    -0.003 C 
ATOM     19  C   UNL     1     188.837 187.021 178.594  1.00  0.00     0.004 C 
ENDBRANCH  17  18
ENDBRANCH  16  17
ENDBRANCH  15  16
ENDBRANCH  14  15
ENDBRANCH  13  14
ENDBRANCH  12  13
ENDBRANCH   1  12
TORSDOF 14
ENDMDL
MODEL 8
REMARK VINA RESULT:     0.020      8.507     10.758
REMARK INTER + INTRA:          -3.290
REMARK INTER:                   0.000
REMARK INTRA:                  -3.290
REMARK UNBOUND:                -3.325
REMARK SMILES CCCCCCCCCCCCCC[C@H](C)C(=O)[O-]
REMARK SMILES IDX 9 1 10 2 11 3 12 4 13 5 14 6 15 7 16 8 17 9 18 10 19 11 8 12
REMARK SMILES IDX 7 13 6 14 5 15 4 16 3 17 2 18 1 19
REMARK H PARENT
REMARK Flexibility Score: inf
ROOT
ATOM      1  C   UNL     1     181.466 183.519 183.364  1.00  0.00     0.000 C 
ENDROOT
BRANCH   1   2
ATOM      2  C   UNL     1     182.890 183.670 183.917  1.00  0.00     0.000 C 
BRANCH   2   3
ATOM      3  C   UNL     1     183.068 183.016 185.299  1.00  0.00     0.000 C 
BRANCH   3   4
ATOM      4  C   UNL     1     183.761 183.900 186.357  1.00  0.00     0.000 C 
BRANCH   4   5
ATOM      5  C   UNL     1     183.037 183.982 187.713  1.00  0.00     0.001 C 
BRANCH   5   6
ATOM      6  C   UNL     1     181.532 184.282 187.567  1.00  0.00     0.009 C 
BRANCH   6   7
ATOM      7  C   UNL     1     180.618 183.369 188.414  1.00  0.00     0.032 C 
ATOM      8  C   UNL     1     180.653 181.905 187.951  1.00  0.00     0.014 C 
BRANCH   7   9
ATOM      9  C   UNL     1     179.209 183.897 188.480  1.00  0.00     0.044 C 
ATOM     10  O   UNL     1     178.248 183.161 188.133  1.00  0.00    -0.550 OA
ATOM     11  O   UNL     1     178.948 185.173 188.967  1.00  0.00    -0.550 OA
ENDBRANCH   7   9
ENDBRANCH   6   7
ENDBRANCH   5   6
ENDBRANCH   4   5
ENDBRANCH   3   4
ENDBRANCH   2   3
ENDBRANCH   1   2
BRANCH   1  12
ATOM     12  C   UNL     1     180.604 182.656 184.293  1.00  0.00     0.000 C 
BRANCH  12  13
ATOM     13  C   UNL     1     179.329 183.404 184.712  1.00  0.00    -0.000 C 
BRANCH  13  14
ATOM     14  C   UNL     1     179.345 184.883 184.292  1.00  0.00    -0.000 C 
BRANCH  14  15
ATOM     15  C   UNL     1     178.805 185.815 185.386  1.00  0.00    -0.000 C 
BRANCH  15  16
ATOM     16  C   UNL     1     179.828 186.905 185.734  1.00  0.00    -0.000 C 
BRANCH  16  17
ATOM     17  C   UNL     1     181.071 186.872 184.830  1.00  0.00    -0.000 C 
BRANCH  17  18
ATOM     18  C   UNL     1     182.373 187.274 185.553  1.00  0.00    -0.003 C 
ATOM     19  C   UNL     1     183.590 187.237 184.628  1.00  0.00     0.004 C 
ENDBRANCH  17  18
ENDBRANCH  16  17
ENDBRANCH  15  16
ENDBRANCH  14  15
ENDBRANCH  13  14
ENDBRANCH  12  13
ENDBRANCH   1  12
TORSDOF 14
ENDMDL
MODEL 9
REMARK VINA RESULT:     0.023      5.743      7.734
REMARK INTER + INTRA:          -3.284
REMARK INTER:                   0.000
REMARK INTRA:                  -3.284
REMARK UNBOUND:                -3.325
REMARK SMILES CCCCCCCCCCCCCC[C@H](C)C(=O)[O-]
REMARK SMILES IDX 9 1 10 2 11 3 12 4 13 5 14 6 15 7 16 8 17 9 18 10 19 11 8 12
REMARK SMILES IDX 7 13 6 14 5 15 4 16 3 17 2 18 1 19
REMARK H PARENT
REMARK Flexibility Score: inf
ROOT
ATOM      1  C   UNL     1     181.682 178.352 184.871  1.00  0.00     0.000 C 
ENDROOT
BRANCH   1   2
ATOM      2  C   UNL     1     181.262 178.813 186.275  1.00  0.00     0.000 C 
BRANCH   2   3
ATOM      3  C   UNL     1     181.935 178.003 187.397  1.00  0.00     0.000 C 
BRANCH   3   4
ATOM      4  C   UNL     1     182.563 176.665 186.953  1.00  0.00     0.000 C 
BRANCH   4   5
ATOM      5  C   UNL     1     181.736 175.412 187.293  1.00  0.00     0.001 C 
BRANCH   5   6
ATOM      6  C   UNL     1     181.688 174.398 186.132  1.00  0.00     0.009 C 
BRANCH   6   7
ATOM      7  C   UNL     1     182.676 174.701 184.984  1.00  0.00     0.032 C 
ATOM      8  C   UNL     1     181.991 174.741 183.610  1.00  0.00     0.014 C 
BRANCH   7   9
ATOM      9  C   UNL     1     183.848 173.754 184.994  1.00  0.00     0.044 C 
ATOM     10  O   UNL     1     184.384 173.411 183.907  1.00  0.00    -0.550 OA
ATOM     11  O   UNL     1     184.380 173.292 186.192  1.00  0.00    -0.550 OA
ENDBRANCH   7   9
ENDBRANCH   6   7
ENDBRANCH   5   6
ENDBRANCH   4   5
ENDBRANCH   3   4
ENDBRANCH   2   3
ENDBRANCH   1   2
BRANCH   1  12
ATOM     12  C   UNL     1     180.455 178.095 183.988  1.00  0.00     0.000 C 
BRANCH  12  13
ATOM     13  C   UNL     1     179.218 177.782 184.843  1.00  0.00    -0.000 C 
BRANCH  13  14
ATOM     14  C   UNL     1     178.807 176.302 184.772  1.00  0.00    -0.000 C 
BRANCH  14  15
ATOM     15  C   UNL     1     178.210 175.789 186.090  1.00  0.00    -0.000 C 
BRANCH  15  16
ATOM     16  C   UNL     1     178.241 176.880 187.169  1.00  0.00    -0.000 C 
BRANCH  16  17
ATOM     17  C   UNL     1     178.400 176.314 188.590  1.00  0.00    -0.000 C 
BRANCH  17  18
ATOM     18  C   UNL     1     179.035 177.309 189.585  1.00  0.00    -0.003 C 
ATOM     19  C   UNL     1     180.124 176.662 190.441  1.00  0.00     0.004 C 
ENDBRANCH  17  18
ENDBRANCH  16  17
ENDBRANCH  15  16
ENDBRANCH  14  15
ENDBRANCH  13  14
ENDBRANCH  12  13
ENDBRANCH   1  12
TORSDOF 14
ENDMDL
