MODEL 1
REMARK VINA RESULT:    -4.791      0.000      0.000
REMARK INTER + INTRA:          -7.943
REMARK INTER:                  -6.472
REMARK INTRA:                  -1.471
REMARK UNBOUND:                -1.471
REMARK SMILES C=CC(C)=CCC=C(C)CCC=C(C)C
REMARK SMILES IDX 8 1 7 2 9 3 10 4 11 5 12 6 14 7 13 8 15 9 6 10 5 11 3 12
REMARK SMILES IDX 4 13 2 14 1 15
REMARK H PARENT
REMARK Flexibility Score: inf
ROOT
ATOM      1  C   UNL     1     144.321 142.009 133.834  1.00  0.00    -0.077 C 
ATOM      2  C   UNL     1     143.771 142.249 135.044  1.00  0.00    -0.024 C 
ATOM      3  C   UNL     1     144.275 143.038 132.730  1.00  0.00     0.039 C 
ENDROOT
BRANCH   1   4
ATOM      4  C   UNL     1     144.998 140.678 133.577  1.00  0.00     0.034 C 
BRANCH   4   5
ATOM      5  C   UNL     1     144.107 139.731 132.761  1.00  0.00     0.032 C 
BRANCH   5   6
ATOM      6  C   UNL     1     143.345 138.773 133.647  1.00  0.00    -0.028 C 
ATOM      7  C   UNL     1     141.201 140.056 133.482  1.00  0.00     0.039 C 
ATOM      8  C   UNL     1     142.031 138.885 133.945  1.00  0.00    -0.080 C 
ATOM      9  C   UNL     1     141.371 137.849 134.817  1.00  0.00     0.039 C 
ENDBRANCH   5   6
ENDBRANCH   4   5
ENDBRANCH   1   4
BRANCH   2  10
ATOM     10  C   UNL     1     143.079 143.544 135.392  1.00  0.00     0.055 C 
BRANCH  10  11
ATOM     11  C   UNL     1     141.584 143.414 135.258  1.00  0.00    -0.020 C 
ATOM     12  C   UNL     1     140.830 144.113 134.386  1.00  0.00    -0.055 C 
ATOM     13  C   UNL     1     141.434 145.136 133.449  1.00  0.00     0.044 C 
BRANCH  12  14
ATOM     14  C   UNL     1     139.359 143.907 134.420  1.00  0.00    -0.005 C 
ATOM     15  C   UNL     1     138.769 142.891 135.051  1.00  0.00     0.009 C 
ENDBRANCH  12  14
ENDBRANCH  10  11
ENDBRANCH   2  10
TORSDOF 6
ENDMDL
MODEL 2
REMARK VINA RESULT:    -4.785      2.051      6.295
REMARK INTER + INTRA:          -7.935
REMARK INTER:                  -6.466
REMARK INTRA:                  -1.469
REMARK UNBOUND:                -1.471
REMARK SMILES C=CC(C)=CCC=C(C)CCC=C(C)C
REMARK SMILES IDX 8 1 7 2 9 3 10 4 11 5 12 6 14 7 13 8 15 9 6 10 5 11 3 12
REMARK SMILES IDX 4 13 2 14 1 15
REMARK H PARENT
REMARK Flexibility Score: inf
ROOT
ATOM      1  C   UNL     1     137.879 140.152 133.898  1.00  0.00    -0.077 C 
ATOM      2  C   UNL     1     138.431 139.884 135.101  1.00  0.00    -0.024 C 
ATOM      3  C   UNL     1     137.926 139.150 132.769  1.00  0.00     0.039 C 
ENDROOT
BRANCH   1   4
ATOM      4  C   UNL     1     137.200 141.488 133.674  1.00  0.00     0.034 C 
BRANCH   4   5
ATOM      5  C   UNL     1     138.085 142.453 132.872  1.00  0.00     0.032 C 
BRANCH   5   6
ATOM      6  C   UNL     1     138.843 143.400 133.772  1.00  0.00    -0.028 C 
ATOM      7  C   UNL     1     140.980 142.103 133.626  1.00  0.00     0.039 C 
ATOM      8  C   UNL     1     140.152 143.277 134.086  1.00  0.00    -0.080 C 
ATOM      9  C   UNL     1     140.810 144.303 134.972  1.00  0.00     0.039 C 
ENDBRANCH   5   6
ENDBRANCH   4   5
ENDBRANCH   1   4
BRANCH   2  10
ATOM     10  C   UNL     1     139.126 138.582 135.416  1.00  0.00     0.055 C 
BRANCH  10  11
ATOM     11  C   UNL     1     140.620 138.717 135.286  1.00  0.00    -0.020 C 
ATOM     12  C   UNL     1     141.374 138.055 134.386  1.00  0.00    -0.055 C 
ATOM     13  C   UNL     1     140.769 137.072 133.407  1.00  0.00     0.044 C 
BRANCH  12  14
ATOM     14  C   UNL     1     142.844 138.261 134.427  1.00  0.00    -0.005 C 
ATOM     15  C   UNL     1     143.426 139.342 134.947  1.00  0.00     0.009 C 
ENDBRANCH  12  14
ENDBRANCH  10  11
ENDBRANCH   2  10
TORSDOF 6
ENDMDL
MODEL 3
REMARK VINA RESULT:    -4.777      1.722      3.733
REMARK INTER + INTRA:          -7.924
REMARK INTER:                  -6.843
REMARK INTRA:                  -1.080
REMARK UNBOUND:                -1.471
REMARK SMILES C=CC(C)=CCC=C(C)CCC=C(C)C
REMARK SMILES IDX 8 1 7 2 9 3 10 4 11 5 12 6 14 7 13 8 15 9 6 10 5 11 3 12
REMARK SMILES IDX 4 13 2 14 1 15
REMARK H PARENT
REMARK Flexibility Score: inf
ROOT
ATOM      1  C   UNL     1     143.229 138.728 133.682  1.00  0.00    -0.077 C 
ATOM      2  C   UNL     1     143.947 139.663 133.022  1.00  0.00    -0.024 C 
ATOM      3  C   UNL     1     143.168 138.702 135.191  1.00  0.00     0.039 C 
ENDROOT
BRANCH   1   4
ATOM      4  C   UNL     1     142.469 137.681 132.892  1.00  0.00     0.034 C 
BRANCH   4   5
ATOM      5  C   UNL     1     141.201 137.220 133.626  1.00  0.00     0.032 C 
BRANCH   5   6
ATOM      6  C   UNL     1     139.979 137.976 133.163  1.00  0.00    -0.028 C 
ATOM      7  C   UNL     1     139.278 138.607 135.483  1.00  0.00     0.039 C 
ATOM      8  C   UNL     1     139.130 138.637 133.982  1.00  0.00    -0.080 C 
ATOM      9  C   UNL     1     137.958 139.385 133.401  1.00  0.00     0.039 C 
ENDBRANCH   5   6
ENDBRANCH   4   5
ENDBRANCH   1   4
BRANCH   2  10
ATOM     10  C   UNL     1     144.733 140.743 133.722  1.00  0.00     0.055 C 
BRANCH  10  11
ATOM     11  C   UNL     1     144.010 142.063 133.668  1.00  0.00    -0.020 C 
ATOM     12  C   UNL     1     143.528 142.717 134.744  1.00  0.00    -0.055 C 
ATOM     13  C   UNL     1     143.659 142.157 136.144  1.00  0.00     0.044 C 
BRANCH  12  14
ATOM     14  C   UNL     1     142.789 143.985 134.512  1.00  0.00    -0.005 C 
ATOM     15  C   UNL     1     142.189 144.291 133.361  1.00  0.00     0.009 C 
ENDBRANCH  12  14
ENDBRANCH  10  11
ENDBRANCH   2  10
TORSDOF 6
ENDMDL
MODEL 4
REMARK VINA RESULT:    -4.773      1.704      4.440
REMARK INTER + INTRA:          -7.918
REMARK INTER:                  -6.456
REMARK INTRA:                  -1.462
REMARK UNBOUND:                -1.471
REMARK SMILES C=CC(C)=CCC=C(C)CCC=C(C)C
REMARK SMILES IDX 8 1 7 2 9 3 10 4 11 5 12 6 14 7 13 8 15 9 6 10 5 11 3 12
REMARK SMILES IDX 4 13 2 14 1 15
REMARK H PARENT
REMARK Flexibility Score: inf
ROOT
ATOM      1  C   UNL     1     140.243 144.330 133.882  1.00  0.00    -0.077 C 
ATOM      2  C   UNL     1     139.986 143.756 135.078  1.00  0.00    -0.024 C 
ATOM      3  C   UNL     1     139.217 144.332 132.773  1.00  0.00     0.039 C 
ENDROOT
BRANCH   1   4
ATOM      4  C   UNL     1     141.589 144.985 133.646  1.00  0.00     0.034 C 
BRANCH   4   5
ATOM      5  C   UNL     1     142.517 144.098 132.803  1.00  0.00     0.032 C 
BRANCH   5   6
ATOM      6  C   UNL     1     143.473 143.308 133.665  1.00  0.00    -0.028 C 
ATOM      7  C   UNL     1     142.158 141.185 133.477  1.00  0.00     0.039 C 
ATOM      8  C   UNL     1     143.345 141.990 133.942  1.00  0.00    -0.080 C 
ATOM      9  C   UNL     1     144.382 141.300 134.790  1.00  0.00     0.039 C 
ENDBRANCH   5   6
ENDBRANCH   4   5
ENDBRANCH   1   4
BRANCH   2  10
ATOM     10  C   UNL     1     138.676 143.083 135.403  1.00  0.00     0.055 C 
BRANCH  10  11
ATOM     11  C   UNL     1     138.794 141.586 135.300  1.00  0.00    -0.020 C 
ATOM     12  C   UNL     1     138.101 140.821 134.432  1.00  0.00    -0.055 C 
ATOM     13  C   UNL     1     137.098 141.416 133.467  1.00  0.00     0.044 C 
BRANCH  12  14
ATOM     14  C   UNL     1     138.293 139.349 134.497  1.00  0.00    -0.005 C 
ATOM     15  C   UNL     1     139.240 138.697 133.823  1.00  0.00     0.009 C 
ENDBRANCH  12  14
ENDBRANCH  10  11
ENDBRANCH   2  10
TORSDOF 6
ENDMDL
MODEL 5
REMARK VINA RESULT:    -4.768      1.661      4.439
REMARK INTER + INTRA:          -7.911
REMARK INTER:                  -6.422
REMARK INTRA:                  -1.489
REMARK UNBOUND:                -1.471
REMARK SMILES C=CC(C)=CCC=C(C)CCC=C(C)C
REMARK SMILES IDX 8 1 7 2 9 3 10 4 11 5 12 6 14 7 13 8 15 9 6 10 5 11 3 12
REMARK SMILES IDX 4 13 2 14 1 15
REMARK H PARENT
REMARK Flexibility Score: inf
ROOT
ATOM      1  C   UNL     1     141.974 137.893 133.831  1.00  0.00    -0.077 C 
ATOM      2  C   UNL     1     142.234 138.427 135.044  1.00  0.00    -0.024 C 
ATOM      3  C   UNL     1     142.980 137.966 132.706  1.00  0.00     0.039 C 
ENDROOT
BRANCH   1   4
ATOM      4  C   UNL     1     140.644 137.208 133.590  1.00  0.00     0.034 C 
BRANCH   4   5
ATOM      5  C   UNL     1     139.687 138.087 132.771  1.00  0.00     0.032 C 
BRANCH   5   6
ATOM      6  C   UNL     1     138.741 138.863 133.657  1.00  0.00    -0.028 C 
ATOM      7  C   UNL     1     140.033 140.999 133.457  1.00  0.00     0.039 C 
ATOM      8  C   UNL     1     138.863 140.180 133.940  1.00  0.00    -0.080 C 
ATOM      9  C   UNL     1     137.838 140.856 134.813  1.00  0.00     0.039 C 
ENDBRANCH   5   6
ENDBRANCH   4   5
ENDBRANCH   1   4
BRANCH   2  10
ATOM     10  C   UNL     1     143.530 139.126 135.375  1.00  0.00     0.055 C 
BRANCH  10  11
ATOM     11  C   UNL     1     143.389 140.620 135.251  1.00  0.00    -0.020 C 
ATOM     12  C   UNL     1     144.088 141.387 134.391  1.00  0.00    -0.055 C 
ATOM     13  C   UNL     1     145.123 140.799 133.457  1.00  0.00     0.044 C 
BRANCH  12  14
ATOM     14  C   UNL     1     143.869 142.856 134.434  1.00  0.00    -0.005 C 
ATOM     15  C   UNL     1     142.735 143.422 134.849  1.00  0.00     0.009 C 
ENDBRANCH  12  14
ENDBRANCH  10  11
ENDBRANCH   2  10
TORSDOF 6
ENDMDL
MODEL 6
REMARK VINA RESULT:    -4.729      1.244      2.426
REMARK INTER + INTRA:          -7.859
REMARK INTER:                  -6.785
REMARK INTRA:                  -1.074
REMARK UNBOUND:                -1.471
REMARK SMILES C=CC(C)=CCC=C(C)CCC=C(C)C
REMARK SMILES IDX 8 1 7 2 9 3 10 4 11 5 12 6 14 7 13 8 15 9 6 10 5 11 3 12
REMARK SMILES IDX 4 13 2 14 1 15
REMARK H PARENT
REMARK Flexibility Score: inf
ROOT
ATOM      1  C   UNL     1     143.258 143.251 134.055  1.00  0.00    -0.077 C 
ATOM      2  C   UNL     1     142.372 143.985 133.347  1.00  0.00    -0.024 C 
ATOM      3  C   UNL     1     143.096 143.039 135.541  1.00  0.00     0.039 C 
ENDROOT
BRANCH   1   4
ATOM      4  C   UNL     1     144.442 142.628 133.343  1.00  0.00     0.034 C 
BRANCH   4   5
ATOM      5  C   UNL     1     144.855 141.293 133.979  1.00  0.00     0.032 C 
BRANCH   5   6
ATOM      6  C   UNL     1     144.261 140.114 133.244  1.00  0.00    -0.028 C 
ATOM      7  C   UNL     1     143.369 139.046 135.326  1.00  0.00     0.039 C 
ATOM      8  C   UNL     1     143.558 139.120 133.832  1.00  0.00    -0.080 C 
ATOM      9  C   UNL     1     142.985 138.009 132.990  1.00  0.00     0.039 C 
ENDBRANCH   5   6
ENDBRANCH   4   5
ENDBRANCH   1   4
BRANCH   2  10
ATOM     10  C   UNL     1     141.164 144.641 133.970  1.00  0.00     0.055 C 
BRANCH  10  11
ATOM     11  C   UNL     1     139.919 143.830 133.726  1.00  0.00    -0.020 C 
ATOM     12  C   UNL     1     139.151 143.295 134.696  1.00  0.00    -0.055 C 
ATOM     13  C   UNL     1     139.492 143.452 136.162  1.00  0.00     0.044 C 
BRANCH  12  14
ATOM     14  C   UNL     1     137.984 142.473 134.284  1.00  0.00    -0.005 C 
ATOM     15  C   UNL     1     137.708 142.164 133.017  1.00  0.00     0.009 C 
ENDBRANCH  12  14
ENDBRANCH  10  11
ENDBRANCH   2  10
TORSDOF 6
ENDMDL
MODEL 7
REMARK VINA RESULT:    -4.727      2.099      6.375
REMARK INTER + INTRA:          -7.857
REMARK INTER:                  -6.764
REMARK INTRA:                  -1.093
REMARK UNBOUND:                -1.471
REMARK SMILES C=CC(C)=CCC=C(C)CCC=C(C)C
REMARK SMILES IDX 8 1 7 2 9 3 10 4 11 5 12 6 14 7 13 8 15 9 6 10 5 11 3 12
REMARK SMILES IDX 4 13 2 14 1 15
REMARK H PARENT
REMARK Flexibility Score: inf
ROOT
ATOM      1  C   UNL     1     138.706 139.086 133.735  1.00  0.00    -0.077 C 
ATOM      2  C   UNL     1     139.604 138.325 133.072  1.00  0.00    -0.024 C 
ATOM      3  C   UNL     1     138.757 139.235 135.237  1.00  0.00     0.039 C 
ENDROOT
BRANCH   1   4
ATOM      4  C   UNL     1     137.623 139.804 132.956  1.00  0.00     0.034 C 
BRANCH   4   5
ATOM      5  C   UNL     1     137.242 141.142 133.606  1.00  0.00     0.032 C 
BRANCH   5   6
ATOM      6  C   UNL     1     138.020 142.295 133.016  1.00  0.00    -0.028 C 
ATOM      7  C   UNL     1     138.788 143.141 135.245  1.00  0.00     0.039 C 
ATOM      8  C   UNL     1     138.751 143.175 133.737  1.00  0.00    -0.080 C 
ATOM      9  C   UNL     1     139.513 144.268 133.034  1.00  0.00     0.039 C 
ENDBRANCH   5   6
ENDBRANCH   4   5
ENDBRANCH   1   4
BRANCH   2  10
ATOM     10  C   UNL     1     140.717 137.575 133.763  1.00  0.00     0.055 C 
BRANCH  10  11
ATOM     11  C   UNL     1     142.014 138.334 133.684  1.00  0.00    -0.020 C 
ATOM     12  C   UNL     1     142.719 138.759 134.752  1.00  0.00    -0.055 C 
ATOM     13  C   UNL     1     142.245 138.520 136.169  1.00  0.00     0.044 C 
BRANCH  12  14
ATOM     14  C   UNL     1     143.954 139.546 134.500  1.00  0.00    -0.005 C 
ATOM     15  C   UNL     1     144.352 139.930 133.287  1.00  0.00     0.009 C 
ENDBRANCH  12  14
ENDBRANCH  10  11
ENDBRANCH   2  10
TORSDOF 6
ENDMDL
MODEL 8
REMARK VINA RESULT:    -4.705      1.907      5.746
REMARK INTER + INTRA:          -7.826
REMARK INTER:                  -6.784
REMARK INTRA:                  -1.042
REMARK UNBOUND:                -1.471
REMARK SMILES C=CC(C)=CCC=C(C)CCC=C(C)C
REMARK SMILES IDX 8 1 7 2 9 3 10 4 11 5 12 6 14 7 13 8 15 9 6 10 5 11 3 12
REMARK SMILES IDX 4 13 2 14 1 15
REMARK H PARENT
REMARK Flexibility Score: inf
ROOT
ATOM      1  C   UNL     1     138.941 143.246 134.003  1.00  0.00    -0.077 C 
ATOM      2  C   UNL     1     138.256 142.289 133.341  1.00  0.00    -0.024 C 
ATOM      3  C   UNL     1     139.075 143.222 135.507  1.00  0.00     0.039 C 
ENDROOT
BRANCH   1   4
ATOM      4  C   UNL     1     139.588 144.372 133.220  1.00  0.00     0.034 C 
BRANCH   4   5
ATOM      5  C   UNL     1     140.924 144.806 133.841  1.00  0.00     0.032 C 
BRANCH   5   6
ATOM      6  C   UNL     1     142.103 144.338 133.020  1.00  0.00    -0.028 C 
ATOM      7  C   UNL     1     143.204 143.179 134.947  1.00  0.00     0.039 C 
ATOM      8  C   UNL     1     143.112 143.573 133.494  1.00  0.00    -0.080 C 
ATOM      9  C   UNL     1     144.221 143.141 132.570  1.00  0.00     0.039 C 
ENDBRANCH   5   6
ENDBRANCH   4   5
ENDBRANCH   1   4
BRANCH   2  10
ATOM     10  C   UNL     1     137.581 141.131 134.035  1.00  0.00     0.055 C 
BRANCH  10  11
ATOM     11  C   UNL     1     138.393 139.870 133.902  1.00  0.00    -0.020 C 
ATOM     12  C   UNL     1     138.924 139.189 134.938  1.00  0.00    -0.055 C 
ATOM     13  C   UNL     1     138.761 139.655 136.368  1.00  0.00     0.044 C 
BRANCH  12  14
ATOM     14  C   UNL     1     139.747 137.991 134.631  1.00  0.00    -0.005 C 
ATOM     15  C   UNL     1     140.199 137.696 133.412  1.00  0.00     0.009 C 
ENDBRANCH  12  14
ENDBRANCH  10  11
ENDBRANCH   2  10
TORSDOF 6
ENDMDL
MODEL 9
REMARK VINA RESULT:    -4.652      1.177      5.247
REMARK INTER + INTRA:          -7.755
REMARK INTER:                  -6.693
REMARK INTRA:                  -1.062
REMARK UNBOUND:                -1.471
REMARK SMILES C=CC(C)=CCC=C(C)CCC=C(C)C
REMARK SMILES IDX 8 1 7 2 9 3 10 4 11 5 12 6 14 7 13 8 15 9 6 10 5 11 3 12
REMARK SMILES IDX 4 13 2 14 1 15
REMARK H PARENT
REMARK Flexibility Score: inf
ROOT
ATOM      1  C   UNL     1     143.255 143.251 133.881  1.00  0.00    -0.077 C 
ATOM      2  C   UNL     1     143.961 142.401 133.104  1.00  0.00    -0.024 C 
ATOM      3  C   UNL     1     143.202 143.087 135.381  1.00  0.00     0.039 C 
ENDROOT
BRANCH   1   4
ATOM      4  C   UNL     1     142.496 144.393 133.234  1.00  0.00     0.034 C 
BRANCH   4   5
ATOM      5  C   UNL     1     141.210 144.733 134.001  1.00  0.00     0.032 C 
BRANCH   5   6
ATOM      6  C   UNL     1     140.039 143.906 133.527  1.00  0.00    -0.028 C 
ATOM      7  C   UNL     1     139.315 143.291 135.844  1.00  0.00     0.039 C 
ATOM      8  C   UNL     1     139.157 143.287 134.344  1.00  0.00    -0.080 C 
ATOM      9  C   UNL     1     138.006 142.514 133.755  1.00  0.00     0.039 C 
ENDBRANCH   5   6
ENDBRANCH   4   5
ENDBRANCH   1   4
BRANCH   2  10
ATOM     10  C   UNL     1     144.747 141.239 133.659  1.00  0.00     0.055 C 
BRANCH  10  11
ATOM     11  C   UNL     1     144.358 139.950 132.985  1.00  0.00    -0.020 C 
ATOM     12  C   UNL     1     143.450 139.077 133.466  1.00  0.00    -0.055 C 
ATOM     13  C   UNL     1     142.731 139.314 134.777  1.00  0.00     0.044 C 
BRANCH  12  14
ATOM     14  C   UNL     1     143.223 137.822 132.705  1.00  0.00    -0.005 C 
ATOM     15  C   UNL     1     143.507 137.680 131.410  1.00  0.00     0.009 C 
ENDBRANCH  12  14
ENDBRANCH  10  11
ENDBRANCH   2  10
TORSDOF 6
ENDMDL
