MODEL 1
REMARK VINA RESULT:    -6.019      0.000      0.000
REMARK INTER + INTRA:         -12.881
REMARK INTER:                 -10.593
REMARK INTRA:                  -2.288
REMARK UNBOUND:                -2.288
REMARK SMILES CCCCCCC=CCCCCCCCC(=O)[O-]
REMARK SMILES IDX 10 1 11 2 12 3 13 4 14 5 15 6 16 7 17 8 18 9 9 10 8 11 7 12
REMARK SMILES IDX 6 13 5 14 4 15 3 16 2 17 1 18
REMARK H PARENT
REMARK Flexibility Score: inf
ROOT
ATOM      1  C   UNL     1     -18.144  -8.754   1.172  1.00  0.00     0.004 C 
ENDROOT
BRANCH   1   2
ATOM      2  C   UNL     1     -16.877  -7.950   0.846  1.00  0.00     0.000 C 
BRANCH   2   3
ATOM      3  C   UNL     1     -15.655  -8.861   0.601  1.00  0.00     0.000 C 
BRANCH   3   4
ATOM      4  C   UNL     1     -15.237  -8.950  -0.877  1.00  0.00     0.000 C 
BRANCH   4   5
ATOM      5  C   UNL     1     -15.967  -7.930  -1.766  1.00  0.00     0.006 C 
BRANCH   5   6
ATOM      6  C   UNL     1     -16.817  -8.608  -2.848  1.00  0.00     0.053 C 
BRANCH   6   7
ATOM      7  C   UNL     1     -16.112  -8.643  -4.170  1.00  0.00     0.041 C 
ATOM      8  O   UNL     1     -16.501  -7.907  -5.115  1.00  0.00    -0.550 OA
ATOM      9  O   UNL     1     -15.045  -9.511  -4.368  1.00  0.00    -0.550 OA
ENDBRANCH   6   7
ENDBRANCH   5   6
ENDBRANCH   4   5
ENDBRANCH   3   4
ENDBRANCH   2   3
ENDBRANCH   1   2
BRANCH   1  10
ATOM     10  C   UNL     1     -19.133  -8.724  -0.000  1.00  0.00     0.027 C 
BRANCH  10  11
ATOM     11  C   UNL     1     -19.248 -10.076  -0.648  1.00  0.00    -0.031 C 
ATOM     12  C   UNL     1     -18.583 -11.141  -0.176  1.00  0.00    -0.031 C 
BRANCH  12  13
ATOM     13  C   UNL     1     -18.700 -12.493  -0.824  1.00  0.00     0.027 C 
BRANCH  13  14
ATOM     14  C   UNL     1     -17.811 -12.586  -2.075  1.00  0.00     0.004 C 
BRANCH  14  15
ATOM     15  C   UNL     1     -16.331 -12.286  -1.781  1.00  0.00     0.000 C 
BRANCH  15  16
ATOM     16  C   UNL     1     -15.535 -13.464  -1.191  1.00  0.00    -0.000 C 
BRANCH  16  17
ATOM     17  C   UNL     1     -14.886 -13.131   0.160  1.00  0.00    -0.003 C 
ATOM     18  C   UNL     1     -15.692 -13.715   1.317  1.00  0.00     0.004 C 
ENDBRANCH  16  17
ENDBRANCH  15  16
ENDBRANCH  14  15
ENDBRANCH  13  14
ENDBRANCH  12  13
ENDBRANCH  10  11
ENDBRANCH   1  10
TORSDOF 13
ENDMDL
MODEL 2
REMARK VINA RESULT:    -6.015      0.937      1.710
REMARK INTER + INTRA:         -12.874
REMARK INTER:                 -11.257
REMARK INTRA:                  -1.617
REMARK UNBOUND:                -2.288
REMARK SMILES CCCCCCC=CCCCCCCCC(=O)[O-]
REMARK SMILES IDX 10 1 11 2 12 3 13 4 14 5 15 6 16 7 17 8 18 9 9 10 8 11 7 12
REMARK SMILES IDX 6 13 5 14 4 15 3 16 2 17 1 18
REMARK H PARENT
REMARK Flexibility Score: inf
ROOT
ATOM      1  C   UNL     1     -18.008 -10.302   0.273  1.00  0.00     0.004 C 
ENDROOT
BRANCH   1   2
ATOM      2  C   UNL     1     -18.191  -8.886   0.838  1.00  0.00     0.000 C 
BRANCH   2   3
ATOM      3  C   UNL     1     -16.901  -8.046   0.736  1.00  0.00     0.000 C 
BRANCH   3   4
ATOM      4  C   UNL     1     -15.906  -8.569  -0.316  1.00  0.00     0.000 C 
BRANCH   4   5
ATOM      5  C   UNL     1     -15.910  -7.736  -1.608  1.00  0.00     0.006 C 
BRANCH   5   6
ATOM      6  C   UNL     1     -16.823  -8.337  -2.683  1.00  0.00     0.053 C 
BRANCH   6   7
ATOM      7  C   UNL     1     -16.109  -8.508  -3.990  1.00  0.00     0.041 C 
ATOM      8  O   UNL     1     -15.007  -9.117  -4.034  1.00  0.00    -0.550 OA
ATOM      9  O   UNL     1     -16.645  -7.968  -5.153  1.00  0.00    -0.550 OA
ENDBRANCH   6   7
ENDBRANCH   5   6
ENDBRANCH   4   5
ENDBRANCH   3   4
ENDBRANCH   2   3
ENDBRANCH   1   2
BRANCH   1  10
ATOM     10  C   UNL     1     -18.994 -10.571  -0.870  1.00  0.00     0.027 C 
BRANCH  10  11
ATOM     11  C   UNL     1     -18.454 -11.601  -1.823  1.00  0.00    -0.031 C 
ATOM     12  C   UNL     1     -18.917 -12.861  -1.833  1.00  0.00    -0.031 C 
BRANCH  12  13
ATOM     13  C   UNL     1     -18.377 -13.890  -2.786  1.00  0.00     0.027 C 
BRANCH  13  14
ATOM     14  C   UNL     1     -16.843 -13.954  -2.720  1.00  0.00     0.004 C 
BRANCH  14  15
ATOM     15  C   UNL     1     -16.327 -14.727  -1.494  1.00  0.00     0.000 C 
BRANCH  15  16
ATOM     16  C   UNL     1     -15.459 -13.904  -0.526  1.00  0.00    -0.000 C 
BRANCH  16  17
ATOM     17  C   UNL     1     -16.203 -13.513   0.760  1.00  0.00    -0.003 C 
ATOM     18  C   UNL     1     -15.557 -14.153   1.985  1.00  0.00     0.004 C 
ENDBRANCH  16  17
ENDBRANCH  15  16
ENDBRANCH  14  15
ENDBRANCH  13  14
ENDBRANCH  12  13
ENDBRANCH  10  11
ENDBRANCH   1  10
TORSDOF 13
ENDMDL
MODEL 3
REMARK VINA RESULT:    -5.942      1.230      2.454
REMARK INTER + INTRA:         -12.745
REMARK INTER:                 -10.570
REMARK INTRA:                  -2.176
REMARK UNBOUND:                -2.288
REMARK SMILES CCCCCCC=CCCCCCCCC(=O)[O-]
REMARK SMILES IDX 10 1 11 2 12 3 13 4 14 5 15 6 16 7 17 8 18 9 9 10 8 11 7 12
REMARK SMILES IDX 6 13 5 14 4 15 3 16 2 17 1 18
REMARK H PARENT
REMARK Flexibility Score: inf
ROOT
ATOM      1  C   UNL     1     -19.113  -9.103  -0.269  1.00  0.00     0.004 C 
ENDROOT
BRANCH   1   2
ATOM      2  C   UNL     1     -18.137  -8.829   0.885  1.00  0.00     0.000 C 
BRANCH   2   3
ATOM      3  C   UNL     1     -17.036  -7.823   0.491  1.00  0.00     0.000 C 
BRANCH   3   4
ATOM      4  C   UNL     1     -15.643  -8.459   0.344  1.00  0.00     0.000 C 
BRANCH   4   5
ATOM      5  C   UNL     1     -15.167  -8.524  -1.117  1.00  0.00     0.006 C 
BRANCH   5   6
ATOM      6  C   UNL     1     -16.141  -7.827  -2.075  1.00  0.00     0.053 C 
BRANCH   6   7
ATOM      7  C   UNL     1     -16.217  -8.525  -3.399  1.00  0.00     0.041 C 
ATOM      8  O   UNL     1     -16.408  -7.863  -4.454  1.00  0.00    -0.550 OA
ATOM      9  O   UNL     1     -16.106  -9.908  -3.465  1.00  0.00    -0.550 OA
ENDBRANCH   6   7
ENDBRANCH   5   6
ENDBRANCH   4   5
ENDBRANCH   3   4
ENDBRANCH   2   3
ENDBRANCH   1   2
BRANCH   1  10
ATOM     10  C   UNL     1     -18.673 -10.327  -1.083  1.00  0.00     0.027 C 
BRANCH  10  11
ATOM     11  C   UNL     1     -18.023 -11.358  -0.204  1.00  0.00    -0.031 C 
ATOM     12  C   UNL     1     -16.817 -11.871  -0.494  1.00  0.00    -0.031 C 
BRANCH  12  13
ATOM     13  C   UNL     1     -16.167 -12.902   0.386  1.00  0.00     0.027 C 
BRANCH  13  14
ATOM     14  C   UNL     1     -16.298 -14.308  -0.219  1.00  0.00     0.004 C 
BRANCH  14  15
ATOM     15  C   UNL     1     -15.964 -14.348  -1.721  1.00  0.00     0.000 C 
BRANCH  15  16
ATOM     16  C   UNL     1     -17.051 -14.976  -2.611  1.00  0.00    -0.000 C 
BRANCH  16  17
ATOM     17  C   UNL     1     -17.866 -13.932  -3.388  1.00  0.00    -0.003 C 
ATOM     18  C   UNL     1     -19.311 -13.886  -2.899  1.00  0.00     0.004 C 
ENDBRANCH  16  17
ENDBRANCH  15  16
ENDBRANCH  14  15
ENDBRANCH  13  14
ENDBRANCH  12  13
ENDBRANCH  10  11
ENDBRANCH   1  10
TORSDOF 13
ENDMDL
MODEL 4
REMARK VINA RESULT:    -5.894      2.416      5.562
REMARK INTER + INTRA:         -12.661
REMARK INTER:                 -11.126
REMARK INTRA:                  -1.534
REMARK UNBOUND:                -2.288
REMARK SMILES CCCCCCC=CCCCCCCCC(=O)[O-]
REMARK SMILES IDX 10 1 11 2 12 3 13 4 14 5 15 6 16 7 17 8 18 9 9 10 8 11 7 12
REMARK SMILES IDX 6 13 5 14 4 15 3 16 2 17 1 18
REMARK H PARENT
REMARK Flexibility Score: inf
ROOT
ATOM      1  C   UNL     1     -18.995 -11.876  -0.421  1.00  0.00     0.004 C 
ENDROOT
BRANCH   1   2
ATOM      2  C   UNL     1     -18.862 -13.197  -1.193  1.00  0.00     0.000 C 
BRANCH   2   3
ATOM      3  C   UNL     1     -17.925 -13.068  -2.412  1.00  0.00     0.000 C 
BRANCH   3   4
ATOM      4  C   UNL     1     -16.974 -14.265  -2.590  1.00  0.00     0.000 C 
BRANCH   4   5
ATOM      5  C   UNL     1     -16.415 -14.787  -1.256  1.00  0.00     0.006 C 
BRANCH   5   6
ATOM      6  C   UNL     1     -15.225 -13.956  -0.761  1.00  0.00     0.053 C 
BRANCH   6   7
ATOM      7  C   UNL     1     -15.522 -13.280   0.543  1.00  0.00     0.041 C 
ATOM      8  O   UNL     1     -15.636 -12.027   0.595  1.00  0.00    -0.550 OA
ATOM      9  O   UNL     1     -15.642 -14.031   1.706  1.00  0.00    -0.550 OA
ENDBRANCH   6   7
ENDBRANCH   5   6
ENDBRANCH   4   5
ENDBRANCH   3   4
ENDBRANCH   2   3
ENDBRANCH   1   2
BRANCH   1  10
ATOM     10  C   UNL     1     -19.074 -10.683  -1.381  1.00  0.00     0.027 C 
BRANCH  10  11
ATOM     11  C   UNL     1     -18.798  -9.390  -0.664  1.00  0.00    -0.031 C 
ATOM     12  C   UNL     1     -18.059  -9.350   0.454  1.00  0.00    -0.031 C 
BRANCH  12  13
ATOM     13  C   UNL     1     -17.783  -8.056   1.170  1.00  0.00     0.027 C 
BRANCH  13  14
ATOM     14  C   UNL     1     -16.340  -7.588   0.930  1.00  0.00     0.004 C 
BRANCH  14  15
ATOM     15  C   UNL     1     -15.641  -8.355  -0.207  1.00  0.00     0.000 C 
BRANCH  15  16
ATOM     16  C   UNL     1     -15.591  -7.615  -1.555  1.00  0.00    -0.000 C 
BRANCH  16  17
ATOM     17  C   UNL     1     -15.484  -8.565  -2.756  1.00  0.00    -0.003 C 
ATOM     18  C   UNL     1     -16.702  -8.442  -3.666  1.00  0.00     0.004 C 
ENDBRANCH  16  17
ENDBRANCH  15  16
ENDBRANCH  14  15
ENDBRANCH  13  14
ENDBRANCH  12  13
ENDBRANCH  10  11
ENDBRANCH   1  10
TORSDOF 13
ENDMDL
MODEL 5
REMARK VINA RESULT:    -5.773      1.299      3.059
REMARK INTER + INTRA:         -12.449
REMARK INTER:                 -10.271
REMARK INTRA:                  -2.177
REMARK UNBOUND:                -2.288
REMARK SMILES CCCCCCC=CCCCCCCCC(=O)[O-]
REMARK SMILES IDX 10 1 11 2 12 3 13 4 14 5 15 6 16 7 17 8 18 9 9 10 8 11 7 12
REMARK SMILES IDX 6 13 5 14 4 15 3 16 2 17 1 18
REMARK H PARENT
REMARK Flexibility Score: inf
ROOT
ATOM      1  C   UNL     1     -16.844  -8.226   0.849  1.00  0.00     0.004 C 
ENDROOT
BRANCH   1   2
ATOM      2  C   UNL     1     -17.990  -9.244   0.744  1.00  0.00     0.000 C 
BRANCH   2   3
ATOM      3  C   UNL     1     -18.794  -9.083  -0.563  1.00  0.00     0.000 C 
BRANCH   3   4
ATOM      4  C   UNL     1     -18.727 -10.314  -1.484  1.00  0.00     0.000 C 
BRANCH   4   5
ATOM      5  C   UNL     1     -17.587 -10.231  -2.511  1.00  0.00     0.006 C 
BRANCH   5   6
ATOM      6  C   UNL     1     -17.154  -8.784  -2.781  1.00  0.00     0.053 C 
BRANCH   6   7
ATOM      7  C   UNL     1     -16.300  -8.677  -4.008  1.00  0.00     0.041 C 
ATOM      8  O   UNL     1     -15.122  -9.122  -4.001  1.00  0.00    -0.550 OA
ATOM      9  O   UNL     1     -16.796  -8.059  -5.150  1.00  0.00    -0.550 OA
ENDBRANCH   6   7
ENDBRANCH   5   6
ENDBRANCH   4   5
ENDBRANCH   3   4
ENDBRANCH   2   3
ENDBRANCH   1   2
BRANCH   1  10
ATOM     10  C   UNL     1     -15.503  -8.864   0.465  1.00  0.00     0.027 C 
BRANCH  10  11
ATOM     11  C   UNL     1     -15.580 -10.365   0.522  1.00  0.00    -0.031 C 
ATOM     12  C   UNL     1     -14.910 -11.137  -0.347  1.00  0.00    -0.031 C 
BRANCH  12  13
ATOM     13  C   UNL     1     -14.986 -12.637  -0.289  1.00  0.00     0.027 C 
BRANCH  13  14
ATOM     14  C   UNL     1     -16.317 -13.100   0.326  1.00  0.00     0.004 C 
BRANCH  14  15
ATOM     15  C   UNL     1     -17.307 -13.637  -0.722  1.00  0.00     0.000 C 
BRANCH  15  16
ATOM     16  C   UNL     1     -16.708 -14.635  -1.729  1.00  0.00    -0.000 C 
BRANCH  16  17
ATOM     17  C   UNL     1     -17.520 -14.734  -3.028  1.00  0.00    -0.003 C 
ATOM     18  C   UNL     1     -18.841 -13.980  -2.911  1.00  0.00     0.004 C 
ENDBRANCH  16  17
ENDBRANCH  15  16
ENDBRANCH  14  15
ENDBRANCH  13  14
ENDBRANCH  12  13
ENDBRANCH  10  11
ENDBRANCH   1  10
TORSDOF 13
ENDMDL
MODEL 6
REMARK VINA RESULT:    -5.771      2.189      3.684
REMARK INTER + INTRA:         -12.445
REMARK INTER:                 -10.521
REMARK INTRA:                  -1.924
REMARK UNBOUND:                -2.288
REMARK SMILES CCCCCCC=CCCCCCCCC(=O)[O-]
REMARK SMILES IDX 10 1 11 2 12 3 13 4 14 5 15 6 16 7 17 8 18 9 9 10 8 11 7 12
REMARK SMILES IDX 6 13 5 14 4 15 3 16 2 17 1 18
REMARK H PARENT
REMARK Flexibility Score: inf
ROOT
ATOM      1  C   UNL     1     -16.501  -8.181  -2.368  1.00  0.00     0.004 C 
ENDROOT
BRANCH   1   2
ATOM      2  C   UNL     1     -15.599  -7.629  -1.253  1.00  0.00     0.000 C 
BRANCH   2   3
ATOM      3  C   UNL     1     -15.706  -8.457   0.045  1.00  0.00     0.000 C 
BRANCH   3   4
ATOM      4  C   UNL     1     -16.832  -7.991   0.983  1.00  0.00     0.000 C 
BRANCH   4   5
ATOM      5  C   UNL     1     -18.119  -8.818   0.829  1.00  0.00     0.006 C 
BRANCH   5   6
ATOM      6  C   UNL     1     -17.827 -10.289   0.508  1.00  0.00     0.053 C 
BRANCH   6   7
ATOM      7  C   UNL     1     -18.858 -10.875  -0.409  1.00  0.00     0.041 C 
ATOM      8  O   UNL     1     -19.307 -12.032  -0.200  1.00  0.00    -0.550 OA
ATOM      9  O   UNL     1     -19.299 -10.154  -1.512  1.00  0.00    -0.550 OA
ENDBRANCH   6   7
ENDBRANCH   5   6
ENDBRANCH   4   5
ENDBRANCH   3   4
ENDBRANCH   2   3
ENDBRANCH   1   2
BRANCH   1  10
ATOM     10  C   UNL     1     -15.679  -8.544  -3.611  1.00  0.00     0.027 C 
BRANCH  10  11
ATOM     11  C   UNL     1     -15.451 -10.028  -3.698  1.00  0.00    -0.031 C 
ATOM     12  C   UNL     1     -16.083 -10.885  -2.881  1.00  0.00    -0.031 C 
BRANCH  12  13
ATOM     13  C   UNL     1     -15.855 -12.369  -2.969  1.00  0.00     0.027 C 
BRANCH  13  14
ATOM     14  C   UNL     1     -17.184 -13.137  -2.905  1.00  0.00     0.004 C 
BRANCH  14  15
ATOM     15  C   UNL     1     -17.199 -14.219  -1.811  1.00  0.00     0.000 C 
BRANCH  15  16
ATOM     16  C   UNL     1     -15.860 -14.418  -1.078  1.00  0.00    -0.000 C 
BRANCH  16  17
ATOM     17  C   UNL     1     -15.928 -14.033   0.408  1.00  0.00    -0.003 C 
ATOM     18  C   UNL     1     -15.125 -12.765   0.685  1.00  0.00     0.004 C 
ENDBRANCH  16  17
ENDBRANCH  15  16
ENDBRANCH  14  15
ENDBRANCH  13  14
ENDBRANCH  12  13
ENDBRANCH  10  11
ENDBRANCH   1  10
TORSDOF 13
ENDMDL
MODEL 7
REMARK VINA RESULT:    -5.743      2.272      5.433
REMARK INTER + INTRA:         -12.395
REMARK INTER:                 -10.300
REMARK INTRA:                  -2.095
REMARK UNBOUND:                -2.288
REMARK SMILES CCCCCCC=CCCCCCCCC(=O)[O-]
REMARK SMILES IDX 10 1 11 2 12 3 13 4 14 5 15 6 16 7 17 8 18 9 9 10 8 11 7 12
REMARK SMILES IDX 6 13 5 14 4 15 3 16 2 17 1 18
REMARK H PARENT
REMARK Flexibility Score: inf
ROOT
ATOM      1  C   UNL     1     -15.302 -13.878   0.352  1.00  0.00     0.004 C 
ENDROOT
BRANCH   1   2
ATOM      2  C   UNL     1     -16.592 -14.301  -0.366  1.00  0.00     0.000 C 
BRANCH   2   3
ATOM      3  C   UNL     1     -16.332 -14.736  -1.823  1.00  0.00     0.000 C 
BRANCH   3   4
ATOM      4  C   UNL     1     -16.877 -13.747  -2.869  1.00  0.00     0.000 C 
BRANCH   4   5
ATOM      5  C   UNL     1     -18.233 -13.142  -2.469  1.00  0.00     0.006 C 
BRANCH   5   6
ATOM      6  C   UNL     1     -18.175 -11.613  -2.358  1.00  0.00     0.053 C 
BRANCH   6   7
ATOM      7  C   UNL     1     -18.909 -11.114  -1.151  1.00  0.00     0.041 C 
ATOM      8  O   UNL     1     -19.098  -9.879  -0.990  1.00  0.00    -0.550 OA
ATOM      9  O   UNL     1     -19.358 -12.010  -0.188  1.00  0.00    -0.550 OA
ENDBRANCH   6   7
ENDBRANCH   5   6
ENDBRANCH   4   5
ENDBRANCH   3   4
ENDBRANCH   2   3
ENDBRANCH   1   2
BRANCH   1  10
ATOM     10  C   UNL     1     -14.784 -12.540  -0.188  1.00  0.00     0.027 C 
BRANCH  10  11
ATOM     11  C   UNL     1     -15.583 -11.388   0.357  1.00  0.00    -0.031 C 
ATOM     12  C   UNL     1     -15.390 -10.132  -0.074  1.00  0.00    -0.031 C 
BRANCH  12  13
ATOM     13  C   UNL     1     -16.190  -8.982   0.470  1.00  0.00     0.027 C 
BRANCH  13  14
ATOM     14  C   UNL     1     -15.951  -7.704  -0.349  1.00  0.00     0.004 C 
BRANCH  14  15
ATOM     15  C   UNL     1     -15.526  -7.994  -1.800  1.00  0.00     0.000 C 
BRANCH  15  16
ATOM     16  C   UNL     1     -16.681  -8.050  -2.816  1.00  0.00    -0.000 C 
BRANCH  16  17
ATOM     17  C   UNL     1     -16.337  -8.871  -4.067  1.00  0.00    -0.003 C 
ATOM     18  C   UNL     1     -14.988  -9.567  -3.916  1.00  0.00     0.004 C 
ENDBRANCH  16  17
ENDBRANCH  15  16
ENDBRANCH  14  15
ENDBRANCH  13  14
ENDBRANCH  12  13
ENDBRANCH  10  11
ENDBRANCH   1  10
TORSDOF 13
ENDMDL
MODEL 8
REMARK VINA RESULT:    -5.491      2.494      5.354
REMARK INTER + INTRA:         -11.952
REMARK INTER:                  -9.941
REMARK INTRA:                  -2.011
REMARK UNBOUND:                -2.288
REMARK SMILES CCCCCCC=CCCCCCCCC(=O)[O-]
REMARK SMILES IDX 10 1 11 2 12 3 13 4 14 5 15 6 16 7 17 8 18 9 9 10 8 11 7 12
REMARK SMILES IDX 6 13 5 14 4 15 3 16 2 17 1 18
REMARK H PARENT
REMARK Flexibility Score: inf
ROOT
ATOM      1  C   UNL     1     -19.168 -12.964  -1.006  1.00  0.00     0.004 C 
ENDROOT
BRANCH   1   2
ATOM      2  C   UNL     1     -18.996 -13.259  -2.503  1.00  0.00     0.000 C 
BRANCH   2   3
ATOM      3  C   UNL     1     -17.891 -14.303  -2.768  1.00  0.00     0.000 C 
BRANCH   3   4
ATOM      4  C   UNL     1     -16.561 -13.688  -3.239  1.00  0.00     0.000 C 
BRANCH   4   5
ATOM      5  C   UNL     1     -15.566 -13.464  -2.089  1.00  0.00     0.006 C 
BRANCH   5   6
ATOM      6  C   UNL     1     -15.873 -14.351  -0.876  1.00  0.00     0.053 C 
BRANCH   6   7
ATOM      7  C   UNL     1     -15.666 -13.620   0.416  1.00  0.00     0.041 C 
ATOM      8  O   UNL     1     -15.356 -14.253   1.459  1.00  0.00    -0.550 OA
ATOM      9  O   UNL     1     -15.845 -12.243   0.473  1.00  0.00    -0.550 OA
ENDBRANCH   6   7
ENDBRANCH   5   6
ENDBRANCH   4   5
ENDBRANCH   3   4
ENDBRANCH   2   3
ENDBRANCH   1   2
BRANCH   1  10
ATOM     10  C   UNL     1     -19.109 -11.456  -0.731  1.00  0.00     0.027 C 
BRANCH  10  11
ATOM     11  C   UNL     1     -18.107 -10.780  -1.625  1.00  0.00    -0.031 C 
ATOM     12  C   UNL     1     -18.135  -9.456  -1.839  1.00  0.00    -0.031 C 
BRANCH  12  13
ATOM     13  C   UNL     1     -17.131  -8.781  -2.732  1.00  0.00     0.027 C 
BRANCH  13  14
ATOM     14  C   UNL     1     -15.945  -9.710  -3.032  1.00  0.00     0.004 C 
BRANCH  14  15
ATOM     15  C   UNL     1     -14.823  -9.608  -1.984  1.00  0.00     0.000 C 
BRANCH  15  16
ATOM     16  C   UNL     1     -14.897  -8.369  -1.073  1.00  0.00    -0.000 C 
BRANCH  16  17
ATOM     17  C   UNL     1     -15.328  -8.705   0.362  1.00  0.00    -0.003 C 
ATOM     18  C   UNL     1     -16.330  -7.682   0.890  1.00  0.00     0.004 C 
ENDBRANCH  16  17
ENDBRANCH  15  16
ENDBRANCH  14  15
ENDBRANCH  13  14
ENDBRANCH  12  13
ENDBRANCH  10  11
ENDBRANCH   1  10
TORSDOF 13
ENDMDL
MODEL 9
REMARK VINA RESULT:    -5.488      2.299      4.070
REMARK INTER + INTRA:         -11.948
REMARK INTER:                 -10.408
REMARK INTRA:                  -1.540
REMARK UNBOUND:                -2.288
REMARK SMILES CCCCCCC=CCCCCCCCC(=O)[O-]
REMARK SMILES IDX 10 1 11 2 12 3 13 4 14 5 15 6 16 7 17 8 18 9 9 10 8 11 7 12
REMARK SMILES IDX 6 13 5 14 4 15 3 16 2 17 1 18
REMARK H PARENT
REMARK Flexibility Score: inf
ROOT
ATOM      1  C   UNL     1     -16.442  -8.130  -2.430  1.00  0.00     0.004 C 
ENDROOT
BRANCH   1   2
ATOM      2  C   UNL     1     -15.360  -7.716  -1.421  1.00  0.00     0.000 C 
BRANCH   2   3
ATOM      3  C   UNL     1     -15.627  -8.287  -0.012  1.00  0.00     0.000 C 
BRANCH   3   4
ATOM      4  C   UNL     1     -16.783  -7.590   0.727  1.00  0.00     0.000 C 
BRANCH   4   5
ATOM      5  C   UNL     1     -17.979  -8.523   0.979  1.00  0.00     0.006 C 
BRANCH   5   6
ATOM      6  C   UNL     1     -17.680  -9.972   0.574  1.00  0.00     0.053 C 
BRANCH   6   7
ATOM      7  C   UNL     1     -18.776 -10.554  -0.267  1.00  0.00     0.041 C 
ATOM      8  O   UNL     1     -19.214 -11.709  -0.025  1.00  0.00    -0.550 OA
ATOM      9  O   UNL     1     -19.292  -9.831  -1.336  1.00  0.00    -0.550 OA
ENDBRANCH   6   7
ENDBRANCH   5   6
ENDBRANCH   4   5
ENDBRANCH   3   4
ENDBRANCH   2   3
ENDBRANCH   1   2
BRANCH   1  10
ATOM     10  C   UNL     1     -15.816  -8.758  -3.681  1.00  0.00     0.027 C 
BRANCH  10  11
ATOM     11  C   UNL     1     -15.278 -10.131  -3.389  1.00  0.00    -0.031 C 
ATOM     12  C   UNL     1     -15.859 -10.937  -2.488  1.00  0.00    -0.031 C 
BRANCH  12  13
ATOM     13  C   UNL     1     -15.321 -12.311  -2.196  1.00  0.00     0.027 C 
BRANCH  13  14
ATOM     14  C   UNL     1     -15.849 -12.839  -0.853  1.00  0.00     0.004 C 
BRANCH  14  15
ATOM     15  C   UNL     1     -16.926 -13.926  -1.019  1.00  0.00     0.000 C 
BRANCH  15  16
ATOM     16  C   UNL     1     -16.829 -14.742  -2.320  1.00  0.00    -0.000 C 
BRANCH  16  17
ATOM     17  C   UNL     1     -17.759 -14.219  -3.425  1.00  0.00    -0.003 C 
ATOM     18  C   UNL     1     -19.157 -13.941  -2.881  1.00  0.00     0.004 C 
ENDBRANCH  16  17
ENDBRANCH  15  16
ENDBRANCH  14  15
ENDBRANCH  13  14
ENDBRANCH  12  13
ENDBRANCH  10  11
ENDBRANCH   1  10
TORSDOF 13
ENDMDL
