MODEL 1
REMARK VINA RESULT:    -4.053      0.000      0.000
REMARK INTER + INTRA:          -4.740
REMARK INTER:                  -4.645
REMARK INTRA:                  -0.095
REMARK UNBOUND:                -0.095
REMARK SMILES COc1cc(C(=O)[O-])ccc1O
REMARK SMILES IDX 5 1 9 2 4 3 10 4 3 5 11 6 6 7 7 8 8 9 2 10 1 11 12 12
REMARK H PARENT 12 13
REMARK Flexibility Score: inf
ROOT
ATOM      1  C   UNL     1      38.791 -21.315   0.828  1.00  0.00     0.001 A 
ATOM      2  C   UNL     1      37.965 -20.504   1.626  1.00  0.00     0.014 A 
ATOM      3  C   UNL     1      38.272 -21.858  -0.360  1.00  0.00     0.060 A 
ATOM      4  C   UNL     1      36.650 -20.242   1.243  1.00  0.00     0.051 A 
ATOM      5  C   UNL     1      36.943 -21.597  -0.752  1.00  0.00     0.161 A 
ATOM      6  C   UNL     1      36.134 -20.782   0.061  1.00  0.00     0.157 A 
ENDROOT
BRANCH   1   7
ATOM      7  C   UNL     1      40.186 -21.595   1.232  1.00  0.00     0.072 C 
ATOM      8  O   UNL     1      41.094 -21.708   0.365  1.00  0.00    -0.545 OA
ATOM      9  O   UNL     1      40.517 -21.738   2.574  1.00  0.00    -0.545 OA
ENDBRANCH   1   7
BRANCH   5  10
ATOM     10  O   UNL     1      36.398 -22.125  -1.934  1.00  0.00    -0.493 OA
ATOM     11  C   UNL     1      36.845 -21.800  -3.246  1.00  0.00     0.278 C 
ENDBRANCH   5  10
BRANCH   6  12
ATOM     12  O   UNL     1      34.814 -20.497  -0.289  1.00  0.00    -0.504 OA
ATOM     13  H   UNL     1      34.130 -21.225  -0.454  1.00  0.00     0.293 HD
ENDBRANCH   6  12
TORSDOF 3
ENDMDL
MODEL 2
REMARK VINA RESULT:    -4.009      1.642      1.788
REMARK INTER + INTRA:          -4.690
REMARK INTER:                  -4.594
REMARK INTRA:                  -0.096
REMARK UNBOUND:                -0.095
REMARK SMILES COc1cc(C(=O)[O-])ccc1O
REMARK SMILES IDX 5 1 9 2 4 3 10 4 3 5 11 6 6 7 7 8 8 9 2 10 1 11 12 12
REMARK H PARENT 12 13
REMARK Flexibility Score: inf
ROOT
ATOM      1  C   UNL     1      37.517 -20.545   1.530  1.00  0.00     0.001 A 
ATOM      2  C   UNL     1      36.359 -21.004   2.178  1.00  0.00     0.014 A 
ATOM      3  C   UNL     1      37.547 -20.513   0.125  1.00  0.00     0.060 A 
ATOM      4  C   UNL     1      35.253 -21.422   1.437  1.00  0.00     0.051 A 
ATOM      5  C   UNL     1      36.433 -20.934  -0.630  1.00  0.00     0.161 A 
ATOM      6  C   UNL     1      35.282 -21.389   0.040  1.00  0.00     0.157 A 
ENDROOT
BRANCH   1   7
ATOM      7  C   UNL     1      38.692 -20.101   2.313  1.00  0.00     0.072 C 
ATOM      8  O   UNL     1      39.659 -19.525   1.747  1.00  0.00    -0.545 OA
ATOM      9  O   UNL     1      38.746 -20.315   3.685  1.00  0.00    -0.545 OA
ENDBRANCH   1   7
BRANCH   5  10
ATOM     10  O   UNL     1      36.433 -20.912  -2.034  1.00  0.00    -0.493 OA
ATOM     11  C   UNL     1      36.893 -21.977  -2.859  1.00  0.00     0.278 C 
ENDBRANCH   5  10
BRANCH   6  12
ATOM     12  O   UNL     1      34.157 -21.814  -0.667  1.00  0.00    -0.504 OA
ATOM     13  H   UNL     1      33.441 -21.171  -0.980  1.00  0.00     0.293 HD
ENDBRANCH   6  12
TORSDOF 3
ENDMDL
MODEL 3
REMARK VINA RESULT:    -3.809      2.181      5.148
REMARK INTER + INTRA:          -4.461
REMARK INTER:                  -4.363
REMARK INTRA:                  -0.098
REMARK UNBOUND:                -0.095
REMARK SMILES COc1cc(C(=O)[O-])ccc1O
REMARK SMILES IDX 5 1 9 2 4 3 10 4 3 5 11 6 6 7 7 8 8 9 2 10 1 11 12 12
REMARK H PARENT 12 13
REMARK Flexibility Score: inf
ROOT
ATOM      1  C   UNL     1      39.130 -20.643   1.242  1.00  0.00     0.001 A 
ATOM      2  C   UNL     1      38.993 -19.950   2.457  1.00  0.00     0.014 A 
ATOM      3  C   UNL     1      40.419 -20.959   0.778  1.00  0.00     0.060 A 
ATOM      4  C   UNL     1      40.120 -19.584   3.193  1.00  0.00     0.051 A 
ATOM      5  C   UNL     1      41.562 -20.591   1.517  1.00  0.00     0.161 A 
ATOM      6  C   UNL     1      41.402 -19.900   2.731  1.00  0.00     0.157 A 
ENDROOT
BRANCH   1   7
ATOM      7  C   UNL     1      37.936 -21.032   0.459  1.00  0.00     0.072 C 
ATOM      8  O   UNL     1      37.971 -22.031  -0.308  1.00  0.00    -0.545 OA
ATOM      9  O   UNL     1      36.758 -20.302   0.559  1.00  0.00    -0.545 OA
ENDBRANCH   1   7
BRANCH   5  10
ATOM     10  O   UNL     1      42.861 -20.895   1.079  1.00  0.00    -0.493 OA
ATOM     11  C   UNL     1      43.533 -22.125   1.332  1.00  0.00     0.278 C 
ENDBRANCH   5  10
BRANCH   6  12
ATOM     12  O   UNL     1      42.505 -19.517   3.494  1.00  0.00    -0.504 OA
ATOM     13  H   UNL     1      43.150 -20.191   3.888  1.00  0.00     0.293 HD
ENDBRANCH   6  12
TORSDOF 3
ENDMDL
MODEL 4
REMARK VINA RESULT:    -3.802      1.991      5.336
REMARK INTER + INTRA:          -4.453
REMARK INTER:                  -4.363
REMARK INTRA:                  -0.090
REMARK UNBOUND:                -0.095
REMARK SMILES COc1cc(C(=O)[O-])ccc1O
REMARK SMILES IDX 5 1 9 2 4 3 10 4 3 5 11 6 6 7 7 8 8 9 2 10 1 11 12 12
REMARK H PARENT 12 13
REMARK Flexibility Score: inf
ROOT
ATOM      1  C   UNL     1      38.978 -21.433   0.580  1.00  0.00     0.001 A 
ATOM      2  C   UNL     1      40.191 -22.010   0.168  1.00  0.00     0.014 A 
ATOM      3  C   UNL     1      38.993 -20.463   1.597  1.00  0.00     0.060 A 
ATOM      4  C   UNL     1      41.394 -21.623   0.759  1.00  0.00     0.051 A 
ATOM      5  C   UNL     1      40.206 -20.068   2.198  1.00  0.00     0.161 A 
ATOM      6  C   UNL     1      41.409 -20.657   1.770  1.00  0.00     0.157 A 
ENDROOT
BRANCH   1   7
ATOM      7  C   UNL     1      37.701 -21.842  -0.045  1.00  0.00     0.072 C 
ATOM      8  O   UNL     1      36.652 -21.943   0.646  1.00  0.00    -0.545 OA
ATOM      9  O   UNL     1      37.638 -22.121  -1.406  1.00  0.00    -0.545 OA
ENDBRANCH   1   7
BRANCH   5  10
ATOM     10  O   UNL     1      40.252 -19.101   3.215  1.00  0.00    -0.493 OA
ATOM     11  C   UNL     1      40.132 -19.383   4.606  1.00  0.00     0.278 C 
ENDBRANCH   5  10
BRANCH   6  12
ATOM     12  O   UNL     1      42.631 -20.296   2.338  1.00  0.00    -0.504 OA
ATOM     13  H   UNL     1      42.846 -20.467   3.312  1.00  0.00     0.293 HD
ENDBRANCH   6  12
TORSDOF 3
ENDMDL
MODEL 5
REMARK VINA RESULT:    -3.794      2.268      5.515
REMARK INTER + INTRA:          -4.444
REMARK INTER:                  -4.340
REMARK INTRA:                  -0.103
REMARK UNBOUND:                -0.095
REMARK SMILES COc1cc(C(=O)[O-])ccc1O
REMARK SMILES IDX 5 1 9 2 4 3 10 4 3 5 11 6 6 7 7 8 8 9 2 10 1 11 12 12
REMARK H PARENT 12 13
REMARK Flexibility Score: inf
ROOT
ATOM      1  C   UNL     1      39.220 -20.892   0.952  1.00  0.00     0.001 A 
ATOM      2  C   UNL     1      40.478 -21.322   0.497  1.00  0.00     0.014 A 
ATOM      3  C   UNL     1      39.144 -20.134   2.133  1.00  0.00     0.060 A 
ATOM      4  C   UNL     1      41.635 -20.998   1.207  1.00  0.00     0.051 A 
ATOM      5  C   UNL     1      40.309 -19.804   2.855  1.00  0.00     0.161 A 
ATOM      6  C   UNL     1      41.558 -20.243   2.381  1.00  0.00     0.157 A 
ENDROOT
BRANCH   1   7
ATOM      7  C   UNL     1      37.992 -21.234   0.202  1.00  0.00     0.072 C 
ATOM      8  O   UNL     1      38.012 -22.125  -0.689  1.00  0.00    -0.545 OA
ATOM      9  O   UNL     1      36.796 -20.576   0.468  1.00  0.00    -0.545 OA
ENDBRANCH   1   7
BRANCH   5  10
ATOM     10  O   UNL     1      40.264 -19.046   4.036  1.00  0.00    -0.493 OA
ATOM     11  C   UNL     1      39.894 -19.560   5.313  1.00  0.00     0.278 C 
ENDBRANCH   5  10
BRANCH   6  12
ATOM     12  O   UNL     1      42.736 -19.939   3.063  1.00  0.00    -0.504 OA
ATOM     13  H   UNL     1      43.270 -20.642   3.560  1.00  0.00     0.293 HD
ENDBRANCH   6  12
TORSDOF 3
ENDMDL
MODEL 6
REMARK VINA RESULT:    -3.754      2.016      3.430
REMARK INTER + INTRA:          -4.398
REMARK INTER:                  -4.294
REMARK INTRA:                  -0.103
REMARK UNBOUND:                -0.095
REMARK SMILES COc1cc(C(=O)[O-])ccc1O
REMARK SMILES IDX 5 1 9 2 4 3 10 4 3 5 11 6 6 7 7 8 8 9 2 10 1 11 12 12
REMARK H PARENT 12 13
REMARK Flexibility Score: inf
ROOT
ATOM      1  C   UNL     1      37.355 -20.479   1.320  1.00  0.00     0.001 A 
ATOM      2  C   UNL     1      37.193 -20.412  -0.074  1.00  0.00     0.014 A 
ATOM      3  C   UNL     1      36.266 -20.871   2.117  1.00  0.00     0.060 A 
ATOM      4  C   UNL     1      35.968 -20.734  -0.658  1.00  0.00     0.051 A 
ATOM      5  C   UNL     1      35.025 -21.197   1.532  1.00  0.00     0.161 A 
ATOM      6  C   UNL     1      34.885 -21.126   0.134  1.00  0.00     0.157 A 
ENDROOT
BRANCH   1   7
ATOM      7  C   UNL     1      38.653 -20.138   1.943  1.00  0.00     0.072 C 
ATOM      8  O   UNL     1      38.816 -20.250   3.188  1.00  0.00    -0.545 OA
ATOM      9  O   UNL     1      39.713 -19.689   1.165  1.00  0.00    -0.545 OA
ENDBRANCH   1   7
BRANCH   5  10
ATOM     10  O   UNL     1      33.920 -21.594   2.302  1.00  0.00    -0.493 OA
ATOM     11  C   UNL     1      33.082 -20.704   3.033  1.00  0.00     0.278 C 
ENDBRANCH   5  10
BRANCH   6  12
ATOM     12  O   UNL     1      33.675 -21.440  -0.486  1.00  0.00    -0.504 OA
ATOM     13  H   UNL     1      33.236 -22.347  -0.386  1.00  0.00     0.293 HD
ENDBRANCH   6  12
TORSDOF 3
ENDMDL
MODEL 7
REMARK VINA RESULT:    -3.582      1.758      4.558
REMARK INTER + INTRA:          -4.200
REMARK INTER:                  -4.099
REMARK INTRA:                  -0.101
REMARK UNBOUND:                -0.095
REMARK SMILES COc1cc(C(=O)[O-])ccc1O
REMARK SMILES IDX 5 1 9 2 4 3 10 4 3 5 11 6 6 7 7 8 8 9 2 10 1 11 12 12
REMARK H PARENT 12 13
REMARK Flexibility Score: inf
ROOT
ATOM      1  C   UNL     1      36.802 -20.765   0.885  1.00  0.00     0.001 A 
ATOM      2  C   UNL     1      36.458 -21.184   2.181  1.00  0.00     0.014 A 
ATOM      3  C   UNL     1      38.111 -20.315   0.638  1.00  0.00     0.060 A 
ATOM      4  C   UNL     1      37.403 -21.157   3.207  1.00  0.00     0.051 A 
ATOM      5  C   UNL     1      39.070 -20.284   1.672  1.00  0.00     0.161 A 
ATOM      6  C   UNL     1      38.704 -20.710   2.961  1.00  0.00     0.157 A 
ENDROOT
BRANCH   1   7
ATOM      7  C   UNL     1      35.803 -20.793  -0.205  1.00  0.00     0.072 C 
ATOM      8  O   UNL     1      36.044 -20.238  -1.310  1.00  0.00    -0.545 OA
ATOM      9  O   UNL     1      34.581 -21.431  -0.026  1.00  0.00    -0.545 OA
ENDBRANCH   1   7
BRANCH   5  10
ATOM     10  O   UNL     1      40.385 -19.841   1.454  1.00  0.00    -0.493 OA
ATOM     11  C   UNL     1      41.362 -20.550   0.698  1.00  0.00     0.278 C 
ENDBRANCH   5  10
BRANCH   6  12
ATOM     12  O   UNL     1      39.621 -20.697   4.012  1.00  0.00    -0.504 OA
ATOM     13  H   UNL     1      40.066 -19.845   4.330  1.00  0.00     0.293 HD
ENDBRANCH   6  12
TORSDOF 3
ENDMDL
MODEL 8
REMARK VINA RESULT:    -3.553      1.570      4.319
REMARK INTER + INTRA:          -4.167
REMARK INTER:                  -4.085
REMARK INTRA:                  -0.081
REMARK UNBOUND:                -0.095
REMARK SMILES COc1cc(C(=O)[O-])ccc1O
REMARK SMILES IDX 5 1 9 2 4 3 10 4 3 5 11 6 6 7 7 8 8 9 2 10 1 11 12 12
REMARK H PARENT 12 13
REMARK Flexibility Score: inf
ROOT
ATOM      1  C   UNL     1      35.198 -21.155   0.818  1.00  0.00     0.001 A 
ATOM      2  C   UNL     1      36.111 -20.821   1.833  1.00  0.00     0.014 A 
ATOM      3  C   UNL     1      35.688 -21.589  -0.426  1.00  0.00     0.060 A 
ATOM      4  C   UNL     1      37.484 -20.922   1.608  1.00  0.00     0.051 A 
ATOM      5  C   UNL     1      37.074 -21.693  -0.659  1.00  0.00     0.161 A 
ATOM      6  C   UNL     1      37.971 -21.355   0.371  1.00  0.00     0.157 A 
ENDROOT
BRANCH   1   7
ATOM      7  C   UNL     1      33.741 -21.049   1.052  1.00  0.00     0.072 C 
ATOM      8  O   UNL     1      33.298 -20.533   2.113  1.00  0.00    -0.545 OA
ATOM      9  O   UNL     1      32.838 -21.518   0.105  1.00  0.00    -0.545 OA
ENDBRANCH   1   7
BRANCH   5  10
ATOM     10  O   UNL     1      37.593 -22.125  -1.890  1.00  0.00    -0.493 OA
ATOM     11  C   UNL     1      36.883 -22.086  -3.125  1.00  0.00     0.278 C 
ENDBRANCH   5  10
BRANCH   6  12
ATOM     12  O   UNL     1      39.351 -21.443   0.185  1.00  0.00    -0.504 OA
ATOM     13  H   UNL     1      39.817 -22.325   0.010  1.00  0.00     0.293 HD
ENDBRANCH   6  12
TORSDOF 3
ENDMDL
MODEL 9
REMARK VINA RESULT:    -3.427      1.667      2.391
REMARK INTER + INTRA:          -4.023
REMARK INTER:                  -4.023
REMARK INTRA:                  -0.000
REMARK UNBOUND:                -0.095
REMARK SMILES COc1cc(C(=O)[O-])ccc1O
REMARK SMILES IDX 5 1 9 2 4 3 10 4 3 5 11 6 6 7 7 8 8 9 2 10 1 11 12 12
REMARK H PARENT 12 13
REMARK Flexibility Score: inf
ROOT
ATOM      1  C   UNL     1      40.844 -20.935   1.419  1.00  0.00     0.001 A 
ATOM      2  C   UNL     1      40.316 -19.836   2.117  1.00  0.00     0.014 A 
ATOM      3  C   UNL     1      39.991 -21.702   0.606  1.00  0.00     0.060 A 
ATOM      4  C   UNL     1      38.964 -19.510   2.003  1.00  0.00     0.051 A 
ATOM      5  C   UNL     1      38.624 -21.378   0.488  1.00  0.00     0.161 A 
ATOM      6  C   UNL     1      38.116 -20.273   1.194  1.00  0.00     0.157 A 
ENDROOT
BRANCH   1   7
ATOM      7  C   UNL     1      42.277 -21.283   1.537  1.00  0.00     0.072 C 
ATOM      8  O   UNL     1      42.718 -21.837   2.579  1.00  0.00    -0.545 OA
ATOM      9  O   UNL     1      43.159 -21.003   0.500  1.00  0.00    -0.545 OA
ENDBRANCH   1   7
BRANCH   5  10
ATOM     10  O   UNL     1      37.749 -22.125  -0.317  1.00  0.00    -0.493 OA
ATOM     11  C   UNL     1      37.271 -21.710  -1.594  1.00  0.00     0.278 C 
ENDBRANCH   5  10
BRANCH   6  12
ATOM     12  O   UNL     1      36.771 -19.917   1.106  1.00  0.00    -0.504 OA
ATOM     13  H   UNL     1      36.442 -19.200   0.470  1.00  0.00     0.293 HD
ENDBRANCH   6  12
TORSDOF 3
ENDMDL
