MODEL 1
REMARK VINA RESULT:    -5.603      0.000      0.000
REMARK INTER + INTRA:         -10.532
REMARK INTER:                  -9.206
REMARK INTRA:                  -1.326
REMARK UNBOUND:                -1.326
REMARK SMILES COc1ccc([C@@H]2CC(=O)c3c(O)cc(O[C@H]4O[C@H](CO[C@H]5O[C@H](C)[C@@H](O)[C@H](O)[C@@H]5O)[C@H](O)[C@H](O)[C@@H]4O)cc3O2)cc1O
REMARK SMILES IDX 19 1 32 2 34 3 36 4 17 5 18 6 20 7 21 8 22 9 25 10 24 11
REMARK SMILES IDX 26 12 23 13 28 14 30 15 27 16 29 18 31 20 33 22 35 24 16 26
REMARK SMILES IDX 15 27 14 28 38 29 12 30 39 31 11 32 40 33 9 34 7 35 10 36
REMARK SMILES IDX 8 37 13 38 6 40 41 41 5 42 42 43 4 44 3 45 43 46 2 48 1 49
REMARK SMILES IDX 37 50
REMARK H PARENT 27 17 29 19 31 21 33 23 35 25 13 39 43 47 37 51
REMARK Flexibility Score: inf
ROOT
ATOM      1  C   UNL     1      -3.850   4.809   8.130  1.00  0.00     0.180 C 
ATOM      2  C   UNL     1      -5.000   4.866   7.106  1.00  0.00     0.177 C 
ATOM      3  C   UNL     1      -6.248   5.620   7.723  1.00  0.00     0.180 C 
ATOM      4  C   UNL     1      -6.382   5.342   9.258  1.00  0.00     0.214 C 
ATOM      5  C   UNL     1      -5.407   4.225   9.805  1.00  0.00     0.339 C 
ATOM      6  O   UNL     1      -4.186   3.906   9.114  1.00  0.00    -0.332 OA
ENDROOT
BRANCH   1   7
ATOM      7  C   UNL     1      -3.194   6.146   8.577  1.00  0.00     0.198 C 
BRANCH   7   8
ATOM      8  O   UNL     1      -2.422   6.920   7.678  1.00  0.00    -0.347 OA
BRANCH   8   9
ATOM      9  C   UNL     1      -1.041   7.076   7.982  1.00  0.00     0.281 C 
ATOM     10  C   UNL     1       1.001   4.804   9.948  1.00  0.00     0.041 C 
ATOM     11  C   UNL     1      -0.079   4.955   8.912  1.00  0.00     0.150 C 
ATOM     12  C   UNL     1       0.466   4.632   7.498  1.00  0.00     0.174 C 
ATOM     13  O   UNL     1      -0.593   6.256   9.107  1.00  0.00    -0.344 OA
ATOM     14  C   UNL     1      -0.234   5.338   6.404  1.00  0.00     0.179 C 
ATOM     15  C   UNL     1      -0.207   6.808   6.748  1.00  0.00     0.202 C 
BRANCH  12  16
ATOM     16  O   UNL     1       0.300   3.253   7.324  1.00  0.00    -0.388 OA
ATOM     17  H   UNL     1      -0.438   2.939   7.938  1.00  0.00     0.211 HD
ENDBRANCH  12  16
BRANCH  14  18
ATOM     18  O   UNL     1       0.390   4.996   5.160  1.00  0.00    -0.387 OA
ATOM     19  H   UNL     1      -0.305   4.787   4.468  1.00  0.00     0.211 HD
ENDBRANCH  14  18
BRANCH  15  20
ATOM     20  O   UNL     1       1.114   7.331   6.820  1.00  0.00    -0.385 OA
ATOM     21  H   UNL     1       1.085   8.209   7.297  1.00  0.00     0.211 HD
ENDBRANCH  15  20
ENDBRANCH   8   9
ENDBRANCH   7   8
ENDBRANCH   1   7
BRANCH   2  22
ATOM     22  O   UNL     1      -4.590   5.319   5.795  1.00  0.00    -0.387 OA
ATOM     23  H   UNL     1      -5.031   6.209   5.694  1.00  0.00     0.211 HD
ENDBRANCH   2  22
BRANCH   3  24
ATOM     24  O   UNL     1      -6.138   7.004   7.428  1.00  0.00    -0.387 OA
ATOM     25  H   UNL     1      -5.883   7.473   8.289  1.00  0.00     0.211 HD
ENDBRANCH   3  24
BRANCH   5  26
ATOM     26  O   UNL     1      -6.134   3.018   9.867  1.00  0.00    -0.462 OA
BRANCH  26  27
ATOM     27  C   UNL     1      -5.723   1.822   9.258  1.00  0.00     0.130 A 
ATOM     28  C   UNL     1      -5.763   1.681   7.849  1.00  0.00     0.093 A 
ATOM     29  C   UNL     1      -5.460   0.666  10.015  1.00  0.00     0.094 A 
ATOM     30  C   UNL     1      -6.109   0.405   7.349  1.00  0.00     0.133 A 
ATOM     31  C   UNL     1      -5.208  -0.495   9.368  1.00  0.00     0.138 A 
ATOM     32  C   UNL     1      -6.035  -0.701   8.216  1.00  0.00     0.102 A 
ATOM     33  O   UNL     1      -4.707  -1.666  10.000  1.00  0.00    -0.484 OA
ATOM     34  C   UNL     1      -7.191  -1.655   8.556  1.00  0.00     0.174 C 
ATOM     35  C   UNL     1      -5.563  -2.828  10.124  1.00  0.00     0.211 C 
ATOM     36  O   UNL     1      -8.343  -1.578   8.036  1.00  0.00    -0.294 OA
ATOM     37  C   UNL     1      -7.050  -2.487   9.774  1.00  0.00     0.131 C 
BRANCH  30  38
ATOM     38  O   UNL     1      -6.809   0.330   6.154  1.00  0.00    -0.507 OA
ATOM     39  H   UNL     1      -6.998   1.162   5.652  1.00  0.00     0.293 HD
ENDBRANCH  30  38
BRANCH  35  40
ATOM     40  C   UNL     1      -5.161  -4.041   9.264  1.00  0.00    -0.003 A 
ATOM     41  C   UNL     1      -5.480  -5.374   9.644  1.00  0.00     0.057 A 
ATOM     42  C   UNL     1      -4.131  -3.809   8.326  1.00  0.00     0.011 A 
ATOM     43  C   UNL     1      -4.714  -6.414   9.128  1.00  0.00     0.158 A 
ATOM     44  C   UNL     1      -3.420  -4.896   7.823  1.00  0.00     0.051 A 
ATOM     45  C   UNL     1      -3.622  -6.175   8.327  1.00  0.00     0.160 A 
BRANCH  43  46
ATOM     46  O   UNL     1      -5.029  -7.749   9.495  1.00  0.00    -0.504 OA
ATOM     47  H   UNL     1      -4.966  -8.048  10.450  1.00  0.00     0.293 HD
ENDBRANCH  43  46
BRANCH  45  48
ATOM     48  O   UNL     1      -2.646  -7.192   8.102  1.00  0.00    -0.493 OA
ATOM     49  C   UNL     1      -1.900  -7.158   6.883  1.00  0.00     0.278 C 
ENDBRANCH  45  48
ENDBRANCH  35  40
ENDBRANCH  26  27
ENDBRANCH   5  26
BRANCH   4  50
ATOM     50  O   UNL     1      -6.322   6.533  10.069  1.00  0.00    -0.384 OA
ATOM     51  H   UNL     1      -5.434   6.954   9.998  1.00  0.00     0.211 HD
ENDBRANCH   4  50
TORSDOF 15
ENDMDL
MODEL 2
REMARK VINA RESULT:    -4.369      1.499      2.182
REMARK INTER + INTRA:          -8.504
REMARK INTER:                  -7.362
REMARK INTRA:                  -1.142
REMARK UNBOUND:                -1.326
REMARK SMILES COc1ccc([C@@H]2CC(=O)c3c(O)cc(O[C@H]4O[C@H](CO[C@H]5O[C@H](C)[C@@H](O)[C@H](O)[C@@H]5O)[C@H](O)[C@H](O)[C@@H]4O)cc3O2)cc1O
REMARK SMILES IDX 19 1 32 2 34 3 36 4 17 5 18 6 20 7 21 8 22 9 25 10 24 11
REMARK SMILES IDX 26 12 23 13 28 14 30 15 27 16 29 18 31 20 33 22 35 24 16 26
REMARK SMILES IDX 15 27 14 28 38 29 12 30 39 31 11 32 40 33 9 34 7 35 10 36
REMARK SMILES IDX 8 37 13 38 6 40 41 41 5 42 42 43 4 44 3 45 43 46 2 48 1 49
REMARK SMILES IDX 37 50
REMARK H PARENT 27 17 29 19 31 21 33 23 35 25 13 39 43 47 37 51
REMARK Flexibility Score: inf
ROOT
ATOM      1  C   UNL     1      -6.335   5.806   7.341  1.00  0.00     0.180 C 
ATOM      2  C   UNL     1      -7.318   6.163   8.472  1.00  0.00     0.177 C 
ATOM      3  C   UNL     1      -6.538   6.360   9.836  1.00  0.00     0.180 C 
ATOM      4  C   UNL     1      -5.314   5.388   9.939  1.00  0.00     0.214 C 
ATOM      5  C   UNL     1      -5.250   4.299   8.796  1.00  0.00     0.339 C 
ATOM      6  O   UNL     1      -5.900   4.514   7.532  1.00  0.00    -0.332 OA
ENDROOT
BRANCH   1   7
ATOM      7  C   UNL     1      -5.275   6.865   6.923  1.00  0.00     0.198 C 
BRANCH   7   8
ATOM      8  O   UNL     1      -3.920   6.508   6.728  1.00  0.00    -0.347 OA
BRANCH   8   9
ATOM      9  C   UNL     1      -3.185   7.260   5.770  1.00  0.00     0.281 C 
ATOM     10  C   UNL     1      -0.333   9.405   6.443  1.00  0.00     0.041 C 
ATOM     11  C   UNL     1      -1.040   8.113   6.747  1.00  0.00     0.150 C 
ATOM     12  C   UNL     1      -0.312   6.918   6.083  1.00  0.00     0.174 C 
ATOM     13  O   UNL     1      -2.380   8.329   6.357  1.00  0.00    -0.344 OA
ATOM     14  C   UNL     1      -1.194   5.779   5.753  1.00  0.00     0.179 C 
ATOM     15  C   UNL     1      -2.331   6.334   4.931  1.00  0.00     0.202 C 
BRANCH  12  16
ATOM     16  O   UNL     1       0.652   6.491   7.004  1.00  0.00    -0.388 OA
ATOM     17  H   UNL     1       0.473   6.943   7.889  1.00  0.00     0.211 HD
ENDBRANCH  12  16
BRANCH  14  18
ATOM     18  O   UNL     1      -0.417   4.765   5.105  1.00  0.00    -0.387 OA
ATOM     19  H   UNL     1      -0.286   4.992   4.137  1.00  0.00     0.211 HD
ENDBRANCH  14  18
BRANCH  15  20
ATOM     20  O   UNL     1      -1.895   6.907   3.704  1.00  0.00    -0.385 OA
ATOM     21  H   UNL     1      -1.335   6.237   3.219  1.00  0.00     0.211 HD
ENDBRANCH  15  20
ENDBRANCH   8   9
ENDBRANCH   7   8
ENDBRANCH   1   7
BRANCH   2  22
ATOM     22  O   UNL     1      -8.240   7.224   8.130  1.00  0.00    -0.387 OA
ATOM     23  H   UNL     1      -7.804   8.051   8.479  1.00  0.00     0.211 HD
ENDBRANCH   2  22
BRANCH   3  24
ATOM     24  O   UNL     1      -6.163   7.723   9.957  1.00  0.00    -0.387 OA
ATOM     25  H   UNL     1      -5.892   7.873  10.920  1.00  0.00     0.211 HD
ENDBRANCH   3  24
BRANCH   5  26
ATOM     26  O   UNL     1      -5.805   3.109   9.311  1.00  0.00    -0.462 OA
BRANCH  26  27
ATOM     27  C   UNL     1      -5.535   1.831   8.799  1.00  0.00     0.130 A 
ATOM     28  C   UNL     1      -5.702   1.558   7.419  1.00  0.00     0.093 A 
ATOM     29  C   UNL     1      -5.295   0.735   9.648  1.00  0.00     0.094 A 
ATOM     30  C   UNL     1      -6.181   0.272   7.079  1.00  0.00     0.133 A 
ATOM     31  C   UNL     1      -5.183  -0.499   9.106  1.00  0.00     0.138 A 
ATOM     32  C   UNL     1      -6.116  -0.748   8.046  1.00  0.00     0.102 A 
ATOM     33  O   UNL     1      -4.718  -1.641   9.814  1.00  0.00    -0.484 OA
ATOM     34  C   UNL     1      -7.306  -1.568   8.569  1.00  0.00     0.174 C 
ATOM     35  C   UNL     1      -5.643  -2.712  10.122  1.00  0.00     0.211 C 
ATOM     36  O   UNL     1      -8.489  -1.448   8.132  1.00  0.00    -0.294 OA
ATOM     37  C   UNL     1      -7.125  -2.288   9.851  1.00  0.00     0.131 C 
BRANCH  30  38
ATOM     38  O   UNL     1      -6.981   0.139   5.954  1.00  0.00    -0.507 OA
ATOM     39  H   UNL     1      -7.131  -0.762   5.573  1.00  0.00     0.293 HD
ENDBRANCH  30  38
BRANCH  35  40
ATOM     40  C   UNL     1      -5.404  -4.031   9.362  1.00  0.00    -0.003 A 
ATOM     41  C   UNL     1      -5.914  -5.274   9.829  1.00  0.00     0.057 A 
ATOM     42  C   UNL     1      -4.337  -4.016   8.436  1.00  0.00     0.011 A 
ATOM     43  C   UNL     1      -5.296  -6.447   9.410  1.00  0.00     0.158 A 
ATOM     44  C   UNL     1      -3.780  -5.228   8.032  1.00  0.00     0.051 A 
ATOM     45  C   UNL     1      -4.168  -6.424   8.622  1.00  0.00     0.160 A 
BRANCH  43  46
ATOM     46  O   UNL     1      -5.802  -7.693   9.863  1.00  0.00    -0.504 OA
ATOM     47  H   UNL     1      -5.274  -8.262  10.498  1.00  0.00     0.293 HD
ENDBRANCH  43  46
BRANCH  45  48
ATOM     48  O   UNL     1      -3.343  -7.581   8.496  1.00  0.00    -0.493 OA
ATOM     49  C   UNL     1      -2.063  -7.439   7.876  1.00  0.00     0.278 C 
ENDBRANCH  45  48
ENDBRANCH  35  40
ENDBRANCH  26  27
ENDBRANCH   5  26
BRANCH   4  50
ATOM     50  O   UNL     1      -4.050   6.066  10.089  1.00  0.00    -0.384 OA
ATOM     51  H   UNL     1      -3.342   5.588   9.598  1.00  0.00     0.211 HD
ENDBRANCH   4  50
TORSDOF 15
ENDMDL
MODEL 3
REMARK VINA RESULT:    -4.012      1.267      2.225
REMARK INTER + INTRA:          -7.917
REMARK INTER:                  -7.062
REMARK INTRA:                  -0.855
REMARK UNBOUND:                -1.326
REMARK SMILES COc1ccc([C@@H]2CC(=O)c3c(O)cc(O[C@H]4O[C@H](CO[C@H]5O[C@H](C)[C@@H](O)[C@H](O)[C@@H]5O)[C@H](O)[C@H](O)[C@@H]4O)cc3O2)cc1O
REMARK SMILES IDX 19 1 32 2 34 3 36 4 17 5 18 6 20 7 21 8 22 9 25 10 24 11
REMARK SMILES IDX 26 12 23 13 28 14 30 15 27 16 29 18 31 20 33 22 35 24 16 26
REMARK SMILES IDX 15 27 14 28 38 29 12 30 39 31 11 32 40 33 9 34 7 35 10 36
REMARK SMILES IDX 8 37 13 38 6 40 41 41 5 42 42 43 4 44 3 45 43 46 2 48 1 49
REMARK SMILES IDX 37 50
REMARK H PARENT 27 17 29 19 31 21 33 23 35 25 13 39 43 47 37 51
REMARK Flexibility Score: inf
ROOT
ATOM      1  C   UNL     1      -4.248   4.886   7.972  1.00  0.00     0.180 C 
ATOM      2  C   UNL     1      -5.508   4.716   7.102  1.00  0.00     0.177 C 
ATOM      3  C   UNL     1      -6.762   5.360   7.821  1.00  0.00     0.180 C 
ATOM      4  C   UNL     1      -6.676   5.196   9.376  1.00  0.00     0.214 C 
ATOM      5  C   UNL     1      -5.505   4.257   9.868  1.00  0.00     0.339 C 
ATOM      6  O   UNL     1      -4.343   4.034   9.050  1.00  0.00    -0.332 OA
ENDROOT
BRANCH   1   7
ATOM      7  C   UNL     1      -3.725   6.326   8.240  1.00  0.00     0.198 C 
BRANCH   7   8
ATOM      8  O   UNL     1      -2.353   6.645   8.103  1.00  0.00    -0.347 OA
BRANCH   8   9
ATOM      9  C   UNL     1      -1.692   6.163   6.940  1.00  0.00     0.281 C 
ATOM     10  C   UNL     1      -2.597   6.878   3.496  1.00  0.00     0.041 C 
ATOM     11  C   UNL     1      -2.445   7.405   4.896  1.00  0.00     0.150 C 
ATOM     12  C   UNL     1      -1.177   8.288   5.018  1.00  0.00     0.174 C 
ATOM     13  O   UNL     1      -2.498   6.263   5.724  1.00  0.00    -0.344 OA
ATOM     14  C   UNL     1      -0.581   8.309   6.370  1.00  0.00     0.179 C 
ATOM     15  C   UNL     1      -0.364   6.870   6.771  1.00  0.00     0.202 C 
BRANCH  12  16
ATOM     16  O   UNL     1      -1.576   9.586   4.679  1.00  0.00    -0.388 OA
ATOM     17  H   UNL     1      -2.585   9.626   4.692  1.00  0.00     0.211 HD
ENDBRANCH  12  16
BRANCH  14  18
ATOM     18  O   UNL     1       0.603   9.115   6.341  1.00  0.00    -0.387 OA
ATOM     19  H   UNL     1       0.423  10.012   6.750  1.00  0.00     0.211 HD
ENDBRANCH  14  18
BRANCH  15  20
ATOM     20  O   UNL     1       0.545   6.191   5.913  1.00  0.00    -0.385 OA
ATOM     21  H   UNL     1       0.033   5.541   5.353  1.00  0.00     0.211 HD
ENDBRANCH  15  20
ENDBRANCH   8   9
ENDBRANCH   7   8
ENDBRANCH   1   7
BRANCH   2  22
ATOM     22  O   UNL     1      -5.319   5.105   5.722  1.00  0.00    -0.387 OA
ATOM     23  H   UNL     1      -5.975   5.845   5.584  1.00  0.00     0.211 HD
ENDBRANCH   2  22
BRANCH   3  24
ATOM     24  O   UNL     1      -6.872   6.717   7.422  1.00  0.00    -0.387 OA
ATOM     25  H   UNL     1      -6.316   7.264   8.068  1.00  0.00     0.211 HD
ENDBRANCH   3  24
BRANCH   5  26
ATOM     26  O   UNL     1      -6.053   2.979  10.104  1.00  0.00    -0.462 OA
BRANCH  26  27
ATOM     27  C   UNL     1      -5.649   1.815   9.431  1.00  0.00     0.130 A 
ATOM     28  C   UNL     1      -5.686   1.751   8.017  1.00  0.00     0.093 A 
ATOM     29  C   UNL     1      -5.398   0.618  10.125  1.00  0.00     0.094 A 
ATOM     30  C   UNL     1      -6.040   0.507   7.446  1.00  0.00     0.133 A 
ATOM     31  C   UNL     1      -5.151  -0.508   9.416  1.00  0.00     0.138 A 
ATOM     32  C   UNL     1      -5.976  -0.645   8.252  1.00  0.00     0.102 A 
ATOM     33  O   UNL     1      -4.662  -1.716   9.984  1.00  0.00    -0.484 OA
ATOM     34  C   UNL     1      -7.140  -1.608   8.537  1.00  0.00     0.174 C 
ATOM     35  C   UNL     1      -5.526  -2.876  10.043  1.00  0.00     0.211 C 
ATOM     36  O   UNL     1      -8.290  -1.493   8.018  1.00  0.00    -0.294 OA
ATOM     37  C   UNL     1      -7.009  -2.506   9.707  1.00  0.00     0.131 C 
BRANCH  30  38
ATOM     38  O   UNL     1      -6.736   0.503   6.247  1.00  0.00    -0.507 OA
ATOM     39  H   UNL     1      -7.613   0.046   6.200  1.00  0.00     0.293 HD
ENDBRANCH  30  38
BRANCH  35  40
ATOM     40  C   UNL     1      -5.130  -4.044   9.119  1.00  0.00    -0.003 A 
ATOM     41  C   UNL     1      -5.788  -5.304   9.171  1.00  0.00     0.057 A 
ATOM     42  C   UNL     1      -3.851  -3.946   8.528  1.00  0.00     0.011 A 
ATOM     43  C   UNL     1      -5.116  -6.425   8.697  1.00  0.00     0.158 A 
ATOM     44  C   UNL     1      -3.243  -5.103   8.044  1.00  0.00     0.051 A 
ATOM     45  C   UNL     1      -3.816  -6.352   8.254  1.00  0.00     0.160 A 
BRANCH  43  46
ATOM     46  O   UNL     1      -5.767  -7.686   8.736  1.00  0.00    -0.504 OA
ATOM     47  H   UNL     1      -6.701  -7.771   9.091  1.00  0.00     0.293 HD
ENDBRANCH  43  46
BRANCH  45  48
ATOM     48  O   UNL     1      -3.025  -7.531   8.114  1.00  0.00    -0.493 OA
ATOM     49  C   UNL     1      -1.770  -7.431   7.437  1.00  0.00     0.278 C 
ENDBRANCH  45  48
ENDBRANCH  35  40
ENDBRANCH  26  27
ENDBRANCH   5  26
BRANCH   4  50
ATOM     50  O   UNL     1      -6.679   6.449  10.090  1.00  0.00    -0.384 OA
ATOM     51  H   UNL     1      -7.033   6.326  11.001  1.00  0.00     0.211 HD
ENDBRANCH   4  50
TORSDOF 15
ENDMDL
MODEL 4
REMARK VINA RESULT:    -3.686      3.475     11.161
REMARK INTER + INTRA:          -7.382
REMARK INTER:                  -6.595
REMARK INTRA:                  -0.787
REMARK UNBOUND:                -1.326
REMARK SMILES COc1ccc([C@@H]2CC(=O)c3c(O)cc(O[C@H]4O[C@H](CO[C@H]5O[C@H](C)[C@@H](O)[C@H](O)[C@@H]5O)[C@H](O)[C@H](O)[C@@H]4O)cc3O2)cc1O
REMARK SMILES IDX 19 1 32 2 34 3 36 4 17 5 18 6 20 7 21 8 22 9 25 10 24 11
REMARK SMILES IDX 26 12 23 13 28 14 30 15 27 16 29 18 31 20 33 22 35 24 16 26
REMARK SMILES IDX 15 27 14 28 38 29 12 30 39 31 11 32 40 33 9 34 7 35 10 36
REMARK SMILES IDX 8 37 13 38 6 40 41 41 5 42 42 43 4 44 3 45 43 46 2 48 1 49
REMARK SMILES IDX 37 50
REMARK H PARENT 27 17 29 19 31 21 33 23 35 25 13 39 43 47 37 51
REMARK Flexibility Score: inf
ROOT
ATOM      1  C   UNL     1      -3.414  -5.766   7.937  1.00  0.00     0.180 C 
ATOM      2  C   UNL     1      -2.899  -6.369   9.258  1.00  0.00     0.177 C 
ATOM      3  C   UNL     1      -4.090  -7.043  10.055  1.00  0.00     0.180 C 
ATOM      4  C   UNL     1      -5.430  -6.260   9.850  1.00  0.00     0.214 C 
ATOM      5  C   UNL     1      -5.269  -4.880   9.096  1.00  0.00     0.339 C 
ATOM      6  O   UNL     1      -4.148  -4.637   8.230  1.00  0.00    -0.332 OA
ENDROOT
BRANCH   1   7
ATOM      7  C   UNL     1      -3.981  -6.730   6.857  1.00  0.00     0.198 C 
BRANCH   7   8
ATOM      8  O   UNL     1      -3.715  -8.119   6.902  1.00  0.00    -0.347 OA
BRANCH   8   9
ATOM      9  C   UNL     1      -3.334  -8.744   5.682  1.00  0.00     0.281 C 
ATOM     10  C   UNL     1      -5.438  -9.222   2.761  1.00  0.00     0.041 C 
ATOM     11  C   UNL     1      -5.026  -8.310   3.883  1.00  0.00     0.150 C 
ATOM     12  C   UNL     1      -4.116  -7.171   3.361  1.00  0.00     0.174 C 
ATOM     13  O   UNL     1      -4.469  -9.164   4.861  1.00  0.00    -0.344 OA
ATOM     14  C   UNL     1      -3.166  -6.647   4.364  1.00  0.00     0.179 C 
ATOM     15  C   UNL     1      -2.407  -7.835   4.905  1.00  0.00     0.202 C 
BRANCH  12  16
ATOM     16  O   UNL     1      -4.976  -6.137   2.970  1.00  0.00    -0.388 OA
ATOM     17  H   UNL     1      -4.952  -6.064   1.964  1.00  0.00     0.211 HD
ENDBRANCH  12  16
BRANCH  14  18
ATOM     18  O   UNL     1      -2.354  -5.639   3.750  1.00  0.00    -0.387 OA
ATOM     19  H   UNL     1      -2.421  -4.779   4.261  1.00  0.00     0.211 HD
ENDBRANCH  14  18
BRANCH  15  20
ATOM     20  O   UNL     1      -1.649  -8.505   3.905  1.00  0.00    -0.385 OA
ATOM     21  H   UNL     1      -1.894  -9.473   3.912  1.00  0.00     0.211 HD
ENDBRANCH  15  20
ENDBRANCH   8   9
ENDBRANCH   7   8
ENDBRANCH   1   7
BRANCH   2  22
ATOM     22  O   UNL     1      -1.718  -7.189   9.102  1.00  0.00    -0.387 OA
ATOM     23  H   UNL     1      -1.685  -7.390   8.125  1.00  0.00     0.211 HD
ENDBRANCH   2  22
BRANCH   3  24
ATOM     24  O   UNL     1      -4.189  -8.404   9.664  1.00  0.00    -0.387 OA
ATOM     25  H   UNL     1      -3.510  -8.921  10.209  1.00  0.00     0.211 HD
ENDBRANCH   3  24
BRANCH   5  26
ATOM     26  O   UNL     1      -5.220  -3.865  10.074  1.00  0.00    -0.462 OA
BRANCH  26  27
ATOM     27  C   UNL     1      -5.936  -2.661   9.992  1.00  0.00     0.130 A 
ATOM     28  C   UNL     1      -7.300  -2.658   9.611  1.00  0.00     0.093 A 
ATOM     29  C   UNL     1      -5.288  -1.415  10.077  1.00  0.00     0.094 A 
ATOM     30  C   UNL     1      -7.737  -1.571   8.821  1.00  0.00     0.133 A 
ATOM     31  C   UNL     1      -6.003  -0.289   9.848  1.00  0.00     0.138 A 
ATOM     32  C   UNL     1      -6.938  -0.413   8.767  1.00  0.00     0.102 A 
ATOM     33  O   UNL     1      -5.533   1.023  10.124  1.00  0.00    -0.484 OA
ATOM     34  C   UNL     1      -6.362   0.223   7.492  1.00  0.00     0.174 C 
ATOM     35  C   UNL     1      -5.241   1.920   9.024  1.00  0.00     0.211 C 
ATOM     36  O   UNL     1      -6.600  -0.205   6.324  1.00  0.00    -0.294 OA
ATOM     37  C   UNL     1      -5.230   1.165   7.654  1.00  0.00     0.131 C 
BRANCH  30  38
ATOM     38  O   UNL     1      -8.739  -1.790   7.888  1.00  0.00    -0.507 OA
ATOM     39  H   UNL     1      -8.658  -2.553   7.263  1.00  0.00     0.293 HD
ENDBRANCH  30  38
BRANCH  35  40
ATOM     40  C   UNL     1      -6.200   3.117   8.875  1.00  0.00    -0.003 A 
ATOM     41  C   UNL     1      -5.993   4.132   7.901  1.00  0.00     0.057 A 
ATOM     42  C   UNL     1      -7.032   3.374   9.987  1.00  0.00     0.011 A 
ATOM     43  C   UNL     1      -6.566   5.382   8.110  1.00  0.00     0.158 A 
ATOM     44  C   UNL     1      -7.601   4.638  10.124  1.00  0.00     0.051 A 
ATOM     45  C   UNL     1      -7.257   5.673   9.263  1.00  0.00     0.160 A 
BRANCH  43  46
ATOM     46  O   UNL     1      -6.372   6.400   7.140  1.00  0.00    -0.504 OA
ATOM     47  H   UNL     1      -5.510   6.469   6.633  1.00  0.00     0.293 HD
ENDBRANCH  43  46
BRANCH  45  48
ATOM     48  O   UNL     1      -7.524   7.025   9.632  1.00  0.00    -0.493 OA
ATOM     49  C   UNL     1      -8.887   7.432   9.779  1.00  0.00     0.278 C 
ENDBRANCH  45  48
ENDBRANCH  35  40
ENDBRANCH  26  27
ENDBRANCH   5  26
BRANCH   4  50
ATOM     50  O   UNL     1      -6.481  -7.056   9.266  1.00  0.00    -0.384 OA
ATOM     51  H   UNL     1      -6.152  -7.960   9.052  1.00  0.00     0.211 HD
ENDBRANCH   4  50
TORSDOF 15
ENDMDL
MODEL 5
REMARK VINA RESULT:    -3.501      1.934     10.620
REMARK INTER + INTRA:          -7.077
REMARK INTER:                  -5.181
REMARK INTRA:                  -1.896
REMARK UNBOUND:                -1.326
REMARK SMILES COc1ccc([C@@H]2CC(=O)c3c(O)cc(O[C@H]4O[C@H](CO[C@H]5O[C@H](C)[C@@H](O)[C@H](O)[C@@H]5O)[C@H](O)[C@H](O)[C@@H]4O)cc3O2)cc1O
REMARK SMILES IDX 19 1 32 2 34 3 36 4 17 5 18 6 20 7 21 8 22 9 25 10 24 11
REMARK SMILES IDX 26 12 23 13 28 14 30 15 27 16 29 18 31 20 33 22 35 24 16 26
REMARK SMILES IDX 15 27 14 28 38 29 12 30 39 31 11 32 40 33 9 34 7 35 10 36
REMARK SMILES IDX 8 37 13 38 6 40 41 41 5 42 42 43 4 44 3 45 43 46 2 48 1 49
REMARK SMILES IDX 37 50
REMARK H PARENT 27 17 29 19 31 21 33 23 35 25 13 39 43 47 37 51
REMARK Flexibility Score: inf
ROOT
ATOM      1  C   UNL     1      -5.136  -2.184   9.812  1.00  0.00     0.180 C 
ATOM      2  C   UNL     1      -6.662  -2.384   9.878  1.00  0.00     0.177 C 
ATOM      3  C   UNL     1      -7.363  -1.677   8.648  1.00  0.00     0.180 C 
ATOM      4  C   UNL     1      -6.614  -0.363   8.242  1.00  0.00     0.214 C 
ATOM      5  C   UNL     1      -5.485   0.083   9.254  1.00  0.00     0.339 C 
ATOM      6  O   UNL     1      -4.854  -0.872  10.124  1.00  0.00    -0.332 OA
ENDROOT
BRANCH   1   7
ATOM      7  C   UNL     1      -4.359  -2.821   8.625  1.00  0.00     0.198 C 
BRANCH   7   8
ATOM      8  O   UNL     1      -4.842  -3.979   7.970  1.00  0.00    -0.347 OA
BRANCH   8   9
ATOM      9  C   UNL     1      -4.306  -5.229   8.390  1.00  0.00     0.281 C 
ATOM     10  C   UNL     1      -5.392  -8.515   7.289  1.00  0.00     0.041 C 
ATOM     11  C   UNL     1      -5.099  -7.090   6.908  1.00  0.00     0.150 C 
ATOM     12  C   UNL     1      -3.758  -6.991   6.138  1.00  0.00     0.174 C 
ATOM     13  O   UNL     1      -5.186  -6.364   8.116  1.00  0.00    -0.344 OA
ATOM     14  C   UNL     1      -3.068  -5.693   6.289  1.00  0.00     0.179 C 
ATOM     15  C   UNL     1      -2.941  -5.438   7.772  1.00  0.00     0.202 C 
BRANCH  12  16
ATOM     16  O   UNL     1      -4.072  -7.181   4.788  1.00  0.00    -0.388 OA
ATOM     17  H   UNL     1      -5.072  -7.095   4.675  1.00  0.00     0.211 HD
ENDBRANCH  12  16
BRANCH  14  18
ATOM     18  O   UNL     1      -1.827  -5.743   5.575  1.00  0.00    -0.387 OA
ATOM     19  H   UNL     1      -1.969  -6.118   4.656  1.00  0.00     0.211 HD
ENDBRANCH  14  18
BRANCH  15  20
ATOM     20  O   UNL     1      -2.154  -6.421   8.433  1.00  0.00    -0.385 OA
ATOM     21  H   UNL     1      -1.396  -6.680   7.836  1.00  0.00     0.211 HD
ENDBRANCH  15  20
ENDBRANCH   8   9
ENDBRANCH   7   8
ENDBRANCH   1   7
BRANCH   2  22
ATOM     22  O   UNL     1      -7.060  -3.755  10.111  1.00  0.00    -0.387 OA
ATOM     23  H   UNL     1      -6.247  -4.184  10.501  1.00  0.00     0.211 HD
ENDBRANCH   2  22
BRANCH   3  24
ATOM     24  O   UNL     1      -7.455  -2.604   7.578  1.00  0.00    -0.387 OA
ATOM     25  H   UNL     1      -8.188  -2.276   6.961  1.00  0.00     0.211 HD
ENDBRANCH   3  24
BRANCH   5  26
ATOM     26  O   UNL     1      -6.038   1.063  10.103  1.00  0.00    -0.462 OA
BRANCH  26  27
ATOM     27  C   UNL     1      -5.627   2.405  10.125  1.00  0.00     0.130 A 
ATOM     28  C   UNL     1      -6.583   3.451  10.123  1.00  0.00     0.093 A 
ATOM     29  C   UNL     1      -4.280   2.763   9.940  1.00  0.00     0.094 A 
ATOM     30  C   UNL     1      -6.247   4.617   9.399  1.00  0.00     0.133 A 
ATOM     31  C   UNL     1      -3.961   4.073   9.827  1.00  0.00     0.138 A 
ATOM     32  C   UNL     1      -4.900   4.826   9.048  1.00  0.00     0.102 A 
ATOM     33  O   UNL     1      -2.633   4.576   9.868  1.00  0.00    -0.484 OA
ATOM     34  C   UNL     1      -4.364   5.027   7.621  1.00  0.00     0.174 C 
ATOM     35  C   UNL     1      -2.045   5.133   8.667  1.00  0.00     0.211 C 
ATOM     36  O   UNL     1      -5.104   5.084   6.594  1.00  0.00    -0.294 OA
ATOM     37  C   UNL     1      -2.914   4.819   7.404  1.00  0.00     0.131 C 
BRANCH  30  38
ATOM     38  O   UNL     1      -7.264   5.333   8.786  1.00  0.00    -0.507 OA
ATOM     39  H   UNL     1      -7.152   6.307   8.648  1.00  0.00     0.293 HD
ENDBRANCH  30  38
BRANCH  35  40
ATOM     40  C   UNL     1      -1.811   6.655   8.689  1.00  0.00    -0.003 A 
ATOM     41  C   UNL     1      -1.723   7.423   7.495  1.00  0.00     0.057 A 
ATOM     42  C   UNL     1      -1.285   7.173   9.893  1.00  0.00     0.011 A 
ATOM     43  C   UNL     1      -1.055   8.642   7.535  1.00  0.00     0.158 A 
ATOM     44  C   UNL     1      -0.653   8.415   9.873  1.00  0.00     0.051 A 
ATOM     45  C   UNL     1      -0.420   9.078   8.675  1.00  0.00     0.160 A 
BRANCH  43  46
ATOM     46  O   UNL     1      -0.969   9.419   6.351  1.00  0.00    -0.504 OA
ATOM     47  H   UNL     1      -1.793   9.655   5.829  1.00  0.00     0.293 HD
ENDBRANCH  43  46
BRANCH  45  48
ATOM     48  O   UNL     1       0.547  10.124   8.616  1.00  0.00    -0.493 OA
ATOM     49  C   UNL     1       1.814   9.915   9.245  1.00  0.00     0.278 C 
ENDBRANCH  45  48
ENDBRANCH  35  40
ENDBRANCH  26  27
ENDBRANCH   5  26
BRANCH   4  50
ATOM     50  O   UNL     1      -6.127  -0.371   6.884  1.00  0.00    -0.384 OA
ATOM     51  H   UNL     1      -6.767   0.079   6.286  1.00  0.00     0.211 HD
ENDBRANCH   4  50
TORSDOF 15
ENDMDL
MODEL 6
REMARK VINA RESULT:    -3.500      3.277     10.733
REMARK INTER + INTRA:          -7.077
REMARK INTER:                  -7.565
REMARK INTRA:                   0.488
REMARK UNBOUND:                -1.326
REMARK SMILES COc1ccc([C@@H]2CC(=O)c3c(O)cc(O[C@H]4O[C@H](CO[C@H]5O[C@H](C)[C@@H](O)[C@H](O)[C@@H]5O)[C@H](O)[C@H](O)[C@@H]4O)cc3O2)cc1O
REMARK SMILES IDX 19 1 32 2 34 3 36 4 17 5 18 6 20 7 21 8 22 9 25 10 24 11
REMARK SMILES IDX 26 12 23 13 28 14 30 15 27 16 29 18 31 20 33 22 35 24 16 26
REMARK SMILES IDX 15 27 14 28 38 29 12 30 39 31 11 32 40 33 9 34 7 35 10 36
REMARK SMILES IDX 8 37 13 38 6 40 41 41 5 42 42 43 4 44 3 45 43 46 2 48 1 49
REMARK SMILES IDX 37 50
REMARK H PARENT 27 17 29 19 31 21 33 23 35 25 13 39 43 47 37 51
REMARK Flexibility Score: inf
ROOT
ATOM      1  C   UNL     1      -3.354  -5.935   7.805  1.00  0.00     0.180 C 
ATOM      2  C   UNL     1      -2.968  -6.852   8.982  1.00  0.00     0.177 C 
ATOM      3  C   UNL     1      -3.753  -8.223   8.890  1.00  0.00     0.180 C 
ATOM      4  C   UNL     1      -5.190  -8.020   8.300  1.00  0.00     0.214 C 
ATOM      5  C   UNL     1      -5.619  -6.509   8.136  1.00  0.00     0.339 C 
ATOM      6  O   UNL     1      -4.632  -5.469   8.016  1.00  0.00    -0.332 OA
ENDROOT
BRANCH   1   7
ATOM      7  C   UNL     1      -2.984  -6.389   6.365  1.00  0.00     0.198 C 
BRANCH   7   8
ATOM      8  O   UNL     1      -2.106  -5.626   5.559  1.00  0.00    -0.347 OA
BRANCH   8   9
ATOM      9  C   UNL     1      -1.234  -6.345   4.695  1.00  0.00     0.281 C 
ATOM     10  C   UNL     1      -0.949  -9.957   4.444  1.00  0.00     0.041 C 
ATOM     11  C   UNL     1      -1.860  -8.771   4.601  1.00  0.00     0.150 C 
ATOM     12  C   UNL     1      -2.616  -8.481   3.280  1.00  0.00     0.174 C 
ATOM     13  O   UNL     1      -1.033  -7.738   5.093  1.00  0.00    -0.344 OA
ATOM     14  C   UNL     1      -2.992  -7.063   3.097  1.00  0.00     0.179 C 
ATOM     15  C   UNL     1      -1.730  -6.253   3.268  1.00  0.00     0.202 C 
BRANCH  12  16
ATOM     16  O   UNL     1      -3.782  -9.255   3.323  1.00  0.00    -0.388 OA
ATOM     17  H   UNL     1      -4.262  -9.161   2.439  1.00  0.00     0.211 HD
ENDBRANCH  12  16
BRANCH  14  18
ATOM     18  O   UNL     1      -3.638  -6.917   1.826  1.00  0.00    -0.387 OA
ATOM     19  H   UNL     1      -3.511  -7.744   1.274  1.00  0.00     0.211 HD
ENDBRANCH  14  18
BRANCH  15  20
ATOM     20  O   UNL     1      -0.741  -6.564   2.293  1.00  0.00    -0.385 OA
ATOM     21  H   UNL     1      -1.029  -6.190   1.413  1.00  0.00     0.211 HD
ENDBRANCH  15  20
ENDBRANCH   8   9
ENDBRANCH   7   8
ENDBRANCH   1   7
BRANCH   2  22
ATOM     22  O   UNL     1      -1.541  -6.970   9.185  1.00  0.00    -0.387 OA
ATOM     23  H   UNL     1      -1.446  -7.163  10.160  1.00  0.00     0.211 HD
ENDBRANCH   2  22
BRANCH   3  24
ATOM     24  O   UNL     1      -2.980  -9.144   8.136  1.00  0.00    -0.387 OA
ATOM     25  H   UNL     1      -3.079  -8.887   7.161  1.00  0.00     0.211 HD
ENDBRANCH   3  24
BRANCH   5  26
ATOM     26  O   UNL     1      -6.399  -6.163   9.259  1.00  0.00    -0.462 OA
BRANCH  26  27
ATOM     27  C   UNL     1      -6.563  -4.850   9.727  1.00  0.00     0.130 A 
ATOM     28  C   UNL     1      -7.840  -4.382  10.125  1.00  0.00     0.093 A 
ATOM     29  C   UNL     1      -5.532  -3.899   9.623  1.00  0.00     0.094 A 
ATOM     30  C   UNL     1      -8.139  -3.031   9.836  1.00  0.00     0.133 A 
ATOM     31  C   UNL     1      -5.791  -2.614   9.957  1.00  0.00     0.138 A 
ATOM     32  C   UNL     1      -7.080  -2.158   9.525  1.00  0.00     0.102 A 
ATOM     33  O   UNL     1      -4.793  -1.616  10.116  1.00  0.00    -0.484 OA
ATOM     34  C   UNL     1      -6.945  -1.333   8.235  1.00  0.00     0.174 C 
ATOM     35  C   UNL     1      -4.712  -0.532   9.158  1.00  0.00     0.211 C 
ATOM     36  O   UNL     1      -7.823  -1.308   7.322  1.00  0.00    -0.294 OA
ATOM     37  C   UNL     1      -5.601  -0.808   7.901  1.00  0.00     0.131 C 
BRANCH  30  38
ATOM     38  O   UNL     1      -9.453  -2.690   9.551  1.00  0.00    -0.507 OA
ATOM     39  H   UNL     1     -10.186  -3.243   9.920  1.00  0.00     0.293 HD
ENDBRANCH  30  38
BRANCH  35  40
ATOM     40  C   UNL     1      -5.106   0.857   9.696  1.00  0.00    -0.003 A 
ATOM     41  C   UNL     1      -6.447   1.329   9.656  1.00  0.00     0.057 A 
ATOM     42  C   UNL     1      -4.045   1.777   9.843  1.00  0.00     0.011 A 
ATOM     43  C   UNL     1      -6.671   2.701   9.692  1.00  0.00     0.158 A 
ATOM     44  C   UNL     1      -4.337   3.138   9.904  1.00  0.00     0.051 A 
ATOM     45  C   UNL     1      -5.630   3.601   9.691  1.00  0.00     0.160 A 
BRANCH  43  46
ATOM     46  O   UNL     1      -8.006   3.182   9.660  1.00  0.00    -0.504 OA
ATOM     47  H   UNL     1      -8.216   4.132   9.906  1.00  0.00     0.293 HD
ENDBRANCH  43  46
BRANCH  45  48
ATOM     48  O   UNL     1      -5.852   4.972   9.369  1.00  0.00    -0.493 OA
ATOM     49  C   UNL     1      -5.584   5.408   8.034  1.00  0.00     0.278 C 
ENDBRANCH  45  48
ENDBRANCH  35  40
ENDBRANCH  26  27
ENDBRANCH   5  26
BRANCH   4  50
ATOM     50  O   UNL     1      -5.429  -8.767   7.090  1.00  0.00    -0.384 OA
ATOM     51  H   UNL     1      -4.634  -8.747   6.509  1.00  0.00     0.211 HD
ENDBRANCH   4  50
TORSDOF 15
ENDMDL
MODEL 7
REMARK VINA RESULT:    -3.384      3.794     11.056
REMARK INTER + INTRA:          -6.886
REMARK INTER:                  -7.018
REMARK INTRA:                   0.132
REMARK UNBOUND:                -1.326
REMARK SMILES COc1ccc([C@@H]2CC(=O)c3c(O)cc(O[C@H]4O[C@H](CO[C@H]5O[C@H](C)[C@@H](O)[C@H](O)[C@@H]5O)[C@H](O)[C@H](O)[C@@H]4O)cc3O2)cc1O
REMARK SMILES IDX 19 1 32 2 34 3 36 4 17 5 18 6 20 7 21 8 22 9 25 10 24 11
REMARK SMILES IDX 26 12 23 13 28 14 30 15 27 16 29 18 31 20 33 22 35 24 16 26
REMARK SMILES IDX 15 27 14 28 38 29 12 30 39 31 11 32 40 33 9 34 7 35 10 36
REMARK SMILES IDX 8 37 13 38 6 40 41 41 5 42 42 43 4 44 3 45 43 46 2 48 1 49
REMARK SMILES IDX 37 50
REMARK H PARENT 27 17 29 19 31 21 33 23 35 25 13 39 43 47 37 51
REMARK Flexibility Score: inf
ROOT
ATOM      1  C   UNL     1      -2.745  -5.955   6.474  1.00  0.00     0.180 C 
ATOM      2  C   UNL     1      -2.253  -7.187   7.258  1.00  0.00     0.177 C 
ATOM      3  C   UNL     1      -3.420  -8.245   7.407  1.00  0.00     0.180 C 
ATOM      4  C   UNL     1      -4.812  -7.544   7.555  1.00  0.00     0.214 C 
ATOM      5  C   UNL     1      -4.735  -5.977   7.743  1.00  0.00     0.339 C 
ATOM      6  O   UNL     1      -3.593  -5.233   7.284  1.00  0.00    -0.332 OA
ENDROOT
BRANCH   1   7
ATOM      7  C   UNL     1      -3.161  -6.145   4.988  1.00  0.00     0.198 C 
BRANCH   7   8
ATOM      8  O   UNL     1      -2.342  -6.861   4.083  1.00  0.00    -0.347 OA
BRANCH   8   9
ATOM      9  C   UNL     1      -3.002  -7.663   3.111  1.00  0.00     0.281 C 
ATOM     10  C   UNL     1      -6.016  -9.624   3.624  1.00  0.00     0.041 C 
ATOM     11  C   UNL     1      -5.283  -8.340   3.901  1.00  0.00     0.150 C 
ATOM     12  C   UNL     1      -5.872  -7.178   3.063  1.00  0.00     0.174 C 
ATOM     13  O   UNL     1      -3.921  -8.644   3.687  1.00  0.00    -0.344 OA
ATOM     14  C   UNL     1      -4.903  -6.109   2.746  1.00  0.00     0.179 C 
ATOM     15  C   UNL     1      -3.710  -6.779   2.107  1.00  0.00     0.202 C 
BRANCH  12  16
ATOM     16  O   UNL     1      -6.909  -6.635   3.829  1.00  0.00    -0.388 OA
ATOM     17  H   UNL     1      -6.858  -7.023   4.760  1.00  0.00     0.211 HD
ENDBRANCH  12  16
BRANCH  14  18
ATOM     18  O   UNL     1      -5.551  -5.124   1.932  1.00  0.00    -0.387 OA
ATOM     19  H   UNL     1      -6.528  -5.332   1.845  1.00  0.00     0.211 HD
ENDBRANCH  14  18
BRANCH  15  20
ATOM     20  O   UNL     1      -4.036  -7.437   0.889  1.00  0.00    -0.385 OA
ATOM     21  H   UNL     1      -3.297  -8.067   0.657  1.00  0.00     0.211 HD
ENDBRANCH  15  20
ENDBRANCH   8   9
ENDBRANCH   7   8
ENDBRANCH   1   7
BRANCH   2  22
ATOM     22  O   UNL     1      -0.995  -7.717   6.779  1.00  0.00    -0.387 OA
ATOM     23  H   UNL     1      -1.020  -7.558   5.794  1.00  0.00     0.211 HD
ENDBRANCH   2  22
BRANCH   3  24
ATOM     24  O   UNL     1      -3.373  -9.136   6.304  1.00  0.00    -0.387 OA
ATOM     25  H   UNL     1      -2.942  -9.992   6.629  1.00  0.00     0.211 HD
ENDBRANCH   3  24
BRANCH   5  26
ATOM     26  O   UNL     1      -4.833  -5.708   9.124  1.00  0.00    -0.462 OA
BRANCH  26  27
ATOM     27  C   UNL     1      -5.308  -4.500   9.657  1.00  0.00     0.130 A 
ATOM     28  C   UNL     1      -6.640  -4.393  10.124  1.00  0.00     0.093 A 
ATOM     29  C   UNL     1      -4.562  -3.311   9.557  1.00  0.00     0.094 A 
ATOM     30  C   UNL     1      -7.292  -3.158   9.909  1.00  0.00     0.133 A 
ATOM     31  C   UNL     1      -5.128  -2.149   9.959  1.00  0.00     0.138 A 
ATOM     32  C   UNL     1      -6.511  -2.030   9.597  1.00  0.00     0.102 A 
ATOM     33  O   UNL     1      -4.415  -0.932  10.125  1.00  0.00    -0.484 OA
ATOM     34  C   UNL     1      -6.657  -1.154   8.342  1.00  0.00     0.174 C 
ATOM     35  C   UNL     1      -4.663   0.168   9.215  1.00  0.00     0.211 C 
ATOM     36  O   UNL     1      -7.554  -1.326   7.466  1.00  0.00    -0.294 OA
ATOM     37  C   UNL     1      -5.512  -0.287   7.981  1.00  0.00     0.131 C 
BRANCH  30  38
ATOM     38  O   UNL     1      -8.661  -3.160   9.690  1.00  0.00    -0.507 OA
ATOM     39  H   UNL     1      -9.079  -3.947   9.258  1.00  0.00     0.293 HD
ENDBRANCH  30  38
BRANCH  35  40
ATOM     40  C   UNL     1      -5.376   1.387   9.830  1.00  0.00    -0.003 A 
ATOM     41  C   UNL     1      -6.793   1.466   9.923  1.00  0.00     0.057 A 
ATOM     42  C   UNL     1      -4.603   2.567   9.914  1.00  0.00     0.011 A 
ATOM     43  C   UNL     1      -7.385   2.720  10.024  1.00  0.00     0.158 A 
ATOM     44  C   UNL     1      -5.255   3.791  10.045  1.00  0.00     0.051 A 
ATOM     45  C   UNL     1      -6.640   3.875   9.961  1.00  0.00     0.160 A 
BRANCH  43  46
ATOM     46  O   UNL     1      -8.798   2.809  10.125  1.00  0.00    -0.504 OA
ATOM     47  H   UNL     1      -9.230   3.519  10.686  1.00  0.00     0.293 HD
ENDBRANCH  43  46
BRANCH  45  48
ATOM     48  O   UNL     1      -7.263   5.132   9.704  1.00  0.00    -0.493 OA
ATOM     49  C   UNL     1      -6.778   5.921   8.615  1.00  0.00     0.278 C 
ENDBRANCH  45  48
ENDBRANCH  35  40
ENDBRANCH  26  27
ENDBRANCH   5  26
BRANCH   4  50
ATOM     50  O   UNL     1      -5.753  -7.903   6.522  1.00  0.00    -0.384 OA
ATOM     51  H   UNL     1      -5.280  -8.137   5.691  1.00  0.00     0.211 HD
ENDBRANCH   4  50
TORSDOF 15
ENDMDL
MODEL 8
REMARK VINA RESULT:    -2.980      3.607     11.150
REMARK INTER + INTRA:          -6.222
REMARK INTER:                  -5.123
REMARK INTRA:                  -1.099
REMARK UNBOUND:                -1.326
REMARK SMILES COc1ccc([C@@H]2CC(=O)c3c(O)cc(O[C@H]4O[C@H](CO[C@H]5O[C@H](C)[C@@H](O)[C@H](O)[C@@H]5O)[C@H](O)[C@H](O)[C@@H]4O)cc3O2)cc1O
REMARK SMILES IDX 19 1 32 2 34 3 36 4 17 5 18 6 20 7 21 8 22 9 25 10 24 11
REMARK SMILES IDX 26 12 23 13 28 14 30 15 27 16 29 18 31 20 33 22 35 24 16 26
REMARK SMILES IDX 15 27 14 28 38 29 12 30 39 31 11 32 40 33 9 34 7 35 10 36
REMARK SMILES IDX 8 37 13 38 6 40 41 41 5 42 42 43 4 44 3 45 43 46 2 48 1 49
REMARK SMILES IDX 37 50
REMARK H PARENT 27 17 29 19 31 21 33 23 35 25 13 39 43 47 37 51
REMARK Flexibility Score: inf
ROOT
ATOM      1  C   UNL     1      -3.507  -5.967   7.035  1.00  0.00     0.180 C 
ATOM      2  C   UNL     1      -2.837  -6.682   8.224  1.00  0.00     0.177 C 
ATOM      3  C   UNL     1      -3.917  -7.055   9.320  1.00  0.00     0.180 C 
ATOM      4  C   UNL     1      -5.045  -5.972   9.401  1.00  0.00     0.214 C 
ATOM      5  C   UNL     1      -4.758  -4.668   8.557  1.00  0.00     0.339 C 
ATOM      6  O   UNL     1      -3.861  -4.697   7.433  1.00  0.00    -0.332 OA
ENDROOT
BRANCH   1   7
ATOM      7  C   UNL     1      -4.532  -6.762   6.178  1.00  0.00     0.198 C 
BRANCH   7   8
ATOM      8  O   UNL     1      -4.111  -7.586   5.108  1.00  0.00    -0.347 OA
BRANCH   8   9
ATOM      9  C   UNL     1      -2.764  -7.439   4.672  1.00  0.00     0.281 C 
ATOM     10  C   UNL     1      -0.484 -10.123   3.785  1.00  0.00     0.041 C 
ATOM     11  C   UNL     1      -1.888  -9.587   3.721  1.00  0.00     0.150 C 
ATOM     12  C   UNL     1      -2.203  -9.039   2.306  1.00  0.00     0.174 C 
ATOM     13  O   UNL     1      -1.975  -8.665   4.787  1.00  0.00    -0.344 OA
ATOM     14  C   UNL     1      -3.210  -7.957   2.286  1.00  0.00     0.179 C 
ATOM     15  C   UNL     1      -2.735  -6.904   3.257  1.00  0.00     0.202 C 
BRANCH  12  16
ATOM     16  O   UNL     1      -2.691 -10.125   1.570  1.00  0.00    -0.388 OA
ATOM     17  H   UNL     1      -3.563 -10.425   1.982  1.00  0.00     0.211 HD
ENDBRANCH  12  16
BRANCH  14  18
ATOM     18  O   UNL     1      -3.377  -7.506   0.936  1.00  0.00    -0.387 OA
ATOM     19  H   UNL     1      -2.492  -7.248   0.544  1.00  0.00     0.211 HD
ENDBRANCH  14  18
BRANCH  15  20
ATOM     20  O   UNL     1      -1.487  -6.334   2.882  1.00  0.00    -0.385 OA
ATOM     21  H   UNL     1      -1.576  -5.937   1.970  1.00  0.00     0.211 HD
ENDBRANCH  15  20
ENDBRANCH   8   9
ENDBRANCH   7   8
ENDBRANCH   1   7
BRANCH   2  22
ATOM     22  O   UNL     1      -1.956  -7.761   7.833  1.00  0.00    -0.387 OA
ATOM     23  H   UNL     1      -2.247  -8.532   8.396  1.00  0.00     0.211 HD
ENDBRANCH   2  22
BRANCH   3  24
ATOM     24  O   UNL     1      -4.425  -8.350   9.040  1.00  0.00    -0.387 OA
ATOM     25  H   UNL     1      -3.673  -8.880   8.615  1.00  0.00     0.211 HD
ENDBRANCH   3  24
BRANCH   5  26
ATOM     26  O   UNL     1      -4.233  -3.699   9.437  1.00  0.00    -0.462 OA
BRANCH  26  27
ATOM     27  C   UNL     1      -4.914  -2.531   9.815  1.00  0.00     0.130 A 
ATOM     28  C   UNL     1      -6.295  -2.571  10.125  1.00  0.00     0.093 A 
ATOM     29  C   UNL     1      -4.315  -1.263   9.701  1.00  0.00     0.094 A 
ATOM     30  C   UNL     1      -7.065  -1.450   9.741  1.00  0.00     0.133 A 
ATOM     31  C   UNL     1      -5.064  -0.163   9.943  1.00  0.00     0.138 A 
ATOM     32  C   UNL     1      -6.398  -0.251   9.425  1.00  0.00     0.102 A 
ATOM     33  O   UNL     1      -4.532   1.147  10.087  1.00  0.00    -0.484 OA
ATOM     34  C   UNL     1      -6.502   0.512   8.095  1.00  0.00     0.174 C 
ATOM     35  C   UNL     1      -4.805   2.141   9.070  1.00  0.00     0.211 C 
ATOM     36  O   UNL     1      -7.261   0.165   7.143  1.00  0.00    -0.294 OA
ATOM     37  C   UNL     1      -5.438   1.497   7.792  1.00  0.00     0.131 C 
BRANCH  30  38
ATOM     38  O   UNL     1      -8.388  -1.648   9.374  1.00  0.00    -0.507 OA
ATOM     39  H   UNL     1      -9.095  -1.111   9.812  1.00  0.00     0.293 HD
ENDBRANCH  30  38
BRANCH  35  40
ATOM     40  C   UNL     1      -5.731   3.294   9.503  1.00  0.00    -0.003 A 
ATOM     41  C   UNL     1      -7.096   3.079   9.841  1.00  0.00     0.057 A 
ATOM     42  C   UNL     1      -5.292   4.591   9.157  1.00  0.00     0.011 A 
ATOM     43  C   UNL     1      -7.980   4.149   9.753  1.00  0.00     0.158 A 
ATOM     44  C   UNL     1      -6.222   5.628   9.116  1.00  0.00     0.051 A 
ATOM     45  C   UNL     1      -7.579   5.377   9.279  1.00  0.00     0.160 A 
BRANCH  43  46
ATOM     46  O   UNL     1      -9.342   3.947  10.096  1.00  0.00    -0.504 OA
ATOM     47  H   UNL     1     -10.066   4.491   9.666  1.00  0.00     0.293 HD
ENDBRANCH  43  46
BRANCH  45  48
ATOM     48  O   UNL     1      -8.539   6.343   8.855  1.00  0.00    -0.493 OA
ATOM     49  C   UNL     1      -8.094   7.679   8.607  1.00  0.00     0.278 C 
ENDBRANCH  45  48
ENDBRANCH  35  40
ENDBRANCH  26  27
ENDBRANCH   5  26
BRANCH   4  50
ATOM     50  O   UNL     1      -6.364  -6.490   9.133  1.00  0.00    -0.384 OA
ATOM     51  H   UNL     1      -6.527  -6.534   8.163  1.00  0.00     0.211 HD
ENDBRANCH   4  50
TORSDOF 15
ENDMDL
