MODEL 1
REMARK VINA RESULT:    -3.232      0.000      0.000
REMARK INTER + INTRA:          -4.060
REMARK INTER:                  -3.987
REMARK INTRA:                  -0.073
REMARK UNBOUND:                -0.073
REMARK SMILES CCCCCC(=O)[O-]
REMARK SMILES IDX 4 1 5 2 6 3 7 4 8 5 3 6 2 7 1 8
REMARK H PARENT
REMARK Flexibility Score: inf
ROOT
ATOM      1  C   UNL     1      28.078  21.046  14.443  1.00  0.00     0.006 C 
ENDROOT
BRANCH   1   2
ATOM      2  C   UNL     1      29.009  22.168  13.967  1.00  0.00     0.053 C 
BRANCH   2   3
ATOM      3  C   UNL     1      28.823  22.415  12.503  1.00  0.00     0.041 C 
ATOM      4  O   UNL     1      28.035  21.696  11.835  1.00  0.00    -0.550 OA
ATOM      5  O   UNL     1      29.482  23.471  11.887  1.00  0.00    -0.550 OA
ENDBRANCH   2   3
ENDBRANCH   1   2
BRANCH   1   6
ATOM      6  C   UNL     1      28.353  20.615  15.895  1.00  0.00     0.000 C 
BRANCH   6   7
ATOM      7  C   UNL     1      27.247  20.985  16.899  1.00  0.00    -0.003 C 
ATOM      8  C   UNL     1      25.891  20.371  16.548  1.00  0.00     0.004 C 
ENDBRANCH   6   7
ENDBRANCH   1   6
TORSDOF 4
ENDMDL
MODEL 2
REMARK VINA RESULT:    -2.878      1.497      2.543
REMARK INTER + INTRA:          -3.625
REMARK INTER:                  -3.502
REMARK INTRA:                  -0.123
REMARK UNBOUND:                -0.073
REMARK SMILES CCCCCC(=O)[O-]
REMARK SMILES IDX 4 1 5 2 6 3 7 4 8 5 3 6 2 7 1 8
REMARK H PARENT
REMARK Flexibility Score: inf
ROOT
ATOM      1  C   UNL     1      27.250  21.029  16.338  1.00  0.00     0.006 C 
ENDROOT
BRANCH   1   2
ATOM      2  C   UNL     1      27.958  20.339  15.165  1.00  0.00     0.053 C 
BRANCH   2   3
ATOM      3  C   UNL     1      28.204  21.315  14.057  1.00  0.00     0.041 C 
ATOM      4  O   UNL     1      28.973  22.295  14.236  1.00  0.00    -0.550 OA
ATOM      5  O   UNL     1      27.623  21.113  12.812  1.00  0.00    -0.550 OA
ENDBRANCH   2   3
ENDBRANCH   1   2
BRANCH   1   6
ATOM      6  C   UNL     1      25.911  20.363  16.705  1.00  0.00     0.000 C 
BRANCH   6   7
ATOM      7  C   UNL     1      25.082  19.875  15.504  1.00  0.00    -0.003 C 
ATOM      8  C   UNL     1      23.608  20.269  15.596  1.00  0.00     0.004 C 
ENDBRANCH   6   7
ENDBRANCH   1   6
TORSDOF 4
ENDMDL
MODEL 3
REMARK VINA RESULT:    -2.865     16.267     17.496
REMARK INTER + INTRA:          -3.608
REMARK INTER:                  -3.426
REMARK INTRA:                  -0.183
REMARK UNBOUND:                -0.073
REMARK SMILES CCCCCC(=O)[O-]
REMARK SMILES IDX 4 1 5 2 6 3 7 4 8 5 3 6 2 7 1 8
REMARK H PARENT
REMARK Flexibility Score: inf
ROOT
ATOM      1  C   UNL     1      10.097  21.516  17.441  1.00  0.00     0.006 C 
ENDROOT
BRANCH   1   2
ATOM      2  C   UNL     1      11.135  21.767  18.542  1.00  0.00     0.053 C 
BRANCH   2   3
ATOM      3  C   UNL     1      12.315  20.864  18.363  1.00  0.00     0.041 C 
ATOM      4  O   UNL     1      12.875  20.769  17.239  1.00  0.00    -0.550 OA
ATOM      5  O   UNL     1      12.827  20.166  19.448  1.00  0.00    -0.550 OA
ENDBRANCH   2   3
ENDBRANCH   1   2
BRANCH   1   6
ATOM      6  C   UNL     1       9.976  22.689  16.453  1.00  0.00     0.000 C 
BRANCH   6   7
ATOM      7  C   UNL     1      10.034  22.292  14.968  1.00  0.00    -0.003 C 
ATOM      8  C   UNL     1      11.449  22.335  14.392  1.00  0.00     0.004 C 
ENDBRANCH   6   7
ENDBRANCH   1   6
TORSDOF 4
ENDMDL
MODEL 4
REMARK VINA RESULT:    -2.741      3.248      4.699
REMARK INTER + INTRA:          -3.454
REMARK INTER:                  -3.358
REMARK INTRA:                  -0.097
REMARK UNBOUND:                -0.073
REMARK SMILES CCCCCC(=O)[O-]
REMARK SMILES IDX 4 1 5 2 6 3 7 4 8 5 3 6 2 7 1 8
REMARK H PARENT
REMARK Flexibility Score: inf
ROOT
ATOM      1  C   UNL     1      28.137  21.063  15.298  1.00  0.00     0.006 C 
ENDROOT
BRANCH   1   2
ATOM      2  C   UNL     1      26.877  20.267  14.932  1.00  0.00     0.053 C 
BRANCH   2   3
ATOM      3  C   UNL     1      25.946  20.196  16.102  1.00  0.00     0.041 C 
ATOM      4  O   UNL     1      26.361  20.471  17.258  1.00  0.00    -0.550 OA
ATOM      5  O   UNL     1      24.610  19.875  15.907  1.00  0.00    -0.550 OA
ENDBRANCH   2   3
ENDBRANCH   1   2
BRANCH   1   6
ATOM      6  C   UNL     1      29.161  21.124  14.151  1.00  0.00     0.000 C 
BRANCH   6   7
ATOM      7  C   UNL     1      29.358  22.520  13.534  1.00  0.00    -0.003 C 
ATOM      8  C   UNL     1      28.656  22.682  12.186  1.00  0.00     0.004 C 
ENDBRANCH   6   7
ENDBRANCH   1   6
TORSDOF 4
ENDMDL
MODEL 5
REMARK VINA RESULT:    -2.740      2.632      4.358
REMARK INTER + INTRA:          -3.454
REMARK INTER:                  -3.230
REMARK INTRA:                  -0.224
REMARK UNBOUND:                -0.073
REMARK SMILES CCCCCC(=O)[O-]
REMARK SMILES IDX 4 1 5 2 6 3 7 4 8 5 3 6 2 7 1 8
REMARK H PARENT
REMARK Flexibility Score: inf
ROOT
ATOM      1  C   UNL     1      26.717  21.067  16.524  1.00  0.00     0.006 C 
ENDROOT
BRANCH   1   2
ATOM      2  C   UNL     1      25.686  19.931  16.488  1.00  0.00     0.053 C 
BRANCH   2   3
ATOM      3  C   UNL     1      24.879  19.997  15.229  1.00  0.00     0.041 C 
ATOM      4  O   UNL     1      25.442  19.875  14.109  1.00  0.00    -0.550 OA
ATOM      5  O   UNL     1      23.500  20.144  15.294  1.00  0.00    -0.550 OA
ENDBRANCH   2   3
ENDBRANCH   1   2
BRANCH   1   6
ATOM      6  C   UNL     1      28.169  20.558  16.510  1.00  0.00     0.000 C 
BRANCH   6   7
ATOM      7  C   UNL     1      28.808  20.464  15.114  1.00  0.00    -0.003 C 
ATOM      8  C   UNL     1      28.637  21.741  14.291  1.00  0.00     0.004 C 
ENDBRANCH   6   7
ENDBRANCH   1   6
TORSDOF 4
ENDMDL
MODEL 6
REMARK VINA RESULT:    -2.677     17.531     18.497
REMARK INTER + INTRA:          -3.376
REMARK INTER:                  -3.263
REMARK INTRA:                  -0.113
REMARK UNBOUND:                -0.073
REMARK SMILES CCCCCC(=O)[O-]
REMARK SMILES IDX 4 1 5 2 6 3 7 4 8 5 3 6 2 7 1 8
REMARK H PARENT
REMARK Flexibility Score: inf
ROOT
ATOM      1  C   UNL     1       9.975  21.667  17.461  1.00  0.00     0.006 C 
ENDROOT
BRANCH   1   2
ATOM      2  C   UNL     1      11.151  21.719  18.445  1.00  0.00     0.053 C 
BRANCH   2   3
ATOM      3  C   UNL     1      10.718  22.321  19.745  1.00  0.00     0.041 C 
ATOM      4  O   UNL     1      10.505  23.559  19.830  1.00  0.00    -0.550 OA
ATOM      5  O   UNL     1      10.502  21.507  20.849  1.00  0.00    -0.550 OA
ENDBRANCH   2   3
ENDBRANCH   1   2
BRANCH   1   6
ATOM      6  C   UNL     1      10.008  22.804  16.425  1.00  0.00     0.000 C 
BRANCH   6   7
ATOM      7  C   UNL     1      10.032  22.342  14.958  1.00  0.00    -0.003 C 
ATOM      8  C   UNL     1      11.436  22.345  14.353  1.00  0.00     0.004 C 
ENDBRANCH   6   7
ENDBRANCH   1   6
TORSDOF 4
ENDMDL
MODEL 7
REMARK VINA RESULT:    -2.548      1.715      2.706
REMARK INTER + INTRA:          -3.217
REMARK INTER:                  -3.082
REMARK INTRA:                  -0.135
REMARK UNBOUND:                -0.073
REMARK SMILES CCCCCC(=O)[O-]
REMARK SMILES IDX 4 1 5 2 6 3 7 4 8 5 3 6 2 7 1 8
REMARK H PARENT
REMARK Flexibility Score: inf
ROOT
ATOM      1  C   UNL     1      28.846  22.868  12.345  1.00  0.00     0.006 C 
ENDROOT
BRANCH   1   2
ATOM      2  C   UNL     1      29.971  22.473  11.380  1.00  0.00     0.053 C 
BRANCH   2   3
ATOM      3  C   UNL     1      29.463  21.514  10.349  1.00  0.00     0.041 C 
ATOM      4  O   UNL     1      28.454  20.800  10.592  1.00  0.00    -0.550 OA
ATOM      5  O   UNL     1      30.072  21.446   9.104  1.00  0.00    -0.550 OA
ENDBRANCH   2   3
ENDBRANCH   1   2
BRANCH   1   6
ATOM      6  C   UNL     1      29.080  22.360  13.779  1.00  0.00     0.000 C 
BRANCH   6   7
ATOM      7  C   UNL     1      28.276  21.105  14.160  1.00  0.00    -0.003 C 
ATOM      8  C   UNL     1      27.907  21.059  15.643  1.00  0.00     0.004 C 
ENDBRANCH   6   7
ENDBRANCH   1   6
TORSDOF 4
ENDMDL
MODEL 8
REMARK VINA RESULT:    -2.434      2.261      4.618
REMARK INTER + INTRA:          -3.076
REMARK INTER:                  -2.902
REMARK INTRA:                  -0.174
REMARK UNBOUND:                -0.073
REMARK SMILES CCCCCC(=O)[O-]
REMARK SMILES IDX 4 1 5 2 6 3 7 4 8 5 3 6 2 7 1 8
REMARK H PARENT
REMARK Flexibility Score: inf
ROOT
ATOM      1  C   UNL     1      28.869  22.788  12.371  1.00  0.00     0.006 C 
ENDROOT
BRANCH   1   2
ATOM      2  C   UNL     1      29.217  22.397  13.813  1.00  0.00     0.053 C 
BRANCH   2   3
ATOM      3  C   UNL     1      28.273  21.349  14.312  1.00  0.00     0.041 C 
ATOM      4  O   UNL     1      27.520  20.741  13.507  1.00  0.00    -0.550 OA
ATOM      5  O   UNL     1      28.260  21.010  15.658  1.00  0.00    -0.550 OA
ENDBRANCH   2   3
ENDBRANCH   1   2
BRANCH   1   6
ATOM      6  C   UNL     1      30.110  22.921  11.470  1.00  0.00     0.000 C 
BRANCH   6   7
ATOM      7  C   UNL     1      30.072  22.071  10.188  1.00  0.00    -0.003 C 
ATOM      8  C   UNL     1      29.187  20.832  10.319  1.00  0.00     0.004 C 
ENDBRANCH   6   7
ENDBRANCH   1   6
TORSDOF 4
ENDMDL
MODEL 9
REMARK VINA RESULT:    -2.346      2.385      4.506
REMARK INTER + INTRA:          -2.968
REMARK INTER:                  -2.805
REMARK INTRA:                  -0.164
REMARK UNBOUND:                -0.073
REMARK SMILES CCCCCC(=O)[O-]
REMARK SMILES IDX 4 1 5 2 6 3 7 4 8 5 3 6 2 7 1 8
REMARK H PARENT
REMARK Flexibility Score: inf
ROOT
ATOM      1  C   UNL     1      27.486  21.048  12.323  1.00  0.00     0.006 C 
ENDROOT
BRANCH   1   2
ATOM      2  C   UNL     1      27.548  20.376  13.701  1.00  0.00     0.053 C 
BRANCH   2   3
ATOM      3  C   UNL     1      28.224  21.274  14.689  1.00  0.00     0.041 C 
ATOM      4  O   UNL     1      28.176  21.010  15.919  1.00  0.00    -0.550 OA
ATOM      5  O   UNL     1      28.949  22.372  14.247  1.00  0.00    -0.550 OA
ENDBRANCH   2   3
ENDBRANCH   1   2
BRANCH   1   6
ATOM      6  C   UNL     1      28.399  20.371  11.285  1.00  0.00     0.000 C 
BRANCH   6   7
ATOM      7  C   UNL     1      29.037  21.328  10.263  1.00  0.00    -0.003 C 
ATOM      8  C   UNL     1      30.033  22.300  10.896  1.00  0.00     0.004 C 
ENDBRANCH   6   7
ENDBRANCH   1   6
TORSDOF 4
ENDMDL
