MODEL 1
REMARK VINA RESULT:    -5.982      0.000      0.000
REMARK INTER + INTRA:          -9.133
REMARK INTER:                  -8.430
REMARK INTRA:                  -0.703
REMARK UNBOUND:                -0.703
REMARK SMILES COc1ccc(-c2cc(=O)c3c(OC)c(OC)c(OC)c(OC)c3o2)cc1OC
REMARK SMILES IDX 7 1 8 2 9 3 10 4 11 5 24 6 25 7 21 8 18 9 15 10 12 11 6 12
REMARK SMILES IDX 3 13 27 14 4 15 26 16 5 17 2 18 1 19 28 20 29 21 22 22 23 23
REMARK SMILES IDX 13 24 14 25 19 26 20 27 16 28 17 29
REMARK H PARENT
REMARK Flexibility Score: inf
ROOT
ATOM      1  C   UNL     1      22.045  -4.787  17.243  1.00  0.00     0.138 A 
ATOM      2  C   UNL     1      21.000  -4.599  18.155  1.00  0.00     0.100 A 
ATOM      3  C   UNL     1      21.025  -3.497  19.004  1.00  0.00     0.197 A 
ATOM      4  O   UNL     1      20.074  -3.337  19.816  1.00  0.00    -0.289 OA
ATOM      5  C   UNL     1      22.099  -2.582  18.933  1.00  0.00     0.115 A 
ATOM      6  C   UNL     1      23.117  -2.830  17.981  1.00  0.00     0.188 A 
ATOM      7  O   UNL     1      23.037  -3.901  17.194  1.00  0.00    -0.452 OA
ATOM      8  C   UNL     1      24.222  -1.952  17.880  1.00  0.00     0.209 A 
ATOM      9  C   UNL     1      24.297  -0.821  18.706  1.00  0.00     0.211 A 
ATOM     10  C   UNL     1      23.259  -0.545  19.627  1.00  0.00     0.208 A 
ATOM     11  C   UNL     1      22.195  -1.457  19.782  1.00  0.00     0.179 A 
ENDROOT
BRANCH   1  12
ATOM     12  C   UNL     1      22.072  -5.948  16.319  1.00  0.00     0.021 A 
ATOM     13  C   UNL     1      22.144  -8.119  14.513  1.00  0.00     0.160 A 
ATOM     14  C   UNL     1      21.713  -6.858  14.076  1.00  0.00     0.161 A 
ATOM     15  C   UNL     1      22.543  -8.289  15.852  1.00  0.00     0.051 A 
ATOM     16  C   UNL     1      21.680  -5.780  14.981  1.00  0.00     0.062 A 
ATOM     17  C   UNL     1      22.513  -7.214  16.742  1.00  0.00     0.016 A 
BRANCH  13  18
ATOM     18  O   UNL     1      22.164  -9.176  13.590  1.00  0.00    -0.493 OA
ATOM     19  C   UNL     1      21.104 -10.111  13.411  1.00  0.00     0.278 C 
ENDBRANCH  13  18
BRANCH  14  20
ATOM     20  O   UNL     1      21.328  -6.714  12.732  1.00  0.00    -0.493 OA
ATOM     21  C   UNL     1      20.024  -6.335  12.304  1.00  0.00     0.278 C 
ENDBRANCH  14  20
ENDBRANCH   1  12
BRANCH   8  22
ATOM     22  O   UNL     1      25.289  -2.143  16.979  1.00  0.00    -0.490 OA
ATOM     23  C   UNL     1      25.394  -1.617  15.661  1.00  0.00     0.278 C 
ENDBRANCH   8  22
BRANCH  11  24
ATOM     24  O   UNL     1      21.245  -1.262  20.788  1.00  0.00    -0.492 OA
ATOM     25  C   UNL     1      21.542  -1.496  22.160  1.00  0.00     0.278 C 
ENDBRANCH  11  24
BRANCH   9  26
ATOM     26  O   UNL     1      25.432  -0.002  18.546  1.00  0.00    -0.490 OA
ATOM     27  C   UNL     1      26.594   0.018  19.369  1.00  0.00     0.279 C 
ENDBRANCH   9  26
BRANCH  10  28
ATOM     28  O   UNL     1      23.287   0.637  20.376  1.00  0.00    -0.490 OA
ATOM     29  C   UNL     1      22.552   1.802  20.013  1.00  0.00     0.278 C 
ENDBRANCH  10  28
TORSDOF 7
ENDMDL
MODEL 2
REMARK VINA RESULT:    -5.967      0.833      1.904
REMARK INTER + INTRA:          -9.112
REMARK INTER:                  -8.408
REMARK INTRA:                  -0.704
REMARK UNBOUND:                -0.703
REMARK SMILES COc1ccc(-c2cc(=O)c3c(OC)c(OC)c(OC)c(OC)c3o2)cc1OC
REMARK SMILES IDX 7 1 8 2 9 3 10 4 11 5 24 6 25 7 21 8 18 9 15 10 12 11 6 12
REMARK SMILES IDX 3 13 27 14 4 15 26 16 5 17 2 18 1 19 28 20 29 21 22 22 23 23
REMARK SMILES IDX 13 24 14 25 19 26 20 27 16 28 17 29
REMARK H PARENT
REMARK Flexibility Score: inf
ROOT
ATOM      1  C   UNL     1      22.056  -4.665  17.491  1.00  0.00     0.138 A 
ATOM      2  C   UNL     1      21.015  -4.524  18.416  1.00  0.00     0.100 A 
ATOM      3  C   UNL     1      21.016  -3.436  19.284  1.00  0.00     0.197 A 
ATOM      4  O   UNL     1      20.069  -3.318  20.107  1.00  0.00    -0.289 OA
ATOM      5  C   UNL     1      22.061  -2.488  19.219  1.00  0.00     0.115 A 
ATOM      6  C   UNL     1      23.077  -2.690  18.252  1.00  0.00     0.188 A 
ATOM      7  O   UNL     1      23.020  -3.750  17.448  1.00  0.00    -0.452 OA
ATOM      8  C   UNL     1      24.155  -1.778  18.156  1.00  0.00     0.209 A 
ATOM      9  C   UNL     1      24.204  -0.659  19.001  1.00  0.00     0.211 A 
ATOM     10  C   UNL     1      23.168  -0.430  19.936  1.00  0.00     0.208 A 
ATOM     11  C   UNL     1      22.133  -1.376  20.085  1.00  0.00     0.179 A 
ENDROOT
BRANCH   1  12
ATOM     12  C   UNL     1      22.107  -5.809  16.547  1.00  0.00     0.021 A 
ATOM     13  C   UNL     1      22.175  -8.023  14.794  1.00  0.00     0.160 A 
ATOM     14  C   UNL     1      22.376  -8.211  16.169  1.00  0.00     0.161 A 
ATOM     15  C   UNL     1      21.934  -6.727  14.300  1.00  0.00     0.051 A 
ATOM     16  C   UNL     1      22.341  -7.103  17.037  1.00  0.00     0.062 A 
ATOM     17  C   UNL     1      21.895  -5.634  15.168  1.00  0.00     0.016 A 
BRANCH  13  18
ATOM     18  O   UNL     1      22.218  -9.146  13.952  1.00  0.00    -0.493 OA
ATOM     19  C   UNL     1      21.270  -9.420  12.925  1.00  0.00     0.278 C 
ENDBRANCH  13  18
BRANCH  14  20
ATOM     20  O   UNL     1      22.606  -9.516  16.637  1.00  0.00    -0.493 OA
ATOM     21  C   UNL     1      23.345  -9.834  17.812  1.00  0.00     0.278 C 
ENDBRANCH  14  20
ENDBRANCH   1  12
BRANCH   8  22
ATOM     22  O   UNL     1      25.217  -1.922  17.242  1.00  0.00    -0.490 OA
ATOM     23  C   UNL     1      25.232  -1.503  15.882  1.00  0.00     0.278 C 
ENDBRANCH   8  22
BRANCH  11  24
ATOM     24  O   UNL     1      21.187  -1.226  21.104  1.00  0.00    -0.492 OA
ATOM     25  C   UNL     1      21.507  -1.469  22.469  1.00  0.00     0.278 C 
ENDBRANCH  11  24
BRANCH   9  26
ATOM     26  O   UNL     1      25.313   0.196  18.844  1.00  0.00    -0.490 OA
ATOM     27  C   UNL     1      26.410   0.344  19.739  1.00  0.00     0.279 C 
ENDBRANCH   9  26
BRANCH  10  28
ATOM     28  O   UNL     1      23.169   0.740  20.705  1.00  0.00    -0.490 OA
ATOM     29  C   UNL     1      22.484   1.925  20.312  1.00  0.00     0.278 C 
ENDBRANCH  10  28
TORSDOF 7
ENDMDL
MODEL 3
REMARK VINA RESULT:    -5.591      3.114      6.176
REMARK INTER + INTRA:          -8.582
REMARK INTER:                  -7.966
REMARK INTRA:                  -0.616
REMARK UNBOUND:                -0.703
REMARK SMILES COc1ccc(-c2cc(=O)c3c(OC)c(OC)c(OC)c(OC)c3o2)cc1OC
REMARK SMILES IDX 7 1 8 2 9 3 10 4 11 5 24 6 25 7 21 8 18 9 15 10 12 11 6 12
REMARK SMILES IDX 3 13 27 14 4 15 26 16 5 17 2 18 1 19 28 20 29 21 22 22 23 23
REMARK SMILES IDX 13 24 14 25 19 26 20 27 16 28 17 29
REMARK H PARENT
REMARK Flexibility Score: inf
ROOT
ATOM      1  C   UNL     1      24.859  -0.675  17.144  1.00  0.00     0.138 A 
ATOM      2  C   UNL     1      25.419   0.094  18.172  1.00  0.00     0.100 A 
ATOM      3  C   UNL     1      24.905  -0.012  19.461  1.00  0.00     0.197 A 
ATOM      4  O   UNL     1      25.423   0.681  20.377  1.00  0.00    -0.289 OA
ATOM      5  C   UNL     1      23.830  -0.891  19.717  1.00  0.00     0.115 A 
ATOM      6  C   UNL     1      23.318  -1.644  18.631  1.00  0.00     0.188 A 
ATOM      7  O   UNL     1      23.854  -1.501  17.420  1.00  0.00    -0.452 OA
ATOM      8  C   UNL     1      22.232  -2.528  18.831  1.00  0.00     0.209 A 
ATOM      9  C   UNL     1      21.677  -2.679  20.111  1.00  0.00     0.211 A 
ATOM     10  C   UNL     1      22.215  -1.964  21.206  1.00  0.00     0.208 A 
ATOM     11  C   UNL     1      23.248  -1.027  20.996  1.00  0.00     0.179 A 
ENDROOT
BRANCH   1  12
ATOM     12  C   UNL     1      25.364  -0.597  15.751  1.00  0.00     0.021 A 
ATOM     13  C   UNL     1      26.321  -0.383  13.102  1.00  0.00     0.160 A 
ATOM     14  C   UNL     1      25.292   0.459  13.545  1.00  0.00     0.161 A 
ATOM     15  C   UNL     1      26.873  -1.328  13.988  1.00  0.00     0.051 A 
ATOM     16  C   UNL     1      24.819   0.348  14.867  1.00  0.00     0.062 A 
ATOM     17  C   UNL     1      26.404  -1.428  15.299  1.00  0.00     0.016 A 
BRANCH  13  18
ATOM     18  O   UNL     1      26.769  -0.252  11.778  1.00  0.00    -0.493 OA
ATOM     19  C   UNL     1      26.393  -1.116  10.710  1.00  0.00     0.278 C 
ENDBRANCH  13  18
BRANCH  14  20
ATOM     20  O   UNL     1      24.764   1.398  12.643  1.00  0.00    -0.493 OA
ATOM     21  C   UNL     1      23.388   1.759  12.567  1.00  0.00     0.278 C 
ENDBRANCH  14  20
ENDBRANCH   1  12
BRANCH   8  22
ATOM     22  O   UNL     1      21.648  -3.290  17.800  1.00  0.00    -0.490 OA
ATOM     23  C   UNL     1      22.156  -4.496  17.242  1.00  0.00     0.278 C 
ENDBRANCH   8  22
BRANCH  11  24
ATOM     24  O   UNL     1      23.684  -0.216  22.048  1.00  0.00    -0.492 OA
ATOM     25  C   UNL     1      22.965   0.944  22.452  1.00  0.00     0.278 C 
ENDBRANCH  11  24
BRANCH   9  26
ATOM     26  O   UNL     1      20.595  -3.575  20.223  1.00  0.00    -0.490 OA
ATOM     27  C   UNL     1      19.213  -3.265  20.086  1.00  0.00     0.279 C 
ENDBRANCH   9  26
BRANCH  10  28
ATOM     28  O   UNL     1      21.727  -2.195  22.498  1.00  0.00    -0.490 OA
ATOM     29  C   UNL     1      20.560  -1.558  23.010  1.00  0.00     0.278 C 
ENDBRANCH  10  28
TORSDOF 7
ENDMDL
MODEL 4
REMARK VINA RESULT:    -5.377      3.552      6.455
REMARK INTER + INTRA:          -8.280
REMARK INTER:                  -7.842
REMARK INTRA:                  -0.439
REMARK UNBOUND:                -0.703
REMARK SMILES COc1ccc(-c2cc(=O)c3c(OC)c(OC)c(OC)c(OC)c3o2)cc1OC
REMARK SMILES IDX 7 1 8 2 9 3 10 4 11 5 24 6 25 7 21 8 18 9 15 10 12 11 6 12
REMARK SMILES IDX 3 13 27 14 4 15 26 16 5 17 2 18 1 19 28 20 29 21 22 22 23 23
REMARK SMILES IDX 13 24 14 25 19 26 20 27 16 28 17 29
REMARK H PARENT
REMARK Flexibility Score: inf
ROOT
ATOM      1  C   UNL     1      24.615  -1.161  16.281  1.00  0.00     0.138 A 
ATOM      2  C   UNL     1      23.738  -2.225  16.036  1.00  0.00     0.100 A 
ATOM      3  C   UNL     1      22.970  -2.730  17.081  1.00  0.00     0.197 A 
ATOM      4  O   UNL     1      22.180  -3.684  16.844  1.00  0.00    -0.289 OA
ATOM      5  C   UNL     1      23.081  -2.165  18.370  1.00  0.00     0.115 A 
ATOM      6  C   UNL     1      23.982  -1.086  18.543  1.00  0.00     0.188 A 
ATOM      7  O   UNL     1      24.689  -0.644  17.505  1.00  0.00    -0.452 OA
ATOM      8  C   UNL     1      24.141  -0.494  19.819  1.00  0.00     0.209 A 
ATOM      9  C   UNL     1      23.388  -0.958  20.907  1.00  0.00     0.211 A 
ATOM     10  C   UNL     1      22.454  -2.005  20.728  1.00  0.00     0.208 A 
ATOM     11  C   UNL     1      22.347  -2.646  19.476  1.00  0.00     0.179 A 
ENDROOT
BRANCH   1  12
ATOM     12  C   UNL     1      25.462  -0.588  15.206  1.00  0.00     0.021 A 
ATOM     13  C   UNL     1      27.057   0.562  13.179  1.00  0.00     0.160 A 
ATOM     14  C   UNL     1      25.812   1.124  13.494  1.00  0.00     0.161 A 
ATOM     15  C   UNL     1      27.505  -0.571  13.883  1.00  0.00     0.051 A 
ATOM     16  C   UNL     1      25.022   0.546  14.506  1.00  0.00     0.062 A 
ATOM     17  C   UNL     1      26.718  -1.136  14.889  1.00  0.00     0.016 A 
BRANCH  13  18
ATOM     18  O   UNL     1      27.822   1.158  12.164  1.00  0.00    -0.493 OA
ATOM     19  C   UNL     1      29.071   1.810  12.372  1.00  0.00     0.278 C 
ENDBRANCH  13  18
BRANCH  14  20
ATOM     20  O   UNL     1      25.393   2.261  12.781  1.00  0.00    -0.493 OA
ATOM     21  C   UNL     1      24.170   2.952  13.010  1.00  0.00     0.278 C 
ENDBRANCH  14  20
ENDBRANCH   1  12
BRANCH   8  22
ATOM     22  O   UNL     1      25.035   0.564  20.080  1.00  0.00    -0.490 OA
ATOM     23  C   UNL     1      26.456   0.493  20.097  1.00  0.00     0.278 C 
ENDBRANCH   8  22
BRANCH  11  24
ATOM     24  O   UNL     1      21.531  -3.772  19.333  1.00  0.00    -0.492 OA
ATOM     25  C   UNL     1      20.119  -3.665  19.188  1.00  0.00     0.278 C 
ENDBRANCH  11  24
BRANCH   9  26
ATOM     26  O   UNL     1      23.610  -0.318  22.142  1.00  0.00    -0.490 OA
ATOM     27  C   UNL     1      22.928   0.825  22.646  1.00  0.00     0.279 C 
ENDBRANCH   9  26
BRANCH  10  28
ATOM     28  O   UNL     1      21.631  -2.396  21.791  1.00  0.00    -0.490 OA
ATOM     29  C   UNL     1      20.422  -1.722  22.123  1.00  0.00     0.278 C 
ENDBRANCH  10  28
TORSDOF 7
ENDMDL
MODEL 5
REMARK VINA RESULT:    -5.303      2.534      6.839
REMARK INTER + INTRA:          -8.176
REMARK INTER:                  -7.724
REMARK INTRA:                  -0.452
REMARK UNBOUND:                -0.703
REMARK SMILES COc1ccc(-c2cc(=O)c3c(OC)c(OC)c(OC)c(OC)c3o2)cc1OC
REMARK SMILES IDX 7 1 8 2 9 3 10 4 11 5 24 6 25 7 21 8 18 9 15 10 12 11 6 12
REMARK SMILES IDX 3 13 27 14 4 15 26 16 5 17 2 18 1 19 28 20 29 21 22 22 23 23
REMARK SMILES IDX 13 24 14 25 19 26 20 27 16 28 17 29
REMARK H PARENT
REMARK Flexibility Score: inf
ROOT
ATOM      1  C   UNL     1      23.562  -2.415  16.571  1.00  0.00     0.138 A 
ATOM      2  C   UNL     1      23.059  -1.913  17.777  1.00  0.00     0.100 A 
ATOM      3  C   UNL     1      22.224  -2.711  18.553  1.00  0.00     0.197 A 
ATOM      4  O   UNL     1      21.784  -2.248  19.640  1.00  0.00    -0.289 OA
ATOM      5  C   UNL     1      21.897  -4.014  18.117  1.00  0.00     0.115 A 
ATOM      6  C   UNL     1      22.448  -4.460  16.891  1.00  0.00     0.188 A 
ATOM      7  O   UNL     1      23.243  -3.650  16.194  1.00  0.00    -0.452 OA
ATOM      8  C   UNL     1      22.140  -5.751  16.403  1.00  0.00     0.209 A 
ATOM      9  C   UNL     1      21.308  -6.602  17.146  1.00  0.00     0.211 A 
ATOM     10  C   UNL     1      20.792  -6.178  18.393  1.00  0.00     0.208 A 
ATOM     11  C   UNL     1      21.037  -4.865  18.846  1.00  0.00     0.179 A 
ENDROOT
BRANCH   1  12
ATOM     12  C   UNL     1      24.452  -1.605  15.702  1.00  0.00     0.021 A 
ATOM     13  C   UNL     1      26.109  -0.010  14.062  1.00  0.00     0.160 A 
ATOM     14  C   UNL     1      24.724   0.209  14.083  1.00  0.00     0.161 A 
ATOM     15  C   UNL     1      26.662  -1.023  14.867  1.00  0.00     0.051 A 
ATOM     16  C   UNL     1      23.904  -0.589  14.903  1.00  0.00     0.062 A 
ATOM     17  C   UNL     1      25.843  -1.807  15.682  1.00  0.00     0.016 A 
BRANCH  13  18
ATOM     18  O   UNL     1      26.902   0.799  13.233  1.00  0.00    -0.493 OA
ATOM     19  C   UNL     1      28.326   0.816  13.246  1.00  0.00     0.278 C 
ENDBRANCH  13  18
BRANCH  14  20
ATOM     20  O   UNL     1      24.199   1.233  13.276  1.00  0.00    -0.493 OA
ATOM     21  C   UNL     1      22.891   1.226  12.713  1.00  0.00     0.278 C 
ENDBRANCH  14  20
ENDBRANCH   1  12
BRANCH   8  22
ATOM     22  O   UNL     1      22.625  -6.258  15.181  1.00  0.00    -0.490 OA
ATOM     23  C   UNL     1      21.866  -6.524  14.008  1.00  0.00     0.278 C 
ENDBRANCH   8  22
BRANCH  11  24
ATOM     24  O   UNL     1      20.413  -4.395  20.006  1.00  0.00    -0.492 OA
ATOM     25  C   UNL     1      19.030  -4.058  20.032  1.00  0.00     0.278 C 
ENDBRANCH  11  24
BRANCH   9  26
ATOM     26  O   UNL     1      21.047  -7.869  16.587  1.00  0.00    -0.490 OA
ATOM     27  C   UNL     1      21.778  -9.069  16.814  1.00  0.00     0.279 C 
ENDBRANCH   9  26
BRANCH  10  28
ATOM     28  O   UNL     1      20.048  -7.066  19.178  1.00  0.00    -0.490 OA
ATOM     29  C   UNL     1      20.644  -7.961  20.113  1.00  0.00     0.278 C 
ENDBRANCH  10  28
TORSDOF 7
ENDMDL
MODEL 6
REMARK VINA RESULT:    -5.082      1.194      3.759
REMARK INTER + INTRA:          -7.865
REMARK INTER:                  -7.288
REMARK INTRA:                  -0.577
REMARK UNBOUND:                -0.703
REMARK SMILES COc1ccc(-c2cc(=O)c3c(OC)c(OC)c(OC)c(OC)c3o2)cc1OC
REMARK SMILES IDX 7 1 8 2 9 3 10 4 11 5 24 6 25 7 21 8 18 9 15 10 12 11 6 12
REMARK SMILES IDX 3 13 27 14 4 15 26 16 5 17 2 18 1 19 28 20 29 21 22 22 23 23
REMARK SMILES IDX 13 24 14 25 19 26 20 27 16 28 17 29
REMARK H PARENT
REMARK Flexibility Score: inf
ROOT
ATOM      1  C   UNL     1      22.687  -4.387  16.844  1.00  0.00     0.138 A 
ATOM      2  C   UNL     1      23.681  -3.514  16.385  1.00  0.00     0.100 A 
ATOM      3  C   UNL     1      23.955  -2.354  17.103  1.00  0.00     0.197 A 
ATOM      4  O   UNL     1      24.857  -1.580  16.682  1.00  0.00    -0.289 OA
ATOM      5  C   UNL     1      23.231  -2.072  18.283  1.00  0.00     0.115 A 
ATOM      6  C   UNL     1      22.246  -3.004  18.692  1.00  0.00     0.188 A 
ATOM      7  O   UNL     1      22.030  -4.098  17.964  1.00  0.00    -0.452 OA
ATOM      8  C   UNL     1      21.482  -2.761  19.859  1.00  0.00     0.209 A 
ATOM      9  C   UNL     1      21.719  -1.611  20.625  1.00  0.00     0.211 A 
ATOM     10  C   UNL     1      22.734  -0.701  20.245  1.00  0.00     0.208 A 
ATOM     11  C   UNL     1      23.444  -0.902  19.043  1.00  0.00     0.179 A 
ENDROOT
BRANCH   1  12
ATOM     12  C   UNL     1      22.350  -5.635  16.114  1.00  0.00     0.021 A 
ATOM     13  C   UNL     1      21.689  -8.035  14.781  1.00  0.00     0.160 A 
ATOM     14  C   UNL     1      22.264  -8.079  16.059  1.00  0.00     0.161 A 
ATOM     15  C   UNL     1      21.441  -6.790  14.175  1.00  0.00     0.051 A 
ATOM     16  C   UNL     1      22.592  -6.878  16.718  1.00  0.00     0.062 A 
ATOM     17  C   UNL     1      21.762  -5.603  14.837  1.00  0.00     0.016 A 
BRANCH  13  18
ATOM     18  O   UNL     1      21.376  -9.248  14.147  1.00  0.00    -0.493 OA
ATOM     19  C   UNL     1      21.179  -9.397  12.744  1.00  0.00     0.278 C 
ENDBRANCH  13  18
BRANCH  14  20
ATOM     20  O   UNL     1      22.494  -9.336  16.644  1.00  0.00    -0.493 OA
ATOM     21  C   UNL     1      21.854  -9.805  17.826  1.00  0.00     0.278 C 
ENDBRANCH  14  20
ENDBRANCH   1  12
BRANCH   8  22
ATOM     22  O   UNL     1      20.467  -3.624  20.318  1.00  0.00    -0.490 OA
ATOM     23  C   UNL     1      19.108  -3.640  19.894  1.00  0.00     0.278 C 
ENDBRANCH   8  22
BRANCH  11  24
ATOM     24  O   UNL     1      24.345   0.067  18.592  1.00  0.00    -0.492 OA
ATOM     25  C   UNL     1      25.580   0.314  19.256  1.00  0.00     0.278 C 
ENDBRANCH  11  24
BRANCH   9  26
ATOM     26  O   UNL     1      20.913  -1.442  21.769  1.00  0.00    -0.490 OA
ATOM     27  C   UNL     1      21.306  -1.626  23.125  1.00  0.00     0.279 C 
ENDBRANCH   9  26
BRANCH  10  28
ATOM     28  O   UNL     1      23.036   0.390  21.067  1.00  0.00    -0.490 OA
ATOM     29  C   UNL     1      22.401   1.659  20.935  1.00  0.00     0.278 C 
ENDBRANCH  10  28
TORSDOF 7
ENDMDL
MODEL 7
REMARK VINA RESULT:    -5.047      2.934      6.286
REMARK INTER + INTRA:          -7.816
REMARK INTER:                  -7.077
REMARK INTRA:                  -0.739
REMARK UNBOUND:                -0.703
REMARK SMILES COc1ccc(-c2cc(=O)c3c(OC)c(OC)c(OC)c(OC)c3o2)cc1OC
REMARK SMILES IDX 7 1 8 2 9 3 10 4 11 5 24 6 25 7 21 8 18 9 15 10 12 11 6 12
REMARK SMILES IDX 3 13 27 14 4 15 26 16 5 17 2 18 1 19 28 20 29 21 22 22 23 23
REMARK SMILES IDX 13 24 14 25 19 26 20 27 16 28 17 29
REMARK H PARENT
REMARK Flexibility Score: inf
ROOT
ATOM      1  C   UNL     1      23.537  -2.203  16.474  1.00  0.00     0.138 A 
ATOM      2  C   UNL     1      22.971  -3.409  16.046  1.00  0.00     0.100 A 
ATOM      3  C   UNL     1      22.045  -4.055  16.860  1.00  0.00     0.197 A 
ATOM      4  O   UNL     1      21.538  -5.137  16.458  1.00  0.00    -0.289 OA
ATOM      5  C   UNL     1      21.686  -3.486  18.102  1.00  0.00     0.115 A 
ATOM      6  C   UNL     1      22.292  -2.259  18.467  1.00  0.00     0.188 A 
ATOM      7  O   UNL     1      23.170  -1.688  17.645  1.00  0.00    -0.452 OA
ATOM      8  C   UNL     1      21.979  -1.656  19.708  1.00  0.00     0.209 A 
ATOM      9  C   UNL     1      21.047  -2.259  20.565  1.00  0.00     0.211 A 
ATOM     10  C   UNL     1      20.405  -3.460  20.184  1.00  0.00     0.208 A 
ATOM     11  C   UNL     1      20.771  -4.102  18.983  1.00  0.00     0.179 A 
ENDROOT
BRANCH   1  12
ATOM     12  C   UNL     1      24.534  -1.475  15.649  1.00  0.00     0.021 A 
ATOM     13  C   UNL     1      26.402  -0.035  14.095  1.00  0.00     0.160 A 
ATOM     14  C   UNL     1      25.053   0.347  14.103  1.00  0.00     0.161 A 
ATOM     15  C   UNL     1      26.814  -1.135  14.871  1.00  0.00     0.051 A 
ATOM     16  C   UNL     1      24.127  -0.375  14.879  1.00  0.00     0.062 A 
ATOM     17  C   UNL     1      25.891  -1.843  15.644  1.00  0.00     0.016 A 
BRANCH  13  18
ATOM     18  O   UNL     1      27.302   0.701  13.309  1.00  0.00    -0.493 OA
ATOM     19  C   UNL     1      28.719   0.653  13.446  1.00  0.00     0.278 C 
ENDBRANCH  13  18
BRANCH  14  20
ATOM     20  O   UNL     1      24.670   1.454  13.325  1.00  0.00    -0.493 OA
ATOM     21  C   UNL     1      24.080   1.366  12.032  1.00  0.00     0.278 C 
ENDBRANCH  14  20
ENDBRANCH   1  12
BRANCH   8  22
ATOM     22  O   UNL     1      22.557  -0.452  20.156  1.00  0.00    -0.490 OA
ATOM     23  C   UNL     1      23.868  -0.281  20.682  1.00  0.00     0.278 C 
ENDBRANCH   8  22
BRANCH  11  24
ATOM     24  O   UNL     1      20.245  -5.360  18.672  1.00  0.00    -0.492 OA
ATOM     25  C   UNL     1      20.664  -6.540  19.349  1.00  0.00     0.278 C 
ENDBRANCH  11  24
BRANCH   9  26
ATOM     26  O   UNL     1      20.795  -1.595  21.783  1.00  0.00    -0.490 OA
ATOM     27  C   UNL     1      21.409  -1.857  23.040  1.00  0.00     0.279 C 
ENDBRANCH   9  26
BRANCH  10  28
ATOM     28  O   UNL     1      19.402  -4.003  20.995  1.00  0.00    -0.490 OA
ATOM     29  C   UNL     1      18.029  -3.645  20.874  1.00  0.00     0.278 C 
ENDBRANCH  10  28
TORSDOF 7
ENDMDL
MODEL 8
REMARK VINA RESULT:    -4.966      2.526      7.471
REMARK INTER + INTRA:          -7.701
REMARK INTER:                  -6.958
REMARK INTRA:                  -0.743
REMARK UNBOUND:                -0.703
REMARK SMILES COc1ccc(-c2cc(=O)c3c(OC)c(OC)c(OC)c(OC)c3o2)cc1OC
REMARK SMILES IDX 7 1 8 2 9 3 10 4 11 5 24 6 25 7 21 8 18 9 15 10 12 11 6 12
REMARK SMILES IDX 3 13 27 14 4 15 26 16 5 17 2 18 1 19 28 20 29 21 22 22 23 23
REMARK SMILES IDX 13 24 14 25 19 26 20 27 16 28 17 29
REMARK H PARENT
REMARK Flexibility Score: inf
ROOT
ATOM      1  C   UNL     1      22.277  -2.874  17.385  1.00  0.00     0.138 A 
ATOM      2  C   UNL     1      21.119  -2.224  17.827  1.00  0.00     0.100 A 
ATOM      3  C   UNL     1      19.873  -2.751  17.498  1.00  0.00     0.197 A 
ATOM      4  O   UNL     1      18.838  -2.159  17.908  1.00  0.00    -0.289 OA
ATOM      5  C   UNL     1      19.792  -3.932  16.727  1.00  0.00     0.115 A 
ATOM      6  C   UNL     1      21.005  -4.540  16.322  1.00  0.00     0.188 A 
ATOM      7  O   UNL     1      22.167  -3.991  16.669  1.00  0.00    -0.452 OA
ATOM      8  C   UNL     1      20.979  -5.716  15.535  1.00  0.00     0.209 A 
ATOM      9  C   UNL     1      19.752  -6.295  15.179  1.00  0.00     0.211 A 
ATOM     10  C   UNL     1      18.540  -5.716  15.621  1.00  0.00     0.208 A 
ATOM     11  C   UNL     1      18.561  -4.503  16.340  1.00  0.00     0.179 A 
ENDROOT
BRANCH   1  12
ATOM     12  C   UNL     1      23.630  -2.353  17.702  1.00  0.00     0.021 A 
ATOM     13  C   UNL     1      26.198  -1.316  18.258  1.00  0.00     0.160 A 
ATOM     14  C   UNL     1      25.745  -1.394  16.933  1.00  0.00     0.161 A 
ATOM     15  C   UNL     1      25.361  -1.752  19.303  1.00  0.00     0.051 A 
ATOM     16  C   UNL     1      24.464  -1.912  16.663  1.00  0.00     0.062 A 
ATOM     17  C   UNL     1      24.090  -2.259  19.027  1.00  0.00     0.016 A 
BRANCH  13  18
ATOM     18  O   UNL     1      27.480  -0.798  18.498  1.00  0.00    -0.493 OA
ATOM     19  C   UNL     1      27.997  -0.489  19.788  1.00  0.00     0.278 C 
ENDBRANCH  13  18
BRANCH  14  20
ATOM     20  O   UNL     1      26.598  -0.944  15.910  1.00  0.00    -0.493 OA
ATOM     21  C   UNL     1      26.427  -1.243  14.528  1.00  0.00     0.278 C 
ENDBRANCH  14  20
ENDBRANCH   1  12
BRANCH   8  22
ATOM     22  O   UNL     1      22.139  -6.367  15.069  1.00  0.00    -0.490 OA
ATOM     23  C   UNL     1      22.947  -7.288  15.792  1.00  0.00     0.278 C 
ENDBRANCH   8  22
BRANCH  11  24
ATOM     24  O   UNL     1      17.363  -3.854  16.655  1.00  0.00    -0.492 OA
ATOM     25  C   UNL     1      16.596  -3.172  15.669  1.00  0.00     0.278 C 
ENDBRANCH  11  24
BRANCH   9  26
ATOM     26  O   UNL     1      19.815  -7.462  14.391  1.00  0.00    -0.490 OA
ATOM     27  C   UNL     1      19.696  -8.806  14.846  1.00  0.00     0.279 C 
ENDBRANCH   9  26
BRANCH  10  28
ATOM     28  O   UNL     1      17.323  -6.353  15.350  1.00  0.00    -0.490 OA
ATOM     29  C   UNL     1      16.666  -7.199  16.288  1.00  0.00     0.278 C 
ENDBRANCH  10  28
TORSDOF 7
ENDMDL
MODEL 9
REMARK VINA RESULT:    -4.904      2.598      7.799
REMARK INTER + INTRA:          -7.614
REMARK INTER:                  -6.840
REMARK INTRA:                  -0.773
REMARK UNBOUND:                -0.703
REMARK SMILES COc1ccc(-c2cc(=O)c3c(OC)c(OC)c(OC)c(OC)c3o2)cc1OC
REMARK SMILES IDX 7 1 8 2 9 3 10 4 11 5 24 6 25 7 21 8 18 9 15 10 12 11 6 12
REMARK SMILES IDX 3 13 27 14 4 15 26 16 5 17 2 18 1 19 28 20 29 21 22 22 23 23
REMARK SMILES IDX 13 24 14 25 19 26 20 27 16 28 17 29
REMARK H PARENT
REMARK Flexibility Score: inf
ROOT
ATOM      1  C   UNL     1      22.409  -3.622  17.036  1.00  0.00     0.138 A 
ATOM      2  C   UNL     1      22.600  -4.529  15.987  1.00  0.00     0.100 A 
ATOM      3  C   UNL     1      21.528  -5.301  15.550  1.00  0.00     0.197 A 
ATOM      4  O   UNL     1      21.712  -6.109  14.600  1.00  0.00    -0.289 OA
ATOM      5  C   UNL     1      20.265  -5.159  16.165  1.00  0.00     0.115 A 
ATOM      6  C   UNL     1      20.143  -4.216  17.215  1.00  0.00     0.188 A 
ATOM      7  O   UNL     1      21.204  -3.504  17.588  1.00  0.00    -0.452 OA
ATOM      8  C   UNL     1      18.903  -4.047  17.875  1.00  0.00     0.209 A 
ATOM      9  C   UNL     1      17.786  -4.794  17.472  1.00  0.00     0.211 A 
ATOM     10  C   UNL     1      17.892  -5.704  16.394  1.00  0.00     0.208 A 
ATOM     11  C   UNL     1      19.144  -5.929  15.785  1.00  0.00     0.179 A 
ENDROOT
BRANCH   1  12
ATOM     12  C   UNL     1      23.519  -2.778  17.545  1.00  0.00     0.021 A 
ATOM     13  C   UNL     1      25.628  -1.136  18.461  1.00  0.00     0.160 A 
ATOM     14  C   UNL     1      25.554  -1.492  17.107  1.00  0.00     0.161 A 
ATOM     15  C   UNL     1      24.642  -1.598  19.353  1.00  0.00     0.051 A 
ATOM     16  C   UNL     1      24.500  -2.311  16.657  1.00  0.00     0.062 A 
ATOM     17  C   UNL     1      23.597  -2.405  18.899  1.00  0.00     0.016 A 
BRANCH  13  18
ATOM     18  O   UNL     1      26.691  -0.322  18.881  1.00  0.00    -0.493 OA
ATOM     19  C   UNL     1      27.837  -0.792  19.585  1.00  0.00     0.278 C 
ENDBRANCH  13  18
BRANCH  14  20
ATOM     20  O   UNL     1      26.546  -1.011  16.236  1.00  0.00    -0.493 OA
ATOM     21  C   UNL     1      26.483  -1.095  14.816  1.00  0.00     0.278 C 
ENDBRANCH  14  20
ENDBRANCH   1  12
BRANCH   8  22
ATOM     22  O   UNL     1      18.706  -3.150  18.944  1.00  0.00    -0.490 OA
ATOM     23  C   UNL     1      19.074  -3.353  20.303  1.00  0.00     0.278 C 
ENDBRANCH   8  22
BRANCH  11  24
ATOM     24  O   UNL     1      19.283  -6.929  14.817  1.00  0.00    -0.492 OA
ATOM     25  C   UNL     1      19.288  -8.311  15.158  1.00  0.00     0.278 C 
ENDBRANCH  11  24
BRANCH   9  26
ATOM     26  O   UNL     1      16.591  -4.568  18.183  1.00  0.00    -0.490 OA
ATOM     27  C   UNL     1      16.033  -5.396  19.198  1.00  0.00     0.279 C 
ENDBRANCH   9  26
BRANCH  10  28
ATOM     28  O   UNL     1      16.753  -6.371  15.929  1.00  0.00    -0.490 OA
ATOM     29  C   UNL     1      15.894  -5.832  14.929  1.00  0.00     0.278 C 
ENDBRANCH  10  28
TORSDOF 7
ENDMDL
