MODEL 1
REMARK VINA RESULT:    -4.974      0.000      0.000
REMARK INTER + INTRA:         -13.511
REMARK INTER:                 -11.371
REMARK INTRA:                  -2.140
REMARK UNBOUND:                -2.140
REMARK SMILES CCCCCCCCCCCCCCCCCCCCCCCC(=O)[O-]
REMARK SMILES IDX 13 1 14 2 15 3 16 4 17 5 18 6 19 7 20 8 21 9 22 10 23 11
REMARK SMILES IDX 24 12 25 13 26 14 12 15 11 16 10 17 9 18 8 19 7 20 6 21 5 22
REMARK SMILES IDX 4 23 3 24 2 25 1 26
REMARK H PARENT
REMARK Flexibility Score: inf
ROOT
ATOM      1  C   UNL     1      -4.344   2.643  -5.785  1.00  0.00     0.000 C 
ENDROOT
BRANCH   1   2
ATOM      2  C   UNL     1      -3.362   3.118  -6.872  1.00  0.00     0.000 C 
BRANCH   2   3
ATOM      3  C   UNL     1      -1.886   3.179  -6.430  1.00  0.00     0.000 C 
BRANCH   3   4
ATOM      4  C   UNL     1      -1.008   2.014  -6.928  1.00  0.00     0.000 C 
BRANCH   4   5
ATOM      5  C   UNL     1      -1.402   1.447  -8.303  1.00  0.00     0.000 C 
BRANCH   5   6
ATOM      6  C   UNL     1      -0.350   1.731  -9.387  1.00  0.00     0.000 C 
BRANCH   6   7
ATOM      7  C   UNL     1      -0.978   2.431 -10.598  1.00  0.00     0.000 C 
BRANCH   7   8
ATOM      8  C   UNL     1      -1.715   3.710 -10.171  1.00  0.00     0.000 C 
BRANCH   8   9
ATOM      9  C   UNL     1      -3.096   3.858 -10.834  1.00  0.00     0.000 C 
BRANCH   9  10
ATOM     10  C   UNL     1      -3.232   3.194 -12.219  1.00  0.00     0.006 C 
BRANCH  10  11
ATOM     11  C   UNL     1      -3.818   4.106 -13.309  1.00  0.00     0.053 C 
BRANCH  11  12
ATOM     12  C   UNL     1      -2.790   5.040 -13.868  1.00  0.00     0.041 C 
ATOM     13  O   UNL     1      -1.681   4.597 -14.265  1.00  0.00    -0.550 OA
ATOM     14  O   UNL     1      -3.050   6.403 -13.932  1.00  0.00    -0.550 OA
ENDBRANCH  11  12
ENDBRANCH  10  11
ENDBRANCH   9  10
ENDBRANCH   8   9
ENDBRANCH   7   8
ENDBRANCH   6   7
ENDBRANCH   5   6
ENDBRANCH   4   5
ENDBRANCH   3   4
ENDBRANCH   2   3
ENDBRANCH   1   2
BRANCH   1  15
ATOM     15  C   UNL     1      -4.817   1.196  -6.006  1.00  0.00     0.000 C 
BRANCH  15  16
ATOM     16  C   UNL     1      -3.917   0.166  -5.306  1.00  0.00     0.000 C 
BRANCH  16  17
ATOM     17  C   UNL     1      -3.505  -0.990  -6.236  1.00  0.00     0.000 C 
BRANCH  17  18
ATOM     18  C   UNL     1      -4.569  -2.107  -6.308  1.00  0.00    -0.000 C 
BRANCH  18  19
ATOM     19  C   UNL     1      -4.246  -3.343  -5.446  1.00  0.00    -0.000 C 
BRANCH  19  20
ATOM     20  C   UNL     1      -5.216  -3.608  -4.279  1.00  0.00    -0.000 C 
BRANCH  20  21
ATOM     21  C   UNL     1      -4.552  -3.738  -2.896  1.00  0.00    -0.000 C 
BRANCH  21  22
ATOM     22  C   UNL     1      -5.557  -4.035  -1.770  1.00  0.00    -0.000 C 
BRANCH  22  23
ATOM     23  C   UNL     1      -5.347  -3.147  -0.530  1.00  0.00    -0.000 C 
BRANCH  23  24
ATOM     24  C   UNL     1      -6.642  -2.700   0.181  1.00  0.00    -0.000 C 
BRANCH  24  25
ATOM     25  C   UNL     1      -7.935  -3.335  -0.362  1.00  0.00    -0.003 C 
ATOM     26  C   UNL     1      -8.573  -4.320   0.617  1.00  0.00     0.004 C 
ENDBRANCH  24  25
ENDBRANCH  23  24
ENDBRANCH  22  23
ENDBRANCH  21  22
ENDBRANCH  20  21
ENDBRANCH  19  20
ENDBRANCH  18  19
ENDBRANCH  17  18
ENDBRANCH  16  17
ENDBRANCH  15  16
ENDBRANCH   1  15
TORSDOF 22
ENDMDL
MODEL 2
REMARK VINA RESULT:    -4.891      5.503     10.299
REMARK INTER + INTRA:         -13.321
REMARK INTER:                  -9.383
REMARK INTRA:                  -3.939
REMARK UNBOUND:                -2.140
REMARK SMILES CCCCCCCCCCCCCCCCCCCCCCCC(=O)[O-]
REMARK SMILES IDX 13 1 14 2 15 3 16 4 17 5 18 6 19 7 20 8 21 9 22 10 23 11
REMARK SMILES IDX 24 12 25 13 26 14 12 15 11 16 10 17 9 18 8 19 7 20 6 21 5 22
REMARK SMILES IDX 4 23 3 24 2 25 1 26
REMARK H PARENT
REMARK Flexibility Score: inf
ROOT
ATOM      1  C   UNL     1      -2.949  -3.740  -3.300  1.00  0.00     0.000 C 
ENDROOT
BRANCH   1   2
ATOM      2  C   UNL     1      -1.644  -2.971  -3.576  1.00  0.00     0.000 C 
BRANCH   2   3
ATOM      3  C   UNL     1      -1.753  -1.438  -3.439  1.00  0.00     0.000 C 
BRANCH   3   4
ATOM      4  C   UNL     1      -3.056  -0.933  -2.787  1.00  0.00     0.000 C 
BRANCH   4   5
ATOM      5  C   UNL     1      -2.879  -0.289  -1.401  1.00  0.00     0.000 C 
BRANCH   5   6
ATOM      6  C   UNL     1      -1.741  -0.928  -0.589  1.00  0.00     0.000 C 
BRANCH   6   7
ATOM      7  C   UNL     1      -2.291  -1.737   0.592  1.00  0.00     0.000 C 
BRANCH   7   8
ATOM      8  C   UNL     1      -2.602  -3.181   0.169  1.00  0.00     0.000 C 
BRANCH   8   9
ATOM      9  C   UNL     1      -4.054  -3.596   0.468  1.00  0.00     0.000 C 
BRANCH   9  10
ATOM     10  C   UNL     1      -5.106  -3.054  -0.521  1.00  0.00     0.006 C 
BRANCH  10  11
ATOM     11  C   UNL     1      -6.170  -4.079  -0.944  1.00  0.00     0.053 C 
BRANCH  11  12
ATOM     12  C   UNL     1      -7.483  -3.832  -0.268  1.00  0.00     0.041 C 
ATOM     13  O   UNL     1      -7.795  -2.673   0.107  1.00  0.00    -0.550 OA
ATOM     14  O   UNL     1      -8.354  -4.889  -0.035  1.00  0.00    -0.550 OA
ENDBRANCH  11  12
ENDBRANCH  10  11
ENDBRANCH   9  10
ENDBRANCH   8   9
ENDBRANCH   7   8
ENDBRANCH   6   7
ENDBRANCH   5   6
ENDBRANCH   4   5
ENDBRANCH   3   4
ENDBRANCH   2   3
ENDBRANCH   1   2
BRANCH   1  15
ATOM     15  C   UNL     1      -3.719  -4.079  -4.589  1.00  0.00     0.000 C 
BRANCH  15  16
ATOM     16  C   UNL     1      -5.165  -3.561  -4.569  1.00  0.00     0.000 C 
BRANCH  16  17
ATOM     17  C   UNL     1      -5.389  -2.393  -5.547  1.00  0.00     0.000 C 
BRANCH  17  18
ATOM     18  C   UNL     1      -4.139  -2.079  -6.398  1.00  0.00    -0.000 C 
BRANCH  18  19
ATOM     19  C   UNL     1      -3.803  -0.579  -6.496  1.00  0.00    -0.000 C 
BRANCH  19  20
ATOM     20  C   UNL     1      -4.817   0.372  -5.832  1.00  0.00    -0.000 C 
BRANCH  20  21
ATOM     21  C   UNL     1      -4.256   1.749  -5.433  1.00  0.00    -0.000 C 
BRANCH  21  22
ATOM     22  C   UNL     1      -4.196   2.739  -6.610  1.00  0.00    -0.000 C 
BRANCH  22  23
ATOM     23  C   UNL     1      -2.774   2.909  -7.176  1.00  0.00    -0.000 C 
BRANCH  23  24
ATOM     24  C   UNL     1      -1.744   3.503  -6.192  1.00  0.00    -0.000 C 
BRANCH  24  25
ATOM     25  C   UNL     1      -0.444   2.692  -6.044  1.00  0.00    -0.003 C 
ATOM     26  C   UNL     1      -0.690   1.190  -5.910  1.00  0.00     0.004 C 
ENDBRANCH  24  25
ENDBRANCH  23  24
ENDBRANCH  22  23
ENDBRANCH  21  22
ENDBRANCH  20  21
ENDBRANCH  19  20
ENDBRANCH  18  19
ENDBRANCH  17  18
ENDBRANCH  16  17
ENDBRANCH  15  16
ENDBRANCH   1  15
TORSDOF 22
ENDMDL
MODEL 3
REMARK VINA RESULT:    -4.848      4.806     10.469
REMARK INTER + INTRA:         -13.223
REMARK INTER:                 -10.319
REMARK INTRA:                  -2.904
REMARK UNBOUND:                -2.140
REMARK SMILES CCCCCCCCCCCCCCCCCCCCCCCC(=O)[O-]
REMARK SMILES IDX 13 1 14 2 15 3 16 4 17 5 18 6 19 7 20 8 21 9 22 10 23 11
REMARK SMILES IDX 24 12 25 13 26 14 12 15 11 16 10 17 9 18 8 19 7 20 6 21 5 22
REMARK SMILES IDX 4 23 3 24 2 25 1 26
REMARK H PARENT
REMARK Flexibility Score: inf
ROOT
ATOM      1  C   UNL     1      -4.991   2.539  -6.849  1.00  0.00     0.000 C 
ENDROOT
BRANCH   1   2
ATOM      2  C   UNL     1      -5.177   1.185  -6.139  1.00  0.00     0.000 C 
BRANCH   2   3
ATOM      3  C   UNL     1      -4.010   0.768  -5.222  1.00  0.00     0.000 C 
BRANCH   3   4
ATOM      4  C   UNL     1      -3.405  -0.617  -5.526  1.00  0.00     0.000 C 
BRANCH   4   5
ATOM      5  C   UNL     1      -4.241  -1.495  -6.473  1.00  0.00     0.000 C 
BRANCH   5   6
ATOM      6  C   UNL     1      -4.200  -2.985  -6.095  1.00  0.00     0.000 C 
BRANCH   6   7
ATOM      7  C   UNL     1      -5.221  -3.306  -4.998  1.00  0.00     0.000 C 
BRANCH   7   8
ATOM      8  C   UNL     1      -4.564  -4.080  -3.846  1.00  0.00     0.000 C 
BRANCH   8   9
ATOM      9  C   UNL     1      -3.037  -3.892  -3.789  1.00  0.00     0.000 C 
BRANCH   9  10
ATOM     10  C   UNL     1      -2.534  -2.965  -2.664  1.00  0.00     0.006 C 
BRANCH  10  11
ATOM     11  C   UNL     1      -3.590  -1.988  -2.122  1.00  0.00     0.053 C 
BRANCH  11  12
ATOM     12  C   UNL     1      -3.895  -2.241  -0.678  1.00  0.00     0.041 C 
ATOM     13  O   UNL     1      -2.976  -2.202   0.180  1.00  0.00    -0.550 OA
ATOM     14  O   UNL     1      -5.194  -2.539  -0.284  1.00  0.00    -0.550 OA
ENDBRANCH  11  12
ENDBRANCH  10  11
ENDBRANCH   9  10
ENDBRANCH   8   9
ENDBRANCH   7   8
ENDBRANCH   6   7
ENDBRANCH   5   6
ENDBRANCH   4   5
ENDBRANCH   3   4
ENDBRANCH   2   3
ENDBRANCH   1   2
BRANCH   1  15
ATOM     15  C   UNL     1      -3.969   3.444  -6.138  1.00  0.00     0.000 C 
BRANCH  15  16
ATOM     16  C   UNL     1      -2.713   3.698  -6.984  1.00  0.00     0.000 C 
BRANCH  16  17
ATOM     17  C   UNL     1      -1.413   3.352  -6.233  1.00  0.00     0.000 C 
BRANCH  17  18
ATOM     18  C   UNL     1      -0.809   2.002  -6.677  1.00  0.00    -0.000 C 
BRANCH  18  19
ATOM     19  C   UNL     1      -1.389   1.453  -7.994  1.00  0.00    -0.000 C 
BRANCH  19  20
ATOM     20  C   UNL     1      -0.378   1.288  -9.145  1.00  0.00    -0.000 C 
BRANCH  20  21
ATOM     21  C   UNL     1      -0.353   2.444 -10.162  1.00  0.00    -0.000 C 
BRANCH  21  22
ATOM     22  C   UNL     1      -1.754   2.982 -10.498  1.00  0.00    -0.000 C 
BRANCH  22  23
ATOM     23  C   UNL     1      -2.123   2.807 -11.982  1.00  0.00    -0.000 C 
BRANCH  23  24
ATOM     24  C   UNL     1      -3.537   3.292 -12.366  1.00  0.00    -0.000 C 
BRANCH  24  25
ATOM     25  C   UNL     1      -3.574   4.503 -13.316  1.00  0.00    -0.003 C 
ATOM     26  C   UNL     1      -2.209   4.827 -13.923  1.00  0.00     0.004 C 
ENDBRANCH  24  25
ENDBRANCH  23  24
ENDBRANCH  22  23
ENDBRANCH  21  22
ENDBRANCH  20  21
ENDBRANCH  19  20
ENDBRANCH  18  19
ENDBRANCH  17  18
ENDBRANCH  16  17
ENDBRANCH  15  16
ENDBRANCH   1  15
TORSDOF 22
ENDMDL
MODEL 4
REMARK VINA RESULT:    -4.847      3.462      5.898
REMARK INTER + INTRA:         -13.221
REMARK INTER:                  -9.285
REMARK INTRA:                  -3.936
REMARK UNBOUND:                -2.140
REMARK SMILES CCCCCCCCCCCCCCCCCCCCCCCC(=O)[O-]
REMARK SMILES IDX 13 1 14 2 15 3 16 4 17 5 18 6 19 7 20 8 21 9 22 10 23 11
REMARK SMILES IDX 24 12 25 13 26 14 12 15 11 16 10 17 9 18 8 19 7 20 6 21 5 22
REMARK SMILES IDX 4 23 3 24 2 25 1 26
REMARK H PARENT
REMARK Flexibility Score: inf
ROOT
ATOM      1  C   UNL     1      -2.596  -3.759  -3.050  1.00  0.00     0.000 C 
ENDROOT
BRANCH   1   2
ATOM      2  C   UNL     1      -3.611  -4.453  -3.976  1.00  0.00     0.000 C 
BRANCH   2   3
ATOM      3  C   UNL     1      -5.046  -3.891  -3.904  1.00  0.00     0.000 C 
BRANCH   3   4
ATOM      4  C   UNL     1      -5.399  -2.865  -5.000  1.00  0.00     0.000 C 
BRANCH   4   5
ATOM      5  C   UNL     1      -4.373  -2.757  -6.141  1.00  0.00     0.000 C 
BRANCH   5   6
ATOM      6  C   UNL     1      -4.225  -1.324  -6.675  1.00  0.00     0.000 C 
BRANCH   6   7
ATOM      7  C   UNL     1      -5.392  -0.440  -6.219  1.00  0.00     0.000 C 
BRANCH   7   8
ATOM      8  C   UNL     1      -4.960   1.031  -6.119  1.00  0.00     0.000 C 
BRANCH   8   9
ATOM      9  C   UNL     1      -3.979   1.292  -4.962  1.00  0.00     0.000 C 
BRANCH   9  10
ATOM     10  C   UNL     1      -2.519   1.547  -5.387  1.00  0.00     0.006 C 
BRANCH  10  11
ATOM     11  C   UNL     1      -2.340   1.910  -6.870  1.00  0.00     0.053 C 
BRANCH  11  12
ATOM     12  C   UNL     1      -1.433   0.949  -7.574  1.00  0.00     0.041 C 
ATOM     13  O   UNL     1      -0.914  -0.009  -6.946  1.00  0.00    -0.550 OA
ATOM     14  O   UNL     1      -1.147   1.125  -8.923  1.00  0.00    -0.550 OA
ENDBRANCH  11  12
ENDBRANCH  10  11
ENDBRANCH   9  10
ENDBRANCH   8   9
ENDBRANCH   7   8
ENDBRANCH   6   7
ENDBRANCH   5   6
ENDBRANCH   4   5
ENDBRANCH   3   4
ENDBRANCH   2   3
ENDBRANCH   1   2
BRANCH   1  15
ATOM     15  C   UNL     1      -1.720  -2.736  -3.795  1.00  0.00     0.000 C 
BRANCH  15  16
ATOM     16  C   UNL     1      -1.832  -1.321  -3.206  1.00  0.00     0.000 C 
BRANCH  16  17
ATOM     17  C   UNL     1      -3.127  -1.116  -2.399  1.00  0.00     0.000 C 
BRANCH  17  18
ATOM     18  C   UNL     1      -2.866  -0.552  -0.985  1.00  0.00    -0.000 C 
BRANCH  18  19
ATOM     19  C   UNL     1      -1.814  -1.335  -0.177  1.00  0.00    -0.000 C 
BRANCH  19  20
ATOM     20  C   UNL     1      -2.376  -2.249   0.929  1.00  0.00    -0.000 C 
BRANCH  20  21
ATOM     21  C   UNL     1      -2.956  -3.588   0.436  1.00  0.00    -0.000 C 
BRANCH  21  22
ATOM     22  C   UNL     1      -4.427  -3.792   0.837  1.00  0.00    -0.000 C 
BRANCH  22  23
ATOM     23  C   UNL     1      -5.403  -2.984  -0.037  1.00  0.00    -0.000 C 
BRANCH  23  24
ATOM     24  C   UNL     1      -6.613  -3.780  -0.573  1.00  0.00    -0.000 C 
BRANCH  24  25
ATOM     25  C   UNL     1      -6.367  -5.286  -0.768  1.00  0.00    -0.003 C 
ATOM     26  C   UNL     1      -7.368  -6.158  -0.012  1.00  0.00     0.004 C 
ENDBRANCH  24  25
ENDBRANCH  23  24
ENDBRANCH  22  23
ENDBRANCH  21  22
ENDBRANCH  20  21
ENDBRANCH  19  20
ENDBRANCH  18  19
ENDBRANCH  17  18
ENDBRANCH  16  17
ENDBRANCH  15  16
ENDBRANCH   1  15
TORSDOF 22
ENDMDL
MODEL 5
REMARK VINA RESULT:    -4.847      5.787     10.010
REMARK INTER + INTRA:         -13.220
REMARK INTER:                  -9.798
REMARK INTRA:                  -3.422
REMARK UNBOUND:                -2.140
REMARK SMILES CCCCCCCCCCCCCCCCCCCCCCCC(=O)[O-]
REMARK SMILES IDX 13 1 14 2 15 3 16 4 17 5 18 6 19 7 20 8 21 9 22 10 23 11
REMARK SMILES IDX 24 12 25 13 26 14 12 15 11 16 10 17 9 18 8 19 7 20 6 21 5 22
REMARK SMILES IDX 4 23 3 24 2 25 1 26
REMARK H PARENT
REMARK Flexibility Score: inf
ROOT
ATOM      1  C   UNL     1      -5.713   0.937  -6.366  1.00  0.00     0.000 C 
ENDROOT
BRANCH   1   2
ATOM      2  C   UNL     1      -5.732  -0.603  -6.370  1.00  0.00     0.000 C 
BRANCH   2   3
ATOM      3  C   UNL     1      -4.344  -1.268  -6.475  1.00  0.00     0.000 C 
BRANCH   3   4
ATOM      4  C   UNL     1      -4.321  -2.778  -6.166  1.00  0.00     0.000 C 
BRANCH   4   5
ATOM      5  C   UNL     1      -5.191  -3.209  -4.973  1.00  0.00     0.000 C 
BRANCH   5   6
ATOM      6  C   UNL     1      -4.366  -3.795  -3.816  1.00  0.00     0.000 C 
BRANCH   6   7
ATOM      7  C   UNL     1      -5.242  -4.046  -2.583  1.00  0.00     0.000 C 
BRANCH   7   8
ATOM      8  C   UNL     1      -4.405  -3.989  -1.296  1.00  0.00     0.000 C 
BRANCH   8   9
ATOM      9  C   UNL     1      -4.967  -3.004  -0.256  1.00  0.00     0.000 C 
BRANCH   9  10
ATOM     10  C   UNL     1      -6.506  -2.940  -0.180  1.00  0.00     0.006 C 
BRANCH  10  11
ATOM     11  C   UNL     1      -7.116  -3.674   1.025  1.00  0.00     0.053 C 
BRANCH  11  12
ATOM     12  C   UNL     1      -7.987  -4.816   0.601  1.00  0.00     0.041 C 
ATOM     13  O   UNL     1      -9.201  -4.844   0.931  1.00  0.00    -0.550 OA
ATOM     14  O   UNL     1      -7.452  -5.859  -0.145  1.00  0.00    -0.550 OA
ENDBRANCH  11  12
ENDBRANCH  10  11
ENDBRANCH   9  10
ENDBRANCH   8   9
ENDBRANCH   7   8
ENDBRANCH   6   7
ENDBRANCH   5   6
ENDBRANCH   4   5
ENDBRANCH   3   4
ENDBRANCH   2   3
ENDBRANCH   1   2
BRANCH   1  15
ATOM     15  C   UNL     1      -4.541   1.512  -5.552  1.00  0.00     0.000 C 
BRANCH  15  16
ATOM     16  C   UNL     1      -4.155   2.932  -5.992  1.00  0.00     0.000 C 
BRANCH  16  17
ATOM     17  C   UNL     1      -3.268   2.942  -7.250  1.00  0.00     0.000 C 
BRANCH  17  18
ATOM     18  C   UNL     1      -1.824   3.403  -6.960  1.00  0.00    -0.000 C 
BRANCH  18  19
ATOM     19  C   UNL     1      -0.814   2.252  -6.791  1.00  0.00    -0.000 C 
BRANCH  19  20
ATOM     20  C   UNL     1      -1.331   0.856  -7.187  1.00  0.00    -0.000 C 
BRANCH  20  21
ATOM     21  C   UNL     1      -0.833  -0.300  -6.299  1.00  0.00    -0.000 C 
BRANCH  21  22
ATOM     22  C   UNL     1      -0.013   0.180  -5.089  1.00  0.00    -0.000 C 
BRANCH  22  23
ATOM     23  C   UNL     1      -0.799   0.108  -3.768  1.00  0.00    -0.000 C 
BRANCH  23  24
ATOM     24  C   UNL     1      -1.977  -0.890  -3.760  1.00  0.00    -0.000 C 
BRANCH  24  25
ATOM     25  C   UNL     1      -3.114  -0.546  -2.781  1.00  0.00    -0.003 C 
ATOM     26  C   UNL     1      -2.624  -0.321  -1.352  1.00  0.00     0.004 C 
ENDBRANCH  24  25
ENDBRANCH  23  24
ENDBRANCH  22  23
ENDBRANCH  21  22
ENDBRANCH  20  21
ENDBRANCH  19  20
ENDBRANCH  18  19
ENDBRANCH  17  18
ENDBRANCH  16  17
ENDBRANCH  15  16
ENDBRANCH   1  15
TORSDOF 22
ENDMDL
MODEL 6
REMARK VINA RESULT:    -4.839      5.201     11.222
REMARK INTER + INTRA:         -13.202
REMARK INTER:                 -10.993
REMARK INTRA:                  -2.210
REMARK UNBOUND:                -2.140
REMARK SMILES CCCCCCCCCCCCCCCCCCCCCCCC(=O)[O-]
REMARK SMILES IDX 13 1 14 2 15 3 16 4 17 5 18 6 19 7 20 8 21 9 22 10 23 11
REMARK SMILES IDX 24 12 25 13 26 14 12 15 11 16 10 17 9 18 8 19 7 20 6 21 5 22
REMARK SMILES IDX 4 23 3 24 2 25 1 26
REMARK H PARENT
REMARK Flexibility Score: inf
ROOT
ATOM      1  C   UNL     1      -4.226   1.596  -5.090  1.00  0.00     0.000 C 
ENDROOT
BRANCH   1   2
ATOM      2  C   UNL     1      -3.526   0.226  -5.150  1.00  0.00     0.000 C 
BRANCH   2   3
ATOM      3  C   UNL     1      -3.814  -0.594  -6.424  1.00  0.00     0.000 C 
BRANCH   3   4
ATOM      4  C   UNL     1      -5.207  -1.252  -6.475  1.00  0.00     0.000 C 
BRANCH   4   5
ATOM      5  C   UNL     1      -5.389  -2.457  -5.536  1.00  0.00     0.000 C 
BRANCH   5   6
ATOM      6  C   UNL     1      -4.196  -3.426  -5.574  1.00  0.00     0.000 C 
BRANCH   6   7
ATOM      7  C   UNL     1      -3.952  -4.058  -4.198  1.00  0.00     0.000 C 
BRANCH   7   8
ATOM      8  C   UNL     1      -4.925  -3.490  -3.154  1.00  0.00     0.000 C 
BRANCH   8   9
ATOM      9  C   UNL     1      -4.232  -3.091  -1.839  1.00  0.00     0.000 C 
BRANCH   9  10
ATOM     10  C   UNL     1      -5.131  -3.132  -0.587  1.00  0.00     0.006 C 
BRANCH  10  11
ATOM     11  C   UNL     1      -6.274  -4.157  -0.655  1.00  0.00     0.053 C 
BRANCH  11  12
ATOM     12  C   UNL     1      -7.239  -3.994   0.478  1.00  0.00     0.041 C 
ATOM     13  O   UNL     1      -6.916  -4.346   1.641  1.00  0.00    -0.550 OA
ATOM     14  O   UNL     1      -8.504  -3.469   0.243  1.00  0.00    -0.550 OA
ENDBRANCH  11  12
ENDBRANCH  10  11
ENDBRANCH   9  10
ENDBRANCH   8   9
ENDBRANCH   7   8
ENDBRANCH   6   7
ENDBRANCH   5   6
ENDBRANCH   4   5
ENDBRANCH   3   4
ENDBRANCH   2   3
ENDBRANCH   1   2
BRANCH   1  15
ATOM     15  C   UNL     1      -4.617   2.122  -6.483  1.00  0.00     0.000 C 
BRANCH  15  16
ATOM     16  C   UNL     1      -3.964   3.473  -6.811  1.00  0.00     0.000 C 
BRANCH  16  17
ATOM     17  C   UNL     1      -2.829   3.347  -7.844  1.00  0.00     0.000 C 
BRANCH  17  18
ATOM     18  C   UNL     1      -1.487   2.926  -7.207  1.00  0.00    -0.000 C 
BRANCH  18  19
ATOM     19  C   UNL     1      -0.867   1.656  -7.821  1.00  0.00    -0.000 C 
BRANCH  19  20
ATOM     20  C   UNL     1      -0.988   1.534  -9.351  1.00  0.00    -0.000 C 
BRANCH  20  21
ATOM     21  C   UNL     1      -0.088   2.491 -10.156  1.00  0.00    -0.000 C 
BRANCH  21  22
ATOM     22  C   UNL     1      -0.883   3.456 -11.051  1.00  0.00    -0.000 C 
BRANCH  22  23
ATOM     23  C   UNL     1      -1.993   2.752 -11.852  1.00  0.00    -0.000 C 
BRANCH  23  24
ATOM     24  C   UNL     1      -3.376   3.435 -11.794  1.00  0.00    -0.000 C 
BRANCH  24  25
ATOM     25  C   UNL     1      -4.004   3.751 -13.163  1.00  0.00    -0.003 C 
ATOM     26  C   UNL     1      -3.378   4.970 -13.840  1.00  0.00     0.004 C 
ENDBRANCH  24  25
ENDBRANCH  23  24
ENDBRANCH  22  23
ENDBRANCH  21  22
ENDBRANCH  20  21
ENDBRANCH  19  20
ENDBRANCH  18  19
ENDBRANCH  17  18
ENDBRANCH  16  17
ENDBRANCH  15  16
ENDBRANCH   1  15
TORSDOF 22
ENDMDL
MODEL 7
REMARK VINA RESULT:    -4.769      5.019     10.653
REMARK INTER + INTRA:         -13.043
REMARK INTER:                 -10.280
REMARK INTRA:                  -2.763
REMARK UNBOUND:                -2.140
REMARK SMILES CCCCCCCCCCCCCCCCCCCCCCCC(=O)[O-]
REMARK SMILES IDX 13 1 14 2 15 3 16 4 17 5 18 6 19 7 20 8 21 9 22 10 23 11
REMARK SMILES IDX 24 12 25 13 26 14 12 15 11 16 10 17 9 18 8 19 7 20 6 21 5 22
REMARK SMILES IDX 4 23 3 24 2 25 1 26
REMARK H PARENT
REMARK Flexibility Score: inf
ROOT
ATOM      1  C   UNL     1      -5.381  -2.647  -5.235  1.00  0.00     0.000 C 
ENDROOT
BRANCH   1   2
ATOM      2  C   UNL     1      -4.793  -3.391  -4.022  1.00  0.00     0.000 C 
BRANCH   2   3
ATOM      3  C   UNL     1      -3.436  -4.078  -4.278  1.00  0.00     0.000 C 
BRANCH   3   4
ATOM      4  C   UNL     1      -2.277  -3.583  -3.389  1.00  0.00     0.000 C 
BRANCH   4   5
ATOM      5  C   UNL     1      -1.504  -2.376  -3.947  1.00  0.00     0.000 C 
BRANCH   5   6
ATOM      6  C   UNL     1      -2.054  -1.032  -3.442  1.00  0.00     0.000 C 
BRANCH   6   7
ATOM      7  C   UNL     1      -1.912  -0.913  -1.920  1.00  0.00     0.000 C 
BRANCH   7   8
ATOM      8  C   UNL     1      -3.290  -0.874  -1.243  1.00  0.00     0.000 C 
BRANCH   8   9
ATOM      9  C   UNL     1      -3.424  -1.890  -0.094  1.00  0.00     0.000 C 
BRANCH   9  10
ATOM     10  C   UNL     1      -4.392  -3.060  -0.366  1.00  0.00     0.006 C 
BRANCH  10  11
ATOM     11  C   UNL     1      -5.855  -2.777   0.008  1.00  0.00     0.053 C 
BRANCH  11  12
ATOM     12  C   UNL     1      -6.785  -3.806  -0.556  1.00  0.00     0.041 C 
ATOM     13  O   UNL     1      -8.030  -3.656  -0.461  1.00  0.00    -0.550 OA
ATOM     14  O   UNL     1      -6.273  -4.942  -1.171  1.00  0.00    -0.550 OA
ENDBRANCH  11  12
ENDBRANCH  10  11
ENDBRANCH   9  10
ENDBRANCH   8   9
ENDBRANCH   7   8
ENDBRANCH   6   7
ENDBRANCH   5   6
ENDBRANCH   4   5
ENDBRANCH   3   4
ENDBRANCH   2   3
ENDBRANCH   1   2
BRANCH   1  15
ATOM     15  C   UNL     1      -4.342  -2.415  -6.347  1.00  0.00     0.000 C 
BRANCH  15  16
ATOM     16  C   UNL     1      -3.953  -0.936  -6.495  1.00  0.00     0.000 C 
BRANCH  16  17
ATOM     17  C   UNL     1      -5.099   0.019  -6.110  1.00  0.00     0.000 C 
BRANCH  17  18
ATOM     18  C   UNL     1      -4.598   1.300  -5.408  1.00  0.00    -0.000 C 
BRANCH  18  19
ATOM     19  C   UNL     1      -4.193   2.431  -6.373  1.00  0.00    -0.000 C 
BRANCH  19  20
ATOM     20  C   UNL     1      -2.687   2.751  -6.422  1.00  0.00    -0.000 C 
BRANCH  20  21
ATOM     21  C   UNL     1      -1.890   1.974  -7.488  1.00  0.00    -0.000 C 
BRANCH  21  22
ATOM     22  C   UNL     1      -1.257   2.888  -8.551  1.00  0.00    -0.000 C 
BRANCH  22  23
ATOM     23  C   UNL     1      -1.112   2.200  -9.921  1.00  0.00    -0.000 C 
BRANCH  23  24
ATOM     24  C   UNL     1      -1.396   3.103 -11.140  1.00  0.00    -0.000 C 
BRANCH  24  25
ATOM     25  C   UNL     1      -2.830   3.655 -11.221  1.00  0.00    -0.003 C 
ATOM     26  C   UNL     1      -3.547   3.268 -12.514  1.00  0.00     0.004 C 
ENDBRANCH  24  25
ENDBRANCH  23  24
ENDBRANCH  22  23
ENDBRANCH  21  22
ENDBRANCH  20  21
ENDBRANCH  19  20
ENDBRANCH  18  19
ENDBRANCH  17  18
ENDBRANCH  16  17
ENDBRANCH  15  16
ENDBRANCH   1  15
TORSDOF 22
ENDMDL
MODEL 8
REMARK VINA RESULT:    -4.760      4.683     11.697
REMARK INTER + INTRA:         -13.022
REMARK INTER:                  -9.392
REMARK INTRA:                  -3.631
REMARK UNBOUND:                -2.140
REMARK SMILES CCCCCCCCCCCCCCCCCCCCCCCC(=O)[O-]
REMARK SMILES IDX 13 1 14 2 15 3 16 4 17 5 18 6 19 7 20 8 21 9 22 10 23 11
REMARK SMILES IDX 24 12 25 13 26 14 12 15 11 16 10 17 9 18 8 19 7 20 6 21 5 22
REMARK SMILES IDX 4 23 3 24 2 25 1 26
REMARK H PARENT
REMARK Flexibility Score: inf
ROOT
ATOM      1  C   UNL     1      -4.178   5.642 -13.496  1.00  0.00     0.000 C 
ENDROOT
BRANCH   1   2
ATOM      2  C   UNL     1      -3.992   4.120 -13.633  1.00  0.00     0.000 C 
BRANCH   2   3
ATOM      3  C   UNL     1      -3.586   3.397 -12.332  1.00  0.00     0.000 C 
BRANCH   3   4
ATOM      4  C   UNL     1      -2.223   2.678 -12.385  1.00  0.00     0.000 C 
BRANCH   4   5
ATOM      5  C   UNL     1      -1.435   2.686 -11.064  1.00  0.00     0.000 C 
BRANCH   5   6
ATOM      6  C   UNL     1      -2.136   3.492  -9.958  1.00  0.00     0.000 C 
BRANCH   6   7
ATOM      7  C   UNL     1      -1.219   3.677  -8.743  1.00  0.00     0.000 C 
BRANCH   7   8
ATOM      8  C   UNL     1      -1.897   3.165  -7.463  1.00  0.00     0.000 C 
BRANCH   8   9
ATOM      9  C   UNL     1      -3.431   3.277  -7.508  1.00  0.00     0.000 C 
BRANCH   9  10
ATOM     10  C   UNL     1      -4.146   3.004  -6.169  1.00  0.00     0.006 C 
BRANCH  10  11
ATOM     11  C   UNL     1      -4.804   1.618  -6.068  1.00  0.00     0.053 C 
BRANCH  11  12
ATOM     12  C   UNL     1      -3.800   0.543  -5.786  1.00  0.00     0.041 C 
ATOM     13  O   UNL     1      -3.676  -0.430  -6.573  1.00  0.00    -0.550 OA
ATOM     14  O   UNL     1      -3.016   0.608  -4.641  1.00  0.00    -0.550 OA
ENDBRANCH  11  12
ENDBRANCH  10  11
ENDBRANCH   9  10
ENDBRANCH   8   9
ENDBRANCH   7   8
ENDBRANCH   6   7
ENDBRANCH   5   6
ENDBRANCH   4   5
ENDBRANCH   3   4
ENDBRANCH   2   3
ENDBRANCH   1   2
BRANCH   1  15
ATOM     15  C   UNL     1      -3.630   6.188 -12.166  1.00  0.00     0.000 C 
BRANCH  15  16
ATOM     16  C   UNL     1      -3.162   7.647 -12.272  1.00  0.00     0.000 C 
BRANCH  16  17
ATOM     17  C   UNL     1      -1.642   7.798 -12.081  1.00  0.00     0.000 C 
BRANCH  17  18
ATOM     18  C   UNL     1      -0.959   6.476 -11.669  1.00  0.00    -0.000 C 
BRANCH  18  19
ATOM     19  C   UNL     1      -0.225   5.759 -12.818  1.00  0.00    -0.000 C 
BRANCH  19  20
ATOM     20  C   UNL     1      -0.065   6.577 -14.113  1.00  0.00    -0.000 C 
BRANCH  20  21
ATOM     21  C   UNL     1      -0.974   6.141 -15.278  1.00  0.00    -0.000 C 
BRANCH  21  22
ATOM     22  C   UNL     1      -1.875   7.274 -15.796  1.00  0.00    -0.000 C 
BRANCH  22  23
ATOM     23  C   UNL     1      -2.803   6.825 -16.940  1.00  0.00    -0.000 C 
BRANCH  23  24
ATOM     24  C   UNL     1      -2.791   5.310 -17.235  1.00  0.00    -0.000 C 
BRANCH  24  25
ATOM     25  C   UNL     1      -4.093   4.755 -17.841  1.00  0.00    -0.003 C 
ATOM     26  C   UNL     1      -5.344   5.223 -17.099  1.00  0.00     0.004 C 
ENDBRANCH  24  25
ENDBRANCH  23  24
ENDBRANCH  22  23
ENDBRANCH  21  22
ENDBRANCH  20  21
ENDBRANCH  19  20
ENDBRANCH  18  19
ENDBRANCH  17  18
ENDBRANCH  16  17
ENDBRANCH  15  16
ENDBRANCH   1  15
TORSDOF 22
ENDMDL
MODEL 9
REMARK VINA RESULT:    -4.747      4.533      6.610
REMARK INTER + INTRA:         -12.993
REMARK INTER:                  -9.865
REMARK INTRA:                  -3.128
REMARK UNBOUND:                -2.140
REMARK SMILES CCCCCCCCCCCCCCCCCCCCCCCC(=O)[O-]
REMARK SMILES IDX 13 1 14 2 15 3 16 4 17 5 18 6 19 7 20 8 21 9 22 10 23 11
REMARK SMILES IDX 24 12 25 13 26 14 12 15 11 16 10 17 9 18 8 19 7 20 6 21 5 22
REMARK SMILES IDX 4 23 3 24 2 25 1 26
REMARK H PARENT
REMARK Flexibility Score: inf
ROOT
ATOM      1  C   UNL     1      -4.406   1.830  -5.395  1.00  0.00     0.000 C 
ENDROOT
BRANCH   1   2
ATOM      2  C   UNL     1      -4.157   3.014  -6.347  1.00  0.00     0.000 C 
BRANCH   2   3
ATOM      3  C   UNL     1      -2.672   3.348  -6.592  1.00  0.00     0.000 C 
BRANCH   3   4
ATOM      4  C   UNL     1      -2.131   2.933  -7.975  1.00  0.00     0.000 C 
BRANCH   4   5
ATOM      5  C   UNL     1      -1.404   1.577  -8.006  1.00  0.00     0.000 C 
BRANCH   5   6
ATOM      6  C   UNL     1      -0.892   1.145  -6.623  1.00  0.00     0.000 C 
BRANCH   6   7
ATOM      7  C   UNL     1      -0.892  -0.382  -6.485  1.00  0.00     0.000 C 
BRANCH   7   8
ATOM      8  C   UNL     1      -0.168  -0.816  -5.202  1.00  0.00     0.000 C 
BRANCH   8   9
ATOM      9  C   UNL     1      -1.014  -1.752  -4.320  1.00  0.00     0.000 C 
BRANCH   9  10
ATOM     10  C   UNL     1      -1.766  -1.060  -3.165  1.00  0.00     0.006 C 
BRANCH  10  11
ATOM     11  C   UNL     1      -1.645  -1.772  -1.809  1.00  0.00     0.053 C 
BRANCH  11  12
ATOM     12  C   UNL     1      -2.007  -0.870  -0.670  1.00  0.00     0.041 C 
ATOM     13  O   UNL     1      -2.517   0.259  -0.893  1.00  0.00    -0.550 OA
ATOM     14  O   UNL     1      -1.764  -1.270   0.638  1.00  0.00    -0.550 OA
ENDBRANCH  11  12
ENDBRANCH  10  11
ENDBRANCH   9  10
ENDBRANCH   8   9
ENDBRANCH   7   8
ENDBRANCH   6   7
ENDBRANCH   5   6
ENDBRANCH   4   5
ENDBRANCH   3   4
ENDBRANCH   2   3
ENDBRANCH   1   2
BRANCH   1  15
ATOM     15  C   UNL     1      -4.917   0.578  -6.129  1.00  0.00     0.000 C 
BRANCH  15  16
ATOM     16  C   UNL     1      -4.402  -0.727  -5.504  1.00  0.00     0.000 C 
BRANCH  16  17
ATOM     17  C   UNL     1      -4.313  -1.877  -6.524  1.00  0.00     0.000 C 
BRANCH  17  18
ATOM     18  C   UNL     1      -4.298  -3.268  -5.854  1.00  0.00    -0.000 C 
BRANCH  18  19
ATOM     19  C   UNL     1      -5.186  -3.376  -4.600  1.00  0.00    -0.000 C 
BRANCH  19  20
ATOM     20  C   UNL     1      -4.445  -3.702  -3.290  1.00  0.00    -0.000 C 
BRANCH  20  21
ATOM     21  C   UNL     1      -5.354  -3.967  -2.075  1.00  0.00    -0.000 C 
BRANCH  21  22
ATOM     22  C   UNL     1      -5.069  -3.026  -0.892  1.00  0.00    -0.000 C 
BRANCH  22  23
ATOM     23  C   UNL     1      -6.084  -3.182   0.255  1.00  0.00    -0.000 C 
BRANCH  23  24
ATOM     24  C   UNL     1      -7.563  -3.015  -0.154  1.00  0.00    -0.000 C 
BRANCH  24  25
ATOM     25  C   UNL     1      -8.528  -4.047   0.458  1.00  0.00    -0.003 C 
ATOM     26  C   UNL     1      -8.093  -5.491   0.210  1.00  0.00     0.004 C 
ENDBRANCH  24  25
ENDBRANCH  23  24
ENDBRANCH  22  23
ENDBRANCH  21  22
ENDBRANCH  20  21
ENDBRANCH  19  20
ENDBRANCH  18  19
ENDBRANCH  17  18
ENDBRANCH  16  17
ENDBRANCH  15  16
ENDBRANCH   1  15
TORSDOF 22
ENDMDL
