MODEL 1
REMARK VINA RESULT:    -3.139      0.000      0.000
REMARK INTER + INTRA:          -3.988
REMARK INTER:                  -3.873
REMARK INTRA:                  -0.115
REMARK UNBOUND:                -0.115
REMARK SMILES CCCCCC(=O)[O-]
REMARK SMILES IDX 4 1 5 2 6 3 7 4 8 5 3 6 2 7 1 8
REMARK H PARENT
REMARK Flexibility Score: inf
ROOT
ATOM      1  C   UNL     1     155.660 155.879 165.665  1.00  0.00     0.006 C 
ENDROOT
BRANCH   1   2
ATOM      2  C   UNL     1     156.298 155.316 166.938  1.00  0.00     0.053 C 
BRANCH   2   3
ATOM      3  C   UNL     1     155.399 154.299 167.569  1.00  0.00     0.041 C 
ATOM      4  O   UNL     1     155.060 154.418 168.777  1.00  0.00    -0.550 OA
ATOM      5  O   UNL     1     154.975 153.196 166.840  1.00  0.00    -0.550 OA
ENDBRANCH   2   3
ENDBRANCH   1   2
BRANCH   1   6
ATOM      6  C   UNL     1     154.404 156.697 165.996  1.00  0.00     0.000 C 
BRANCH   6   7
ATOM      7  C   UNL     1     154.003 157.651 164.860  1.00  0.00    -0.003 C 
ATOM      8  C   UNL     1     153.694 159.063 165.356  1.00  0.00     0.004 C 
ENDBRANCH   6   7
ENDBRANCH   1   6
TORSDOF 4
ENDMDL
MODEL 2
REMARK VINA RESULT:    -3.103      1.288      1.824
REMARK INTER + INTRA:          -3.943
REMARK INTER:                  -3.857
REMARK INTRA:                  -0.087
REMARK UNBOUND:                -0.115
REMARK SMILES CCCCCC(=O)[O-]
REMARK SMILES IDX 4 1 5 2 6 3 7 4 8 5 3 6 2 7 1 8
REMARK H PARENT
REMARK Flexibility Score: inf
ROOT
ATOM      1  C   UNL     1     154.276 156.552 165.983  1.00  0.00     0.006 C 
ENDROOT
BRANCH   1   2
ATOM      2  C   UNL     1     155.758 156.167 165.995  1.00  0.00     0.053 C 
BRANCH   2   3
ATOM      3  C   UNL     1     156.032 155.171 167.077  1.00  0.00     0.041 C 
ATOM      4  O   UNL     1     157.063 154.449 167.027  1.00  0.00    -0.550 OA
ATOM      5  O   UNL     1     155.124 155.003 168.115  1.00  0.00    -0.550 OA
ENDBRANCH   2   3
ENDBRANCH   1   2
BRANCH   1   6
ATOM      6  C   UNL     1     154.087 157.994 165.488  1.00  0.00     0.000 C 
BRANCH   6   7
ATOM      7  C   UNL     1     153.121 158.088 164.297  1.00  0.00    -0.003 C 
ATOM      8  C   UNL     1     153.783 158.661 163.044  1.00  0.00     0.004 C 
ENDBRANCH   6   7
ENDBRANCH   1   6
TORSDOF 4
ENDMDL
MODEL 3
REMARK VINA RESULT:    -3.072      3.324      4.623
REMARK INTER + INTRA:          -3.905
REMARK INTER:                  -3.769
REMARK INTRA:                  -0.136
REMARK UNBOUND:                -0.115
REMARK SMILES CCCCCC(=O)[O-]
REMARK SMILES IDX 4 1 5 2 6 3 7 4 8 5 3 6 2 7 1 8
REMARK H PARENT
REMARK Flexibility Score: inf
ROOT
ATOM      1  C   UNL     1     154.311 156.366 164.471  1.00  0.00     0.006 C 
ENDROOT
BRANCH   1   2
ATOM      2  C   UNL     1     154.001 157.373 165.583  1.00  0.00     0.053 C 
BRANCH   2   3
ATOM      3  C   UNL     1     153.767 158.734 165.006  1.00  0.00     0.041 C 
ATOM      4  O   UNL     1     153.769 159.747 165.755  1.00  0.00    -0.550 OA
ATOM      5  O   UNL     1     153.499 158.880 163.652  1.00  0.00    -0.550 OA
ENDBRANCH   2   3
ENDBRANCH   1   2
BRANCH   1   6
ATOM      6  C   UNL     1     155.514 155.489 164.845  1.00  0.00     0.000 C 
BRANCH   6   7
ATOM      7  C   UNL     1     156.129 155.875 166.200  1.00  0.00    -0.003 C 
ATOM      8  C   UNL     1     156.441 154.661 167.074  1.00  0.00     0.004 C 
ENDBRANCH   6   7
ENDBRANCH   1   6
TORSDOF 4
ENDMDL
MODEL 4
REMARK VINA RESULT:    -3.054      2.893      4.458
REMARK INTER + INTRA:          -3.884
REMARK INTER:                  -3.774
REMARK INTRA:                  -0.110
REMARK UNBOUND:                -0.115
REMARK SMILES CCCCCC(=O)[O-]
REMARK SMILES IDX 4 1 5 2 6 3 7 4 8 5 3 6 2 7 1 8
REMARK H PARENT
REMARK Flexibility Score: inf
ROOT
ATOM      1  C   UNL     1     155.689 156.152 165.998  1.00  0.00     0.006 C 
ENDROOT
BRANCH   1   2
ATOM      2  C   UNL     1     154.237 156.641 166.031  1.00  0.00     0.053 C 
BRANCH   2   3
ATOM      3  C   UNL     1     154.048 157.784 165.084  1.00  0.00     0.041 C 
ATOM      4  O   UNL     1     153.913 157.569 163.850  1.00  0.00    -0.550 OA
ATOM      5  O   UNL     1     154.068 159.090 165.558  1.00  0.00    -0.550 OA
ENDBRANCH   2   3
ENDBRANCH   1   2
BRANCH   1   6
ATOM      6  C   UNL     1     155.961 155.165 167.142  1.00  0.00     0.000 C 
BRANCH   6   7
ATOM      7  C   UNL     1     154.676 154.526 167.690  1.00  0.00    -0.003 C 
ATOM      8  C   UNL     1     154.542 154.676 169.206  1.00  0.00     0.004 C 
ENDBRANCH   6   7
ENDBRANCH   1   6
TORSDOF 4
ENDMDL
MODEL 5
REMARK VINA RESULT:    -3.035      1.968      2.304
REMARK INTER + INTRA:          -3.860
REMARK INTER:                  -3.638
REMARK INTRA:                  -0.221
REMARK UNBOUND:                -0.115
REMARK SMILES CCCCCC(=O)[O-]
REMARK SMILES IDX 4 1 5 2 6 3 7 4 8 5 3 6 2 7 1 8
REMARK H PARENT
REMARK Flexibility Score: inf
ROOT
ATOM      1  C   UNL     1     156.063 155.841 165.828  1.00  0.00     0.006 C 
ENDROOT
BRANCH   1   2
ATOM      2  C   UNL     1     156.189 155.126 167.176  1.00  0.00     0.053 C 
BRANCH   2   3
ATOM      3  C   UNL     1     154.840 154.724 167.684  1.00  0.00     0.041 C 
ATOM      4  O   UNL     1     154.663 153.574 168.167  1.00  0.00    -0.550 OA
ATOM      5  O   UNL     1     153.768 155.600 167.580  1.00  0.00    -0.550 OA
ENDBRANCH   2   3
ENDBRANCH   1   2
BRANCH   1   6
ATOM      6  C   UNL     1     155.918 154.830 164.682  1.00  0.00     0.000 C 
BRANCH   6   7
ATOM      7  C   UNL     1     154.962 155.316 163.582  1.00  0.00    -0.003 C 
ATOM      8  C   UNL     1     153.491 155.168 163.969  1.00  0.00     0.004 C 
ENDBRANCH   6   7
ENDBRANCH   1   6
TORSDOF 4
ENDMDL
MODEL 6
REMARK VINA RESULT:    -3.010      3.507      4.998
REMARK INTER + INTRA:          -3.829
REMARK INTER:                  -3.737
REMARK INTRA:                  -0.092
REMARK UNBOUND:                -0.115
REMARK SMILES CCCCCC(=O)[O-]
REMARK SMILES IDX 4 1 5 2 6 3 7 4 8 5 3 6 2 7 1 8
REMARK H PARENT
REMARK Flexibility Score: inf
ROOT
ATOM      1  C   UNL     1     154.071 157.759 165.242  1.00  0.00     0.006 C 
ENDROOT
BRANCH   1   2
ATOM      2  C   UNL     1     153.228 157.518 163.986  1.00  0.00     0.053 C 
BRANCH   2   3
ATOM      3  C   UNL     1     154.007 157.866 162.757  1.00  0.00     0.041 C 
ATOM      4  O   UNL     1     154.088 159.064 162.376  1.00  0.00    -0.550 OA
ATOM      5  O   UNL     1     154.603 156.863 162.004  1.00  0.00    -0.550 OA
ENDBRANCH   2   3
ENDBRANCH   1   2
BRANCH   1   6
ATOM      6  C   UNL     1     154.390 156.434 165.950  1.00  0.00     0.000 C 
BRANCH   6   7
ATOM      7  C   UNL     1     155.888 156.091 165.913  1.00  0.00    -0.003 C 
ATOM      8  C   UNL     1     156.293 155.098 167.002  1.00  0.00     0.004 C 
ENDBRANCH   6   7
ENDBRANCH   1   6
TORSDOF 4
ENDMDL
MODEL 7
REMARK VINA RESULT:    -2.968      2.378      3.104
REMARK INTER + INTRA:          -3.777
REMARK INTER:                  -3.544
REMARK INTRA:                  -0.233
REMARK UNBOUND:                -0.115
REMARK SMILES CCCCCC(=O)[O-]
REMARK SMILES IDX 4 1 5 2 6 3 7 4 8 5 3 6 2 7 1 8
REMARK H PARENT
REMARK Flexibility Score: inf
ROOT
ATOM      1  C   UNL     1     154.334 157.181 165.559  1.00  0.00     0.006 C 
ENDROOT
BRANCH   1   2
ATOM      2  C   UNL     1     153.152 156.302 165.975  1.00  0.00     0.053 C 
BRANCH   2   3
ATOM      3  C   UNL     1     153.052 155.103 165.086  1.00  0.00     0.041 C 
ATOM      4  O   UNL     1     152.875 155.247 163.847  1.00  0.00    -0.550 OA
ATOM      5  O   UNL     1     153.103 153.826 165.630  1.00  0.00    -0.550 OA
ENDBRANCH   2   3
ENDBRANCH   1   2
BRANCH   1   6
ATOM      6  C   UNL     1     153.884 158.630 165.322  1.00  0.00     0.000 C 
BRANCH   6   7
ATOM      7  C   UNL     1     153.073 158.792 164.027  1.00  0.00    -0.003 C 
ATOM      8  C   UNL     1     153.888 158.469 162.774  1.00  0.00     0.004 C 
ENDBRANCH   6   7
ENDBRANCH   1   6
TORSDOF 4
ENDMDL
MODEL 8
REMARK VINA RESULT:    -2.944      2.232      3.857
REMARK INTER + INTRA:          -3.747
REMARK INTER:                  -3.491
REMARK INTRA:                  -0.257
REMARK UNBOUND:                -0.115
REMARK SMILES CCCCCC(=O)[O-]
REMARK SMILES IDX 4 1 5 2 6 3 7 4 8 5 3 6 2 7 1 8
REMARK H PARENT
REMARK Flexibility Score: inf
ROOT
ATOM      1  C   UNL     1     155.902 155.999 166.085  1.00  0.00     0.006 C 
ENDROOT
BRANCH   1   2
ATOM      2  C   UNL     1     154.411 156.098 165.750  1.00  0.00     0.053 C 
BRANCH   2   3
ATOM      3  C   UNL     1     154.027 155.050 164.753  1.00  0.00     0.041 C 
ATOM      4  O   UNL     1     153.134 154.206 165.034  1.00  0.00    -0.550 OA
ATOM      5  O   UNL     1     154.687 154.973 163.534  1.00  0.00    -0.550 OA
ENDBRANCH   2   3
ENDBRANCH   1   2
BRANCH   1   6
ATOM      6  C   UNL     1     156.180 154.799 167.001  1.00  0.00     0.000 C 
BRANCH   6   7
ATOM      7  C   UNL     1     155.227 154.742 168.205  1.00  0.00    -0.003 C 
ATOM      8  C   UNL     1     154.543 153.383 168.353  1.00  0.00     0.004 C 
ENDBRANCH   6   7
ENDBRANCH   1   6
TORSDOF 4
ENDMDL
MODEL 9
REMARK VINA RESULT:    -2.940      1.598      2.014
REMARK INTER + INTRA:          -3.743
REMARK INTER:                  -3.600
REMARK INTRA:                  -0.143
REMARK UNBOUND:                -0.115
REMARK SMILES CCCCCC(=O)[O-]
REMARK SMILES IDX 4 1 5 2 6 3 7 4 8 5 3 6 2 7 1 8
REMARK H PARENT
REMARK Flexibility Score: inf
ROOT
ATOM      1  C   UNL     1     155.912 156.065 165.999  1.00  0.00     0.006 C 
ENDROOT
BRANCH   1   2
ATOM      2  C   UNL     1     156.051 154.568 166.291  1.00  0.00     0.053 C 
BRANCH   2   3
ATOM      3  C   UNL     1     155.497 153.760 165.160  1.00  0.00     0.041 C 
ATOM      4  O   UNL     1     154.893 152.679 165.392  1.00  0.00    -0.550 OA
ATOM      5  O   UNL     1     155.690 154.174 163.849  1.00  0.00    -0.550 OA
ENDBRANCH   2   3
ENDBRANCH   1   2
BRANCH   1   6
ATOM      6  C   UNL     1     154.452 156.518 166.137  1.00  0.00     0.000 C 
BRANCH   6   7
ATOM      7  C   UNL     1     153.996 157.410 164.971  1.00  0.00    -0.003 C 
ATOM      8  C   UNL     1     153.836 158.875 165.376  1.00  0.00     0.004 C 
ENDBRANCH   6   7
ENDBRANCH   1   6
TORSDOF 4
ENDMDL
