MODEL 1
REMARK VINA RESULT:    -3.593      0.000      0.000
REMARK INTER + INTRA:          -5.702
REMARK INTER:                  -5.274
REMARK INTRA:                  -0.428
REMARK UNBOUND:                -0.428
REMARK SMILES O=C([O-])CCCCCCCC(=O)[O-]
REMARK SMILES IDX 7 1 6 2 5 3 4 4 2 5 1 6 3 7 8 8 9 9 10 10 11 11 12 12 13 13
REMARK H PARENT
REMARK Flexibility Score: inf
ROOT
ATOM      1  C   UNL     1      57.134  28.059  50.801  1.00  0.00     0.000 C 
ENDROOT
BRANCH   1   2
ATOM      2  C   UNL     1      55.779  28.760  50.979  1.00  0.00     0.000 C 
BRANCH   2   3
ATOM      3  C   UNL     1      54.635  27.884  50.452  1.00  0.00     0.006 C 
BRANCH   3   4
ATOM      4  C   UNL     1      55.134  26.477  50.109  1.00  0.00     0.053 C 
BRANCH   4   5
ATOM      5  C   UNL     1      53.980  25.549  49.904  1.00  0.00     0.041 C 
ATOM      6  O   UNL     1      53.296  25.610  48.848  1.00  0.00    -0.550 OA
ATOM      7  O   UNL     1      53.627  24.646  50.900  1.00  0.00    -0.550 OA
ENDBRANCH   4   5
ENDBRANCH   3   4
ENDBRANCH   2   3
ENDBRANCH   1   2
BRANCH   1   8
ATOM      8  C   UNL     1      58.269  29.040  50.469  1.00  0.00     0.000 C 
BRANCH   8   9
ATOM      9  C   UNL     1      59.446  28.361  49.745  1.00  0.00     0.006 C 
BRANCH   9  10
ATOM     10  C   UNL     1      59.346  26.831  49.788  1.00  0.00     0.053 C 
BRANCH  10  11
ATOM     11  C   UNL     1      60.619  26.201  50.262  1.00  0.00     0.041 C 
ATOM     12  O   UNL     1      61.703  26.838  50.197  1.00  0.00    -0.550 OA
ATOM     13  O   UNL     1      60.605  24.922  50.803  1.00  0.00    -0.550 OA
ENDBRANCH  10  11
ENDBRANCH   9  10
ENDBRANCH   8   9
ENDBRANCH   1   8
TORSDOF 8
ENDMDL
MODEL 2
REMARK VINA RESULT:    -3.590      0.394      5.823
REMARK INTER + INTRA:          -5.697
REMARK INTER:                  -5.260
REMARK INTRA:                  -0.437
REMARK UNBOUND:                -0.428
REMARK SMILES O=C([O-])CCCCCCCC(=O)[O-]
REMARK SMILES IDX 7 1 6 2 5 3 4 4 2 5 1 6 3 7 8 8 9 9 10 10 11 11 12 12 13 13
REMARK H PARENT
REMARK Flexibility Score: inf
ROOT
ATOM      1  C   UNL     1      57.495  28.043  50.712  1.00  0.00     0.000 C 
ENDROOT
BRANCH   1   2
ATOM      2  C   UNL     1      58.602  28.961  50.173  1.00  0.00     0.000 C 
BRANCH   2   3
ATOM      3  C   UNL     1      59.734  28.141  49.539  1.00  0.00     0.006 C 
BRANCH   3   4
ATOM      4  C   UNL     1      59.608  26.659  49.902  1.00  0.00     0.053 C 
BRANCH   4   5
ATOM      5  C   UNL     1      60.903  26.142  50.445  1.00  0.00     0.041 C 
ATOM      6  O   UNL     1      61.803  26.944  50.809  1.00  0.00    -0.550 OA
ATOM      7  O   UNL     1      61.135  24.773  50.505  1.00  0.00    -0.550 OA
ENDBRANCH   4   5
ENDBRANCH   3   4
ENDBRANCH   2   3
ENDBRANCH   1   2
BRANCH   1   8
ATOM      8  C   UNL     1      56.161  28.779  50.913  1.00  0.00     0.000 C 
BRANCH   8   9
ATOM      9  C   UNL     1      54.944  27.909  50.553  1.00  0.00     0.006 C 
BRANCH   9  10
ATOM     10  C   UNL     1      55.342  26.463  50.229  1.00  0.00     0.053 C 
BRANCH  10  11
ATOM     11  C   UNL     1      54.145  25.580  50.052  1.00  0.00     0.041 C 
ATOM     12  O   UNL     1      53.527  25.564  48.955  1.00  0.00    -0.550 OA
ATOM     13  O   UNL     1      53.727  24.755  51.088  1.00  0.00    -0.550 OA
ENDBRANCH  10  11
ENDBRANCH   9  10
ENDBRANCH   8   9
ENDBRANCH   1   8
TORSDOF 8
ENDMDL
MODEL 3
REMARK VINA RESULT:    -3.525     12.510     13.953
REMARK INTER + INTRA:          -5.601
REMARK INTER:                  -5.299
REMARK INTRA:                  -0.302
REMARK UNBOUND:                -0.428
REMARK SMILES O=C([O-])CCCCCCCC(=O)[O-]
REMARK SMILES IDX 7 1 6 2 5 3 4 4 2 5 1 6 3 7 8 8 9 9 10 10 11 11 12 12 13 13
REMARK H PARENT
REMARK Flexibility Score: inf
ROOT
ATOM      1  C   UNL     1      62.020  32.920  60.498  1.00  0.00     0.000 C 
ENDROOT
BRANCH   1   2
ATOM      2  C   UNL     1      60.986  31.839  60.150  1.00  0.00     0.000 C 
BRANCH   2   3
ATOM      3  C   UNL     1      60.853  30.821  61.291  1.00  0.00     0.006 C 
BRANCH   3   4
ATOM      4  C   UNL     1      60.909  29.387  60.757  1.00  0.00     0.053 C 
BRANCH   4   5
ATOM      5  C   UNL     1      62.137  28.691  61.254  1.00  0.00     0.041 C 
ATOM      6  O   UNL     1      63.232  29.309  61.318  1.00  0.00    -0.550 OA
ATOM      7  O   UNL     1      62.082  27.348  61.601  1.00  0.00    -0.550 OA
ENDBRANCH   4   5
ENDBRANCH   3   4
ENDBRANCH   2   3
ENDBRANCH   1   2
BRANCH   1   8
ATOM      8  C   UNL     1      61.472  34.344  60.312  1.00  0.00     0.000 C 
BRANCH   8   9
ATOM      9  C   UNL     1      62.475  35.426  60.749  1.00  0.00     0.006 C 
BRANCH   9  10
ATOM     10  C   UNL     1      63.803  34.825  61.227  1.00  0.00     0.053 C 
BRANCH  10  11
ATOM     11  C   UNL     1      64.797  35.886  61.590  1.00  0.00     0.041 C 
ATOM     12  O   UNL     1      65.949  35.875  61.081  1.00  0.00    -0.550 OA
ATOM     13  O   UNL     1      64.443  36.903  62.468  1.00  0.00    -0.550 OA
ENDBRANCH  10  11
ENDBRANCH   9  10
ENDBRANCH   8   9
ENDBRANCH   1   8
TORSDOF 8
ENDMDL
MODEL 4
REMARK VINA RESULT:    -3.456     12.418     14.250
REMARK INTER + INTRA:          -5.501
REMARK INTER:                  -5.063
REMARK INTRA:                  -0.438
REMARK UNBOUND:                -0.428
REMARK SMILES O=C([O-])CCCCCCCC(=O)[O-]
REMARK SMILES IDX 7 1 6 2 5 3 4 4 2 5 1 6 3 7 8 8 9 9 10 10 11 11 12 12 13 13
REMARK H PARENT
REMARK Flexibility Score: inf
ROOT
ATOM      1  C   UNL     1      62.039  32.260  60.255  1.00  0.00     0.000 C 
ENDROOT
BRANCH   1   2
ATOM      2  C   UNL     1      61.549  33.689  59.978  1.00  0.00     0.000 C 
BRANCH   2   3
ATOM      3  C   UNL     1      62.396  34.716  60.740  1.00  0.00     0.006 C 
BRANCH   3   4
ATOM      4  C   UNL     1      63.825  34.204  60.948  1.00  0.00     0.053 C 
BRANCH   4   5
ATOM      5  C   UNL     1      64.769  35.349  61.133  1.00  0.00     0.041 C 
ATOM      6  O   UNL     1      64.787  35.986  62.220  1.00  0.00    -0.550 OA
ATOM      7  O   UNL     1      65.597  35.745  60.090  1.00  0.00    -0.550 OA
ENDBRANCH   4   5
ENDBRANCH   3   4
ENDBRANCH   2   3
ENDBRANCH   1   2
BRANCH   1   8
ATOM      8  C   UNL     1      60.993  31.409  60.993  1.00  0.00     0.000 C 
BRANCH   8   9
ATOM      9  C   UNL     1      61.599  30.144  61.626  1.00  0.00     0.006 C 
BRANCH   9  10
ATOM     10  C   UNL     1      63.107  30.032  61.366  1.00  0.00     0.053 C 
BRANCH  10  11
ATOM     11  C   UNL     1      63.492  28.663  60.895  1.00  0.00     0.041 C 
ATOM     12  O   UNL     1      62.728  27.684  61.101  1.00  0.00    -0.550 OA
ATOM     13  O   UNL     1      64.682  28.472  60.204  1.00  0.00    -0.550 OA
ENDBRANCH  10  11
ENDBRANCH   9  10
ENDBRANCH   8   9
ENDBRANCH   1   8
TORSDOF 8
ENDMDL
MODEL 5
REMARK VINA RESULT:    -3.370      0.954      1.576
REMARK INTER + INTRA:          -5.375
REMARK INTER:                  -4.947
REMARK INTRA:                  -0.428
REMARK UNBOUND:                -0.428
REMARK SMILES O=C([O-])CCCCCCCC(=O)[O-]
REMARK SMILES IDX 7 1 6 2 5 3 4 4 2 5 1 6 3 7 8 8 9 9 10 10 11 11 12 12 13 13
REMARK H PARENT
REMARK Flexibility Score: inf
ROOT
ATOM      1  C   UNL     1      57.258  28.289  50.823  1.00  0.00     0.000 C 
ENDROOT
BRANCH   1   2
ATOM      2  C   UNL     1      55.890  28.956  51.032  1.00  0.00     0.000 C 
BRANCH   2   3
ATOM      3  C   UNL     1      54.754  28.034  50.569  1.00  0.00     0.006 C 
BRANCH   3   4
ATOM      4  C   UNL     1      55.288  26.647  50.201  1.00  0.00     0.053 C 
BRANCH   4   5
ATOM      5  C   UNL     1      54.181  25.641  50.211  1.00  0.00     0.041 C 
ATOM      6  O   UNL     1      53.915  25.003  51.264  1.00  0.00    -0.550 OA
ATOM      7  O   UNL     1      53.474  25.372  49.046  1.00  0.00    -0.550 OA
ENDBRANCH   4   5
ENDBRANCH   3   4
ENDBRANCH   2   3
ENDBRANCH   1   2
BRANCH   1   8
ATOM      8  C   UNL     1      58.396  29.308  50.660  1.00  0.00     0.000 C 
BRANCH   8   9
ATOM      9  C   UNL     1      59.328  28.973  49.482  1.00  0.00     0.006 C 
BRANCH   9  10
ATOM     10  C   UNL     1      59.982  27.594  49.637  1.00  0.00     0.053 C 
BRANCH  10  11
ATOM     11  C   UNL     1      60.969  27.567  50.764  1.00  0.00     0.041 C 
ATOM     12  O   UNL     1      60.836  26.737  51.702  1.00  0.00    -0.550 OA
ATOM     13  O   UNL     1      62.051  28.438  50.765  1.00  0.00    -0.550 OA
ENDBRANCH  10  11
ENDBRANCH   9  10
ENDBRANCH   8   9
ENDBRANCH   1   8
TORSDOF 8
ENDMDL
MODEL 6
REMARK VINA RESULT:    -3.328     11.947     13.646
REMARK INTER + INTRA:          -5.312
REMARK INTER:                  -4.861
REMARK INTRA:                  -0.451
REMARK UNBOUND:                -0.428
REMARK SMILES O=C([O-])CCCCCCCC(=O)[O-]
REMARK SMILES IDX 7 1 6 2 5 3 4 4 2 5 1 6 3 7 8 8 9 9 10 10 11 11 12 12 13 13
REMARK H PARENT
REMARK Flexibility Score: inf
ROOT
ATOM      1  C   UNL     1      60.981  32.323  59.390  1.00  0.00     0.000 C 
ENDROOT
BRANCH   1   2
ATOM      2  C   UNL     1      60.677  30.916  59.927  1.00  0.00     0.000 C 
BRANCH   2   3
ATOM      3  C   UNL     1      61.126  30.779  61.388  1.00  0.00     0.006 C 
BRANCH   3   4
ATOM      4  C   UNL     1      61.934  29.495  61.596  1.00  0.00     0.053 C 
BRANCH   4   5
ATOM      5  C   UNL     1      63.359  29.702  61.191  1.00  0.00     0.041 C 
ATOM      6  O   UNL     1      63.848  30.862  61.165  1.00  0.00    -0.550 OA
ATOM      7  O   UNL     1      64.134  28.619  60.794  1.00  0.00    -0.550 OA
ENDBRANCH   4   5
ENDBRANCH   3   4
ENDBRANCH   2   3
ENDBRANCH   1   2
BRANCH   1   8
ATOM      8  C   UNL     1      61.535  33.263  60.473  1.00  0.00     0.000 C 
BRANCH   8   9
ATOM      9  C   UNL     1      61.379  34.749  60.103  1.00  0.00     0.006 C 
BRANCH   9  10
ATOM     10  C   UNL     1      62.281  35.654  60.952  1.00  0.00     0.053 C 
BRANCH  10  11
ATOM     11  C   UNL     1      63.733  35.362  60.729  1.00  0.00     0.041 C 
ATOM     12  O   UNL     1      64.265  35.612  59.615  1.00  0.00    -0.550 OA
ATOM     13  O   UNL     1      64.506  34.842  61.759  1.00  0.00    -0.550 OA
ENDBRANCH  10  11
ENDBRANCH   9  10
ENDBRANCH   8   9
ENDBRANCH   1   8
TORSDOF 8
ENDMDL
MODEL 7
REMARK VINA RESULT:    -3.311      1.892      5.900
REMARK INTER + INTRA:          -5.288
REMARK INTER:                  -4.806
REMARK INTRA:                  -0.481
REMARK UNBOUND:                -0.428
REMARK SMILES O=C([O-])CCCCCCCC(=O)[O-]
REMARK SMILES IDX 7 1 6 2 5 3 4 4 2 5 1 6 3 7 8 8 9 9 10 10 11 11 12 12 13 13
REMARK H PARENT
REMARK Flexibility Score: inf
ROOT
ATOM      1  C   UNL     1      59.965  27.688  49.591  1.00  0.00     0.000 C 
ENDROOT
BRANCH   1   2
ATOM      2  C   UNL     1      61.439  27.814  50.005  1.00  0.00     0.000 C 
BRANCH   2   3
ATOM      3  C   UNL     1      61.973  26.481  50.545  1.00  0.00     0.006 C 
BRANCH   3   4
ATOM      4  C   UNL     1      60.879  25.409  50.542  1.00  0.00     0.053 C 
BRANCH   4   5
ATOM      5  C   UNL     1      61.482  24.045  50.646  1.00  0.00     0.041 C 
ATOM      6  O   UNL     1      62.566  23.877  51.266  1.00  0.00    -0.550 OA
ATOM      7  O   UNL     1      60.875  22.965  50.018  1.00  0.00    -0.550 OA
ENDBRANCH   4   5
ENDBRANCH   3   4
ENDBRANCH   2   3
ENDBRANCH   1   2
BRANCH   1   8
ATOM      8  C   UNL     1      59.201  29.016  49.709  1.00  0.00     0.000 C 
BRANCH   8   9
ATOM      9  C   UNL     1      57.893  28.879  50.507  1.00  0.00     0.006 C 
BRANCH   9  10
ATOM     10  C   UNL     1      57.512  27.412  50.746  1.00  0.00     0.053 C 
BRANCH  10  11
ATOM     11  C   UNL     1      56.061  27.160  50.470  1.00  0.00     0.041 C 
ATOM     12  O   UNL     1      55.664  26.001  50.181  1.00  0.00    -0.550 OA
ATOM     13  O   UNL     1      55.143  28.199  50.561  1.00  0.00    -0.550 OA
ENDBRANCH  10  11
ENDBRANCH   9  10
ENDBRANCH   8   9
ENDBRANCH   1   8
TORSDOF 8
ENDMDL
MODEL 8
REMARK VINA RESULT:    -3.294      7.190      9.979
REMARK INTER + INTRA:          -5.263
REMARK INTER:                  -4.767
REMARK INTRA:                  -0.496
REMARK UNBOUND:                -0.428
REMARK SMILES O=C([O-])CCCCCCCC(=O)[O-]
REMARK SMILES IDX 7 1 6 2 5 3 4 4 2 5 1 6 3 7 8 8 9 9 10 10 11 11 12 12 13 13
REMARK H PARENT
REMARK Flexibility Score: inf
ROOT
ATOM      1  C   UNL     1      58.883  17.440  49.502  1.00  0.00     0.000 C 
ENDROOT
BRANCH   1   2
ATOM      2  C   UNL     1      60.323  17.368  50.032  1.00  0.00     0.000 C 
BRANCH   2   3
ATOM      3  C   UNL     1      60.712  18.672  50.740  1.00  0.00     0.006 C 
BRANCH   3   4
ATOM      4  C   UNL     1      60.150  19.889  49.998  1.00  0.00     0.053 C 
BRANCH   4   5
ATOM      5  C   UNL     1      61.218  20.918  49.797  1.00  0.00     0.041 C 
ATOM      6  O   UNL     1      61.037  21.869  48.991  1.00  0.00    -0.550 OA
ATOM      7  O   UNL     1      62.431  20.800  50.463  1.00  0.00    -0.550 OA
ENDBRANCH   4   5
ENDBRANCH   3   4
ENDBRANCH   2   3
ENDBRANCH   1   2
BRANCH   1   8
ATOM      8  C   UNL     1      57.836  17.194  50.599  1.00  0.00     0.000 C 
BRANCH   8   9
ATOM      9  C   UNL     1      56.833  18.353  50.732  1.00  0.00     0.006 C 
BRANCH   9  10
ATOM     10  C   UNL     1      56.806  18.935  52.151  1.00  0.00     0.053 C 
BRANCH  10  11
ATOM     11  C   UNL     1      55.408  19.056  52.678  1.00  0.00     0.041 C 
ATOM     12  O   UNL     1      54.531  19.664  52.011  1.00  0.00    -0.550 OA
ATOM     13  O   UNL     1      55.068  18.473  53.892  1.00  0.00    -0.550 OA
ENDBRANCH  10  11
ENDBRANCH   9  10
ENDBRANCH   8   9
ENDBRANCH   1   8
TORSDOF 8
ENDMDL
MODEL 9
REMARK VINA RESULT:    -3.177     12.040     13.607
REMARK INTER + INTRA:          -5.091
REMARK INTER:                  -4.668
REMARK INTRA:                  -0.423
REMARK UNBOUND:                -0.428
REMARK SMILES O=C([O-])CCCCCCCC(=O)[O-]
REMARK SMILES IDX 7 1 6 2 5 3 4 4 2 5 1 6 3 7 8 8 9 9 10 10 11 11 12 12 13 13
REMARK H PARENT
REMARK Flexibility Score: inf
ROOT
ATOM      1  C   UNL     1      60.768  31.185  61.100  1.00  0.00     0.000 C 
ENDROOT
BRANCH   1   2
ATOM      2  C   UNL     1      61.466  31.957  59.970  1.00  0.00     0.000 C 
BRANCH   2   3
ATOM      3  C   UNL     1      61.572  33.449  60.310  1.00  0.00     0.006 C 
BRANCH   3   4
ATOM      4  C   UNL     1      63.019  33.839  60.630  1.00  0.00     0.053 C 
BRANCH   4   5
ATOM      5  C   UNL     1      63.106  35.292  60.973  1.00  0.00     0.041 C 
ATOM      6  O   UNL     1      62.065  35.935  61.272  1.00  0.00    -0.550 OA
ATOM      7  O   UNL     1      64.329  35.948  60.917  1.00  0.00    -0.550 OA
ENDBRANCH   4   5
ENDBRANCH   3   4
ENDBRANCH   2   3
ENDBRANCH   1   2
BRANCH   1   8
ATOM      8  C   UNL     1      61.611  30.013  61.625  1.00  0.00     0.000 C 
BRANCH   8   9
ATOM      9  C   UNL     1      63.098  30.139  61.252  1.00  0.00     0.006 C 
BRANCH   9  10
ATOM     10  C   UNL     1      63.708  28.793  60.841  1.00  0.00     0.053 C 
BRANCH  10  11
ATOM     11  C   UNL     1      64.890  28.968  59.938  1.00  0.00     0.041 C 
ATOM     12  O   UNL     1      65.701  29.911  60.132  1.00  0.00    -0.550 OA
ATOM     13  O   UNL     1      65.113  28.073  58.899  1.00  0.00    -0.550 OA
ENDBRANCH  10  11
ENDBRANCH   9  10
ENDBRANCH   8   9
ENDBRANCH   1   8
TORSDOF 8
ENDMDL
