MODEL 1
REMARK VINA RESULT:    -2.266      0.000      0.000
REMARK INTER + INTRA:          -2.464
REMARK INTER:                  -2.464
REMARK INTRA:                   0.000
REMARK UNBOUND:                 0.000
REMARK SMILES [NH3+]CC(=O)[O-]
REMARK SMILES IDX 2 1 1 2 3 6 4 7 5 8
REMARK H PARENT 1 3 1 4 1 5
REMARK Flexibility Score: inf
ROOT
ATOM      1  C   UNL     1      14.475  -4.711  25.169  1.00  0.00     0.312 C 
ENDROOT
BRANCH   1   2
ATOM      2  N   UNL     1      14.178  -5.949  25.886  1.00  0.00    -0.353 N 
ATOM      3  H   UNL     1      14.484  -6.763  25.306  1.00  0.00     0.344 HD
ATOM      4  H   UNL     1      13.150  -6.025  26.061  1.00  0.00     0.344 HD
ATOM      5  H   UNL     1      14.694  -5.969  26.797  1.00  0.00     0.344 HD
ENDBRANCH   1   2
BRANCH   1   6
ATOM      6  C   UNL     1      13.297  -4.278  24.352  1.00  0.00     0.096 C 
ATOM      7  O   UNL     1      12.614  -5.128  23.723  1.00  0.00    -0.544 OA
ATOM      8  O   UNL     1      12.983  -2.928  24.246  1.00  0.00    -0.544 OA
ENDBRANCH   1   6
TORSDOF 2
ENDMDL
MODEL 2
REMARK VINA RESULT:    -2.250      2.219      2.280
REMARK INTER + INTRA:          -2.448
REMARK INTER:                  -2.448
REMARK INTRA:                   0.000
REMARK UNBOUND:                 0.000
REMARK SMILES [NH3+]CC(=O)[O-]
REMARK SMILES IDX 2 1 1 2 3 6 4 7 5 8
REMARK H PARENT 1 3 1 4 1 5
REMARK Flexibility Score: inf
ROOT
ATOM      1  C   UNL     1      13.365  -6.724  24.334  1.00  0.00     0.312 C 
ENDROOT
BRANCH   1   2
ATOM      2  N   UNL     1      12.363  -7.150  23.358  1.00  0.00    -0.353 N 
ATOM      3  H   UNL     1      11.410  -7.012  23.764  1.00  0.00     0.344 HD
ATOM      4  H   UNL     1      12.492  -8.163  23.131  1.00  0.00     0.344 HD
ATOM      5  H   UNL     1      12.446  -6.579  22.485  1.00  0.00     0.344 HD
ENDBRANCH   1   2
BRANCH   1   6
ATOM      6  C   UNL     1      13.644  -5.259  24.198  1.00  0.00     0.096 C 
ATOM      7  O   UNL     1      12.716  -4.461  23.904  1.00  0.00    -0.544 OA
ATOM      8  O   UNL     1      14.941  -4.782  24.346  1.00  0.00    -0.544 OA
ENDBRANCH   1   6
TORSDOF 2
ENDMDL
MODEL 3
REMARK VINA RESULT:    -2.206      9.676      9.981
REMARK INTER + INTRA:          -2.400
REMARK INTER:                  -2.400
REMARK INTRA:                   0.000
REMARK UNBOUND:                 0.000
REMARK SMILES [NH3+]CC(=O)[O-]
REMARK SMILES IDX 2 1 1 2 3 6 4 7 5 8
REMARK H PARENT 1 3 1 4 1 5
REMARK Flexibility Score: inf
ROOT
ATOM      1  C   UNL     1      13.681  -3.734  15.624  1.00  0.00     0.312 C 
ENDROOT
BRANCH   1   2
ATOM      2  N   UNL     1      13.397  -4.647  16.729  1.00  0.00    -0.353 N 
ATOM      3  H   UNL     1      12.373  -4.628  16.935  1.00  0.00     0.344 HD
ATOM      4  H   UNL     1      13.921  -4.350  17.584  1.00  0.00     0.344 HD
ATOM      5  H   UNL     1      13.671  -5.623  16.468  1.00  0.00     0.344 HD
ENDBRANCH   1   2
BRANCH   1   6
ATOM      6  C   UNL     1      13.670  -4.467  14.317  1.00  0.00     0.096 C 
ATOM      7  O   UNL     1      12.703  -4.331  13.523  1.00  0.00    -0.544 OA
ATOM      8  O   UNL     1      14.703  -5.339  14.001  1.00  0.00    -0.544 OA
ENDBRANCH   1   6
TORSDOF 2
ENDMDL
MODEL 4
REMARK VINA RESULT:    -2.198      0.252      1.469
REMARK INTER + INTRA:          -2.391
REMARK INTER:                  -2.391
REMARK INTRA:                   0.000
REMARK UNBOUND:                 0.000
REMARK SMILES [NH3+]CC(=O)[O-]
REMARK SMILES IDX 2 1 1 2 3 6 4 7 5 8
REMARK H PARENT 1 3 1 4 1 5
REMARK Flexibility Score: inf
ROOT
ATOM      1  C   UNL     1      14.566  -4.489  25.256  1.00  0.00     0.312 C 
ENDROOT
BRANCH   1   2
ATOM      2  N   UNL     1      14.214  -5.653  26.067  1.00  0.00    -0.353 N 
ATOM      3  H   UNL     1      14.597  -6.514  25.614  1.00  0.00     0.344 HD
ATOM      4  H   UNL     1      13.175  -5.740  26.138  1.00  0.00     0.344 HD
ATOM      5  H   UNL     1      14.628  -5.562  27.024  1.00  0.00     0.344 HD
ENDBRANCH   1   2
BRANCH   1   6
ATOM      6  C   UNL     1      13.397  -4.046  24.433  1.00  0.00     0.096 C 
ATOM      7  O   UNL     1      13.080  -2.828  24.386  1.00  0.00    -0.544 OA
ATOM      8  O   UNL     1      12.626  -4.984  23.758  1.00  0.00    -0.544 OA
ENDBRANCH   1   6
TORSDOF 2
ENDMDL
MODEL 5
REMARK VINA RESULT:    -2.179      7.383      7.736
REMARK INTER + INTRA:          -2.370
REMARK INTER:                  -2.370
REMARK INTRA:                   0.000
REMARK UNBOUND:                 0.000
REMARK SMILES [NH3+]CC(=O)[O-]
REMARK SMILES IDX 2 1 1 2 3 6 4 7 5 8
REMARK H PARENT 1 3 1 4 1 5
REMARK Flexibility Score: inf
ROOT
ATOM      1  C   UNL     1      10.500 -10.889  22.239  1.00  0.00     0.312 C 
ENDROOT
BRANCH   1   2
ATOM      2  N   UNL     1      10.925  -9.573  21.766  1.00  0.00    -0.353 N 
ATOM      3  H   UNL     1      11.772  -9.684  21.164  1.00  0.00     0.344 HD
ATOM      4  H   UNL     1      11.164  -8.959  22.578  1.00  0.00     0.344 HD
ATOM      5  H   UNL     1      10.163  -9.132  21.200  1.00  0.00     0.344 HD
ENDBRANCH   1   2
BRANCH   1   6
ATOM      6  C   UNL     1       9.210 -10.789  22.992  1.00  0.00     0.096 C 
ATOM      7  O   UNL     1       9.213 -10.542  24.226  1.00  0.00    -0.544 OA
ATOM      8  O   UNL     1       8.005 -11.018  22.339  1.00  0.00    -0.544 OA
ENDBRANCH   1   6
TORSDOF 2
ENDMDL
MODEL 6
REMARK VINA RESULT:    -2.174      2.264      2.526
REMARK INTER + INTRA:          -2.365
REMARK INTER:                  -2.365
REMARK INTRA:                   0.000
REMARK UNBOUND:                 0.000
REMARK SMILES [NH3+]CC(=O)[O-]
REMARK SMILES IDX 2 1 1 2 3 6 4 7 5 8
REMARK H PARENT 1 3 1 4 1 5
REMARK Flexibility Score: inf
ROOT
ATOM      1  C   UNL     1      13.451  -3.261  25.868  1.00  0.00     0.312 C 
ENDROOT
BRANCH   1   2
ATOM      2  N   UNL     1      13.294  -1.809  25.819  1.00  0.00    -0.353 N 
ATOM      3  H   UNL     1      12.582  -1.566  25.093  1.00  0.00     0.344 HD
ATOM      4  H   UNL     1      14.203  -1.358  25.566  1.00  0.00     0.344 HD
ATOM      5  H   UNL     1      12.968  -1.451  26.747  1.00  0.00     0.344 HD
ENDBRANCH   1   2
BRANCH   1   6
ATOM      6  C   UNL     1      13.678  -3.815  24.495  1.00  0.00     0.096 C 
ATOM      7  O   UNL     1      14.743  -3.555  23.875  1.00  0.00    -0.544 OA
ATOM      8  O   UNL     1      12.692  -4.576  23.880  1.00  0.00    -0.544 OA
ENDBRANCH   1   6
TORSDOF 2
ENDMDL
MODEL 7
REMARK VINA RESULT:    -2.173      2.418      2.582
REMARK INTER + INTRA:          -2.363
REMARK INTER:                  -2.363
REMARK INTRA:                   0.000
REMARK UNBOUND:                 0.000
REMARK SMILES [NH3+]CC(=O)[O-]
REMARK SMILES IDX 2 1 1 2 3 6 4 7 5 8
REMARK H PARENT 1 3 1 4 1 5
REMARK Flexibility Score: inf
ROOT
ATOM      1  C   UNL     1      13.144  -7.193  24.241  1.00  0.00     0.312 C 
ENDROOT
BRANCH   1   2
ATOM      2  N   UNL     1      12.062  -7.494  23.305  1.00  0.00    -0.353 N 
ATOM      3  H   UNL     1      12.472  -7.853  22.413  1.00  0.00     0.344 HD
ATOM      4  H   UNL     1      11.513  -6.628  23.101  1.00  0.00     0.344 HD
ATOM      5  H   UNL     1      11.432  -8.226  23.707  1.00  0.00     0.344 HD
ENDBRANCH   1   2
BRANCH   1   6
ATOM      6  C   UNL     1      13.505  -5.741  24.182  1.00  0.00     0.096 C 
ATOM      7  O   UNL     1      14.641  -5.354  24.562  1.00  0.00    -0.544 OA
ATOM      8  O   UNL     1      12.567  -4.808  23.756  1.00  0.00    -0.544 OA
ENDBRANCH   1   6
TORSDOF 2
ENDMDL
MODEL 8
REMARK VINA RESULT:    -2.104      9.624      9.980
REMARK INTER + INTRA:          -2.289
REMARK INTER:                  -2.289
REMARK INTRA:                   0.000
REMARK UNBOUND:                 0.000
REMARK SMILES [NH3+]CC(=O)[O-]
REMARK SMILES IDX 2 1 1 2 3 6 4 7 5 8
REMARK H PARENT 1 3 1 4 1 5
REMARK Flexibility Score: inf
ROOT
ATOM      1  C   UNL     1       6.687  -3.700  18.940  1.00  0.00     0.312 C 
ENDROOT
BRANCH   1   2
ATOM      2  N   UNL     1       7.925  -2.948  19.138  1.00  0.00    -0.353 N 
ATOM      3  H   UNL     1       7.932  -2.549  20.104  1.00  0.00     0.344 HD
ATOM      4  H   UNL     1       7.984  -2.166  18.446  1.00  0.00     0.344 HD
ATOM      5  H   UNL     1       8.751  -3.581  19.026  1.00  0.00     0.344 HD
ENDBRANCH   1   2
BRANCH   1   6
ATOM      6  C   UNL     1       6.134  -3.456  17.570  1.00  0.00     0.096 C 
ATOM      7  O   UNL     1       5.804  -2.294  17.217  1.00  0.00    -0.544 OA
ATOM      8  O   UNL     1       5.935  -4.522  16.700  1.00  0.00    -0.544 OA
ENDBRANCH   1   6
TORSDOF 2
ENDMDL
MODEL 9
REMARK VINA RESULT:    -2.058      6.056      6.500
REMARK INTER + INTRA:          -2.239
REMARK INTER:                  -2.239
REMARK INTRA:                   0.000
REMARK UNBOUND:                 0.000
REMARK SMILES [NH3+]CC(=O)[O-]
REMARK SMILES IDX 2 1 1 2 3 6 4 7 5 8
REMARK H PARENT 1 3 1 4 1 5
REMARK Flexibility Score: inf
ROOT
ATOM      1  C   UNL     1      10.472 -10.513  22.816  1.00  0.00     0.312 C 
ENDROOT
BRANCH   1   2
ATOM      2  N   UNL     1      10.886  -9.559  21.789  1.00  0.00    -0.353 N 
ATOM      3  H   UNL     1      10.431  -8.637  21.975  1.00  0.00     0.344 HD
ATOM      4  H   UNL     1      10.591  -9.899  20.845  1.00  0.00     0.344 HD
ATOM      5  H   UNL     1      11.925  -9.435  21.812  1.00  0.00     0.344 HD
ENDBRANCH   1   2
BRANCH   1   6
ATOM      6  C   UNL     1      10.274  -9.821  24.130  1.00  0.00     0.096 C 
ATOM      7  O   UNL     1       9.263 -10.076  24.834  1.00  0.00    -0.544 OA
ATOM      8  O   UNL     1      11.181  -8.857  24.551  1.00  0.00    -0.544 OA
ENDBRANCH   1   6
TORSDOF 2
ENDMDL
