MODEL 1
REMARK VINA RESULT:    -2.967      0.000      0.000
REMARK INTER + INTRA:          -3.228
REMARK INTER:                  -3.228
REMARK INTRA:                   0.000
REMARK UNBOUND:                 0.000
REMARK SMILES [NH3+]CC(=O)[O-]
REMARK SMILES IDX 2 1 1 2 3 6 4 7 5 8
REMARK H PARENT 1 3 1 4 1 5
REMARK Flexibility Score: inf
ROOT
ATOM      1  C   UNL     1      -2.383  42.063  26.401  1.00  0.00     0.312 C 
ENDROOT
BRANCH   1   2
ATOM      2  N   UNL     1      -3.104  42.702  25.302  1.00  0.00    -0.353 N 
ATOM      3  H   UNL     1      -3.126  42.068  24.470  1.00  0.00     0.344 HD
ATOM      4  H   UNL     1      -2.642  43.605  25.047  1.00  0.00     0.344 HD
ATOM      5  H   UNL     1      -4.085  42.897  25.604  1.00  0.00     0.344 HD
ENDBRANCH   1   2
BRANCH   1   6
ATOM      6  C   UNL     1      -2.083  40.633  26.075  1.00  0.00     0.096 C 
ATOM      7  O   UNL     1      -2.948  39.741  26.283  1.00  0.00    -0.544 OA
ATOM      8  O   UNL     1      -0.830  40.277  25.591  1.00  0.00    -0.544 OA
ENDBRANCH   1   6
TORSDOF 2
ENDMDL
MODEL 2
REMARK VINA RESULT:    -2.952     14.670     14.966
REMARK INTER + INTRA:          -3.211
REMARK INTER:                  -3.211
REMARK INTRA:                   0.000
REMARK UNBOUND:                 0.000
REMARK SMILES [NH3+]CC(=O)[O-]
REMARK SMILES IDX 2 1 1 2 3 6 4 7 5 8
REMARK H PARENT 1 3 1 4 1 5
REMARK Flexibility Score: inf
ROOT
ATOM      1  C   UNL     1       2.266  50.631  34.907  1.00  0.00     0.312 C 
ENDROOT
BRANCH   1   2
ATOM      2  N   UNL     1       3.069  51.694  34.306  1.00  0.00    -0.353 N 
ATOM      3  H   UNL     1       3.991  51.766  34.794  1.00  0.00     0.344 HD
ATOM      4  H   UNL     1       2.561  52.606  34.370  1.00  0.00     0.344 HD
ATOM      5  H   UNL     1       3.235  51.469  33.299  1.00  0.00     0.344 HD
ENDBRANCH   1   2
BRANCH   1   6
ATOM      6  C   UNL     1       2.022  50.909  36.358  1.00  0.00     0.096 C 
ATOM      7  O   UNL     1       2.911  50.648  37.211  1.00  0.00    -0.544 OA
ATOM      8  O   UNL     1       0.794  51.408  36.774  1.00  0.00    -0.544 OA
ENDBRANCH   1   6
TORSDOF 2
ENDMDL
MODEL 3
REMARK VINA RESULT:    -2.931     14.629     14.887
REMARK INTER + INTRA:          -3.188
REMARK INTER:                  -3.188
REMARK INTRA:                   0.000
REMARK UNBOUND:                 0.000
REMARK SMILES [NH3+]CC(=O)[O-]
REMARK SMILES IDX 2 1 1 2 3 6 4 7 5 8
REMARK H PARENT 1 3 1 4 1 5
REMARK Flexibility Score: inf
ROOT
ATOM      1  C   UNL     1       2.216  50.662  34.843  1.00  0.00     0.312 C 
ENDROOT
BRANCH   1   2
ATOM      2  N   UNL     1       3.065  51.714  34.288  1.00  0.00    -0.353 N 
ATOM      3  H   UNL     1       3.264  51.521  33.280  1.00  0.00     0.344 HD
ATOM      4  H   UNL     1       3.962  51.769  34.823  1.00  0.00     0.344 HD
ATOM      5  H   UNL     1       2.568  52.631  34.366  1.00  0.00     0.344 HD
ENDBRANCH   1   2
BRANCH   1   6
ATOM      6  C   UNL     1       1.934  50.918  36.291  1.00  0.00     0.096 C 
ATOM      7  O   UNL     1       0.841  51.435  36.641  1.00  0.00    -0.544 OA
ATOM      8  O   UNL     1       2.900  50.633  37.248  1.00  0.00    -0.544 OA
ENDBRANCH   1   6
TORSDOF 2
ENDMDL
MODEL 4
REMARK VINA RESULT:    -2.855     15.197     15.473
REMARK INTER + INTRA:          -3.105
REMARK INTER:                  -3.105
REMARK INTRA:                   0.000
REMARK UNBOUND:                 0.000
REMARK SMILES [NH3+]CC(=O)[O-]
REMARK SMILES IDX 2 1 1 2 3 6 4 7 5 8
REMARK H PARENT 1 3 1 4 1 5
REMARK Flexibility Score: inf
ROOT
ATOM      1  C   UNL     1      -0.719  52.951  35.880  1.00  0.00     0.312 C 
ENDROOT
BRANCH   1   2
ATOM      2  N   UNL     1      -1.655  54.047  35.633  1.00  0.00    -0.353 N 
ATOM      3  H   UNL     1      -1.267  54.695  34.910  1.00  0.00     0.344 HD
ATOM      4  H   UNL     1      -1.835  54.572  36.519  1.00  0.00     0.344 HD
ATOM      5  H   UNL     1      -2.559  53.653  35.284  1.00  0.00     0.344 HD
ENDBRANCH   1   2
BRANCH   1   6
ATOM      6  C   UNL     1       0.431  53.013  34.923  1.00  0.00     0.096 C 
ATOM      7  O   UNL     1       1.320  52.122  34.944  1.00  0.00    -0.544 OA
ATOM      8  O   UNL     1       0.547  54.082  34.043  1.00  0.00    -0.544 OA
ENDBRANCH   1   6
TORSDOF 2
ENDMDL
MODEL 5
REMARK VINA RESULT:    -2.831     14.780     14.973
REMARK INTER + INTRA:          -3.079
REMARK INTER:                  -3.079
REMARK INTRA:                   0.000
REMARK UNBOUND:                 0.000
REMARK SMILES [NH3+]CC(=O)[O-]
REMARK SMILES IDX 2 1 1 2 3 6 4 7 5 8
REMARK H PARENT 1 3 1 4 1 5
REMARK Flexibility Score: inf
ROOT
ATOM      1  C   UNL     1       1.814  51.379  35.031  1.00  0.00     0.312 C 
ENDROOT
BRANCH   1   2
ATOM      2  N   UNL     1       2.996  51.759  34.259  1.00  0.00    -0.353 N 
ATOM      3  H   UNL     1       2.911  52.749  33.935  1.00  0.00     0.344 HD
ATOM      4  H   UNL     1       3.104  51.124  33.434  1.00  0.00     0.344 HD
ATOM      5  H   UNL     1       3.843  51.672  34.865  1.00  0.00     0.344 HD
ENDBRANCH   1   2
BRANCH   1   6
ATOM      6  C   UNL     1       0.812  52.492  35.043  1.00  0.00     0.096 C 
ATOM      7  O   UNL     1      -0.267  52.364  35.680  1.00  0.00    -0.544 OA
ATOM      8  O   UNL     1       1.046  53.648  34.310  1.00  0.00    -0.544 OA
ENDBRANCH   1   6
TORSDOF 2
ENDMDL
MODEL 6
REMARK VINA RESULT:    -2.812      1.684      2.129
REMARK INTER + INTRA:          -3.059
REMARK INTER:                  -3.059
REMARK INTRA:                   0.000
REMARK UNBOUND:                 0.000
REMARK SMILES [NH3+]CC(=O)[O-]
REMARK SMILES IDX 2 1 1 2 3 6 4 7 5 8
REMARK H PARENT 1 3 1 4 1 5
REMARK Flexibility Score: inf
ROOT
ATOM      1  C   UNL     1      -2.752  41.571  25.919  1.00  0.00     0.312 C 
ENDROOT
BRANCH   1   2
ATOM      2  N   UNL     1      -3.132  42.786  25.201  1.00  0.00    -0.353 N 
ATOM      3  H   UNL     1      -4.121  42.711  24.867  1.00  0.00     0.344 HD
ATOM      4  H   UNL     1      -2.494  42.936  24.386  1.00  0.00     0.344 HD
ATOM      5  H   UNL     1      -3.054  43.604  25.847  1.00  0.00     0.344 HD
ENDBRANCH   1   2
BRANCH   1   6
ATOM      6  C   UNL     1      -1.482  41.785  26.683  1.00  0.00     0.096 C 
ATOM      7  O   UNL     1      -0.369  41.570  26.134  1.00  0.00    -0.544 OA
ATOM      8  O   UNL     1      -1.530  42.173  28.016  1.00  0.00    -0.544 OA
ENDBRANCH   1   6
TORSDOF 2
ENDMDL
MODEL 7
REMARK VINA RESULT:    -2.785      1.771      2.242
REMARK INTER + INTRA:          -3.029
REMARK INTER:                  -3.029
REMARK INTRA:                   0.000
REMARK UNBOUND:                 0.000
REMARK SMILES [NH3+]CC(=O)[O-]
REMARK SMILES IDX 2 1 1 2 3 6 4 7 5 8
REMARK H PARENT 1 3 1 4 1 5
REMARK Flexibility Score: inf
ROOT
ATOM      1  C   UNL     1      -2.163  41.728  25.725  1.00  0.00     0.312 C 
ENDROOT
BRANCH   1   2
ATOM      2  N   UNL     1      -3.116  42.742  25.278  1.00  0.00    -0.353 N 
ATOM      3  H   UNL     1      -3.384  43.360  26.078  1.00  0.00     0.344 HD
ATOM      4  H   UNL     1      -3.969  42.283  24.883  1.00  0.00     0.344 HD
ATOM      5  H   UNL     1      -2.671  43.326  24.533  1.00  0.00     0.344 HD
ENDBRANCH   1   2
BRANCH   1   6
ATOM      6  C   UNL     1      -0.957  41.709  24.836  1.00  0.00     0.096 C 
ATOM      7  O   UNL     1       0.073  41.072  25.181  1.00  0.00    -0.544 OA
ATOM      8  O   UNL     1      -0.954  42.436  23.652  1.00  0.00    -0.544 OA
ENDBRANCH   1   6
TORSDOF 2
ENDMDL
MODEL 8
REMARK VINA RESULT:    -2.752     13.743     14.109
REMARK INTER + INTRA:          -2.993
REMARK INTER:                  -2.993
REMARK INTRA:                   0.000
REMARK UNBOUND:                 0.000
REMARK SMILES [NH3+]CC(=O)[O-]
REMARK SMILES IDX 2 1 1 2 3 6 4 7 5 8
REMARK H PARENT 1 3 1 4 1 5
REMARK Flexibility Score: inf
ROOT
ATOM      1  C   UNL     1       1.384  49.770  34.931  1.00  0.00     0.312 C 
ENDROOT
BRANCH   1   2
ATOM      2  N   UNL     1       1.956  48.424  34.934  1.00  0.00    -0.353 N 
ATOM      3  H   UNL     1       2.674  48.341  35.690  1.00  0.00     0.344 HD
ATOM      4  H   UNL     1       2.392  48.218  34.006  1.00  0.00     0.344 HD
ATOM      5  H   UNL     1       1.195  47.730  35.112  1.00  0.00     0.344 HD
ENDBRANCH   1   2
BRANCH   1   6
ATOM      6  C   UNL     1       2.408  50.780  35.347  1.00  0.00     0.096 C 
ATOM      7  O   UNL     1       2.900  51.568  34.498  1.00  0.00    -0.544 OA
ATOM      8  O   UNL     1       2.855  50.816  36.662  1.00  0.00    -0.544 OA
ENDBRANCH   1   6
TORSDOF 2
ENDMDL
MODEL 9
REMARK VINA RESULT:    -2.720     14.160     14.529
REMARK INTER + INTRA:          -2.958
REMARK INTER:                  -2.958
REMARK INTRA:                   0.000
REMARK UNBOUND:                 0.000
REMARK SMILES [NH3+]CC(=O)[O-]
REMARK SMILES IDX 2 1 1 2 3 6 4 7 5 8
REMARK H PARENT 1 3 1 4 1 5
REMARK Flexibility Score: inf
ROOT
ATOM      1  C   UNL     1       0.679  52.470  35.021  1.00  0.00     0.312 C 
ENDROOT
BRANCH   1   2
ATOM      2  N   UNL     1       0.956  53.610  34.149  1.00  0.00    -0.353 N 
ATOM      3  H   UNL     1       1.823  54.101  34.465  1.00  0.00     0.344 HD
ATOM      4  H   UNL     1       0.148  54.274  34.160  1.00  0.00     0.344 HD
ATOM      5  H   UNL     1       1.098  53.266  33.172  1.00  0.00     0.344 HD
ENDBRANCH   1   2
BRANCH   1   6
ATOM      6  C   UNL     1       1.761  51.442  34.906  1.00  0.00     0.096 C 
ATOM      7  O   UNL     1       2.968  51.796  34.859  1.00  0.00    -0.544 OA
ATOM      8  O   UNL     1       1.433  50.096  34.800  1.00  0.00    -0.544 OA
ENDBRANCH   1   6
TORSDOF 2
ENDMDL
