MODEL 1
REMARK VINA RESULT:    -7.796      0.000      0.000
REMARK INTER + INTRA:          -9.798
REMARK INTER:                  -9.391
REMARK INTRA:                  -0.408
REMARK UNBOUND:                -0.408
REMARK SMILES O=c1c(O)c(-c2ccc(O)cc2O)oc2cc(O)cc(O)c12
REMARK SMILES IDX 5 1 3 2 2 3 1 4 22 5 20 6 19 7 17 8 16 9 15 10 14 11 6 12
REMARK SMILES IDX 8 13 7 14 9 15 11 16 12 17 10 18 13 20 4 22 21 24 18 26
REMARK H PARENT 10 19 13 21 4 23 21 25 18 27
REMARK Flexibility Score: inf
ROOT
ATOM      1  C   UNL     1       6.327   6.741  -1.136  1.00  0.00     0.184 A 
ATOM      2  C   UNL     1       5.478   7.325  -0.180  1.00  0.00     0.208 A 
ATOM      3  C   UNL     1       5.613   6.952   1.165  1.00  0.00     0.238 A 
ATOM      4  O   UNL     1       4.859   7.471   2.033  1.00  0.00    -0.285 OA
ATOM      5  C   UNL     1       6.588   5.999   1.529  1.00  0.00     0.111 A 
ATOM      6  C   UNL     1       6.789   5.566   2.862  1.00  0.00     0.134 A 
ATOM      7  C   UNL     1       7.777   4.611   3.141  1.00  0.00     0.093 A 
ATOM      8  C   UNL     1       8.567   4.082   2.118  1.00  0.00     0.123 A 
ATOM      9  C   UNL     1       8.375   4.507   0.799  1.00  0.00     0.094 A 
ATOM     10  C   UNL     1       7.395   5.457   0.499  1.00  0.00     0.146 A 
ATOM     11  O   UNL     1       7.235   5.845  -0.760  1.00  0.00    -0.451 OA
ENDROOT
BRANCH   1  12
ATOM     12  C   UNL     1       6.243   7.109  -2.566  1.00  0.00     0.063 A 
ATOM     13  C   UNL     1       7.101   8.405  -4.439  1.00  0.00     0.047 A 
ATOM     14  C   UNL     1       7.121   8.079  -3.081  1.00  0.00     0.020 A 
ATOM     15  C   UNL     1       6.211   7.764  -5.302  1.00  0.00     0.119 A 
ATOM     16  C   UNL     1       5.333   6.794  -4.801  1.00  0.00     0.093 A 
ATOM     17  C   UNL     1       5.336   6.466  -3.439  1.00  0.00     0.130 A 
BRANCH  15  18
ATOM     18  O   UNL     1       6.205   8.096  -6.655  1.00  0.00    -0.508 OA
ATOM     19  H   UNL     1       7.026   8.481  -7.110  1.00  0.00     0.293 HD
ENDBRANCH  15  18
BRANCH  17  20
ATOM     20  O   UNL     1       4.416   5.518  -2.988  1.00  0.00    -0.507 OA
ATOM     21  H   UNL     1       4.605   4.524  -2.981  1.00  0.00     0.293 HD
ENDBRANCH  17  20
ENDBRANCH   1  12
BRANCH   2  22
ATOM     22  O   UNL     1       4.506   8.249  -0.576  1.00  0.00    -0.502 OA
ATOM     23  H   UNL     1       4.123   8.262  -1.513  1.00  0.00     0.293 HD
ENDBRANCH   2  22
BRANCH   6  24
ATOM     24  O   UNL     1       6.015   6.074   3.906  1.00  0.00    -0.507 OA
ATOM     25  H   UNL     1       5.800   5.521   4.728  1.00  0.00     0.293 HD
ENDBRANCH   6  24
BRANCH   8  26
ATOM     26  O   UNL     1       9.542   3.135   2.423  1.00  0.00    -0.508 OA
ATOM     27  H   UNL     1       9.618   2.267   1.905  1.00  0.00     0.293 HD
ENDBRANCH   8  26
TORSDOF 6
ENDMDL
MODEL 2
REMARK VINA RESULT:    -7.557      2.353      4.711
REMARK INTER + INTRA:          -9.511
REMARK INTER:                  -9.271
REMARK INTRA:                  -0.240
REMARK UNBOUND:                -0.408
REMARK SMILES O=c1c(O)c(-c2ccc(O)cc2O)oc2cc(O)cc(O)c12
REMARK SMILES IDX 5 1 3 2 2 3 1 4 22 5 20 6 19 7 17 8 16 9 15 10 14 11 6 12
REMARK SMILES IDX 8 13 7 14 9 15 11 16 12 17 10 18 13 20 4 22 21 24 18 26
REMARK H PARENT 10 19 13 21 4 23 21 25 18 27
REMARK Flexibility Score: inf
ROOT
ATOM      1  C   UNL     1       6.729   5.185   1.757  1.00  0.00     0.184 A 
ATOM      2  C   UNL     1       8.036   4.716   1.534  1.00  0.00     0.208 A 
ATOM      3  C   UNL     1       8.546   3.708   2.364  1.00  0.00     0.238 A 
ATOM      4  O   UNL     1       9.715   3.277   2.172  1.00  0.00    -0.285 OA
ATOM      5  C   UNL     1       7.745   3.192   3.405  1.00  0.00     0.111 A 
ATOM      6  C   UNL     1       8.183   2.176   4.289  1.00  0.00     0.134 A 
ATOM      7  C   UNL     1       7.327   1.720   5.302  1.00  0.00     0.093 A 
ATOM      8  C   UNL     1       6.046   2.255   5.449  1.00  0.00     0.123 A 
ATOM      9  C   UNL     1       5.606   3.259   4.578  1.00  0.00     0.094 A 
ATOM     10  C   UNL     1       6.443   3.728   3.562  1.00  0.00     0.146 A 
ATOM     11  O   UNL     1       6.002   4.679   2.748  1.00  0.00    -0.451 OA
ENDROOT
BRANCH   1  12
ATOM     12  C   UNL     1       6.132   6.233   0.903  1.00  0.00     0.063 A 
ATOM     13  C   UNL     1       5.512   7.009  -1.319  1.00  0.00     0.047 A 
ATOM     14  C   UNL     1       6.118   6.061  -0.492  1.00  0.00     0.020 A 
ATOM     15  C   UNL     1       4.905   8.138  -0.766  1.00  0.00     0.119 A 
ATOM     16  C   UNL     1       4.911   8.320   0.623  1.00  0.00     0.093 A 
ATOM     17  C   UNL     1       5.525   7.381   1.462  1.00  0.00     0.130 A 
BRANCH  15  18
ATOM     18  O   UNL     1       4.300   9.073  -1.602  1.00  0.00    -0.508 OA
ATOM     19  H   UNL     1       4.585  10.046  -1.604  1.00  0.00     0.293 HD
ENDBRANCH  15  18
BRANCH  17  20
ATOM     20  O   UNL     1       5.532   7.630   2.836  1.00  0.00    -0.507 OA
ATOM     21  H   UNL     1       6.117   7.121   3.486  1.00  0.00     0.293 HD
ENDBRANCH  17  20
ENDBRANCH   1  12
BRANCH   2  22
ATOM     22  O   UNL     1       8.812   5.265   0.509  1.00  0.00    -0.502 OA
ATOM     23  H   UNL     1       8.954   6.262   0.413  1.00  0.00     0.293 HD
ENDBRANCH   2  22
BRANCH   6  24
ATOM     24  O   UNL     1       9.457   1.620   4.170  1.00  0.00    -0.507 OA
ATOM     25  H   UNL     1      10.293   2.191   4.207  1.00  0.00     0.293 HD
ENDBRANCH   6  24
BRANCH   8  26
ATOM     26  O   UNL     1       5.216   1.784   6.463  1.00  0.00    -0.508 OA
ATOM     27  H   UNL     1       5.418   1.964   7.440  1.00  0.00     0.293 HD
ENDBRANCH   8  26
TORSDOF 6
ENDMDL
MODEL 3
REMARK VINA RESULT:    -7.388      1.995      6.938
REMARK INTER + INTRA:          -9.308
REMARK INTER:                  -8.913
REMARK INTRA:                  -0.395
REMARK UNBOUND:                -0.408
REMARK SMILES O=c1c(O)c(-c2ccc(O)cc2O)oc2cc(O)cc(O)c12
REMARK SMILES IDX 5 1 3 2 2 3 1 4 22 5 20 6 19 7 17 8 16 9 15 10 14 11 6 12
REMARK SMILES IDX 8 13 7 14 9 15 11 16 12 17 10 18 13 20 4 22 21 24 18 26
REMARK H PARENT 10 19 13 21 4 23 21 25 18 27
REMARK Flexibility Score: inf
ROOT
ATOM      1  C   UNL     1       5.865   5.433   2.208  1.00  0.00     0.184 A 
ATOM      2  C   UNL     1       5.592   6.739   2.650  1.00  0.00     0.208 A 
ATOM      3  C   UNL     1       5.309   7.732   1.701  1.00  0.00     0.238 A 
ATOM      4  O   UNL     1       5.059   8.906   2.086  1.00  0.00    -0.285 OA
ATOM      5  C   UNL     1       5.311   7.404   0.329  1.00  0.00     0.111 A 
ATOM      6  C   UNL     1       5.038   8.345  -0.693  1.00  0.00     0.134 A 
ATOM      7  C   UNL     1       5.064   7.940  -2.036  1.00  0.00     0.093 A 
ATOM      8  C   UNL     1       5.355   6.618  -2.376  1.00  0.00     0.123 A 
ATOM      9  C   UNL     1       5.624   5.682  -1.371  1.00  0.00     0.094 A 
ATOM     10  C   UNL     1       5.604   6.065  -0.027  1.00  0.00     0.146 A 
ATOM     11  O   UNL     1       5.861   5.157   0.907  1.00  0.00    -0.451 OA
ENDROOT
BRANCH   1  12
ATOM     12  C   UNL     1       6.153   4.342   3.163  1.00  0.00     0.063 A 
ATOM     13  C   UNL     1       5.343   2.759   4.826  1.00  0.00     0.047 A 
ATOM     14  C   UNL     1       5.112   3.827   3.955  1.00  0.00     0.020 A 
ATOM     15  C   UNL     1       6.613   2.186   4.912  1.00  0.00     0.119 A 
ATOM     16  C   UNL     1       7.657   2.689   4.126  1.00  0.00     0.093 A 
ATOM     17  C   UNL     1       7.441   3.766   3.257  1.00  0.00     0.130 A 
BRANCH  15  18
ATOM     18  O   UNL     1       6.828   1.118   5.780  1.00  0.00    -0.508 OA
ATOM     19  H   UNL     1       7.670   1.053   6.342  1.00  0.00     0.293 HD
ENDBRANCH  15  18
BRANCH  17  20
ATOM     20  O   UNL     1       8.526   4.250   2.523  1.00  0.00    -0.507 OA
ATOM     21  H   UNL     1       9.302   4.743   2.946  1.00  0.00     0.293 HD
ENDBRANCH  17  20
ENDBRANCH   1  12
BRANCH   2  22
ATOM     22  O   UNL     1       5.621   7.037   4.016  1.00  0.00    -0.502 OA
ATOM     23  H   UNL     1       6.181   6.508   4.673  1.00  0.00     0.293 HD
ENDBRANCH   2  22
BRANCH   6  24
ATOM     24  O   UNL     1       4.744   9.674  -0.386  1.00  0.00    -0.507 OA
ATOM     25  H   UNL     1       4.741  10.397  -1.095  1.00  0.00     0.293 HD
ENDBRANCH   6  24
BRANCH   8  26
ATOM     26  O   UNL     1       5.374   6.242  -3.718  1.00  0.00    -0.508 OA
ATOM     27  H   UNL     1       4.782   6.695  -4.404  1.00  0.00     0.293 HD
ENDBRANCH   8  26
TORSDOF 6
ENDMDL
MODEL 4
REMARK VINA RESULT:    -7.388      1.541      2.624
REMARK INTER + INTRA:          -9.308
REMARK INTER:                  -8.906
REMARK INTRA:                  -0.402
REMARK UNBOUND:                -0.408
REMARK SMILES O=c1c(O)c(-c2ccc(O)cc2O)oc2cc(O)cc(O)c12
REMARK SMILES IDX 5 1 3 2 2 3 1 4 22 5 20 6 19 7 17 8 16 9 15 10 14 11 6 12
REMARK SMILES IDX 8 13 7 14 9 15 11 16 12 17 10 18 13 20 4 22 21 24 18 26
REMARK H PARENT 10 19 13 21 4 23 21 25 18 27
REMARK Flexibility Score: inf
ROOT
ATOM      1  C   UNL     1       6.701   6.002   0.792  1.00  0.00     0.184 A 
ATOM      2  C   UNL     1       5.975   6.468   1.902  1.00  0.00     0.208 A 
ATOM      3  C   UNL     1       6.232   5.911   3.164  1.00  0.00     0.238 A 
ATOM      4  O   UNL     1       5.590   6.323   4.167  1.00  0.00    -0.285 OA
ATOM      5  C   UNL     1       7.203   4.896   3.291  1.00  0.00     0.111 A 
ATOM      6  C   UNL     1       7.522   4.279   4.525  1.00  0.00     0.134 A 
ATOM      7  C   UNL     1       8.498   3.273   4.568  1.00  0.00     0.093 A 
ATOM      8  C   UNL     1       9.160   2.872   3.406  1.00  0.00     0.123 A 
ATOM      9  C   UNL     1       8.851   3.477   2.183  1.00  0.00     0.094 A 
ATOM     10  C   UNL     1       7.881   4.482   2.119  1.00  0.00     0.146 A 
ATOM     11  O   UNL     1       7.608   5.042   0.947  1.00  0.00    -0.451 OA
ENDROOT
BRANCH   1  12
ATOM     12  C   UNL     1       6.486   6.564  -0.558  1.00  0.00     0.063 A 
ATOM     13  C   UNL     1       5.235   6.552  -2.646  1.00  0.00     0.047 A 
ATOM     14  C   UNL     1       5.496   6.006  -1.388  1.00  0.00     0.020 A 
ATOM     15  C   UNL     1       5.950   7.665  -3.092  1.00  0.00     0.119 A 
ATOM     16  C   UNL     1       6.937   8.230  -2.274  1.00  0.00     0.093 A 
ATOM     17  C   UNL     1       7.216   7.686  -1.014  1.00  0.00     0.130 A 
BRANCH  15  18
ATOM     18  O   UNL     1       5.675   8.202  -4.347  1.00  0.00    -0.508 OA
ATOM     19  H   UNL     1       5.068   9.006  -4.458  1.00  0.00     0.293 HD
ENDBRANCH  15  18
BRANCH  17  20
ATOM     20  O   UNL     1       8.234   8.267  -0.255  1.00  0.00    -0.507 OA
ATOM     21  H   UNL     1       8.081   8.657   0.666  1.00  0.00     0.293 HD
ENDBRANCH  17  20
ENDBRANCH   1  12
BRANCH   2  22
ATOM     22  O   UNL     1       5.003   7.459   1.738  1.00  0.00    -0.502 OA
ATOM     23  H   UNL     1       4.716   8.066   2.496  1.00  0.00     0.293 HD
ENDBRANCH   2  22
BRANCH   6  24
ATOM     24  O   UNL     1       6.878   4.657   5.704  1.00  0.00    -0.507 OA
ATOM     25  H   UNL     1       6.102   5.308   5.702  1.00  0.00     0.293 HD
ENDBRANCH   6  24
BRANCH   8  26
ATOM     26  O   UNL     1      10.125   1.870   3.476  1.00  0.00    -0.508 OA
ATOM     27  H   UNL     1      10.579   1.631   4.351  1.00  0.00     0.293 HD
ENDBRANCH   8  26
TORSDOF 6
ENDMDL
MODEL 5
REMARK VINA RESULT:    -7.204     14.896     16.962
REMARK INTER + INTRA:          -9.086
REMARK INTER:                  -8.769
REMARK INTRA:                  -0.317
REMARK UNBOUND:                -0.408
REMARK SMILES O=c1c(O)c(-c2ccc(O)cc2O)oc2cc(O)cc(O)c12
REMARK SMILES IDX 5 1 3 2 2 3 1 4 22 5 20 6 19 7 17 8 16 9 15 10 14 11 6 12
REMARK SMILES IDX 8 13 7 14 9 15 11 16 12 17 10 18 13 20 4 22 21 24 18 26
REMARK H PARENT 10 19 13 21 4 23 21 25 18 27
REMARK Flexibility Score: inf
ROOT
ATOM      1  C   UNL     1      -0.351  -7.464   5.035  1.00  0.00     0.184 A 
ATOM      2  C   UNL     1      -0.496  -8.213   6.216  1.00  0.00     0.208 A 
ATOM      3  C   UNL     1      -1.396  -7.768   7.195  1.00  0.00     0.238 A 
ATOM      4  O   UNL     1      -1.538  -8.433   8.257  1.00  0.00    -0.285 OA
ATOM      5  C   UNL     1      -2.128  -6.581   6.980  1.00  0.00     0.111 A 
ATOM      6  C   UNL     1      -3.055  -6.062   7.916  1.00  0.00     0.134 A 
ATOM      7  C   UNL     1      -3.740  -4.872   7.629  1.00  0.00     0.093 A 
ATOM      8  C   UNL     1      -3.520  -4.194   6.429  1.00  0.00     0.123 A 
ATOM      9  C   UNL     1      -2.607  -4.702   5.498  1.00  0.00     0.094 A 
ATOM     10  C   UNL     1      -1.913  -5.886   5.765  1.00  0.00     0.146 A 
ATOM     11  O   UNL     1      -1.054  -6.348   4.864  1.00  0.00    -0.451 OA
ENDROOT
BRANCH   1  12
ATOM     12  C   UNL     1       0.569  -7.893   3.960  1.00  0.00     0.063 A 
ATOM     13  C   UNL     1       1.195  -9.548   2.289  1.00  0.00     0.047 A 
ATOM     14  C   UNL     1       0.375  -9.141   3.344  1.00  0.00     0.020 A 
ATOM     15  C   UNL     1       2.215  -8.713   1.830  1.00  0.00     0.119 A 
ATOM     16  C   UNL     1       2.417  -7.465   2.434  1.00  0.00     0.093 A 
ATOM     17  C   UNL     1       1.607  -7.051   3.500  1.00  0.00     0.130 A 
BRANCH  15  18
ATOM     18  O   UNL     1       3.022  -9.129   0.774  1.00  0.00    -0.508 OA
ATOM     19  H   UNL     1       3.812  -9.748   0.922  1.00  0.00     0.293 HD
ENDBRANCH  15  18
BRANCH  17  20
ATOM     20  O   UNL     1       1.876  -5.813   4.088  1.00  0.00    -0.507 OA
ATOM     21  H   UNL     1       1.191  -5.298   4.627  1.00  0.00     0.293 HD
ENDBRANCH  17  20
ENDBRANCH   1  12
BRANCH   2  22
ATOM     22  O   UNL     1       0.261  -9.372   6.408  1.00  0.00    -0.502 OA
ATOM     23  H   UNL     1       0.502  -9.714   7.330  1.00  0.00     0.293 HD
ENDBRANCH   2  22
BRANCH   6  24
ATOM     24  O   UNL     1      -3.296  -6.715   9.125  1.00  0.00    -0.507 OA
ATOM     25  H   UNL     1      -3.940  -6.342   9.813  1.00  0.00     0.293 HD
ENDBRANCH   6  24
BRANCH   8  26
ATOM     26  O   UNL     1      -4.214  -3.015   6.169  1.00  0.00    -0.508 OA
ATOM     27  H   UNL     1      -4.214  -2.591   5.248  1.00  0.00     0.293 HD
ENDBRANCH   8  26
TORSDOF 6
ENDMDL
MODEL 6
REMARK VINA RESULT:    -7.203     14.800     16.796
REMARK INTER + INTRA:          -9.084
REMARK INTER:                  -8.781
REMARK INTRA:                  -0.303
REMARK UNBOUND:                -0.408
REMARK SMILES O=c1c(O)c(-c2ccc(O)cc2O)oc2cc(O)cc(O)c12
REMARK SMILES IDX 5 1 3 2 2 3 1 4 22 5 20 6 19 7 17 8 16 9 15 10 14 11 6 12
REMARK SMILES IDX 8 13 7 14 9 15 11 16 12 17 10 18 13 20 4 22 21 24 18 26
REMARK H PARENT 10 19 13 21 4 23 21 25 18 27
REMARK Flexibility Score: inf
ROOT
ATOM      1  C   UNL     1      -2.643  -4.897   6.793  1.00  0.00     0.184 A 
ATOM      2  C   UNL     1      -2.771  -6.036   7.606  1.00  0.00     0.208 A 
ATOM      3  C   UNL     1      -1.853  -7.085   7.456  1.00  0.00     0.238 A 
ATOM      4  O   UNL     1      -1.955  -8.110   8.182  1.00  0.00    -0.285 OA
ATOM      5  C   UNL     1      -0.829  -6.980   6.491  1.00  0.00     0.111 A 
ATOM      6  C   UNL     1       0.137  -7.992   6.273  1.00  0.00     0.134 A 
ATOM      7  C   UNL     1       1.122  -7.812   5.290  1.00  0.00     0.093 A 
ATOM      8  C   UNL     1       1.162  -6.646   4.524  1.00  0.00     0.123 A 
ATOM      9  C   UNL     1       0.211  -5.641   4.735  1.00  0.00     0.094 A 
ATOM     10  C   UNL     1      -0.779  -5.800   5.709  1.00  0.00     0.146 A 
ATOM     11  O   UNL     1      -1.667  -4.831   5.892  1.00  0.00    -0.451 OA
ENDROOT
BRANCH   1  12
ATOM     12  C   UNL     1      -3.571  -3.753   6.919  1.00  0.00     0.063 A 
ATOM     13  C   UNL     1      -5.851  -2.902   6.863  1.00  0.00     0.047 A 
ATOM     14  C   UNL     1      -4.945  -3.952   6.697  1.00  0.00     0.020 A 
ATOM     15  C   UNL     1      -5.399  -1.641   7.261  1.00  0.00     0.119 A 
ATOM     16  C   UNL     1      -4.033  -1.432   7.487  1.00  0.00     0.093 A 
ATOM     17  C   UNL     1      -3.114  -2.475   7.313  1.00  0.00     0.130 A 
BRANCH  15  18
ATOM     18  O   UNL     1      -6.314  -0.605   7.427  1.00  0.00    -0.508 OA
ATOM     19  H   UNL     1      -7.124  -0.511   6.825  1.00  0.00     0.293 HD
ENDBRANCH  15  18
BRANCH  17  20
ATOM     20  O   UNL     1      -1.760  -2.201   7.518  1.00  0.00    -0.507 OA
ATOM     21  H   UNL     1      -1.033  -2.895   7.405  1.00  0.00     0.293 HD
ENDBRANCH  17  20
ENDBRANCH   1  12
BRANCH   2  22
ATOM     22  O   UNL     1      -3.811  -6.119   8.537  1.00  0.00    -0.502 OA
ATOM     23  H   UNL     1      -4.784  -6.028   8.271  1.00  0.00     0.293 HD
ENDBRANCH   2  22
BRANCH   6  24
ATOM     24  O   UNL     1       0.125  -9.170   7.020  1.00  0.00    -0.507 OA
ATOM     25  H   UNL     1       0.723  -9.294   7.829  1.00  0.00     0.293 HD
ENDBRANCH   6  24
BRANCH   8  26
ATOM     26  O   UNL     1       2.150  -6.494   3.555  1.00  0.00    -0.508 OA
ATOM     27  H   UNL     1       2.126  -5.730   2.888  1.00  0.00     0.293 HD
ENDBRANCH   8  26
TORSDOF 6
ENDMDL
MODEL 7
REMARK VINA RESULT:    -7.143      2.758      7.930
REMARK INTER + INTRA:          -9.012
REMARK INTER:                  -8.626
REMARK INTRA:                  -0.386
REMARK UNBOUND:                -0.408
REMARK SMILES O=c1c(O)c(-c2ccc(O)cc2O)oc2cc(O)cc(O)c12
REMARK SMILES IDX 5 1 3 2 2 3 1 4 22 5 20 6 19 7 17 8 16 9 15 10 14 11 6 12
REMARK SMILES IDX 8 13 7 14 9 15 11 16 12 17 10 18 13 20 4 22 21 24 18 26
REMARK H PARENT 10 19 13 21 4 23 21 25 18 27
REMARK Flexibility Score: inf
ROOT
ATOM      1  C   UNL     1       6.298   4.973   3.669  1.00  0.00     0.184 A 
ATOM      2  C   UNL     1       7.479   4.461   3.103  1.00  0.00     0.208 A 
ATOM      3  C   UNL     1       7.854   4.882   1.820  1.00  0.00     0.238 A 
ATOM      4  O   UNL     1       8.913   4.433   1.303  1.00  0.00    -0.285 OA
ATOM      5  C   UNL     1       7.040   5.800   1.123  1.00  0.00     0.111 A 
ATOM      6  C   UNL     1       7.345   6.275  -0.176  1.00  0.00     0.134 A 
ATOM      7  C   UNL     1       6.481   7.185  -0.804  1.00  0.00     0.093 A 
ATOM      8  C   UNL     1       5.324   7.629  -0.161  1.00  0.00     0.123 A 
ATOM      9  C   UNL     1       5.018   7.165   1.123  1.00  0.00     0.094 A 
ATOM     10  C   UNL     1       5.865   6.259   1.766  1.00  0.00     0.146 A 
ATOM     11  O   UNL     1       5.553   5.836   2.985  1.00  0.00    -0.451 OA
ENDROOT
BRANCH   1  12
ATOM     12  C   UNL     1       5.862   4.580   5.026  1.00  0.00     0.063 A 
ATOM     13  C   UNL     1       5.669   5.118   7.392  1.00  0.00     0.047 A 
ATOM     14  C   UNL     1       6.118   5.439   6.109  1.00  0.00     0.020 A 
ATOM     15  C   UNL     1       4.951   3.940   7.611  1.00  0.00     0.119 A 
ATOM     16  C   UNL     1       4.688   3.077   6.539  1.00  0.00     0.093 A 
ATOM     17  C   UNL     1       5.143   3.383   5.250  1.00  0.00     0.130 A 
BRANCH  15  18
ATOM     18  O   UNL     1       4.505   3.635   8.894  1.00  0.00    -0.508 OA
ATOM     19  H   UNL     1       3.516   3.587   9.114  1.00  0.00     0.293 HD
ENDBRANCH  15  18
BRANCH  17  20
ATOM     20  O   UNL     1       4.883   2.470   4.226  1.00  0.00    -0.507 OA
ATOM     21  H   UNL     1       5.536   1.746   3.953  1.00  0.00     0.293 HD
ENDBRANCH  17  20
ENDBRANCH   1  12
BRANCH   2  22
ATOM     22  O   UNL     1       8.251   3.535   3.811  1.00  0.00    -0.502 OA
ATOM     23  H   UNL     1       7.865   2.961   4.550  1.00  0.00     0.293 HD
ENDBRANCH   2  22
BRANCH   6  24
ATOM     24  O   UNL     1       8.492   5.850  -0.845  1.00  0.00    -0.507 OA
ATOM     25  H   UNL     1       9.420   6.116  -0.535  1.00  0.00     0.293 HD
ENDBRANCH   6  24
BRANCH   8  26
ATOM     26  O   UNL     1       4.483   8.533  -0.807  1.00  0.00    -0.508 OA
ATOM     27  H   UNL     1       3.519   8.303  -1.016  1.00  0.00     0.293 HD
ENDBRANCH   8  26
TORSDOF 6
ENDMDL
MODEL 8
REMARK VINA RESULT:    -7.135      2.605      7.259
REMARK INTER + INTRA:          -9.003
REMARK INTER:                  -8.611
REMARK INTRA:                  -0.391
REMARK UNBOUND:                -0.408
REMARK SMILES O=c1c(O)c(-c2ccc(O)cc2O)oc2cc(O)cc(O)c12
REMARK SMILES IDX 5 1 3 2 2 3 1 4 22 5 20 6 19 7 17 8 16 9 15 10 14 11 6 12
REMARK SMILES IDX 8 13 7 14 9 15 11 16 12 17 10 18 13 20 4 22 21 24 18 26
REMARK H PARENT 10 19 13 21 4 23 21 25 18 27
REMARK Flexibility Score: inf
ROOT
ATOM      1  C   UNL     1       6.432   4.910   3.085  1.00  0.00     0.184 A 
ATOM      2  C   UNL     1       6.418   6.161   3.727  1.00  0.00     0.208 A 
ATOM      3  C   UNL     1       6.081   7.302   2.985  1.00  0.00     0.238 A 
ATOM      4  O   UNL     1       6.063   8.428   3.551  1.00  0.00    -0.285 OA
ATOM      5  C   UNL     1       5.772   7.173   1.615  1.00  0.00     0.111 A 
ATOM      6  C   UNL     1       5.424   8.273   0.793  1.00  0.00     0.134 A 
ATOM      7  C   UNL     1       5.133   8.062  -0.563  1.00  0.00     0.093 A 
ATOM      8  C   UNL     1       5.182   6.780  -1.113  1.00  0.00     0.123 A 
ATOM      9  C   UNL     1       5.524   5.689  -0.306  1.00  0.00     0.094 A 
ATOM     10  C   UNL     1       5.817   5.876   1.047  1.00  0.00     0.146 A 
ATOM     11  O   UNL     1       6.136   4.824   1.792  1.00  0.00    -0.451 OA
ENDROOT
BRANCH   1  12
ATOM     12  C   UNL     1       6.761   3.671   3.821  1.00  0.00     0.063 A 
ATOM     13  C   UNL     1       8.431   2.045   4.523  1.00  0.00     0.047 A 
ATOM     14  C   UNL     1       8.079   3.182   3.793  1.00  0.00     0.020 A 
ATOM     15  C   UNL     1       7.475   1.384   5.297  1.00  0.00     0.119 A 
ATOM     16  C   UNL     1       6.159   1.862   5.334  1.00  0.00     0.093 A 
ATOM     17  C   UNL     1       5.792   2.996   4.598  1.00  0.00     0.130 A 
BRANCH  15  18
ATOM     18  O   UNL     1       7.840   0.254   6.024  1.00  0.00    -0.508 OA
ATOM     19  H   UNL     1       8.136  -0.600   5.564  1.00  0.00     0.293 HD
ENDBRANCH  15  18
BRANCH  17  20
ATOM     20  O   UNL     1       4.458   3.408   4.644  1.00  0.00    -0.507 OA
ATOM     21  H   UNL     1       4.101   4.182   4.098  1.00  0.00     0.293 HD
ENDBRANCH  17  20
ENDBRANCH   1  12
BRANCH   2  22
ATOM     22  O   UNL     1       6.753   6.256   5.082  1.00  0.00    -0.502 OA
ATOM     23  H   UNL     1       6.910   7.146   5.538  1.00  0.00     0.293 HD
ENDBRANCH   2  22
BRANCH   6  24
ATOM     24  O   UNL     1       5.367   9.567   1.311  1.00  0.00    -0.507 OA
ATOM     25  H   UNL     1       6.114   9.946   1.881  1.00  0.00     0.293 HD
ENDBRANCH   6  24
BRANCH   8  26
ATOM     26  O   UNL     1       4.889   6.599  -2.462  1.00  0.00    -0.508 OA
ATOM     27  H   UNL     1       4.082   7.034  -2.893  1.00  0.00     0.293 HD
ENDBRANCH   8  26
TORSDOF 6
ENDMDL
MODEL 9
REMARK VINA RESULT:    -7.111      2.437      7.379
REMARK INTER + INTRA:          -8.974
REMARK INTER:                  -8.576
REMARK INTRA:                  -0.397
REMARK UNBOUND:                -0.408
REMARK SMILES O=c1c(O)c(-c2ccc(O)cc2O)oc2cc(O)cc(O)c12
REMARK SMILES IDX 5 1 3 2 2 3 1 4 22 5 20 6 19 7 17 8 16 9 15 10 14 11 6 12
REMARK SMILES IDX 8 13 7 14 9 15 11 16 12 17 10 18 13 20 4 22 21 24 18 26
REMARK H PARENT 10 19 13 21 4 23 21 25 18 27
REMARK Flexibility Score: inf
ROOT
ATOM      1  C   UNL     1       6.774   5.190   2.367  1.00  0.00     0.184 A 
ATOM      2  C   UNL     1       7.621   4.971   1.266  1.00  0.00     0.208 A 
ATOM      3  C   UNL     1       7.553   5.845   0.172  1.00  0.00     0.238 A 
ATOM      4  O   UNL     1       8.310   5.661  -0.819  1.00  0.00    -0.285 OA
ATOM      5  C   UNL     1       6.636   6.917   0.194  1.00  0.00     0.111 A 
ATOM      6  C   UNL     1       6.501   7.844  -0.868  1.00  0.00     0.134 A 
ATOM      7  C   UNL     1       5.561   8.881  -0.771  1.00  0.00     0.093 A 
ATOM      8  C   UNL     1       4.757   9.011   0.363  1.00  0.00     0.123 A 
ATOM      9  C   UNL     1       4.886   8.100   1.417  1.00  0.00     0.094 A 
ATOM     10  C   UNL     1       5.815   7.059   1.340  1.00  0.00     0.146 A 
ATOM     11  O   UNL     1       5.919   6.209   2.355  1.00  0.00    -0.451 OA
ENDROOT
BRANCH   1  12
ATOM     12  C   UNL     1       6.814   4.313   3.555  1.00  0.00     0.063 A 
ATOM     13  C   UNL     1       7.886   3.685   5.649  1.00  0.00     0.047 A 
ATOM     14  C   UNL     1       7.853   4.464   4.490  1.00  0.00     0.020 A 
ATOM     15  C   UNL     1       6.877   2.752   5.896  1.00  0.00     0.119 A 
ATOM     16  C   UNL     1       5.835   2.594   4.974  1.00  0.00     0.093 A 
ATOM     17  C   UNL     1       5.797   3.361   3.803  1.00  0.00     0.130 A 
BRANCH  15  18
ATOM     18  O   UNL     1       6.920   1.986   7.059  1.00  0.00    -0.508 OA
ATOM     19  H   UNL     1       6.169   2.015   7.740  1.00  0.00     0.293 HD
ENDBRANCH  15  18
BRANCH  17  20
ATOM     20  O   UNL     1       4.754   3.137   2.901  1.00  0.00    -0.507 OA
ATOM     21  H   UNL     1       3.969   2.533   3.105  1.00  0.00     0.293 HD
ENDBRANCH  17  20
ENDBRANCH   1  12
BRANCH   2  22
ATOM     22  O   UNL     1       8.502   3.886   1.266  1.00  0.00    -0.502 OA
ATOM     23  H   UNL     1       8.183   2.930   1.167  1.00  0.00     0.293 HD
ENDBRANCH   2  22
BRANCH   6  24
ATOM     24  O   UNL     1       7.289   7.741  -2.014  1.00  0.00    -0.507 OA
ATOM     25  H   UNL     1       6.934   7.331  -2.871  1.00  0.00     0.293 HD
ENDBRANCH   6  24
BRANCH   8  26
ATOM     26  O   UNL     1       3.832  10.050   0.433  1.00  0.00    -0.508 OA
ATOM     27  H   UNL     1       4.095  10.973   0.759  1.00  0.00     0.293 HD
ENDBRANCH   8  26
TORSDOF 6
ENDMDL
