MODEL 1
REMARK VINA RESULT:    -5.188      0.000      0.000
REMARK INTER + INTRA:          -6.037
REMARK INTER:                  -5.946
REMARK INTRA:                  -0.092
REMARK UNBOUND:                -0.092
REMARK SMILES COc1cc(C(=O)[O-])ccc1O
REMARK SMILES IDX 5 1 9 2 4 3 10 4 3 5 11 6 6 7 7 8 8 9 2 10 1 11 12 12
REMARK H PARENT 12 13
REMARK Flexibility Score: inf
ROOT
ATOM      1  C   UNL     1     -12.358 -42.521 -15.617  1.00  0.00     0.001 A 
ATOM      2  C   UNL     1     -12.127 -42.612 -17.000  1.00  0.00     0.014 A 
ATOM      3  C   UNL     1     -13.677 -42.369 -15.153  1.00  0.00     0.060 A 
ATOM      4  C   UNL     1     -13.193 -42.551 -17.900  1.00  0.00     0.051 A 
ATOM      5  C   UNL     1     -14.755 -42.308 -16.059  1.00  0.00     0.161 A 
ATOM      6  C   UNL     1     -14.504 -42.399 -17.434  1.00  0.00     0.157 A 
ENDROOT
BRANCH   1   7
ATOM      7  C   UNL     1     -11.230 -42.585 -14.661  1.00  0.00     0.072 C 
ATOM      8  O   UNL     1     -10.771 -41.534 -14.140  1.00  0.00    -0.545 OA
ATOM      9  O   UNL     1     -10.662 -43.808 -14.323  1.00  0.00    -0.545 OA
ENDBRANCH   1   7
BRANCH   5  10
ATOM     10  O   UNL     1     -16.084 -42.156 -15.631  1.00  0.00    -0.493 OA
ATOM     11  C   UNL     1     -16.577 -41.029 -14.914  1.00  0.00     0.278 C 
ENDBRANCH   5  10
BRANCH   6  12
ATOM     12  O   UNL     1     -15.567 -42.339 -18.334  1.00  0.00    -0.504 OA
ATOM     13  H   UNL     1     -16.345 -41.704 -18.196  1.00  0.00     0.293 HD
ENDBRANCH   6  12
TORSDOF 3
ENDMDL
MODEL 2
REMARK VINA RESULT:    -4.995      1.884      2.608
REMARK INTER + INTRA:          -5.817
REMARK INTER:                  -5.715
REMARK INTRA:                  -0.102
REMARK UNBOUND:                -0.092
REMARK SMILES COc1cc(C(=O)[O-])ccc1O
REMARK SMILES IDX 5 1 9 2 4 3 10 4 3 5 11 6 6 7 7 8 8 9 2 10 1 11 12 12
REMARK H PARENT 12 13
REMARK Flexibility Score: inf
ROOT
ATOM      1  C   UNL     1     -11.081 -41.628 -15.731  1.00  0.00     0.001 A 
ATOM      2  C   UNL     1     -10.615 -40.484 -16.402  1.00  0.00     0.014 A 
ATOM      3  C   UNL     1     -12.162 -42.345 -16.272  1.00  0.00     0.060 A 
ATOM      4  C   UNL     1     -11.219 -40.068 -17.590  1.00  0.00     0.051 A 
ATOM      5  C   UNL     1     -12.774 -41.927 -17.471  1.00  0.00     0.161 A 
ATOM      6  C   UNL     1     -12.296 -40.785 -18.125  1.00  0.00     0.157 A 
ENDROOT
BRANCH   1   7
ATOM      7  C   UNL     1     -10.443 -42.072 -14.471  1.00  0.00     0.072 C 
ATOM      8  O   UNL     1     -11.039 -42.867 -13.697  1.00  0.00    -0.545 OA
ATOM      9  O   UNL     1      -9.175 -41.617 -14.125  1.00  0.00    -0.545 OA
ENDBRANCH   1   7
BRANCH   5  10
ATOM     10  O   UNL     1     -13.856 -42.618 -18.040  1.00  0.00    -0.493 OA
ATOM     11  C   UNL     1     -15.208 -42.494 -17.611  1.00  0.00     0.278 C 
ENDBRANCH   5  10
BRANCH   6  12
ATOM     12  O   UNL     1     -12.897 -40.367 -19.311  1.00  0.00    -0.504 OA
ATOM     13  H   UNL     1     -13.467 -40.994 -19.868  1.00  0.00     0.293 HD
ENDBRANCH   6  12
TORSDOF 3
ENDMDL
MODEL 3
REMARK VINA RESULT:    -4.980      2.058      2.946
REMARK INTER + INTRA:          -5.799
REMARK INTER:                  -5.701
REMARK INTRA:                  -0.098
REMARK UNBOUND:                -0.092
REMARK SMILES COc1cc(C(=O)[O-])ccc1O
REMARK SMILES IDX 5 1 9 2 4 3 10 4 3 5 11 6 6 7 7 8 8 9 2 10 1 11 12 12
REMARK H PARENT 12 13
REMARK Flexibility Score: inf
ROOT
ATOM      1  C   UNL     1     -13.193 -41.362 -16.157  1.00  0.00     0.001 A 
ATOM      2  C   UNL     1     -13.288 -40.033 -15.710  1.00  0.00     0.014 A 
ATOM      3  C   UNL     1     -14.263 -42.243 -15.915  1.00  0.00     0.060 A 
ATOM      4  C   UNL     1     -14.429 -39.594 -15.035  1.00  0.00     0.051 A 
ATOM      5  C   UNL     1     -15.416 -41.803 -15.234  1.00  0.00     0.161 A 
ATOM      6  C   UNL     1     -15.492 -40.474 -14.797  1.00  0.00     0.157 A 
ENDROOT
BRANCH   1   7
ATOM      7  C   UNL     1     -11.985 -41.830 -16.872  1.00  0.00     0.072 C 
ATOM      8  O   UNL     1     -10.838 -41.472 -16.495  1.00  0.00    -0.545 OA
ATOM      9  O   UNL     1     -12.100 -42.673 -17.972  1.00  0.00    -0.545 OA
ENDBRANCH   1   7
BRANCH   5  10
ATOM     10  O   UNL     1     -16.503 -42.654 -14.975  1.00  0.00    -0.493 OA
ATOM     11  C   UNL     1     -17.356 -43.201 -15.975  1.00  0.00     0.278 C 
ENDBRANCH   5  10
BRANCH   6  12
ATOM     12  O   UNL     1     -16.629 -40.034 -14.123  1.00  0.00    -0.504 OA
ATOM     13  H   UNL     1     -17.506 -40.540 -14.173  1.00  0.00     0.293 HD
ENDBRANCH   6  12
TORSDOF 3
ENDMDL
MODEL 4
REMARK VINA RESULT:    -4.898      1.402      4.508
REMARK INTER + INTRA:          -5.705
REMARK INTER:                  -5.607
REMARK INTRA:                  -0.098
REMARK UNBOUND:                -0.092
REMARK SMILES COc1cc(C(=O)[O-])ccc1O
REMARK SMILES IDX 5 1 9 2 4 3 10 4 3 5 11 6 6 7 7 8 8 9 2 10 1 11 12 12
REMARK H PARENT 12 13
REMARK Flexibility Score: inf
ROOT
ATOM      1  C   UNL     1     -14.138 -41.911 -16.612  1.00  0.00     0.001 A 
ATOM      2  C   UNL     1     -13.643 -40.853 -17.394  1.00  0.00     0.014 A 
ATOM      3  C   UNL     1     -13.381 -42.365 -15.518  1.00  0.00     0.060 A 
ATOM      4  C   UNL     1     -12.415 -40.262 -17.086  1.00  0.00     0.051 A 
ATOM      5  C   UNL     1     -12.142 -41.771 -15.205  1.00  0.00     0.161 A 
ATOM      6  C   UNL     1     -11.665 -40.718 -15.996  1.00  0.00     0.157 A 
ENDROOT
BRANCH   1   7
ATOM      7  C   UNL     1     -15.439 -42.539 -16.935  1.00  0.00     0.072 C 
ATOM      8  O   UNL     1     -15.670 -42.973 -18.095  1.00  0.00    -0.545 OA
ATOM      9  O   UNL     1     -16.424 -42.658 -15.962  1.00  0.00    -0.545 OA
ENDBRANCH   1   7
BRANCH   5  10
ATOM     10  O   UNL     1     -11.359 -42.199 -14.121  1.00  0.00    -0.493 OA
ATOM     11  C   UNL     1     -10.642 -43.428 -14.078  1.00  0.00     0.278 C 
ENDBRANCH   5  10
BRANCH   6  12
ATOM     12  O   UNL     1     -10.440 -40.126 -15.692  1.00  0.00    -0.504 OA
ATOM     13  H   UNL     1      -9.604 -40.681 -15.544  1.00  0.00     0.293 HD
ENDBRANCH   6  12
TORSDOF 3
ENDMDL
MODEL 5
REMARK VINA RESULT:    -4.880      2.050      2.475
REMARK INTER + INTRA:          -5.685
REMARK INTER:                  -5.601
REMARK INTRA:                  -0.084
REMARK UNBOUND:                -0.092
REMARK SMILES COc1cc(C(=O)[O-])ccc1O
REMARK SMILES IDX 5 1 9 2 4 3 10 4 3 5 11 6 6 7 7 8 8 9 2 10 1 11 12 12
REMARK H PARENT 12 13
REMARK Flexibility Score: inf
ROOT
ATOM      1  C   UNL     1     -12.525 -41.345 -15.260  1.00  0.00     0.001 A 
ATOM      2  C   UNL     1     -13.330 -42.495 -15.336  1.00  0.00     0.014 A 
ATOM      3  C   UNL     1     -13.117 -40.083 -15.443  1.00  0.00     0.060 A 
ATOM      4  C   UNL     1     -14.698 -42.383 -15.591  1.00  0.00     0.051 A 
ATOM      5  C   UNL     1     -14.498 -39.967 -15.701  1.00  0.00     0.161 A 
ATOM      6  C   UNL     1     -15.283 -41.124 -15.774  1.00  0.00     0.157 A 
ENDROOT
BRANCH   1   7
ATOM      7  C   UNL     1     -11.074 -41.460 -14.989  1.00  0.00     0.072 C 
ATOM      8  O   UNL     1     -10.239 -40.839 -15.699  1.00  0.00    -0.545 OA
ATOM      9  O   UNL     1     -10.613 -42.256 -13.947  1.00  0.00    -0.545 OA
ENDBRANCH   1   7
BRANCH   5  10
ATOM     10  O   UNL     1     -15.122 -38.723 -15.890  1.00  0.00    -0.493 OA
ATOM     11  C   UNL     1     -15.216 -38.049 -17.141  1.00  0.00     0.278 C 
ENDBRANCH   5  10
BRANCH   6  12
ATOM     12  O   UNL     1     -16.649 -41.016 -16.028  1.00  0.00    -0.504 OA
ATOM     13  H   UNL     1     -17.195 -40.239 -15.674  1.00  0.00     0.293 HD
ENDBRANCH   6  12
TORSDOF 3
ENDMDL
MODEL 6
REMARK VINA RESULT:    -4.871      1.492      2.392
REMARK INTER + INTRA:          -5.675
REMARK INTER:                  -5.578
REMARK INTRA:                  -0.097
REMARK UNBOUND:                -0.092
REMARK SMILES COc1cc(C(=O)[O-])ccc1O
REMARK SMILES IDX 5 1 9 2 4 3 10 4 3 5 11 6 6 7 7 8 8 9 2 10 1 11 12 12
REMARK H PARENT 12 13
REMARK Flexibility Score: inf
ROOT
ATOM      1  C   UNL     1     -12.302 -41.741 -15.102  1.00  0.00     0.001 A 
ATOM      2  C   UNL     1     -12.501 -40.369 -14.872  1.00  0.00     0.014 A 
ATOM      3  C   UNL     1     -13.350 -42.501 -15.651  1.00  0.00     0.060 A 
ATOM      4  C   UNL     1     -13.723 -39.770 -15.184  1.00  0.00     0.051 A 
ATOM      5  C   UNL     1     -14.585 -41.899 -15.967  1.00  0.00     0.161 A 
ATOM      6  C   UNL     1     -14.764 -40.530 -15.730  1.00  0.00     0.157 A 
ENDROOT
BRANCH   1   7
ATOM      7  C   UNL     1     -11.008 -42.379 -14.772  1.00  0.00     0.072 C 
ATOM      8  O   UNL     1     -10.952 -43.605 -14.487  1.00  0.00    -0.545 OA
ATOM      9  O   UNL     1      -9.835 -41.633 -14.773  1.00  0.00    -0.545 OA
ENDBRANCH   1   7
BRANCH   5  10
ATOM     10  O   UNL     1     -15.654 -42.627 -16.515  1.00  0.00    -0.493 OA
ATOM     11  C   UNL     1     -15.806 -42.916 -17.901  1.00  0.00     0.278 C 
ENDBRANCH   5  10
BRANCH   6  12
ATOM     12  O   UNL     1     -15.983 -39.930 -16.040  1.00  0.00    -0.504 OA
ATOM     13  H   UNL     1     -16.062 -39.238 -16.776  1.00  0.00     0.293 HD
ENDBRANCH   6  12
TORSDOF 3
ENDMDL
MODEL 7
REMARK VINA RESULT:    -4.870      2.274      3.422
REMARK INTER + INTRA:          -5.673
REMARK INTER:                  -5.573
REMARK INTRA:                  -0.100
REMARK UNBOUND:                -0.092
REMARK SMILES COc1cc(C(=O)[O-])ccc1O
REMARK SMILES IDX 5 1 9 2 4 3 10 4 3 5 11 6 6 7 7 8 8 9 2 10 1 11 12 12
REMARK H PARENT 12 13
REMARK Flexibility Score: inf
ROOT
ATOM      1  C   UNL     1     -11.450 -41.949 -15.405  1.00  0.00     0.001 A 
ATOM      2  C   UNL     1     -12.674 -42.595 -15.649  1.00  0.00     0.014 A 
ATOM      3  C   UNL     1     -11.047 -40.905 -16.257  1.00  0.00     0.060 A 
ATOM      4  C   UNL     1     -13.476 -42.207 -16.724  1.00  0.00     0.051 A 
ATOM      5  C   UNL     1     -11.855 -40.511 -17.343  1.00  0.00     0.161 A 
ATOM      6  C   UNL     1     -13.071 -41.168 -17.570  1.00  0.00     0.157 A 
ENDROOT
BRANCH   1   7
ATOM      7  C   UNL     1     -10.598 -42.358 -14.267  1.00  0.00     0.072 C 
ATOM      8  O   UNL     1     -11.026 -43.172 -13.406  1.00  0.00    -0.545 OA
ATOM      9  O   UNL     1      -9.311 -41.849 -14.132  1.00  0.00    -0.545 OA
ENDBRANCH   1   7
BRANCH   5  10
ATOM     10  O   UNL     1     -11.483 -39.474 -18.215  1.00  0.00    -0.493 OA
ATOM     11  C   UNL     1     -10.340 -39.503 -19.062  1.00  0.00     0.278 C 
ENDBRANCH   5  10
BRANCH   6  12
ATOM     12  O   UNL     1     -13.873 -40.782 -18.642  1.00  0.00    -0.504 OA
ATOM     13  H   UNL     1     -13.523 -40.774 -19.593  1.00  0.00     0.293 HD
ENDBRANCH   6  12
TORSDOF 3
ENDMDL
MODEL 8
REMARK VINA RESULT:    -4.820      2.429      2.582
REMARK INTER + INTRA:          -5.616
REMARK INTER:                  -5.537
REMARK INTRA:                  -0.078
REMARK UNBOUND:                -0.092
REMARK SMILES COc1cc(C(=O)[O-])ccc1O
REMARK SMILES IDX 5 1 9 2 4 3 10 4 3 5 11 6 6 7 7 8 8 9 2 10 1 11 12 12
REMARK H PARENT 12 13
REMARK Flexibility Score: inf
ROOT
ATOM      1  C   UNL     1     -11.175 -41.099 -15.406  1.00  0.00     0.001 A 
ATOM      2  C   UNL     1     -10.618 -40.827 -16.667  1.00  0.00     0.014 A 
ATOM      3  C   UNL     1     -12.484 -40.665 -15.129  1.00  0.00     0.060 A 
ATOM      4  C   UNL     1     -11.354 -40.134 -17.630  1.00  0.00     0.051 A 
ATOM      5  C   UNL     1     -13.229 -39.965 -16.099  1.00  0.00     0.161 A 
ATOM      6  C   UNL     1     -12.656 -39.703 -17.350  1.00  0.00     0.157 A 
ENDROOT
BRANCH   1   7
ATOM      7  C   UNL     1     -10.397 -41.834 -14.383  1.00  0.00     0.072 C 
ATOM      8  O   UNL     1     -10.928 -42.766 -13.722  1.00  0.00    -0.545 OA
ATOM      9  O   UNL     1      -9.069 -41.504 -14.137  1.00  0.00    -0.545 OA
ENDBRANCH   1   7
BRANCH   5  10
ATOM     10  O   UNL     1     -14.538 -39.516 -15.857  1.00  0.00    -0.493 OA
ATOM     11  C   UNL     1     -15.351 -39.948 -14.771  1.00  0.00     0.278 C 
ENDBRANCH   5  10
BRANCH   6  12
ATOM     12  O   UNL     1     -13.389 -39.012 -18.313  1.00  0.00    -0.504 OA
ATOM     13  H   UNL     1     -14.110 -39.468 -18.861  1.00  0.00     0.293 HD
ENDBRANCH   6  12
TORSDOF 3
ENDMDL
MODEL 9
REMARK VINA RESULT:    -4.818      1.510      4.058
REMARK INTER + INTRA:          -5.613
REMARK INTER:                  -5.539
REMARK INTRA:                  -0.075
REMARK UNBOUND:                -0.092
REMARK SMILES COc1cc(C(=O)[O-])ccc1O
REMARK SMILES IDX 5 1 9 2 4 3 10 4 3 5 11 6 6 7 7 8 8 9 2 10 1 11 12 12
REMARK H PARENT 12 13
REMARK Flexibility Score: inf
ROOT
ATOM      1  C   UNL     1     -15.162 -42.027 -15.639  1.00  0.00     0.001 A 
ATOM      2  C   UNL     1     -15.356 -42.092 -17.030  1.00  0.00     0.014 A 
ATOM      3  C   UNL     1     -13.883 -42.281 -15.114  1.00  0.00     0.060 A 
ATOM      4  C   UNL     1     -14.291 -42.406 -17.877  1.00  0.00     0.051 A 
ATOM      5  C   UNL     1     -12.806 -42.599 -15.966  1.00  0.00     0.161 A 
ATOM      6  C   UNL     1     -13.019 -42.659 -17.350  1.00  0.00     0.157 A 
ENDROOT
BRANCH   1   7
ATOM      7  C   UNL     1     -16.289 -41.694 -14.738  1.00  0.00     0.072 C 
ATOM      8  O   UNL     1     -16.589 -40.493 -14.504  1.00  0.00    -0.545 OA
ATOM      9  O   UNL     1     -17.032 -42.703 -14.138  1.00  0.00    -0.545 OA
ENDBRANCH   1   7
BRANCH   5  10
ATOM     10  O   UNL     1     -11.516 -42.859 -15.477  1.00  0.00    -0.493 OA
ATOM     11  C   UNL     1     -11.123 -42.710 -14.117  1.00  0.00     0.278 C 
ENDBRANCH   5  10
BRANCH   6  12
ATOM     12  O   UNL     1     -11.958 -42.973 -18.197  1.00  0.00    -0.504 OA
ATOM     13  H   UNL     1     -11.099 -43.380 -17.845  1.00  0.00     0.293 HD
ENDBRANCH   6  12
TORSDOF 3
ENDMDL
