MODEL 1
REMARK VINA RESULT:    -4.765      0.000      0.000
REMARK INTER + INTRA:          -6.032
REMARK INTER:                  -5.880
REMARK INTRA:                  -0.153
REMARK UNBOUND:                -0.153
REMARK SMILES CCCCC=CC(C)=O
REMARK SMILES IDX 4 1 3 2 2 3 1 4 5 5 6 6 7 7 9 8 8 9
REMARK H PARENT
REMARK Flexibility Score: inf
ROOT
ATOM      1  C   UNL     1      -7.601  30.488  24.264  1.00  0.00     0.027 C 
ENDROOT
BRANCH   1   2
ATOM      2  C   UNL     1      -7.156  29.950  22.893  1.00  0.00     0.004 C 
BRANCH   2   3
ATOM      3  C   UNL     1      -8.305  29.387  22.037  1.00  0.00    -0.003 C 
ATOM      4  C   UNL     1      -8.469  27.876  22.182  1.00  0.00     0.004 C 
ENDBRANCH   2   3
ENDBRANCH   1   2
BRANCH   1   5
ATOM      5  C   UNL     1      -7.902  31.960  24.238  1.00  0.00    -0.023 C 
ATOM      6  C   UNL     1      -7.525  32.733  23.214  1.00  0.00     0.042 C 
BRANCH   6   7
ATOM      7  C   UNL     1      -7.814  34.178  23.169  1.00  0.00     0.152 C 
ATOM      8  O   UNL     1      -8.253  34.781  24.186  1.00  0.00    -0.295 OA
ATOM      9  C   UNL     1      -7.582  34.940  21.904  1.00  0.00     0.093 C 
ENDBRANCH   6   7
ENDBRANCH   1   5
TORSDOF 4
ENDMDL
MODEL 2
REMARK VINA RESULT:    -4.715      2.072      4.948
REMARK INTER + INTRA:          -5.970
REMARK INTER:                  -5.761
REMARK INTRA:                  -0.209
REMARK UNBOUND:                -0.153
REMARK SMILES CCCCC=CC(C)=O
REMARK SMILES IDX 4 1 3 2 2 3 1 4 5 5 6 6 7 7 9 8 8 9
REMARK H PARENT
REMARK Flexibility Score: inf
ROOT
ATOM      1  C   UNL     1      -7.650  33.203  21.140  1.00  0.00     0.027 C 
ENDROOT
BRANCH   1   2
ATOM      2  C   UNL     1      -7.698  34.518  21.937  1.00  0.00     0.004 C 
BRANCH   2   3
ATOM      3  C   UNL     1      -7.484  34.343  23.451  1.00  0.00    -0.003 C 
ATOM      4  C   UNL     1      -8.548  35.052  24.286  1.00  0.00     0.004 C 
ENDBRANCH   2   3
ENDBRANCH   1   2
BRANCH   1   5
ATOM      5  C   UNL     1      -8.293  32.059  21.874  1.00  0.00    -0.023 C 
ATOM      6  C   UNL     1      -7.673  30.883  22.019  1.00  0.00     0.042 C 
BRANCH   6   7
ATOM      7  C   UNL     1      -8.285  29.751  22.738  1.00  0.00     0.152 C 
ATOM      8  O   UNL     1      -8.711  29.890  23.917  1.00  0.00    -0.295 OA
ATOM      9  C   UNL     1      -8.406  28.424  22.062  1.00  0.00     0.093 C 
ENDBRANCH   6   7
ENDBRANCH   1   5
TORSDOF 4
ENDMDL
MODEL 3
REMARK VINA RESULT:    -4.692      1.612      1.763
REMARK INTER + INTRA:          -5.941
REMARK INTER:                  -5.730
REMARK INTRA:                  -0.211
REMARK UNBOUND:                -0.153
REMARK SMILES CCCCC=CC(C)=O
REMARK SMILES IDX 4 1 3 2 2 3 1 4 5 5 6 6 7 7 9 8 8 9
REMARK H PARENT
REMARK Flexibility Score: inf
ROOT
ATOM      1  C   UNL     1      -9.106  31.030  23.569  1.00  0.00     0.027 C 
ENDROOT
BRANCH   1   2
ATOM      2  C   UNL     1      -7.926  30.072  23.810  1.00  0.00     0.004 C 
BRANCH   2   3
ATOM      3  C   UNL     1      -7.500  29.275  22.564  1.00  0.00    -0.003 C 
ATOM      4  C   UNL     1      -8.543  28.246  22.132  1.00  0.00     0.004 C 
ENDBRANCH   2   3
ENDBRANCH   1   2
BRANCH   1   5
ATOM      5  C   UNL     1      -8.850  31.990  22.441  1.00  0.00    -0.023 C 
ATOM      6  C   UNL     1      -7.806  32.825  22.455  1.00  0.00     0.042 C 
BRANCH   6   7
ATOM      7  C   UNL     1      -7.537  33.771  21.357  1.00  0.00     0.152 C 
ATOM      8  O   UNL     1      -7.567  35.017  21.555  1.00  0.00    -0.295 OA
ATOM      9  C   UNL     1      -7.222  33.250  19.992  1.00  0.00     0.093 C 
ENDBRANCH   6   7
ENDBRANCH   1   5
TORSDOF 4
ENDMDL
MODEL 4
REMARK VINA RESULT:    -4.585      2.193      3.389
REMARK INTER + INTRA:          -5.810
REMARK INTER:                  -5.556
REMARK INTRA:                  -0.254
REMARK UNBOUND:                -0.153
REMARK SMILES CCCCC=CC(C)=O
REMARK SMILES IDX 4 1 3 2 2 3 1 4 5 5 6 6 7 7 9 8 8 9
REMARK H PARENT
REMARK Flexibility Score: inf
ROOT
ATOM      1  C   UNL     1      -7.499  34.643  21.632  1.00  0.00     0.027 C 
ENDROOT
BRANCH   1   2
ATOM      2  C   UNL     1      -7.488  33.283  20.914  1.00  0.00     0.004 C 
BRANCH   2   3
ATOM      3  C   UNL     1      -8.832  32.534  20.967  1.00  0.00    -0.003 C 
ATOM      4  C   UNL     1      -8.720  31.158  21.619  1.00  0.00     0.004 C 
ENDBRANCH   2   3
ENDBRANCH   1   2
BRANCH   1   5
ATOM      5  C   UNL     1      -8.176  34.584  22.973  1.00  0.00    -0.023 C 
ATOM      6  C   UNL     1      -7.528  34.171  24.067  1.00  0.00     0.042 C 
BRANCH   6   7
ATOM      7  C   UNL     1      -8.173  34.110  25.391  1.00  0.00     0.152 C 
ATOM      8  O   UNL     1      -8.557  33.008  25.872  1.00  0.00    -0.295 OA
ATOM      9  C   UNL     1      -8.373  35.366  26.176  1.00  0.00     0.093 C 
ENDBRANCH   6   7
ENDBRANCH   1   5
TORSDOF 4
ENDMDL
MODEL 5
REMARK VINA RESULT:    -4.575      2.048      2.955
REMARK INTER + INTRA:          -5.797
REMARK INTER:                  -5.551
REMARK INTRA:                  -0.246
REMARK UNBOUND:                -0.153
REMARK SMILES CCCCC=CC(C)=O
REMARK SMILES IDX 4 1 3 2 2 3 1 4 5 5 6 6 7 7 9 8 8 9
REMARK H PARENT
REMARK Flexibility Score: inf
ROOT
ATOM      1  C   UNL     1      -7.517  31.470  23.222  1.00  0.00     0.027 C 
ENDROOT
BRANCH   1   2
ATOM      2  C   UNL     1      -8.054  31.393  21.782  1.00  0.00     0.004 C 
BRANCH   2   3
ATOM      3  C   UNL     1      -8.221  32.763  21.101  1.00  0.00    -0.003 C 
ATOM      4  C   UNL     1      -7.133  33.049  20.068  1.00  0.00     0.004 C 
ENDBRANCH   2   3
ENDBRANCH   1   2
BRANCH   1   5
ATOM      5  C   UNL     1      -7.592  32.858  23.794  1.00  0.00    -0.023 C 
ATOM      6  C   UNL     1      -8.226  33.108  24.944  1.00  0.00     0.042 C 
BRANCH   6   7
ATOM      7  C   UNL     1      -8.307  34.461  25.523  1.00  0.00     0.152 C 
ATOM      8  O   UNL     1      -7.868  34.695  26.682  1.00  0.00    -0.295 OA
ATOM      9  C   UNL     1      -8.913  35.571  24.727  1.00  0.00     0.093 C 
ENDBRANCH   6   7
ENDBRANCH   1   5
TORSDOF 4
ENDMDL
MODEL 6
REMARK VINA RESULT:    -4.567      1.411      1.718
REMARK INTER + INTRA:          -5.787
REMARK INTER:                  -5.668
REMARK INTRA:                  -0.119
REMARK UNBOUND:                -0.153
REMARK SMILES CCCCC=CC(C)=O
REMARK SMILES IDX 4 1 3 2 2 3 1 4 5 5 6 6 7 7 9 8 8 9
REMARK H PARENT
REMARK Flexibility Score: inf
ROOT
ATOM      1  C   UNL     1      -7.489  31.634  22.277  1.00  0.00     0.027 C 
ENDROOT
BRANCH   1   2
ATOM      2  C   UNL     1      -7.157  30.149  22.498  1.00  0.00     0.004 C 
BRANCH   2   3
ATOM      3  C   UNL     1      -8.373  29.281  22.867  1.00  0.00    -0.003 C 
ATOM      4  C   UNL     1      -8.422  27.967  22.091  1.00  0.00     0.004 C 
ENDBRANCH   2   3
ENDBRANCH   1   2
BRANCH   1   5
ATOM      5  C   UNL     1      -7.931  32.322  23.539  1.00  0.00    -0.023 C 
ATOM      6  C   UNL     1      -7.808  33.644  23.695  1.00  0.00     0.042 C 
BRANCH   6   7
ATOM      7  C   UNL     1      -8.238  34.337  24.923  1.00  0.00     0.152 C 
ATOM      8  O   UNL     1      -8.036  33.825  26.058  1.00  0.00    -0.295 OA
ATOM      9  C   UNL     1      -8.919  35.664  24.825  1.00  0.00     0.093 C 
ENDBRANCH   6   7
ENDBRANCH   1   5
TORSDOF 4
ENDMDL
MODEL 7
REMARK VINA RESULT:    -4.524     16.243     16.726
REMARK INTER + INTRA:          -5.734
REMARK INTER:                  -5.534
REMARK INTRA:                  -0.200
REMARK UNBOUND:                -0.153
REMARK SMILES CCCCC=CC(C)=O
REMARK SMILES IDX 4 1 3 2 2 3 1 4 5 5 6 6 7 7 9 8 8 9
REMARK H PARENT
REMARK Flexibility Score: inf
ROOT
ATOM      1  C   UNL     1       5.848  31.070  27.993  1.00  0.00     0.027 C 
ENDROOT
BRANCH   1   2
ATOM      2  C   UNL     1       6.090  29.841  28.885  1.00  0.00     0.004 C 
BRANCH   2   3
ATOM      3  C   UNL     1       6.357  28.541  28.105  1.00  0.00    -0.003 C 
ATOM      4  C   UNL     1       7.697  27.901  28.460  1.00  0.00     0.004 C 
ENDBRANCH   2   3
ENDBRANCH   1   2
BRANCH   1   5
ATOM      5  C   UNL     1       7.123  31.779  27.628  1.00  0.00    -0.023 C 
ATOM      6  C   UNL     1       8.268  31.536  28.273  1.00  0.00     0.042 C 
BRANCH   6   7
ATOM      7  C   UNL     1       9.529  32.218  27.927  1.00  0.00     0.152 C 
ATOM      8  O   UNL     1      10.123  31.966  26.843  1.00  0.00    -0.295 OA
ATOM      9  C   UNL     1      10.109  33.223  28.869  1.00  0.00     0.093 C 
ENDBRANCH   6   7
ENDBRANCH   1   5
TORSDOF 4
ENDMDL
MODEL 8
REMARK VINA RESULT:    -4.430      3.133      4.806
REMARK INTER + INTRA:          -5.619
REMARK INTER:                  -5.420
REMARK INTRA:                  -0.199
REMARK UNBOUND:                -0.153
REMARK SMILES CCCCC=CC(C)=O
REMARK SMILES IDX 4 1 3 2 2 3 1 4 5 5 6 6 7 7 9 8 8 9
REMARK H PARENT
REMARK Flexibility Score: inf
ROOT
ATOM      1  C   UNL     1      -7.311  34.825  24.004  1.00  0.00     0.027 C 
ENDROOT
BRANCH   1   2
ATOM      2  C   UNL     1      -8.615  35.316  24.654  1.00  0.00     0.004 C 
BRANCH   2   3
ATOM      3  C   UNL     1      -8.622  35.233  26.191  1.00  0.00    -0.003 C 
ATOM      4  C   UNL     1      -8.198  33.862  26.713  1.00  0.00     0.004 C 
ENDBRANCH   2   3
ENDBRANCH   1   2
BRANCH   1   5
ATOM      5  C   UNL     1      -7.505  34.377  22.582  1.00  0.00    -0.023 C 
ATOM      6  C   UNL     1      -7.917  33.140  22.288  1.00  0.00     0.042 C 
BRANCH   6   7
ATOM      7  C   UNL     1      -8.117  32.684  20.900  1.00  0.00     0.152 C 
ATOM      8  O   UNL     1      -9.129  32.001  20.585  1.00  0.00    -0.295 OA
ATOM      9  C   UNL     1      -7.112  33.039  19.852  1.00  0.00     0.093 C 
ENDBRANCH   6   7
ENDBRANCH   1   5
TORSDOF 4
ENDMDL
MODEL 9
REMARK VINA RESULT:    -4.325      1.931      4.119
REMARK INTER + INTRA:          -5.489
REMARK INTER:                  -5.221
REMARK INTRA:                  -0.269
REMARK UNBOUND:                -0.153
REMARK SMILES CCCCC=CC(C)=O
REMARK SMILES IDX 4 1 3 2 2 3 1 4 5 5 6 6 7 7 9 8 8 9
REMARK H PARENT
REMARK Flexibility Score: inf
ROOT
ATOM      1  C   UNL     1      -7.589  31.217  21.846  1.00  0.00     0.027 C 
ENDROOT
BRANCH   1   2
ATOM      2  C   UNL     1      -8.391  32.294  21.095  1.00  0.00     0.004 C 
BRANCH   2   3
ATOM      3  C   UNL     1      -7.565  33.531  20.701  1.00  0.00    -0.003 C 
ATOM      4  C   UNL     1      -7.572  34.617  21.775  1.00  0.00     0.004 C 
ENDBRANCH   2   3
ENDBRANCH   1   2
BRANCH   1   5
ATOM      5  C   UNL     1      -8.129  30.949  23.223  1.00  0.00    -0.023 C 
ATOM      6  C   UNL     1      -7.844  31.750  24.255  1.00  0.00     0.042 C 
BRANCH   6   7
ATOM      7  C   UNL     1      -8.367  31.505  25.611  1.00  0.00     0.152 C 
ATOM      8  O   UNL     1      -9.205  32.292  26.132  1.00  0.00    -0.295 OA
ATOM      9  C   UNL     1      -7.905  30.309  26.379  1.00  0.00     0.093 C 
ENDBRANCH   6   7
ENDBRANCH   1   5
TORSDOF 4
ENDMDL
