MODEL 1
REMARK VINA RESULT:    -5.517      0.000      0.000
REMARK INTER + INTRA:          -5.678
REMARK INTER:                  -5.678
REMARK INTRA:                   0.000
REMARK UNBOUND:                 0.000
REMARK SMILES C[C@H]1CC[C@@H]2C(C)(C)[C@@H]3C[C@@]21CC[C@@]3(C)O
REMARK SMILES IDX 1 1 2 2 3 3 4 4 5 5 11 6 12 7 13 8 14 9 9 10 10 11 6 12 7 13
REMARK SMILES IDX 8 14 15 15 16 16
REMARK H PARENT 16 17
REMARK Flexibility Score: inf
ROOT
ATOM      1  C   UNL     1     140.242 139.744 131.176  1.00  0.00     0.008 C 
ATOM      2  C   UNL     1     139.069 138.775 131.383  1.00  0.00    -0.008 C 
ATOM      3  C   UNL     1     137.723 139.469 131.187  1.00  0.00     0.004 C 
ATOM      4  C   UNL     1     136.752 138.347 130.872  1.00  0.00     0.005 C 
ATOM      5  C   UNL     1     137.560 137.385 129.990  1.00  0.00     0.001 C 
ATOM      6  C   UNL     1     139.027 137.524 130.450  1.00  0.00    -0.023 C 
ATOM      7  C   UNL     1     139.990 137.570 129.219  1.00  0.00     0.010 C 
ATOM      8  C   UNL     1     139.826 136.348 128.282  1.00  0.00     0.036 C 
ATOM      9  C   UNL     1     139.619 135.004 129.040  1.00  0.00     0.065 C 
ATOM     10  C   UNL     1     138.640 135.190 130.275  1.00  0.00     0.027 C 
ATOM     11  C   UNL     1     139.300 136.219 131.199  1.00  0.00     0.014 C 
ATOM     12  C   UNL     1     137.230 135.849 130.030  1.00  0.00    -0.026 C 
ATOM     13  C   UNL     1     136.284 135.438 131.196  1.00  0.00     0.012 C 
ATOM     14  C   UNL     1     136.500 135.411 128.738  1.00  0.00     0.012 C 
ATOM     15  C   UNL     1     139.155 133.899 128.061  1.00  0.00     0.042 C 
ENDROOT
BRANCH   9  16
ATOM     16  O   UNL     1     140.886 134.608 129.522  1.00  0.00    -0.390 OA
ATOM     17  H   UNL     1     140.969 133.626 129.400  1.00  0.00     0.211 HD
ENDBRANCH   9  16
TORSDOF 1
ENDMDL
MODEL 2
REMARK VINA RESULT:    -5.483      2.170      3.621
REMARK INTER + INTRA:          -5.643
REMARK INTER:                  -5.643
REMARK INTRA:                   0.000
REMARK UNBOUND:                 0.000
REMARK SMILES C[C@H]1CC[C@@H]2C(C)(C)[C@@H]3C[C@@]21CC[C@@]3(C)O
REMARK SMILES IDX 1 1 2 2 3 3 4 4 5 5 11 6 12 7 13 8 14 9 9 10 10 11 6 12 7 13
REMARK SMILES IDX 8 14 15 15 16 16
REMARK H PARENT 16 17
REMARK Flexibility Score: inf
ROOT
ATOM      1  C   UNL     1     135.241 140.240 129.950  1.00  0.00     0.008 C 
ATOM      2  C   UNL     1     136.109 139.087 130.477  1.00  0.00    -0.008 C 
ATOM      3  C   UNL     1     135.430 137.733 130.275  1.00  0.00     0.004 C 
ATOM      4  C   UNL     1     136.564 136.726 130.307  1.00  0.00     0.005 C 
ATOM      5  C   UNL     1     137.715 137.429 129.572  1.00  0.00     0.001 C 
ATOM      6  C   UNL     1     137.526 138.937 129.840  1.00  0.00    -0.023 C 
ATOM      7  C   UNL     1     137.771 139.765 128.537  1.00  0.00     0.010 C 
ATOM      8  C   UNL     1     139.157 139.492 127.903  1.00  0.00     0.036 C 
ATOM      9  C   UNL     1     140.304 139.356 128.948  1.00  0.00     0.065 C 
ATOM     10  C   UNL     1     139.832 138.515 130.207  1.00  0.00     0.027 C 
ATOM     11  C   UNL     1     138.651 139.277 130.819  1.00  0.00     0.014 C 
ATOM     12  C   UNL     1     139.197 137.092 129.972  1.00  0.00    -0.026 C 
ATOM     13  C   UNL     1     139.324 136.271 131.290  1.00  0.00     0.012 C 
ATOM     14  C   UNL     1     139.875 136.226 128.884  1.00  0.00     0.012 C 
ATOM     15  C   UNL     1     141.576 138.782 128.278  1.00  0.00     0.042 C 
ENDROOT
BRANCH   9  16
ATOM     16  O   UNL     1     140.627 140.664 129.370  1.00  0.00    -0.390 OA
ATOM     17  H   UNL     1     139.779 141.146 129.558  1.00  0.00     0.211 HD
ENDBRANCH   9  16
TORSDOF 1
ENDMDL
MODEL 3
REMARK VINA RESULT:    -5.473      2.968      5.204
REMARK INTER + INTRA:          -5.633
REMARK INTER:                  -5.633
REMARK INTRA:                   0.000
REMARK UNBOUND:                 0.000
REMARK SMILES C[C@H]1CC[C@@H]2C(C)(C)[C@@H]3C[C@@]21CC[C@@]3(C)O
REMARK SMILES IDX 1 1 2 2 3 3 4 4 5 5 11 6 12 7 13 8 14 9 9 10 10 11 6 12 7 13
REMARK SMILES IDX 8 14 15 15 16 16
REMARK H PARENT 16 17
REMARK Flexibility Score: inf
ROOT
ATOM      1  C   UNL     1     134.987 135.516 131.104  1.00  0.00     0.008 C 
ATOM      2  C   UNL     1     136.155 136.497 131.296  1.00  0.00    -0.008 C 
ATOM      3  C   UNL     1     137.506 135.806 131.118  1.00  0.00     0.004 C 
ATOM      4  C   UNL     1     138.471 136.928 130.784  1.00  0.00     0.005 C 
ATOM      5  C   UNL     1     137.660 137.867 129.879  1.00  0.00     0.001 C 
ATOM      6  C   UNL     1     136.192 137.729 130.337  1.00  0.00    -0.023 C 
ATOM      7  C   UNL     1     135.234 137.653 129.105  1.00  0.00     0.010 C 
ATOM      8  C   UNL     1     135.395 138.856 128.143  1.00  0.00     0.036 C 
ATOM      9  C   UNL     1     135.591 140.217 128.875  1.00  0.00     0.065 C 
ATOM     10  C   UNL     1     136.566 140.061 130.116  1.00  0.00     0.027 C 
ATOM     11  C   UNL     1     135.910 139.047 131.059  1.00  0.00     0.014 C 
ATOM     12  C   UNL     1     137.981 139.406 129.889  1.00  0.00    -0.026 C 
ATOM     13  C   UNL     1     138.921 139.846 131.051  1.00  0.00     0.012 C 
ATOM     14  C   UNL     1     138.713 139.822 128.592  1.00  0.00     0.012 C 
ATOM     15  C   UNL     1     136.051 141.304 127.875  1.00  0.00     0.042 C 
ENDROOT
BRANCH   9  16
ATOM     16  O   UNL     1     134.319 140.614 129.344  1.00  0.00    -0.390 OA
ATOM     17  H   UNL     1     134.445 141.094 130.204  1.00  0.00     0.211 HD
ENDBRANCH   9  16
TORSDOF 1
ENDMDL
MODEL 4
REMARK VINA RESULT:    -5.463      2.136      3.670
REMARK INTER + INTRA:          -5.623
REMARK INTER:                  -5.623
REMARK INTRA:                   0.000
REMARK UNBOUND:                 0.000
REMARK SMILES C[C@H]1CC[C@@H]2C(C)(C)[C@@H]3C[C@@]21CC[C@@]3(C)O
REMARK SMILES IDX 1 1 2 2 3 3 4 4 5 5 11 6 12 7 13 8 14 9 9 10 10 11 6 12 7 13
REMARK SMILES IDX 8 14 15 15 16 16
REMARK H PARENT 16 17
REMARK Flexibility Score: inf
ROOT
ATOM      1  C   UNL     1     139.750 134.996 131.041  1.00  0.00     0.008 C 
ATOM      2  C   UNL     1     138.769 136.161 131.241  1.00  0.00    -0.008 C 
ATOM      3  C   UNL     1     139.452 137.513 131.044  1.00  0.00     0.004 C 
ATOM      4  C   UNL     1     138.321 138.473 130.724  1.00  0.00     0.005 C 
ATOM      5  C   UNL     1     137.369 137.653 129.840  1.00  0.00     0.001 C 
ATOM      6  C   UNL     1     137.521 136.189 130.304  1.00  0.00    -0.023 C 
ATOM      7  C   UNL     1     137.579 135.223 129.076  1.00  0.00     0.010 C 
ATOM      8  C   UNL     1     136.359 135.374 128.134  1.00  0.00     0.036 C 
ATOM      9  C   UNL     1     135.011 135.570 128.888  1.00  0.00     0.065 C 
ATOM     10  C   UNL     1     135.184 136.553 130.120  1.00  0.00     0.027 C 
ATOM     11  C   UNL     1     136.216 135.906 131.050  1.00  0.00     0.014 C 
ATOM     12  C   UNL     1     135.830 137.969 129.874  1.00  0.00    -0.026 C 
ATOM     13  C   UNL     1     135.406 138.914 131.037  1.00  0.00     0.012 C 
ATOM     14  C   UNL     1     135.389 138.691 128.579  1.00  0.00     0.012 C 
ATOM     15  C   UNL     1     133.905 136.021 127.904  1.00  0.00     0.042 C 
ENDROOT
BRANCH   9  16
ATOM     16  O   UNL     1     134.626 134.300 129.371  1.00  0.00    -0.390 OA
ATOM     17  H   UNL     1     134.078 134.434 130.189  1.00  0.00     0.211 HD
ENDBRANCH   9  16
TORSDOF 1
ENDMDL
MODEL 5
REMARK VINA RESULT:    -5.176      2.172      4.220
REMARK INTER + INTRA:          -5.327
REMARK INTER:                  -5.327
REMARK INTRA:                   0.000
REMARK UNBOUND:                 0.000
REMARK SMILES C[C@H]1CC[C@@H]2C(C)(C)[C@@H]3C[C@@]21CC[C@@]3(C)O
REMARK SMILES IDX 1 1 2 2 3 3 4 4 5 5 11 6 12 7 13 8 14 9 9 10 10 11 6 12 7 13
REMARK SMILES IDX 8 14 15 15 16 16
REMARK H PARENT 16 17
REMARK Flexibility Score: inf
ROOT
ATOM      1  C   UNL     1     140.450 135.293 129.634  1.00  0.00     0.008 C 
ATOM      2  C   UNL     1     139.032 135.510 129.084  1.00  0.00    -0.008 C 
ATOM      3  C   UNL     1     138.034 134.528 129.695  1.00  0.00     0.004 C 
ATOM      4  C   UNL     1     136.681 135.189 129.513  1.00  0.00     0.005 C 
ATOM      5  C   UNL     1     136.953 136.680 129.761  1.00  0.00     0.001 C 
ATOM      6  C   UNL     1     138.408 136.924 129.307  1.00  0.00    -0.023 C 
ATOM      7  C   UNL     1     139.160 137.837 130.329  1.00  0.00     0.010 C 
ATOM      8  C   UNL     1     138.434 139.183 130.579  1.00  0.00     0.036 C 
ATOM      9  C   UNL     1     137.829 139.814 129.290  1.00  0.00     0.065 C 
ATOM     10  C   UNL     1     137.151 138.708 128.378  1.00  0.00     0.027 C 
ATOM     11  C   UNL     1     138.257 137.714 128.007  1.00  0.00     0.014 C 
ATOM     12  C   UNL     1     136.075 137.752 129.020  1.00  0.00    -0.026 C 
ATOM     13  C   UNL     1     135.193 137.165 127.878  1.00  0.00     0.012 C 
ATOM     14  C   UNL     1     135.083 138.422 129.999  1.00  0.00     0.012 C 
ATOM     15  C   UNL     1     136.868 140.969 129.658  1.00  0.00     0.042 C 
ENDROOT
BRANCH   9  16
ATOM     16  O   UNL     1     138.902 140.394 128.579  1.00  0.00    -0.390 OA
ATOM     17  H   UNL     1     139.245 139.721 127.934  1.00  0.00     0.211 HD
ENDBRANCH   9  16
TORSDOF 1
ENDMDL
MODEL 6
REMARK VINA RESULT:    -5.131      2.161      4.460
REMARK INTER + INTRA:          -5.281
REMARK INTER:                  -5.281
REMARK INTRA:                   0.000
REMARK UNBOUND:                 0.000
REMARK SMILES C[C@H]1CC[C@@H]2C(C)(C)[C@@H]3C[C@@]21CC[C@@]3(C)O
REMARK SMILES IDX 1 1 2 2 3 3 4 4 5 5 11 6 12 7 13 8 14 9 9 10 10 11 6 12 7 13
REMARK SMILES IDX 8 14 15 15 16 16
REMARK H PARENT 16 17
REMARK Flexibility Score: inf
ROOT
ATOM      1  C   UNL     1     138.757 133.227 128.095  1.00  0.00     0.008 C 
ATOM      2  C   UNL     1     138.858 134.245 129.241  1.00  0.00    -0.008 C 
ATOM      3  C   UNL     1     140.208 134.961 129.242  1.00  0.00     0.004 C 
ATOM      4  C   UNL     1     139.961 136.247 130.008  1.00  0.00     0.005 C 
ATOM      5  C   UNL     1     138.556 136.684 129.569  1.00  0.00     0.001 C 
ATOM      6  C   UNL     1     137.788 135.382 129.257  1.00  0.00    -0.023 C 
ATOM      7  C   UNL     1     136.949 135.536 127.948  1.00  0.00     0.010 C 
ATOM      8  C   UNL     1     135.980 136.743 127.993  1.00  0.00     0.036 C 
ATOM      9  C   UNL     1     135.284 136.932 129.373  1.00  0.00     0.065 C 
ATOM     10  C   UNL     1     136.303 136.692 130.564  1.00  0.00     0.027 C 
ATOM     11  C   UNL     1     136.805 135.250 130.422  1.00  0.00     0.014 C 
ATOM     12  C   UNL     1     137.659 137.495 130.574  1.00  0.00    -0.026 C 
ATOM     13  C   UNL     1     138.208 137.519 132.031  1.00  0.00     0.012 C 
ATOM     14  C   UNL     1     137.562 138.979 130.149  1.00  0.00     0.012 C 
ATOM     15  C   UNL     1     134.588 138.312 129.441  1.00  0.00     0.042 C 
ENDROOT
BRANCH   9  16
ATOM     16  O   UNL     1     134.260 135.961 129.449  1.00  0.00    -0.390 OA
ATOM     17  H   UNL     1     133.435 136.409 129.774  1.00  0.00     0.211 HD
ENDBRANCH   9  16
TORSDOF 1
ENDMDL
MODEL 7
REMARK VINA RESULT:    -5.056      1.811      3.062
REMARK INTER + INTRA:          -5.203
REMARK INTER:                  -5.203
REMARK INTRA:                   0.000
REMARK UNBOUND:                 0.000
REMARK SMILES C[C@H]1CC[C@@H]2C(C)(C)[C@@H]3C[C@@]21CC[C@@]3(C)O
REMARK SMILES IDX 1 1 2 2 3 3 4 4 5 5 11 6 12 7 13 8 14 9 9 10 10 11 6 12 7 13
REMARK SMILES IDX 8 14 15 15 16 16
REMARK H PARENT 16 17
REMARK Flexibility Score: inf
ROOT
ATOM      1  C   UNL     1     136.652 140.971 128.012  1.00  0.00     0.008 C 
ATOM      2  C   UNL     1     137.298 140.633 129.364  1.00  0.00    -0.008 C 
ATOM      3  C   UNL     1     136.266 140.610 130.491  1.00  0.00     0.004 C 
ATOM      4  C   UNL     1     136.898 139.758 131.575  1.00  0.00     0.005 C 
ATOM      5  C   UNL     1     137.617 138.640 130.805  1.00  0.00     0.001 C 
ATOM      6  C   UNL     1     138.040 139.262 129.457  1.00  0.00    -0.023 C 
ATOM      7  C   UNL     1     137.769 138.269 128.281  1.00  0.00     0.010 C 
ATOM      8  C   UNL     1     138.453 136.894 128.486  1.00  0.00     0.036 C 
ATOM      9  C   UNL     1     139.886 136.995 129.086  1.00  0.00     0.065 C 
ATOM     10  C   UNL     1     139.949 138.087 130.235  1.00  0.00     0.027 C 
ATOM     11  C   UNL     1     139.555 139.420 129.587  1.00  0.00     0.014 C 
ATOM     12  C   UNL     1     138.914 137.999 131.420  1.00  0.00    -0.026 C 
ATOM     13  C   UNL     1     139.489 138.784 132.636  1.00  0.00     0.012 C 
ATOM     14  C   UNL     1     138.624 136.576 131.952  1.00  0.00     0.012 C 
ATOM     15  C   UNL     1     140.374 135.601 129.549  1.00  0.00     0.042 C 
ENDROOT
BRANCH   9  16
ATOM     16  O   UNL     1     140.741 137.392 128.035  1.00  0.00    -0.390 OA
ATOM     17  H   UNL     1     141.291 136.607 127.772  1.00  0.00     0.211 HD
ENDBRANCH   9  16
TORSDOF 1
ENDMDL
MODEL 8
REMARK VINA RESULT:    -5.023      2.703      4.580
REMARK INTER + INTRA:          -5.170
REMARK INTER:                  -5.170
REMARK INTRA:                   0.000
REMARK UNBOUND:                 0.000
REMARK SMILES C[C@H]1CC[C@@H]2C(C)(C)[C@@H]3C[C@@]21CC[C@@]3(C)O
REMARK SMILES IDX 1 1 2 2 3 3 4 4 5 5 11 6 12 7 13 8 14 9 9 10 10 11 6 12 7 13
REMARK SMILES IDX 8 14 15 15 16 16
REMARK H PARENT 16 17
REMARK Flexibility Score: inf
ROOT
ATOM      1  C   UNL     1     140.956 138.838 128.632  1.00  0.00     0.008 C 
ATOM      2  C   UNL     1     139.652 138.115 128.261  1.00  0.00    -0.008 C 
ATOM      3  C   UNL     1     139.737 136.617 128.548  1.00  0.00     0.004 C 
ATOM      4  C   UNL     1     138.294 136.166 128.670  1.00  0.00     0.005 C 
ATOM      5  C   UNL     1     137.597 137.323 129.401  1.00  0.00     0.001 C 
ATOM      6  C   UNL     1     138.357 138.601 128.986  1.00  0.00    -0.023 C 
ATOM      7  C   UNL     1     138.585 139.533 130.219  1.00  0.00     0.010 C 
ATOM      8  C   UNL     1     137.269 139.894 130.952  1.00  0.00     0.036 C 
ATOM      9  C   UNL     1     136.078 140.179 129.989  1.00  0.00     0.065 C 
ATOM     10  C   UNL     1     136.056 139.143 128.788  1.00  0.00     0.027 C 
ATOM     11  C   UNL     1     137.385 139.313 128.044  1.00  0.00     0.014 C 
ATOM     12  C   UNL     1     136.077 137.602 129.116  1.00  0.00    -0.026 C 
ATOM     13  C   UNL     1     135.513 136.828 127.888  1.00  0.00     0.012 C 
ATOM     14  C   UNL     1     135.204 137.160 130.314  1.00  0.00     0.012 C 
ATOM     15  C   UNL     1     134.748 140.221 130.777  1.00  0.00     0.042 C 
ENDROOT
BRANCH   9  16
ATOM     16  O   UNL     1     136.278 141.476 129.467  1.00  0.00    -0.390 OA
ATOM     17  H   UNL     1     135.866 142.127 130.094  1.00  0.00     0.211 HD
ENDBRANCH   9  16
TORSDOF 1
ENDMDL
MODEL 9
REMARK VINA RESULT:    -5.020      2.891      4.744
REMARK INTER + INTRA:          -5.167
REMARK INTER:                  -5.167
REMARK INTRA:                   0.000
REMARK UNBOUND:                 0.000
REMARK SMILES C[C@H]1CC[C@@H]2C(C)(C)[C@@H]3C[C@@]21CC[C@@]3(C)O
REMARK SMILES IDX 1 1 2 2 3 3 4 4 5 5 11 6 12 7 13 8 14 9 9 10 10 11 6 12 7 13
REMARK SMILES IDX 8 14 15 15 16 16
REMARK H PARENT 16 17
REMARK Flexibility Score: inf
ROOT
ATOM      1  C   UNL     1     134.328 136.596 128.057  1.00  0.00     0.008 C 
ATOM      2  C   UNL     1     134.623 137.264 129.409  1.00  0.00    -0.008 C 
ATOM      3  C   UNL     1     134.623 136.249 130.551  1.00  0.00     0.004 C 
ATOM      4  C   UNL     1     135.439 136.904 131.649  1.00  0.00     0.005 C 
ATOM      5  C   UNL     1     136.572 137.622 130.901  1.00  0.00     0.001 C 
ATOM      6  C   UNL     1     135.985 138.019 129.530  1.00  0.00    -0.023 C 
ATOM      7  C   UNL     1     137.013 137.740 128.386  1.00  0.00     0.010 C 
ATOM      8  C   UNL     1     138.376 138.439 128.620  1.00  0.00     0.036 C 
ATOM      9  C   UNL     1     138.246 139.880 129.196  1.00  0.00     0.065 C 
ATOM     10  C   UNL     1     137.121 139.949 130.312  1.00  0.00     0.027 C 
ATOM     11  C   UNL     1     135.811 139.535 129.633  1.00  0.00     0.014 C 
ATOM     12  C   UNL     1     137.185 138.932 131.515  1.00  0.00    -0.026 C 
ATOM     13  C   UNL     1     136.361 139.518 132.700  1.00  0.00     0.012 C 
ATOM     14  C   UNL     1     138.594 138.662 132.090  1.00  0.00     0.012 C 
ATOM     15  C   UNL     1     139.622 140.387 129.690  1.00  0.00     0.042 C 
ENDROOT
BRANCH   9  16
ATOM     16  O   UNL     1     137.872 140.716 128.122  1.00  0.00    -0.390 OA
ATOM     17  H   UNL     1     138.567 140.641 127.416  1.00  0.00     0.211 HD
ENDBRANCH   9  16
TORSDOF 1
ENDMDL
