MODEL 1
REMARK VINA RESULT:    -3.759      0.000      0.000
REMARK INTER + INTRA:          -4.540
REMARK INTER:                  -4.418
REMARK INTRA:                  -0.122
REMARK UNBOUND:                -0.122
REMARK SMILES O=C([O-])CCC(=O)[O-]
REMARK SMILES IDX 4 1 2 2 1 3 3 4 5 5 6 6 7 7 8 8
REMARK H PARENT
REMARK Flexibility Score: inf
ROOT
ATOM      1  C   UNL     1      41.872  60.017  48.063  1.00  0.00     0.059 C 
ENDROOT
BRANCH   1   2
ATOM      2  C   UNL     1      42.958  60.289  49.060  1.00  0.00     0.042 C 
ATOM      3  O   UNL     1      43.961  59.530  49.128  1.00  0.00    -0.550 OA
ATOM      4  O   UNL     1      42.882  61.404  49.885  1.00  0.00    -0.550 OA
ENDBRANCH   1   2
BRANCH   1   5
ATOM      5  C   UNL     1      42.370  59.132  46.915  1.00  0.00     0.059 C 
BRANCH   5   6
ATOM      6  C   UNL     1      41.716  57.783  46.935  1.00  0.00     0.042 C 
ATOM      7  O   UNL     1      40.923  57.450  46.016  1.00  0.00    -0.550 OA
ATOM      8  O   UNL     1      41.954  56.911  47.989  1.00  0.00    -0.550 OA
ENDBRANCH   5   6
ENDBRANCH   1   5
TORSDOF 3
ENDMDL
MODEL 2
REMARK VINA RESULT:    -3.752      0.101      3.949
REMARK INTER + INTRA:          -4.532
REMARK INTER:                  -4.410
REMARK INTRA:                  -0.122
REMARK UNBOUND:                -0.122
REMARK SMILES O=C([O-])CCC(=O)[O-]
REMARK SMILES IDX 4 1 2 2 1 3 3 4 5 5 6 6 7 7 8 8
REMARK H PARENT
REMARK Flexibility Score: inf
ROOT
ATOM      1  C   UNL     1      42.316  59.160  46.878  1.00  0.00     0.059 C 
ENDROOT
BRANCH   1   2
ATOM      2  C   UNL     1      41.726  57.784  46.944  1.00  0.00     0.042 C 
ATOM      3  O   UNL     1      40.897  57.407  46.075  1.00  0.00    -0.550 OA
ATOM      4  O   UNL     1      42.123  56.904  47.944  1.00  0.00    -0.550 OA
ENDBRANCH   1   2
BRANCH   1   5
ATOM      5  C   UNL     1      41.860  60.026  48.058  1.00  0.00     0.059 C 
BRANCH   5   6
ATOM      6  C   UNL     1      42.994  60.329  48.990  1.00  0.00     0.042 C 
ATOM      7  O   UNL     1      44.027  59.609  48.986  1.00  0.00    -0.550 OA
ATOM      8  O   UNL     1      42.893  61.384  49.887  1.00  0.00    -0.550 OA
ENDBRANCH   5   6
ENDBRANCH   1   5
TORSDOF 3
ENDMDL
MODEL 3
REMARK VINA RESULT:    -3.741      1.992      2.442
REMARK INTER + INTRA:          -4.519
REMARK INTER:                  -4.344
REMARK INTRA:                  -0.174
REMARK UNBOUND:                -0.122
REMARK SMILES O=C([O-])CCC(=O)[O-]
REMARK SMILES IDX 4 1 2 2 1 3 3 4 5 5 6 6 7 7 8 8
REMARK H PARENT
REMARK Flexibility Score: inf
ROOT
ATOM      1  C   UNL     1      43.750  58.890  47.014  1.00  0.00     0.059 C 
ENDROOT
BRANCH   1   2
ATOM      2  C   UNL     1      43.876  57.806  48.042  1.00  0.00     0.042 C 
ATOM      3  O   UNL     1      44.605  56.804  47.819  1.00  0.00    -0.550 OA
ATOM      4  O   UNL     1      43.220  57.923  49.261  1.00  0.00    -0.550 OA
ENDBRANCH   1   2
BRANCH   1   5
ATOM      5  C   UNL     1      42.305  59.036  46.524  1.00  0.00     0.059 C 
BRANCH   5   6
ATOM      6  C   UNL     1      41.816  57.779  45.868  1.00  0.00     0.042 C 
ATOM      7  O   UNL     1      40.735  57.252  46.237  1.00  0.00    -0.550 OA
ATOM      8  O   UNL     1      42.576  57.172  44.876  1.00  0.00    -0.550 OA
ENDBRANCH   5   6
ENDBRANCH   1   5
TORSDOF 3
ENDMDL
MODEL 4
REMARK VINA RESULT:    -3.735      1.678      3.758
REMARK INTER + INTRA:          -4.511
REMARK INTER:                  -4.323
REMARK INTRA:                  -0.189
REMARK UNBOUND:                -0.122
REMARK SMILES O=C([O-])CCC(=O)[O-]
REMARK SMILES IDX 4 1 2 2 1 3 3 4 5 5 6 6 7 7 8 8
REMARK H PARENT
REMARK Flexibility Score: inf
ROOT
ATOM      1  C   UNL     1      42.083  57.195  48.231  1.00  0.00     0.059 C 
ENDROOT
BRANCH   1   2
ATOM      2  C   UNL     1      40.749  57.374  47.572  1.00  0.00     0.042 C 
ATOM      3  O   UNL     1      40.624  57.187  46.333  1.00  0.00    -0.550 OA
ATOM      4  O   UNL     1      39.636  57.709  48.333  1.00  0.00    -0.550 OA
ENDBRANCH   1   2
BRANCH   1   5
ATOM      5  C   UNL     1      42.481  58.432  49.045  1.00  0.00     0.059 C 
BRANCH   5   6
ATOM      6  C   UNL     1      42.604  59.647  48.175  1.00  0.00     0.042 C 
ATOM      7  O   UNL     1      41.892  60.661  48.398  1.00  0.00    -0.550 OA
ATOM      8  O   UNL     1      43.479  59.643  47.096  1.00  0.00    -0.550 OA
ENDBRANCH   5   6
ENDBRANCH   1   5
TORSDOF 3
ENDMDL
MODEL 5
REMARK VINA RESULT:    -3.731      1.659      2.100
REMARK INTER + INTRA:          -4.507
REMARK INTER:                  -4.318
REMARK INTRA:                  -0.189
REMARK UNBOUND:                -0.122
REMARK SMILES O=C([O-])CCC(=O)[O-]
REMARK SMILES IDX 4 1 2 2 1 3 3 4 5 5 6 6 7 7 8 8
REMARK H PARENT
REMARK Flexibility Score: inf
ROOT
ATOM      1  C   UNL     1      42.467  58.402  49.088  1.00  0.00     0.059 C 
ENDROOT
BRANCH   1   2
ATOM      2  C   UNL     1      42.609  59.638  48.253  1.00  0.00     0.042 C 
ATOM      3  O   UNL     1      41.924  60.662  48.515  1.00  0.00    -0.550 OA
ATOM      4  O   UNL     1      43.525  59.672  47.210  1.00  0.00    -0.550 OA
ENDBRANCH   1   2
BRANCH   1   5
ATOM      5  C   UNL     1      42.055  57.193  48.240  1.00  0.00     0.059 C 
BRANCH   5   6
ATOM      6  C   UNL     1      40.720  57.405  47.592  1.00  0.00     0.042 C 
ATOM      7  O   UNL     1      40.602  57.318  46.341  1.00  0.00    -0.550 OA
ATOM      8  O   UNL     1      39.615  57.735  48.366  1.00  0.00    -0.550 OA
ENDBRANCH   5   6
ENDBRANCH   1   5
TORSDOF 3
ENDMDL
MODEL 6
REMARK VINA RESULT:    -3.730      1.332      1.606
REMARK INTER + INTRA:          -4.506
REMARK INTER:                  -4.316
REMARK INTRA:                  -0.190
REMARK UNBOUND:                -0.122
REMARK SMILES O=C([O-])CCC(=O)[O-]
REMARK SMILES IDX 4 1 2 2 1 3 3 4 5 5 6 6 7 7 8 8
REMARK H PARENT
REMARK Flexibility Score: inf
ROOT
ATOM      1  C   UNL     1      43.356  59.872  47.671  1.00  0.00     0.059 C 
ENDROOT
BRANCH   1   2
ATOM      2  C   UNL     1      43.810  60.242  49.050  1.00  0.00     0.042 C 
ATOM      3  O   UNL     1      44.867  59.748  49.523  1.00  0.00    -0.550 OA
ATOM      4  O   UNL     1      43.086  61.162  49.797  1.00  0.00    -0.550 OA
ENDBRANCH   1   2
BRANCH   1   5
ATOM      5  C   UNL     1      41.921  59.334  47.674  1.00  0.00     0.059 C 
BRANCH   5   6
ATOM      6  C   UNL     1      41.797  58.098  48.513  1.00  0.00     0.042 C 
ATOM      7  O   UNL     1      41.014  58.076  49.498  1.00  0.00    -0.550 OA
ATOM      8  O   UNL     1      42.577  56.984  48.228  1.00  0.00    -0.550 OA
ENDBRANCH   5   6
ENDBRANCH   1   5
TORSDOF 3
ENDMDL
MODEL 7
REMARK VINA RESULT:    -3.729      1.924      3.794
REMARK INTER + INTRA:          -4.505
REMARK INTER:                  -4.318
REMARK INTRA:                  -0.187
REMARK UNBOUND:                -0.122
REMARK SMILES O=C([O-])CCC(=O)[O-]
REMARK SMILES IDX 4 1 2 2 1 3 3 4 5 5 6 6 7 7 8 8
REMARK H PARENT
REMARK Flexibility Score: inf
ROOT
ATOM      1  C   UNL     1      42.302  59.055  46.683  1.00  0.00     0.059 C 
ENDROOT
BRANCH   1   2
ATOM      2  C   UNL     1      41.816  57.782  46.059  1.00  0.00     0.042 C 
ATOM      3  O   UNL     1      40.754  57.242  46.467  1.00  0.00    -0.550 OA
ATOM      4  O   UNL     1      42.515  57.215  45.001  1.00  0.00    -0.550 OA
ENDBRANCH   1   2
BRANCH   1   5
ATOM      5  C   UNL     1      43.763  58.940  47.135  1.00  0.00     0.059 C 
BRANCH   5   6
ATOM      6  C   UNL     1      43.934  57.876  48.177  1.00  0.00     0.042 C 
ATOM      7  O   UNL     1      44.695  56.896  47.962  1.00  0.00    -0.550 OA
ATOM      8  O   UNL     1      43.223  57.948  49.368  1.00  0.00    -0.550 OA
ENDBRANCH   5   6
ENDBRANCH   1   5
TORSDOF 3
ENDMDL
MODEL 8
REMARK VINA RESULT:    -3.717      1.529      3.291
REMARK INTER + INTRA:          -4.491
REMARK INTER:                  -4.307
REMARK INTRA:                  -0.184
REMARK UNBOUND:                -0.122
REMARK SMILES O=C([O-])CCC(=O)[O-]
REMARK SMILES IDX 4 1 2 2 1 3 3 4 5 5 6 6 7 7 8 8
REMARK H PARENT
REMARK Flexibility Score: inf
ROOT
ATOM      1  C   UNL     1      41.859  59.905  48.017  1.00  0.00     0.059 C 
ENDROOT
BRANCH   1   2
ATOM      2  C   UNL     1      41.261  58.547  48.230  1.00  0.00     0.042 C 
ATOM      3  O   UNL     1      40.986  57.815  47.244  1.00  0.00    -0.550 OA
ATOM      4  O   UNL     1      41.045  58.076  49.519  1.00  0.00    -0.550 OA
ENDBRANCH   1   2
BRANCH   1   5
ATOM      5  C   UNL     1      43.272  59.813  47.429  1.00  0.00     0.059 C 
BRANCH   5   6
ATOM      6  C   UNL     1      44.212  59.110  48.361  1.00  0.00     0.042 C 
ATOM      7  O   UNL     1      44.518  59.631  49.465  1.00  0.00    -0.550 OA
ATOM      8  O   UNL     1      44.779  57.897  47.991  1.00  0.00    -0.550 OA
ENDBRANCH   5   6
ENDBRANCH   1   5
TORSDOF 3
ENDMDL
MODEL 9
REMARK VINA RESULT:    -3.710      1.982      2.595
REMARK INTER + INTRA:          -4.483
REMARK INTER:                  -4.367
REMARK INTRA:                  -0.115
REMARK UNBOUND:                -0.122
REMARK SMILES O=C([O-])CCC(=O)[O-]
REMARK SMILES IDX 4 1 2 2 1 3 3 4 5 5 6 6 7 7 8 8
REMARK H PARENT
REMARK Flexibility Score: inf
ROOT
ATOM      1  C   UNL     1      43.014  57.623  49.122  1.00  0.00     0.059 C 
ENDROOT
BRANCH   1   2
ATOM      2  C   UNL     1      44.135  58.445  48.563  1.00  0.00     0.042 C 
ATOM      3  O   UNL     1      43.909  59.595  48.103  1.00  0.00    -0.550 OA
ATOM      4  O   UNL     1      45.436  57.957  48.587  1.00  0.00    -0.550 OA
ENDBRANCH   1   2
BRANCH   1   5
ATOM      5  C   UNL     1      41.707  58.421  49.187  1.00  0.00     0.059 C 
BRANCH   5   6
ATOM      6  C   UNL     1      40.719  57.945  48.165  1.00  0.00     0.042 C 
ATOM      7  O   UNL     1      39.535  57.684  48.503  1.00  0.00    -0.550 OA
ATOM      8  O   UNL     1      41.118  57.753  46.849  1.00  0.00    -0.550 OA
ENDBRANCH   5   6
ENDBRANCH   1   5
TORSDOF 3
ENDMDL
