MODEL 1
REMARK VINA RESULT:    -4.683      0.000      0.000
REMARK INTER + INTRA:          -8.912
REMARK INTER:                  -7.420
REMARK INTRA:                  -1.492
REMARK UNBOUND:                -1.492
REMARK SMILES CCCCCCCCCCCC(=O)[O-]
REMARK SMILES IDX 7 1 8 2 9 3 10 4 11 5 12 6 13 7 14 8 6 9 5 10 4 11 3 12 2 13
REMARK SMILES IDX 1 14
REMARK H PARENT
REMARK Flexibility Score: inf
ROOT
ATOM      1  C   UNL     1     135.010 133.128 114.614  1.00  0.00     0.000 C 
ENDROOT
BRANCH   1   2
ATOM      2  C   UNL     1     136.397 133.611 115.071  1.00  0.00     0.000 C 
BRANCH   2   3
ATOM      3  C   UNL     1     136.677 135.072 114.683  1.00  0.00     0.000 C 
BRANCH   3   4
ATOM      4  C   UNL     1     136.944 135.971 115.904  1.00  0.00     0.006 C 
BRANCH   4   5
ATOM      5  C   UNL     1     136.788 135.263 117.259  1.00  0.00     0.053 C 
BRANCH   5   6
ATOM      6  C   UNL     1     135.765 135.929 118.128  1.00  0.00     0.041 C 
ATOM      7  O   UNL     1     135.943 136.002 119.373  1.00  0.00    -0.550 OA
ATOM      8  O   UNL     1     134.601 136.439 117.567  1.00  0.00    -0.550 OA
ENDBRANCH   5   6
ENDBRANCH   4   5
ENDBRANCH   3   4
ENDBRANCH   2   3
ENDBRANCH   1   2
BRANCH   1   9
ATOM      9  C   UNL     1     133.843 133.948 115.205  1.00  0.00     0.000 C 
BRANCH   9  10
ATOM     10  C   UNL     1     132.973 134.587 114.112  1.00  0.00    -0.000 C 
BRANCH  10  11
ATOM     11  C   UNL     1     133.276 136.084 113.971  1.00  0.00    -0.000 C 
BRANCH  11  12
ATOM     12  C   UNL     1     133.866 136.400 112.592  1.00  0.00    -0.000 C 
BRANCH  12  13
ATOM     13  C   UNL     1     133.922 135.142 111.716  1.00  0.00    -0.003 C 
ATOM     14  C   UNL     1     135.349 134.854 111.258  1.00  0.00     0.004 C 
ENDBRANCH  12  13
ENDBRANCH  11  12
ENDBRANCH  10  11
ENDBRANCH   9  10
ENDBRANCH   1   9
TORSDOF 10
ENDMDL
MODEL 2
REMARK VINA RESULT:    -4.594      7.214      9.114
REMARK INTER + INTRA:          -8.772
REMARK INTER:                  -7.187
REMARK INTRA:                  -1.585
REMARK UNBOUND:                -1.492
REMARK SMILES CCCCCCCCCCCC(=O)[O-]
REMARK SMILES IDX 7 1 8 2 9 3 10 4 11 5 12 6 13 7 14 8 6 9 5 10 4 11 3 12 2 13
REMARK SMILES IDX 1 14
REMARK H PARENT
REMARK Flexibility Score: inf
ROOT
ATOM      1  C   UNL     1     142.365 142.832 114.758  1.00  0.00     0.000 C 
ENDROOT
BRANCH   1   2
ATOM      2  C   UNL     1     140.916 143.136 114.341  1.00  0.00     0.000 C 
BRANCH   2   3
ATOM      3  C   UNL     1     139.886 142.661 115.378  1.00  0.00     0.000 C 
BRANCH   3   4
ATOM      4  C   UNL     1     140.527 142.280 116.725  1.00  0.00     0.006 C 
BRANCH   4   5
ATOM      5  C   UNL     1     140.320 140.814 117.133  1.00  0.00     0.053 C 
BRANCH   5   6
ATOM      6  C   UNL     1     141.490 140.270 117.894  1.00  0.00     0.041 C 
ATOM      7  O   UNL     1     141.628 140.532 119.118  1.00  0.00    -0.550 OA
ATOM      8  O   UNL     1     142.447 139.502 117.242  1.00  0.00    -0.550 OA
ENDBRANCH   5   6
ENDBRANCH   4   5
ENDBRANCH   3   4
ENDBRANCH   2   3
ENDBRANCH   1   2
BRANCH   1   9
ATOM      9  C   UNL     1     143.178 142.089 113.677  1.00  0.00     0.000 C 
BRANCH   9  10
ATOM     10  C   UNL     1     143.377 140.605 114.021  1.00  0.00    -0.000 C 
BRANCH  10  11
ATOM     11  C   UNL     1     142.497 139.711 113.139  1.00  0.00    -0.000 C 
BRANCH  11  12
ATOM     12  C   UNL     1     141.237 139.265 113.891  1.00  0.00    -0.000 C 
BRANCH  12  13
ATOM     13  C   UNL     1     139.969 139.739 113.170  1.00  0.00    -0.003 C 
ATOM     14  C   UNL     1     138.718 139.388 113.970  1.00  0.00     0.004 C 
ENDBRANCH  12  13
ENDBRANCH  11  12
ENDBRANCH  10  11
ENDBRANCH   9  10
ENDBRANCH   1   9
TORSDOF 10
ENDMDL
MODEL 3
REMARK VINA RESULT:    -4.568      7.127      8.682
REMARK INTER + INTRA:          -8.730
REMARK INTER:                  -7.604
REMARK INTRA:                  -1.126
REMARK UNBOUND:                -1.492
REMARK SMILES CCCCCCCCCCCC(=O)[O-]
REMARK SMILES IDX 7 1 8 2 9 3 10 4 11 5 12 6 13 7 14 8 6 9 5 10 4 11 3 12 2 13
REMARK SMILES IDX 1 14
REMARK H PARENT
REMARK Flexibility Score: inf
ROOT
ATOM      1  C   UNL     1     142.941 142.212 115.063  1.00  0.00     0.000 C 
ENDROOT
BRANCH   1   2
ATOM      2  C   UNL     1     143.075 140.689 114.904  1.00  0.00     0.000 C 
BRANCH   2   3
ATOM      3  C   UNL     1     142.253 139.906 115.940  1.00  0.00     0.000 C 
BRANCH   3   4
ATOM      4  C   UNL     1     141.460 140.825 116.888  1.00  0.00     0.006 C 
BRANCH   4   5
ATOM      5  C   UNL     1     141.450 140.365 118.354  1.00  0.00     0.053 C 
BRANCH   5   6
ATOM      6  C   UNL     1     140.224 140.828 119.081  1.00  0.00     0.041 C 
ATOM      7  O   UNL     1     140.196 140.825 120.340  1.00  0.00    -0.550 OA
ATOM      8  O   UNL     1     139.102 141.230 118.368  1.00  0.00    -0.550 OA
ENDBRANCH   5   6
ENDBRANCH   4   5
ENDBRANCH   3   4
ENDBRANCH   2   3
ENDBRANCH   1   2
BRANCH   1   9
ATOM      9  C   UNL     1     142.445 142.928 113.788  1.00  0.00     0.000 C 
BRANCH   9  10
ATOM     10  C   UNL     1     140.987 142.576 113.455  1.00  0.00    -0.000 C 
BRANCH  10  11
ATOM     11  C   UNL     1     140.873 141.963 112.055  1.00  0.00    -0.000 C 
BRANCH  11  12
ATOM     12  C   UNL     1     140.604 140.455 112.133  1.00  0.00    -0.000 C 
BRANCH  12  13
ATOM     13  C   UNL     1     139.638 140.128 113.277  1.00  0.00    -0.003 C 
ATOM     14  C   UNL     1     138.736 138.951 112.917  1.00  0.00     0.004 C 
ENDBRANCH  12  13
ENDBRANCH  11  12
ENDBRANCH  10  11
ENDBRANCH   9  10
ENDBRANCH   1   9
TORSDOF 10
ENDMDL
MODEL 4
REMARK VINA RESULT:    -4.556      7.306      9.098
REMARK INTER + INTRA:          -8.712
REMARK INTER:                  -7.242
REMARK INTRA:                  -1.471
REMARK UNBOUND:                -1.492
REMARK SMILES CCCCCCCCCCCC(=O)[O-]
REMARK SMILES IDX 7 1 8 2 9 3 10 4 11 5 12 6 13 7 14 8 6 9 5 10 4 11 3 12 2 13
REMARK SMILES IDX 1 14
REMARK H PARENT
REMARK Flexibility Score: inf
ROOT
ATOM      1  C   UNL     1     140.232 139.922 113.037  1.00  0.00     0.000 C 
ENDROOT
BRANCH   1   2
ATOM      2  C   UNL     1     139.431 140.456 114.236  1.00  0.00     0.000 C 
BRANCH   2   3
ATOM      3  C   UNL     1     140.132 140.204 115.581  1.00  0.00     0.000 C 
BRANCH   3   4
ATOM      4  C   UNL     1     139.404 140.867 116.765  1.00  0.00     0.006 C 
BRANCH   4   5
ATOM      5  C   UNL     1     140.310 141.718 117.669  1.00  0.00     0.053 C 
BRANCH   5   6
ATOM      6  C   UNL     1     140.845 140.934 118.828  1.00  0.00     0.041 C 
ATOM      7  O   UNL     1     141.902 140.261 118.704  1.00  0.00    -0.550 OA
ATOM      8  O   UNL     1     140.157 140.919 120.035  1.00  0.00    -0.550 OA
ENDBRANCH   5   6
ENDBRANCH   4   5
ENDBRANCH   3   4
ENDBRANCH   2   3
ENDBRANCH   1   2
BRANCH   1   9
ATOM      9  C   UNL     1     141.637 139.404 113.411  1.00  0.00     0.000 C 
BRANCH   9  10
ATOM     10  C   UNL     1     142.729 139.979 112.497  1.00  0.00    -0.000 C 
BRANCH  10  11
ATOM     11  C   UNL     1     143.157 141.376 112.961  1.00  0.00    -0.000 C 
BRANCH  11  12
ATOM     12  C   UNL     1     143.491 141.382 114.458  1.00  0.00    -0.000 C 
BRANCH  12  13
ATOM     13  C   UNL     1     142.922 142.630 115.143  1.00  0.00    -0.003 C 
ATOM     14  C   UNL     1     141.850 143.291 114.282  1.00  0.00     0.004 C 
ENDBRANCH  12  13
ENDBRANCH  11  12
ENDBRANCH  10  11
ENDBRANCH   9  10
ENDBRANCH   1   9
TORSDOF 10
ENDMDL
MODEL 5
REMARK VINA RESULT:    -4.527      1.617      3.039
REMARK INTER + INTRA:          -8.666
REMARK INTER:                  -7.293
REMARK INTRA:                  -1.373
REMARK UNBOUND:                -1.492
REMARK SMILES CCCCCCCCCCCC(=O)[O-]
REMARK SMILES IDX 7 1 8 2 9 3 10 4 11 5 12 6 13 7 14 8 6 9 5 10 4 11 3 12 2 13
REMARK SMILES IDX 1 14
REMARK H PARENT
REMARK Flexibility Score: inf
ROOT
ATOM      1  C   UNL     1     136.318 137.251 113.911  1.00  0.00     0.000 C 
ENDROOT
BRANCH   1   2
ATOM      2  C   UNL     1     136.250 136.805 115.382  1.00  0.00     0.000 C 
BRANCH   2   3
ATOM      3  C   UNL     1     134.813 136.538 115.858  1.00  0.00     0.000 C 
BRANCH   3   4
ATOM      4  C   UNL     1     134.750 135.542 117.031  1.00  0.00     0.006 C 
BRANCH   4   5
ATOM      5  C   UNL     1     134.977 136.175 118.412  1.00  0.00     0.053 C 
BRANCH   5   6
ATOM      6  C   UNL     1     136.253 135.709 119.043  1.00  0.00     0.041 C 
ATOM      7  O   UNL     1     136.434 135.844 120.282  1.00  0.00    -0.550 OA
ATOM      8  O   UNL     1     137.256 135.156 118.257  1.00  0.00    -0.550 OA
ENDBRANCH   5   6
ENDBRANCH   4   5
ENDBRANCH   3   4
ENDBRANCH   2   3
ENDBRANCH   1   2
BRANCH   1   9
ATOM      9  C   UNL     1     135.208 136.644 113.027  1.00  0.00     0.000 C 
BRANCH   9  10
ATOM     10  C   UNL     1     135.776 135.728 111.932  1.00  0.00    -0.000 C 
BRANCH  10  11
ATOM     11  C   UNL     1     135.358 134.271 112.161  1.00  0.00    -0.000 C 
BRANCH  11  12
ATOM     12  C   UNL     1     134.221 134.177 113.186  1.00  0.00    -0.000 C 
BRANCH  12  13
ATOM     13  C   UNL     1     134.529 133.123 114.255  1.00  0.00    -0.003 C 
ATOM     14  C   UNL     1     136.015 133.107 114.601  1.00  0.00     0.004 C 
ENDBRANCH  12  13
ENDBRANCH  11  12
ENDBRANCH  10  11
ENDBRANCH   9  10
ENDBRANCH   1   9
TORSDOF 10
ENDMDL
MODEL 6
REMARK VINA RESULT:    -4.520      7.277      8.939
REMARK INTER + INTRA:          -8.655
REMARK INTER:                  -7.187
REMARK INTRA:                  -1.467
REMARK UNBOUND:                -1.492
REMARK SMILES CCCCCCCCCCCC(=O)[O-]
REMARK SMILES IDX 7 1 8 2 9 3 10 4 11 5 12 6 13 7 14 8 6 9 5 10 4 11 3 12 2 13
REMARK SMILES IDX 1 14
REMARK H PARENT
REMARK Flexibility Score: inf
ROOT
ATOM      1  C   UNL     1     140.950 139.148 112.744  1.00  0.00     0.000 C 
ENDROOT
BRANCH   1   2
ATOM      2  C   UNL     1     139.904 139.006 113.862  1.00  0.00     0.000 C 
BRANCH   2   3
ATOM      3  C   UNL     1     140.284 139.779 115.135  1.00  0.00     0.000 C 
BRANCH   3   4
ATOM      4  C   UNL     1     139.509 141.102 115.282  1.00  0.00     0.006 C 
BRANCH   4   5
ATOM      5  C   UNL     1     140.193 142.140 116.184  1.00  0.00     0.053 C 
BRANCH   5   6
ATOM      6  C   UNL     1     140.195 141.722 117.623  1.00  0.00     0.041 C 
ATOM      7  O   UNL     1     139.123 141.369 118.182  1.00  0.00    -0.550 OA
ATOM      8  O   UNL     1     141.375 141.755 118.356  1.00  0.00    -0.550 OA
ENDBRANCH   5   6
ENDBRANCH   4   5
ENDBRANCH   3   4
ENDBRANCH   2   3
ENDBRANCH   1   2
BRANCH   1   9
ATOM      9  C   UNL     1     140.482 140.028 111.565  1.00  0.00     0.000 C 
BRANCH   9  10
ATOM     10  C   UNL     1     140.999 141.470 111.678  1.00  0.00    -0.000 C 
BRANCH  10  11
ATOM     11  C   UNL     1     142.479 141.496 112.078  1.00  0.00    -0.000 C 
BRANCH  11  12
ATOM     12  C   UNL     1     142.692 142.325 113.350  1.00  0.00    -0.000 C 
BRANCH  12  13
ATOM     13  C   UNL     1     143.360 141.488 114.447  1.00  0.00    -0.003 C 
ATOM     14  C   UNL     1     144.481 140.625 113.875  1.00  0.00     0.004 C 
ENDBRANCH  12  13
ENDBRANCH  11  12
ENDBRANCH  10  11
ENDBRANCH   9  10
ENDBRANCH   1   9
TORSDOF 10
ENDMDL
MODEL 7
REMARK VINA RESULT:    -4.515      1.264      2.644
REMARK INTER + INTRA:          -8.646
REMARK INTER:                  -7.074
REMARK INTRA:                  -1.572
REMARK UNBOUND:                -1.492
REMARK SMILES CCCCCCCCCCCC(=O)[O-]
REMARK SMILES IDX 7 1 8 2 9 3 10 4 11 5 12 6 13 7 14 8 6 9 5 10 4 11 3 12 2 13
REMARK SMILES IDX 1 14
REMARK H PARENT
REMARK Flexibility Score: inf
ROOT
ATOM      1  C   UNL     1     135.770 136.562 112.448  1.00  0.00     0.000 C 
ENDROOT
BRANCH   1   2
ATOM      2  C   UNL     1     136.913 136.377 113.460  1.00  0.00     0.000 C 
BRANCH   2   3
ATOM      3  C   UNL     1     136.626 137.045 114.813  1.00  0.00     0.000 C 
BRANCH   3   4
ATOM      4  C   UNL     1     136.464 136.027 115.958  1.00  0.00     0.006 C 
BRANCH   4   5
ATOM      5  C   UNL     1     135.179 136.198 116.782  1.00  0.00     0.053 C 
BRANCH   5   6
ATOM      6  C   UNL     1     135.228 135.432 118.068  1.00  0.00     0.041 C 
ATOM      7  O   UNL     1     135.698 134.264 118.092  1.00  0.00    -0.550 OA
ATOM      8  O   UNL     1     134.722 135.996 119.233  1.00  0.00    -0.550 OA
ENDBRANCH   5   6
ENDBRANCH   4   5
ENDBRANCH   3   4
ENDBRANCH   2   3
ENDBRANCH   1   2
BRANCH   1   9
ATOM      9  C   UNL     1     134.570 137.356 113.007  1.00  0.00     0.000 C 
BRANCH   9  10
ATOM     10  C   UNL     1     133.232 136.648 112.741  1.00  0.00    -0.000 C 
BRANCH  10  11
ATOM     11  C   UNL     1     132.858 135.722 113.904  1.00  0.00    -0.000 C 
BRANCH  11  12
ATOM     12  C   UNL     1     133.185 134.261 113.572  1.00  0.00    -0.000 C 
BRANCH  12  13
ATOM     13  C   UNL     1     133.863 133.565 114.759  1.00  0.00    -0.003 C 
ATOM     14  C   UNL     1     135.248 133.052 114.378  1.00  0.00     0.004 C 
ENDBRANCH  12  13
ENDBRANCH  11  12
ENDBRANCH  10  11
ENDBRANCH   9  10
ENDBRANCH   1   9
TORSDOF 10
ENDMDL
MODEL 8
REMARK VINA RESULT:    -4.473      1.510      2.613
REMARK INTER + INTRA:          -8.580
REMARK INTER:                  -7.361
REMARK INTRA:                  -1.219
REMARK UNBOUND:                -1.492
REMARK SMILES CCCCCCCCCCCC(=O)[O-]
REMARK SMILES IDX 7 1 8 2 9 3 10 4 11 5 12 6 13 7 14 8 6 9 5 10 4 11 3 12 2 13
REMARK SMILES IDX 1 14
REMARK H PARENT
REMARK Flexibility Score: inf
ROOT
ATOM      1  C   UNL     1     133.492 134.673 114.679  1.00  0.00     0.000 C 
ENDROOT
BRANCH   1   2
ATOM      2  C   UNL     1     134.218 133.318 114.632  1.00  0.00     0.000 C 
BRANCH   2   3
ATOM      3  C   UNL     1     135.716 133.456 114.315  1.00  0.00     0.000 C 
BRANCH   3   4
ATOM      4  C   UNL     1     136.601 133.384 115.573  1.00  0.00     0.006 C 
BRANCH   4   5
ATOM      5  C   UNL     1     136.825 134.736 116.267  1.00  0.00     0.053 C 
BRANCH   5   6
ATOM      6  C   UNL     1     136.327 134.734 117.680  1.00  0.00     0.041 C 
ATOM      7  O   UNL     1     135.212 134.219 117.958  1.00  0.00    -0.550 OA
ATOM      8  O   UNL     1     137.078 135.332 118.684  1.00  0.00    -0.550 OA
ENDBRANCH   5   6
ENDBRANCH   4   5
ENDBRANCH   3   4
ENDBRANCH   2   3
ENDBRANCH   1   2
BRANCH   1   9
ATOM      9  C   UNL     1     132.853 135.081 113.334  1.00  0.00     0.000 C 
BRANCH   9  10
ATOM     10  C   UNL     1     133.430 136.399 112.796  1.00  0.00    -0.000 C 
BRANCH  10  11
ATOM     11  C   UNL     1     134.629 136.859 113.633  1.00  0.00    -0.000 C 
BRANCH  11  12
ATOM     12  C   UNL     1     135.805 137.264 112.735  1.00  0.00    -0.000 C 
BRANCH  12  13
ATOM     13  C   UNL     1     137.140 136.819 113.344  1.00  0.00    -0.003 C 
ATOM     14  C   UNL     1     137.756 137.930 114.190  1.00  0.00     0.004 C 
ENDBRANCH  12  13
ENDBRANCH  11  12
ENDBRANCH  10  11
ENDBRANCH   9  10
ENDBRANCH   1   9
TORSDOF 10
ENDMDL
MODEL 9
REMARK VINA RESULT:    -4.431      7.756      9.844
REMARK INTER + INTRA:          -8.514
REMARK INTER:                  -7.158
REMARK INTRA:                  -1.356
REMARK UNBOUND:                -1.492
REMARK SMILES CCCCCCCCCCCC(=O)[O-]
REMARK SMILES IDX 7 1 8 2 9 3 10 4 11 5 12 6 13 7 14 8 6 9 5 10 4 11 3 12 2 13
REMARK SMILES IDX 1 14
REMARK H PARENT
REMARK Flexibility Score: inf
ROOT
ATOM      1  C   UNL     1     142.882 142.730 115.170  1.00  0.00     0.000 C 
ENDROOT
BRANCH   1   2
ATOM      2  C   UNL     1     143.059 141.236 114.852  1.00  0.00     0.000 C 
BRANCH   2   3
ATOM      3  C   UNL     1     143.853 140.992 113.559  1.00  0.00     0.000 C 
BRANCH   3   4
ATOM      4  C   UNL     1     143.221 139.907 112.668  1.00  0.00     0.006 C 
BRANCH   4   5
ATOM      5  C   UNL     1     141.929 139.296 113.233  1.00  0.00     0.053 C 
BRANCH   5   6
ATOM      6  C   UNL     1     140.747 139.564 112.352  1.00  0.00     0.041 C 
ATOM      7  O   UNL     1     139.666 138.945 112.537  1.00  0.00    -0.550 OA
ATOM      8  O   UNL     1     140.850 140.473 111.306  1.00  0.00    -0.550 OA
ENDBRANCH   5   6
ENDBRANCH   4   5
ENDBRANCH   3   4
ENDBRANCH   2   3
ENDBRANCH   1   2
BRANCH   1   9
ATOM      9  C   UNL     1     141.867 143.444 114.252  1.00  0.00     0.000 C 
BRANCH   9  10
ATOM     10  C   UNL     1     140.538 142.680 114.153  1.00  0.00    -0.000 C 
BRANCH  10  11
ATOM     11  C   UNL     1     139.868 142.560 115.527  1.00  0.00    -0.000 C 
BRANCH  11  12
ATOM     12  C   UNL     1     139.530 141.100 115.849  1.00  0.00    -0.000 C 
BRANCH  12  13
ATOM     13  C   UNL     1     139.955 140.740 117.278  1.00  0.00    -0.003 C 
ATOM     14  C   UNL     1     140.603 141.932 117.976  1.00  0.00     0.004 C 
ENDBRANCH  12  13
ENDBRANCH  11  12
ENDBRANCH  10  11
ENDBRANCH   9  10
ENDBRANCH   1   9
TORSDOF 10
ENDMDL
