MODEL 1
REMARK VINA RESULT:    -3.092      0.000      0.000
REMARK INTER + INTRA:          -7.508
REMARK INTER:                  -5.984
REMARK INTRA:                  -1.523
REMARK UNBOUND:                -1.523
REMARK SMILES CCCCCCCCCCCCCCCCCC(=O)[O-]
REMARK SMILES IDX 10 1 11 2 12 3 13 4 14 5 15 6 16 7 17 8 18 9 19 10 20 11
REMARK SMILES IDX 9 12 8 13 7 14 6 15 5 16 4 17 3 18 2 19 1 20
REMARK H PARENT
REMARK Flexibility Score: inf
ROOT
ATOM      1  C   UNL     1      15.577  16.002   7.213  1.00  0.00     0.000 C 
ENDROOT
BRANCH   1   2
ATOM      2  C   UNL     1      15.436  16.836   8.501  1.00  0.00     0.000 C 
BRANCH   2   3
ATOM      3  C   UNL     1      16.613  16.643   9.468  1.00  0.00     0.000 C 
BRANCH   3   4
ATOM      4  C   UNL     1      16.496  17.591  10.668  1.00  0.00     0.000 C 
BRANCH   4   5
ATOM      5  C   UNL     1      15.399  18.637  10.440  1.00  0.00     0.000 C 
BRANCH   5   6
ATOM      6  C   UNL     1      16.005  20.004  10.096  1.00  0.00     0.000 C 
BRANCH   6   7
ATOM      7  C   UNL     1      15.783  21.008  11.237  1.00  0.00     0.006 C 
BRANCH   7   8
ATOM      8  C   UNL     1      14.909  20.429  12.359  1.00  0.00     0.053 C 
BRANCH   8   9
ATOM      9  C   UNL     1      13.511  20.964  12.305  1.00  0.00     0.041 C 
ATOM     10  O   UNL     1      12.587  20.385  12.932  1.00  0.00    -0.550 OA
ATOM     11  O   UNL     1      13.238  22.125  11.593  1.00  0.00    -0.550 OA
ENDBRANCH   8   9
ENDBRANCH   7   8
ENDBRANCH   6   7
ENDBRANCH   5   6
ENDBRANCH   4   5
ENDBRANCH   3   4
ENDBRANCH   2   3
ENDBRANCH   1   2
BRANCH   1  12
ATOM     12  C   UNL     1      16.203  14.607   7.408  1.00  0.00     0.000 C 
BRANCH  12  13
ATOM     13  C   UNL     1      15.264  13.418   7.119  1.00  0.00    -0.000 C 
BRANCH  13  14
ATOM     14  C   UNL     1      14.224  13.123   8.215  1.00  0.00    -0.000 C 
BRANCH  14  15
ATOM     15  C   UNL     1      14.812  13.195   9.633  1.00  0.00    -0.000 C 
BRANCH  15  16
ATOM     16  C   UNL     1      14.001  12.386  10.658  1.00  0.00    -0.000 C 
BRANCH  16  17
ATOM     17  C   UNL     1      14.655  12.324  12.054  1.00  0.00    -0.000 C 
BRANCH  17  18
ATOM     18  C   UNL     1      14.186  13.474  12.962  1.00  0.00    -0.000 C 
BRANCH  18  19
ATOM     19  C   UNL     1      15.203  14.623  13.027  1.00  0.00    -0.003 C 
ATOM     20  C   UNL     1      16.630  14.160  12.727  1.00  0.00     0.004 C 
ENDBRANCH  18  19
ENDBRANCH  17  18
ENDBRANCH  16  17
ENDBRANCH  15  16
ENDBRANCH  14  15
ENDBRANCH  13  14
ENDBRANCH  12  13
ENDBRANCH   1  12
TORSDOF 16
ENDMDL
MODEL 2
REMARK VINA RESULT:    -2.983      3.426      7.258
REMARK INTER + INTRA:          -7.296
REMARK INTER:                  -6.058
REMARK INTRA:                  -1.238
REMARK UNBOUND:                -1.523
REMARK SMILES CCCCCCCCCCCCCCCCCC(=O)[O-]
REMARK SMILES IDX 10 1 11 2 12 3 13 4 14 5 15 6 16 7 17 8 18 9 19 10 20 11
REMARK SMILES IDX 9 12 8 13 7 14 6 15 5 16 4 17 3 18 2 19 1 20
REMARK H PARENT
REMARK Flexibility Score: inf
ROOT
ATOM      1  C   UNL     1      15.801  16.163   8.959  1.00  0.00     0.000 C 
ENDROOT
BRANCH   1   2
ATOM      2  C   UNL     1      16.406  16.016  10.367  1.00  0.00     0.000 C 
BRANCH   2   3
ATOM      3  C   UNL     1      17.101  14.663  10.579  1.00  0.00     0.000 C 
BRANCH   3   4
ATOM      4  C   UNL     1      16.629  14.004  11.882  1.00  0.00     0.000 C 
BRANCH   4   5
ATOM      5  C   UNL     1      15.176  13.527  11.764  1.00  0.00     0.000 C 
BRANCH   5   6
ATOM      6  C   UNL     1      15.110  12.098  11.212  1.00  0.00     0.000 C 
BRANCH   6   7
ATOM      7  C   UNL     1      14.118  12.004  10.043  1.00  0.00     0.006 C 
BRANCH   7   8
ATOM      8  C   UNL     1      14.157  13.249   9.147  1.00  0.00     0.053 C 
BRANCH   8   9
ATOM      9  C   UNL     1      14.211  12.886   7.694  1.00  0.00     0.041 C 
ATOM     10  O   UNL     1      13.205  12.382   7.130  1.00  0.00    -0.550 OA
ATOM     11  O   UNL     1      15.359  13.141   6.956  1.00  0.00    -0.550 OA
ENDBRANCH   8   9
ENDBRANCH   7   8
ENDBRANCH   6   7
ENDBRANCH   5   6
ENDBRANCH   4   5
ENDBRANCH   3   4
ENDBRANCH   2   3
ENDBRANCH   1   2
BRANCH   1  12
ATOM     12  C   UNL     1      15.856  17.587   8.373  1.00  0.00     0.000 C 
BRANCH  12  13
ATOM     13  C   UNL     1      17.106  18.407   8.752  1.00  0.00    -0.000 C 
BRANCH  13  14
ATOM     14  C   UNL     1      16.849  19.895   9.046  1.00  0.00    -0.000 C 
BRANCH  14  15
ATOM     15  C   UNL     1      16.882  20.223  10.547  1.00  0.00    -0.000 C 
BRANCH  15  16
ATOM     16  C   UNL     1      16.263  21.592  10.873  1.00  0.00    -0.000 C 
BRANCH  16  17
ATOM     17  C   UNL     1      15.780  21.721  12.333  1.00  0.00    -0.000 C 
BRANCH  17  18
ATOM     18  C   UNL     1      14.297  22.120  12.416  1.00  0.00    -0.000 C 
BRANCH  18  19
ATOM     19  C   UNL     1      13.387  21.169  11.624  1.00  0.00    -0.003 C 
ATOM     20  C   UNL     1      13.369  19.755  12.208  1.00  0.00     0.004 C 
ENDBRANCH  18  19
ENDBRANCH  17  18
ENDBRANCH  16  17
ENDBRANCH  15  16
ENDBRANCH  14  15
ENDBRANCH  13  14
ENDBRANCH  12  13
ENDBRANCH   1  12
TORSDOF 16
ENDMDL
MODEL 3
REMARK VINA RESULT:    -2.822      3.344      7.046
REMARK INTER + INTRA:          -6.986
REMARK INTER:                  -5.708
REMARK INTRA:                  -1.278
REMARK UNBOUND:                -1.523
REMARK SMILES CCCCCCCCCCCCCCCCCC(=O)[O-]
REMARK SMILES IDX 10 1 11 2 12 3 13 4 14 5 15 6 16 7 17 8 18 9 19 10 20 11
REMARK SMILES IDX 9 12 8 13 7 14 6 15 5 16 4 17 3 18 2 19 1 20
REMARK H PARENT
REMARK Flexibility Score: inf
ROOT
ATOM      1  C   UNL     1      15.146  16.907   8.566  1.00  0.00     0.000 C 
ENDROOT
BRANCH   1   2
ATOM      2  C   UNL     1      16.141  16.125   7.688  1.00  0.00     0.000 C 
BRANCH   2   3
ATOM      3  C   UNL     1      15.515  14.879   7.044  1.00  0.00     0.000 C 
BRANCH   3   4
ATOM      4  C   UNL     1      15.774  13.633   7.900  1.00  0.00     0.000 C 
BRANCH   4   5
ATOM      5  C   UNL     1      17.029  13.807   8.764  1.00  0.00     0.000 C 
BRANCH   5   6
ATOM      6  C   UNL     1      16.811  13.241  10.172  1.00  0.00     0.000 C 
BRANCH   6   7
ATOM      7  C   UNL     1      15.874  14.142  10.990  1.00  0.00     0.006 C 
BRANCH   7   8
ATOM      8  C   UNL     1      14.719  13.356  11.624  1.00  0.00     0.053 C 
BRANCH   8   9
ATOM      9  C   UNL     1      14.601  11.979  11.046  1.00  0.00     0.041 C 
ATOM     10  O   UNL     1      13.848  11.768  10.060  1.00  0.00    -0.550 OA
ATOM     11  O   UNL     1      15.353  10.937  11.573  1.00  0.00    -0.550 OA
ENDBRANCH   8   9
ENDBRANCH   7   8
ENDBRANCH   6   7
ENDBRANCH   5   6
ENDBRANCH   4   5
ENDBRANCH   3   4
ENDBRANCH   2   3
ENDBRANCH   1   2
BRANCH   1  12
ATOM     12  C   UNL     1      15.784  17.688   9.733  1.00  0.00     0.000 C 
BRANCH  12  13
ATOM     13  C   UNL     1      17.096  18.423   9.393  1.00  0.00    -0.000 C 
BRANCH  13  14
ATOM     14  C   UNL     1      16.923  19.848   8.838  1.00  0.00    -0.000 C 
BRANCH  14  15
ATOM     15  C   UNL     1      16.924  20.923   9.937  1.00  0.00    -0.000 C 
BRANCH  15  16
ATOM     16  C   UNL     1      16.850  20.329  11.353  1.00  0.00    -0.000 C 
BRANCH  16  17
ATOM     17  C   UNL     1      15.978  21.153  12.324  1.00  0.00    -0.000 C 
BRANCH  17  18
ATOM     18  C   UNL     1      14.881  21.940  11.586  1.00  0.00    -0.000 C 
BRANCH  18  19
ATOM     19  C   UNL     1      13.477  21.369  11.840  1.00  0.00    -0.003 C 
ATOM     20  C   UNL     1      13.483  19.847  11.991  1.00  0.00     0.004 C 
ENDBRANCH  18  19
ENDBRANCH  17  18
ENDBRANCH  16  17
ENDBRANCH  15  16
ENDBRANCH  14  15
ENDBRANCH  13  14
ENDBRANCH  12  13
ENDBRANCH   1  12
TORSDOF 16
ENDMDL
MODEL 4
REMARK VINA RESULT:    -2.768      1.449      2.473
REMARK INTER + INTRA:          -6.881
REMARK INTER:                  -5.318
REMARK INTRA:                  -1.563
REMARK UNBOUND:                -1.523
REMARK SMILES CCCCCCCCCCCCCCCCCC(=O)[O-]
REMARK SMILES IDX 10 1 11 2 12 3 13 4 14 5 15 6 16 7 17 8 18 9 19 10 20 11
REMARK SMILES IDX 9 12 8 13 7 14 6 15 5 16 4 17 3 18 2 19 1 20
REMARK H PARENT
REMARK Flexibility Score: inf
ROOT
ATOM      1  C   UNL     1      15.292  14.214   8.486  1.00  0.00     0.000 C 
ENDROOT
BRANCH   1   2
ATOM      2  C   UNL     1      15.615  15.073   7.249  1.00  0.00     0.000 C 
BRANCH   2   3
ATOM      3  C   UNL     1      16.253  16.423   7.609  1.00  0.00     0.000 C 
BRANCH   3   4
ATOM      4  C   UNL     1      15.350  17.217   8.561  1.00  0.00     0.000 C 
BRANCH   4   5
ATOM      5  C   UNL     1      16.030  18.517   9.010  1.00  0.00     0.000 C 
BRANCH   5   6
ATOM      6  C   UNL     1      15.772  18.786  10.498  1.00  0.00     0.000 C 
BRANCH   6   7
ATOM      7  C   UNL     1      15.940  20.277  10.826  1.00  0.00     0.006 C 
BRANCH   7   8
ATOM      8  C   UNL     1      15.219  20.671  12.122  1.00  0.00     0.053 C 
BRANCH   8   9
ATOM      9  C   UNL     1      13.730  20.614  11.969  1.00  0.00     0.041 C 
ATOM     10  O   UNL     1      13.108  19.549  12.222  1.00  0.00    -0.550 OA
ATOM     11  O   UNL     1      13.026  21.747  11.584  1.00  0.00    -0.550 OA
ENDBRANCH   8   9
ENDBRANCH   7   8
ENDBRANCH   6   7
ENDBRANCH   5   6
ENDBRANCH   4   5
ENDBRANCH   3   4
ENDBRANCH   2   3
ENDBRANCH   1   2
BRANCH   1  12
ATOM     12  C   UNL     1      16.511  13.540   9.145  1.00  0.00     0.000 C 
BRANCH  12  13
ATOM     13  C   UNL     1      17.125  14.306  10.334  1.00  0.00    -0.000 C 
BRANCH  13  14
ATOM     14  C   UNL     1      16.108  14.943  11.297  1.00  0.00    -0.000 C 
BRANCH  14  15
ATOM     15  C   UNL     1      15.926  14.139  12.594  1.00  0.00    -0.000 C 
BRANCH  15  16
ATOM     16  C   UNL     1      14.521  13.530  12.726  1.00  0.00    -0.000 C 
BRANCH  16  17
ATOM     17  C   UNL     1      14.523  11.993  12.872  1.00  0.00    -0.000 C 
BRANCH  17  18
ATOM     18  C   UNL     1      15.225  11.305  11.688  1.00  0.00    -0.000 C 
BRANCH  18  19
ATOM     19  C   UNL     1      16.665  10.887  12.021  1.00  0.00    -0.003 C 
ATOM     20  C   UNL     1      16.728   9.830  13.125  1.00  0.00     0.004 C 
ENDBRANCH  18  19
ENDBRANCH  17  18
ENDBRANCH  16  17
ENDBRANCH  15  16
ENDBRANCH  14  15
ENDBRANCH  13  14
ENDBRANCH  12  13
ENDBRANCH   1  12
TORSDOF 16
ENDMDL
MODEL 5
REMARK VINA RESULT:    -2.583      1.249      3.003
REMARK INTER + INTRA:          -6.522
REMARK INTER:                  -4.640
REMARK INTRA:                  -1.882
REMARK UNBOUND:                -1.523
REMARK SMILES CCCCCCCCCCCCCCCCCC(=O)[O-]
REMARK SMILES IDX 10 1 11 2 12 3 13 4 14 5 15 6 16 7 17 8 18 9 19 10 20 11
REMARK SMILES IDX 9 12 8 13 7 14 6 15 5 16 4 17 3 18 2 19 1 20
REMARK H PARENT
REMARK Flexibility Score: inf
ROOT
ATOM      1  C   UNL     1      14.032  13.287   7.906  1.00  0.00     0.000 C 
ENDROOT
BRANCH   1   2
ATOM      2  C   UNL     1      15.351  13.164   7.119  1.00  0.00     0.000 C 
BRANCH   2   3
ATOM      3  C   UNL     1      16.444  14.110   7.637  1.00  0.00     0.000 C 
BRANCH   3   4
ATOM      4  C   UNL     1      15.892  15.041   8.723  1.00  0.00     0.000 C 
BRANCH   4   5
ATOM      5  C   UNL     1      15.960  16.508   8.279  1.00  0.00     0.000 C 
BRANCH   5   6
ATOM      6  C   UNL     1      17.069  17.258   9.028  1.00  0.00     0.000 C 
BRANCH   6   7
ATOM      7  C   UNL     1      16.540  17.859  10.338  1.00  0.00     0.006 C 
BRANCH   7   8
ATOM      8  C   UNL     1      15.609  19.055  10.095  1.00  0.00     0.053 C 
BRANCH   8   9
ATOM      9  C   UNL     1      15.030  19.576  11.375  1.00  0.00     0.041 C 
ATOM     10  O   UNL     1      15.550  19.267  12.478  1.00  0.00    -0.550 OA
ATOM     11  O   UNL     1      13.939  20.435  11.345  1.00  0.00    -0.550 OA
ENDBRANCH   8   9
ENDBRANCH   7   8
ENDBRANCH   6   7
ENDBRANCH   5   6
ENDBRANCH   4   5
ENDBRANCH   3   4
ENDBRANCH   2   3
ENDBRANCH   1   2
BRANCH   1  12
ATOM     12  C   UNL     1      13.743  12.124   8.876  1.00  0.00     0.000 C 
BRANCH  12  13
ATOM     13  C   UNL     1      14.529  12.163  10.202  1.00  0.00    -0.000 C 
BRANCH  13  14
ATOM     14  C   UNL     1      13.754  12.728  11.406  1.00  0.00    -0.000 C 
BRANCH  14  15
ATOM     15  C   UNL     1      14.423  12.407  12.752  1.00  0.00    -0.000 C 
BRANCH  15  16
ATOM     16  C   UNL     1      15.779  11.700  12.592  1.00  0.00    -0.000 C 
BRANCH  16  17
ATOM     17  C   UNL     1      16.982  12.569  13.016  1.00  0.00    -0.000 C 
BRANCH  17  18
ATOM     18  C   UNL     1      17.100  13.845  12.165  1.00  0.00    -0.000 C 
BRANCH  18  19
ATOM     19  C   UNL     1      17.083  15.123  13.016  1.00  0.00    -0.003 C 
ATOM     20  C   UNL     1      15.687  15.739  13.119  1.00  0.00     0.004 C 
ENDBRANCH  18  19
ENDBRANCH  17  18
ENDBRANCH  16  17
ENDBRANCH  15  16
ENDBRANCH  14  15
ENDBRANCH  13  14
ENDBRANCH  12  13
ENDBRANCH   1  12
TORSDOF 16
ENDMDL
MODEL 6
REMARK VINA RESULT:    -2.510      3.679      6.717
REMARK INTER + INTRA:          -6.381
REMARK INTER:                  -4.900
REMARK INTRA:                  -1.482
REMARK UNBOUND:                -1.523
REMARK SMILES CCCCCCCCCCCCCCCCCC(=O)[O-]
REMARK SMILES IDX 10 1 11 2 12 3 13 4 14 5 15 6 16 7 17 8 18 9 19 10 20 11
REMARK SMILES IDX 9 12 8 13 7 14 6 15 5 16 4 17 3 18 2 19 1 20
REMARK H PARENT
REMARK Flexibility Score: inf
ROOT
ATOM      1  C   UNL     1      14.958  14.726   7.162  1.00  0.00     0.000 C 
ENDROOT
BRANCH   1   2
ATOM      2  C   UNL     1      15.729  13.518   7.726  1.00  0.00     0.000 C 
BRANCH   2   3
ATOM      3  C   UNL     1      17.076  13.910   8.352  1.00  0.00     0.000 C 
BRANCH   3   4
ATOM      4  C   UNL     1      17.086  13.613   9.856  1.00  0.00     0.000 C 
BRANCH   4   5
ATOM      5  C   UNL     1      16.092  14.510  10.603  1.00  0.00     0.000 C 
BRANCH   5   6
ATOM      6  C   UNL     1      16.021  14.134  12.089  1.00  0.00     0.000 C 
BRANCH   6   7
ATOM      7  C   UNL     1      17.017  13.014  12.422  1.00  0.00     0.006 C 
BRANCH   7   8
ATOM      8  C   UNL     1      16.331  11.794  13.051  1.00  0.00     0.053 C 
BRANCH   8   9
ATOM      9  C   UNL     1      16.038  10.735  12.032  1.00  0.00     0.041 C 
ATOM     10  O   UNL     1      16.690   9.659  12.032  1.00  0.00    -0.550 OA
ATOM     11  O   UNL     1      15.019  10.923  11.107  1.00  0.00    -0.550 OA
ENDBRANCH   8   9
ENDBRANCH   7   8
ENDBRANCH   6   7
ENDBRANCH   5   6
ENDBRANCH   4   5
ENDBRANCH   3   4
ENDBRANCH   2   3
ENDBRANCH   1   2
BRANCH   1  12
ATOM     12  C   UNL     1      15.725  16.063   7.201  1.00  0.00     0.000 C 
BRANCH  12  13
ATOM     13  C   UNL     1      15.357  16.999   8.370  1.00  0.00    -0.000 C 
BRANCH  13  14
ATOM     14  C   UNL     1      16.460  17.987   8.790  1.00  0.00    -0.000 C 
BRANCH  14  15
ATOM     15  C   UNL     1      16.585  18.131  10.315  1.00  0.00    -0.000 C 
BRANCH  15  16
ATOM     16  C   UNL     1      15.277  18.587  10.981  1.00  0.00    -0.000 C 
BRANCH  16  17
ATOM     17  C   UNL     1      15.352  18.635  12.522  1.00  0.00    -0.000 C 
BRANCH  17  18
ATOM     18  C   UNL     1      14.260  19.536  13.124  1.00  0.00    -0.000 C 
BRANCH  18  19
ATOM     19  C   UNL     1      13.319  20.113  12.055  1.00  0.00    -0.003 C 
ATOM     20  C   UNL     1      13.667  21.556  11.686  1.00  0.00     0.004 C 
ENDBRANCH  18  19
ENDBRANCH  17  18
ENDBRANCH  16  17
ENDBRANCH  15  16
ENDBRANCH  14  15
ENDBRANCH  13  14
ENDBRANCH  12  13
ENDBRANCH   1  12
TORSDOF 16
ENDMDL
MODEL 7
REMARK VINA RESULT:    -2.477      1.259      2.191
REMARK INTER + INTRA:          -6.318
REMARK INTER:                  -4.758
REMARK INTRA:                  -1.560
REMARK UNBOUND:                -1.523
REMARK SMILES CCCCCCCCCCCCCCCCCC(=O)[O-]
REMARK SMILES IDX 10 1 11 2 12 3 13 4 14 5 15 6 16 7 17 8 18 9 19 10 20 11
REMARK SMILES IDX 9 12 8 13 7 14 6 15 5 16 4 17 3 18 2 19 1 20
REMARK H PARENT
REMARK Flexibility Score: inf
ROOT
ATOM      1  C   UNL     1      15.066  14.492   7.253  1.00  0.00     0.000 C 
ENDROOT
BRANCH   1   2
ATOM      2  C   UNL     1      14.971  15.669   8.242  1.00  0.00     0.000 C 
BRANCH   2   3
ATOM      3  C   UNL     1      15.856  16.858   7.841  1.00  0.00     0.000 C 
BRANCH   3   4
ATOM      4  C   UNL     1      17.052  16.995   8.792  1.00  0.00     0.000 C 
BRANCH   4   5
ATOM      5  C   UNL     1      16.629  17.628  10.123  1.00  0.00     0.000 C 
BRANCH   5   6
ATOM      6  C   UNL     1      15.689  18.818   9.892  1.00  0.00     0.000 C 
BRANCH   6   7
ATOM      7  C   UNL     1      15.618  19.715  11.137  1.00  0.00     0.006 C 
BRANCH   7   8
ATOM      8  C   UNL     1      14.173  20.024  11.548  1.00  0.00     0.053 C 
BRANCH   8   9
ATOM      9  C   UNL     1      13.999  21.464  11.924  1.00  0.00     0.041 C 
ATOM     10  O   UNL     1      12.934  22.070  11.636  1.00  0.00    -0.550 OA
ATOM     11  O   UNL     1      14.998  22.125  12.626  1.00  0.00    -0.550 OA
ENDBRANCH   8   9
ENDBRANCH   7   8
ENDBRANCH   6   7
ENDBRANCH   5   6
ENDBRANCH   4   5
ENDBRANCH   3   4
ENDBRANCH   2   3
ENDBRANCH   1   2
BRANCH   1  12
ATOM     12  C   UNL     1      15.695  13.208   7.830  1.00  0.00     0.000 C 
BRANCH  12  13
ATOM     13  C   UNL     1      17.063  13.398   8.518  1.00  0.00    -0.000 C 
BRANCH  13  14
ATOM     14  C   UNL     1      17.124  12.948   9.988  1.00  0.00    -0.000 C 
BRANCH  14  15
ATOM     15  C   UNL     1      16.776  14.074  10.974  1.00  0.00    -0.000 C 
BRANCH  15  16
ATOM     16  C   UNL     1      16.764  13.605  12.438  1.00  0.00    -0.000 C 
BRANCH  16  17
ATOM     17  C   UNL     1      16.585  12.079  12.596  1.00  0.00    -0.000 C 
BRANCH  17  18
ATOM     18  C   UNL     1      15.132  11.702  12.930  1.00  0.00    -0.000 C 
BRANCH  18  19
ATOM     19  C   UNL     1      14.113  12.634  12.256  1.00  0.00    -0.003 C 
ATOM     20  C   UNL     1      13.721  12.157  10.856  1.00  0.00     0.004 C 
ENDBRANCH  18  19
ENDBRANCH  17  18
ENDBRANCH  16  17
ENDBRANCH  15  16
ENDBRANCH  14  15
ENDBRANCH  13  14
ENDBRANCH  12  13
ENDBRANCH   1  12
TORSDOF 16
ENDMDL
MODEL 8
REMARK VINA RESULT:    -2.443      3.049      7.338
REMARK INTER + INTRA:          -6.251
REMARK INTER:                  -5.112
REMARK INTRA:                  -1.139
REMARK UNBOUND:                -1.523
REMARK SMILES CCCCCCCCCCCCCCCCCC(=O)[O-]
REMARK SMILES IDX 10 1 11 2 12 3 13 4 14 5 15 6 16 7 17 8 18 9 19 10 20 11
REMARK SMILES IDX 9 12 8 13 7 14 6 15 5 16 4 17 3 18 2 19 1 20
REMARK H PARENT
REMARK Flexibility Score: inf
ROOT
ATOM      1  C   UNL     1      16.043  14.965  11.161  1.00  0.00     0.000 C 
ENDROOT
BRANCH   1   2
ATOM      2  C   UNL     1      16.116  14.251  12.524  1.00  0.00     0.000 C 
BRANCH   2   3
ATOM      3  C   UNL     1      14.731  13.971  13.125  1.00  0.00     0.000 C 
BRANCH   3   4
ATOM      4  C   UNL     1      13.991  12.897  12.318  1.00  0.00     0.000 C 
BRANCH   4   5
ATOM      5  C   UNL     1      14.952  11.795  11.855  1.00  0.00     0.000 C 
BRANCH   5   6
ATOM      6  C   UNL     1      15.002  11.716  10.324  1.00  0.00     0.000 C 
BRANCH   6   7
ATOM      7  C   UNL     1      14.119  12.800   9.688  1.00  0.00     0.006 C 
BRANCH   7   8
ATOM      8  C   UNL     1      14.154  12.752   8.155  1.00  0.00     0.053 C 
BRANCH   8   9
ATOM      9  C   UNL     1      15.262  13.592   7.598  1.00  0.00     0.041 C 
ATOM     10  O   UNL     1      16.329  13.054   7.202  1.00  0.00    -0.550 OA
ATOM     11  O   UNL     1      15.100  14.967   7.480  1.00  0.00    -0.550 OA
ENDBRANCH   8   9
ENDBRANCH   7   8
ENDBRANCH   6   7
ENDBRANCH   5   6
ENDBRANCH   4   5
ENDBRANCH   3   4
ENDBRANCH   2   3
ENDBRANCH   1   2
BRANCH   1  12
ATOM     12  C   UNL     1      17.109  16.056  10.941  1.00  0.00     0.000 C 
BRANCH  12  13
ATOM     13  C   UNL     1      17.004  17.277  11.877  1.00  0.00    -0.000 C 
BRANCH  13  14
ATOM     14  C   UNL     1      15.873  18.265  11.541  1.00  0.00    -0.000 C 
BRANCH  14  15
ATOM     15  C   UNL     1      16.142  19.070  10.261  1.00  0.00    -0.000 C 
BRANCH  15  16
ATOM     16  C   UNL     1      15.980  20.586  10.464  1.00  0.00    -0.000 C 
BRANCH  16  17
ATOM     17  C   UNL     1      16.143  21.034  11.932  1.00  0.00    -0.000 C 
BRANCH  17  18
ATOM     18  C   UNL     1      15.035  22.010  12.362  1.00  0.00    -0.000 C 
BRANCH  18  19
ATOM     19  C   UNL     1      13.661  21.631  11.787  1.00  0.00    -0.003 C 
ATOM     20  C   UNL     1      13.035  20.437  12.509  1.00  0.00     0.004 C 
ENDBRANCH  18  19
ENDBRANCH  17  18
ENDBRANCH  16  17
ENDBRANCH  15  16
ENDBRANCH  14  15
ENDBRANCH  13  14
ENDBRANCH  12  13
ENDBRANCH   1  12
TORSDOF 16
ENDMDL
MODEL 9
REMARK VINA RESULT:    -2.441      1.629      2.726
REMARK INTER + INTRA:          -6.247
REMARK INTER:                  -4.989
REMARK INTRA:                  -1.259
REMARK UNBOUND:                -1.523
REMARK SMILES CCCCCCCCCCCCCCCCCC(=O)[O-]
REMARK SMILES IDX 10 1 11 2 12 3 13 4 14 5 15 6 16 7 17 8 18 9 19 10 20 11
REMARK SMILES IDX 9 12 8 13 7 14 6 15 5 16 4 17 3 18 2 19 1 20
REMARK H PARENT
REMARK Flexibility Score: inf
ROOT
ATOM      1  C   UNL     1      15.069  13.445   7.153  1.00  0.00     0.000 C 
ENDROOT
BRANCH   1   2
ATOM      2  C   UNL     1      14.958  14.981   7.129  1.00  0.00     0.000 C 
BRANCH   2   3
ATOM      3  C   UNL     1      16.324  15.676   7.022  1.00  0.00     0.000 C 
BRANCH   3   4
ATOM      4  C   UNL     1      16.972  15.825   8.404  1.00  0.00     0.000 C 
BRANCH   4   5
ATOM      5  C   UNL     1      17.125  17.302   8.785  1.00  0.00     0.000 C 
BRANCH   5   6
ATOM      6  C   UNL     1      15.755  17.959   8.999  1.00  0.00     0.000 C 
BRANCH   6   7
ATOM      7  C   UNL     1      15.905  19.356   9.619  1.00  0.00     0.006 C 
BRANCH   7   8
ATOM      8  C   UNL     1      16.009  19.305  11.149  1.00  0.00     0.053 C 
BRANCH   8   9
ATOM      9  C   UNL     1      15.087  20.289  11.801  1.00  0.00     0.041 C 
ATOM     10  O   UNL     1      15.491  20.997  12.760  1.00  0.00    -0.550 OA
ATOM     11  O   UNL     1      13.793  20.452  11.324  1.00  0.00    -0.550 OA
ENDBRANCH   8   9
ENDBRANCH   7   8
ENDBRANCH   6   7
ENDBRANCH   5   6
ENDBRANCH   4   5
ENDBRANCH   3   4
ENDBRANCH   2   3
ENDBRANCH   1   2
BRANCH   1  12
ATOM     12  C   UNL     1      13.968  12.727   7.958  1.00  0.00     0.000 C 
BRANCH  12  13
ATOM     13  C   UNL     1      14.140  12.769   9.490  1.00  0.00    -0.000 C 
BRANCH  13  14
ATOM     14  C   UNL     1      15.554  13.123   9.981  1.00  0.00    -0.000 C 
BRANCH  14  15
ATOM     15  C   UNL     1      15.549  14.096  11.170  1.00  0.00    -0.000 C 
BRANCH  15  16
ATOM     16  C   UNL     1      15.828  13.401  12.513  1.00  0.00    -0.000 C 
BRANCH  16  17
ATOM     17  C   UNL     1      14.858  12.241  12.822  1.00  0.00    -0.000 C 
BRANCH  17  18
ATOM     18  C   UNL     1      15.605  10.931  13.125  1.00  0.00    -0.000 C 
BRANCH  18  19
ATOM     19  C   UNL     1      16.919  10.808  12.337  1.00  0.00    -0.003 C 
ATOM     20  C   UNL     1      17.082   9.435  11.682  1.00  0.00     0.004 C 
ENDBRANCH  18  19
ENDBRANCH  17  18
ENDBRANCH  16  17
ENDBRANCH  15  16
ENDBRANCH  14  15
ENDBRANCH  13  14
ENDBRANCH  12  13
ENDBRANCH   1  12
TORSDOF 16
ENDMDL
