MODEL 1
REMARK VINA RESULT:    -3.324      0.000      0.000
REMARK INTER + INTRA:          -4.024
REMARK INTER:                  -3.907
REMARK INTRA:                  -0.117
REMARK UNBOUND:                -0.117
REMARK SMILES O=C([O-])CCC(=O)[O-]
REMARK SMILES IDX 4 1 2 2 1 3 3 4 5 5 6 6 7 7 8 8
REMARK H PARENT
REMARK Flexibility Score: inf
ROOT
ATOM      1  C   UNL     1       7.275 -13.364 -28.100  1.00  0.00     0.059 C 
ENDROOT
BRANCH   1   2
ATOM      2  C   UNL     1       6.241 -12.376 -27.657  1.00  0.00     0.042 C 
ATOM      3  O   UNL     1       5.916 -12.298 -26.443  1.00  0.00    -0.550 OA
ATOM      4  O   UNL     1       5.604 -11.570 -28.593  1.00  0.00    -0.550 OA
ENDBRANCH   1   2
BRANCH   1   5
ATOM      5  C   UNL     1       6.655 -14.732 -28.410  1.00  0.00     0.059 C 
BRANCH   5   6
ATOM      6  C   UNL     1       6.440 -14.920 -29.880  1.00  0.00     0.042 C 
ATOM      7  O   UNL     1       5.978 -16.006 -30.318  1.00  0.00    -0.550 OA
ATOM      8  O   UNL     1       6.790 -13.912 -30.769  1.00  0.00    -0.550 OA
ENDBRANCH   5   6
ENDBRANCH   1   5
TORSDOF 3
ENDMDL
MODEL 2
REMARK VINA RESULT:    -3.309      0.161      3.754
REMARK INTER + INTRA:          -4.007
REMARK INTER:                  -3.887
REMARK INTRA:                  -0.119
REMARK UNBOUND:                -0.117
REMARK SMILES O=C([O-])CCC(=O)[O-]
REMARK SMILES IDX 4 1 2 2 1 3 3 4 5 5 6 6 7 7 8 8
REMARK H PARENT
REMARK Flexibility Score: inf
ROOT
ATOM      1  C   UNL     1       6.808 -14.748 -28.380  1.00  0.00     0.059 C 
ENDROOT
BRANCH   1   2
ATOM      2  C   UNL     1       6.635 -14.927 -29.857  1.00  0.00     0.042 C 
ATOM      3  O   UNL     1       7.076 -14.061 -30.657  1.00  0.00    -0.550 OA
ATOM      4  O   UNL     1       5.950 -16.032 -30.348  1.00  0.00    -0.550 OA
ENDBRANCH   1   2
BRANCH   1   5
ATOM      5  C   UNL     1       7.369 -13.362 -28.041  1.00  0.00     0.059 C 
BRANCH   5   6
ATOM      6  C   UNL     1       6.285 -12.413 -27.631  1.00  0.00     0.042 C 
ATOM      7  O   UNL     1       5.923 -12.347 -26.427  1.00  0.00    -0.550 OA
ATOM      8  O   UNL     1       5.648 -11.631 -28.586  1.00  0.00    -0.550 OA
ENDBRANCH   5   6
ENDBRANCH   1   5
TORSDOF 3
ENDMDL
MODEL 3
REMARK VINA RESULT:    -3.261      2.382      3.449
REMARK INTER + INTRA:          -3.950
REMARK INTER:                  -3.837
REMARK INTRA:                  -0.113
REMARK UNBOUND:                -0.117
REMARK SMILES O=C([O-])CCC(=O)[O-]
REMARK SMILES IDX 4 1 2 2 1 3 3 4 5 5 6 6 7 7 8 8
REMARK H PARENT
REMARK Flexibility Score: inf
ROOT
ATOM      1  C   UNL     1       6.647 -12.851 -28.751  1.00  0.00     0.059 C 
ENDROOT
BRANCH   1   2
ATOM      2  C   UNL     1       6.608 -13.066 -27.269  1.00  0.00     0.042 C 
ATOM      3  O   UNL     1       5.947 -12.287 -26.532  1.00  0.00    -0.550 OA
ATOM      4  O   UNL     1       7.335 -14.103 -26.697  1.00  0.00    -0.550 OA
ENDBRANCH   1   2
BRANCH   1   5
ATOM      5  C   UNL     1       7.016 -11.405 -29.103  1.00  0.00     0.059 C 
BRANCH   5   6
ATOM      6  C   UNL     1       8.501 -11.216 -29.172  1.00  0.00     0.042 C 
ATOM      7  O   UNL     1       9.253 -12.195 -29.421  1.00  0.00    -0.550 OA
ATOM      8  O   UNL     1       9.055  -9.967 -28.921  1.00  0.00    -0.550 OA
ENDBRANCH   5   6
ENDBRANCH   1   5
TORSDOF 3
ENDMDL
MODEL 4
REMARK VINA RESULT:    -3.251      2.338      3.524
REMARK INTER + INTRA:          -3.938
REMARK INTER:                  -3.814
REMARK INTRA:                  -0.123
REMARK UNBOUND:                -0.117
REMARK SMILES O=C([O-])CCC(=O)[O-]
REMARK SMILES IDX 4 1 2 2 1 3 3 4 5 5 6 6 7 7 8 8
REMARK H PARENT
REMARK Flexibility Score: inf
ROOT
ATOM      1  C   UNL     1       6.963 -11.594 -29.223  1.00  0.00     0.059 C 
ENDROOT
BRANCH   1   2
ATOM      2  C   UNL     1       8.437 -11.332 -29.221  1.00  0.00     0.042 C 
ATOM      3  O   UNL     1       9.248 -12.263 -29.471  1.00  0.00    -0.550 OA
ATOM      4  O   UNL     1       8.918 -10.068 -28.902  1.00  0.00    -0.550 OA
ENDBRANCH   1   2
BRANCH   1   5
ATOM      5  C   UNL     1       6.643 -13.027 -28.780  1.00  0.00     0.059 C 
BRANCH   5   6
ATOM      6  C   UNL     1       6.673 -13.163 -27.288  1.00  0.00     0.042 C 
ATOM      7  O   UNL     1       7.365 -14.066 -26.749  1.00  0.00    -0.550 OA
ATOM      8  O   UNL     1       5.905 -12.318 -26.497  1.00  0.00    -0.550 OA
ENDBRANCH   5   6
ENDBRANCH   1   5
TORSDOF 3
ENDMDL
MODEL 5
REMARK VINA RESULT:    -3.245      2.542      3.620
REMARK INTER + INTRA:          -3.931
REMARK INTER:                  -3.750
REMARK INTRA:                  -0.181
REMARK UNBOUND:                -0.117
REMARK SMILES O=C([O-])CCC(=O)[O-]
REMARK SMILES IDX 4 1 2 2 1 3 3 4 5 5 6 6 7 7 8 8
REMARK H PARENT
REMARK Flexibility Score: inf
ROOT
ATOM      1  C   UNL     1       7.299 -12.708 -29.212  1.00  0.00     0.059 C 
ENDROOT
BRANCH   1   2
ATOM      2  C   UNL     1       6.216 -11.918 -28.543  1.00  0.00     0.042 C 
ATOM      3  O   UNL     1       6.111 -11.921 -27.288  1.00  0.00    -0.550 OA
ATOM      4  O   UNL     1       5.298 -11.209 -29.309  1.00  0.00    -0.550 OA
ENDBRANCH   1   2
BRANCH   1   5
ATOM      5  C   UNL     1       8.678 -12.076 -28.991  1.00  0.00     0.059 C 
BRANCH   5   6
ATOM      6  C   UNL     1       8.751 -10.693 -29.563  1.00  0.00     0.042 C 
ATOM      7  O   UNL     1       9.055  -9.719 -28.827  1.00  0.00    -0.550 OA
ATOM      8  O   UNL     1       8.441 -10.477 -30.900  1.00  0.00    -0.550 OA
ENDBRANCH   5   6
ENDBRANCH   1   5
TORSDOF 3
ENDMDL
MODEL 6
REMARK VINA RESULT:    -3.222      1.453      3.582
REMARK INTER + INTRA:          -3.905
REMARK INTER:                  -3.718
REMARK INTRA:                  -0.186
REMARK UNBOUND:                -0.117
REMARK SMILES O=C([O-])CCC(=O)[O-]
REMARK SMILES IDX 4 1 2 2 1 3 3 4 5 5 6 6 7 7 8 8
REMARK H PARENT
REMARK Flexibility Score: inf
ROOT
ATOM      1  C   UNL     1       7.184 -13.576 -27.893  1.00  0.00     0.059 C 
ENDROOT
BRANCH   1   2
ATOM      2  C   UNL     1       6.914 -14.145 -29.251  1.00  0.00     0.042 C 
ATOM      3  O   UNL     1       5.846 -14.776 -29.474  1.00  0.00    -0.550 OA
ATOM      4  O   UNL     1       7.859 -14.016 -30.261  1.00  0.00    -0.550 OA
ENDBRANCH   1   2
BRANCH   1   5
ATOM      5  C   UNL     1       6.225 -12.426 -27.561  1.00  0.00     0.059 C 
BRANCH   5   6
ATOM      6  C   UNL     1       6.321 -11.319 -28.566  1.00  0.00     0.042 C 
ATOM      7  O   UNL     1       7.364 -10.618 -28.638  1.00  0.00    -0.550 OA
ATOM      8  O   UNL     1       5.242 -11.036 -29.393  1.00  0.00    -0.550 OA
ENDBRANCH   5   6
ENDBRANCH   1   5
TORSDOF 3
ENDMDL
MODEL 7
REMARK VINA RESULT:    -3.222      2.492      3.397
REMARK INTER + INTRA:          -3.903
REMARK INTER:                  -3.789
REMARK INTRA:                  -0.115
REMARK UNBOUND:                -0.117
REMARK SMILES O=C([O-])CCC(=O)[O-]
REMARK SMILES IDX 4 1 2 2 1 3 3 4 5 5 6 6 7 7 8 8
REMARK H PARENT
REMARK Flexibility Score: inf
ROOT
ATOM      1  C   UNL     1       8.950 -12.143 -29.172  1.00  0.00     0.059 C 
ENDROOT
BRANCH   1   2
ATOM      2  C   UNL     1       8.626 -10.720 -29.508  1.00  0.00     0.042 C 
ATOM      3  O   UNL     1       9.099  -9.781 -28.814  1.00  0.00    -0.550 OA
ATOM      4  O   UNL     1       7.768 -10.432 -30.562  1.00  0.00    -0.550 OA
ENDBRANCH   1   2
BRANCH   1   5
ATOM      5  C   UNL     1       7.699 -13.029 -29.200  1.00  0.00     0.059 C 
BRANCH   5   6
ATOM      6  C   UNL     1       7.024 -13.075 -27.863  1.00  0.00     0.042 C 
ATOM      7  O   UNL     1       7.295 -13.998 -27.049  1.00  0.00    -0.550 OA
ATOM      8  O   UNL     1       6.067 -12.124 -27.534  1.00  0.00    -0.550 OA
ENDBRANCH   5   6
ENDBRANCH   1   5
TORSDOF 3
ENDMDL
MODEL 8
REMARK VINA RESULT:    -3.180      3.221      4.900
REMARK INTER + INTRA:          -3.854
REMARK INTER:                  -3.736
REMARK INTRA:                  -0.119
REMARK UNBOUND:                -0.117
REMARK SMILES O=C([O-])CCC(=O)[O-]
REMARK SMILES IDX 4 1 2 2 1 3 3 4 5 5 6 6 7 7 8 8
REMARK H PARENT
REMARK Flexibility Score: inf
ROOT
ATOM      1  C   UNL     1       9.044 -11.694 -29.222  1.00  0.00     0.059 C 
ENDROOT
BRANCH   1   2
ATOM      2  C   UNL     1       7.886 -12.632 -29.081  1.00  0.00     0.042 C 
ATOM      3  O   UNL     1       7.012 -12.433 -28.197  1.00  0.00    -0.550 OA
ATOM      4  O   UNL     1       7.793 -13.750 -29.900  1.00  0.00    -0.550 OA
ENDBRANCH   1   2
BRANCH   1   5
ATOM      5  C   UNL     1       8.598 -10.315 -29.722  1.00  0.00     0.059 C 
BRANCH   5   6
ATOM      6  C   UNL     1       8.711  -9.274 -28.650  1.00  0.00     0.042 C 
ATOM      7  O   UNL     1       7.734  -9.038 -27.893  1.00  0.00    -0.550 OA
ATOM      8  O   UNL     1       9.881  -8.538 -28.517  1.00  0.00    -0.550 OA
ENDBRANCH   5   6
ENDBRANCH   1   5
TORSDOF 3
ENDMDL
MODEL 9
REMARK VINA RESULT:    -3.142     14.764     16.501
REMARK INTER + INTRA:          -3.810
REMARK INTER:                  -3.704
REMARK INTRA:                  -0.105
REMARK UNBOUND:                -0.117
REMARK SMILES O=C([O-])CCC(=O)[O-]
REMARK SMILES IDX 4 1 2 2 1 3 3 4 5 5 6 6 7 7 8 8
REMARK H PARENT
REMARK Flexibility Score: inf
ROOT
ATOM      1  C   UNL     1       0.943 -14.551 -14.641  1.00  0.00     0.059 C 
ENDROOT
BRANCH   1   2
ATOM      2  C   UNL     1      -0.144 -14.177 -15.600  1.00  0.00     0.042 C 
ATOM      3  O   UNL     1      -0.073 -14.528 -16.808  1.00  0.00    -0.550 OA
ATOM      4  O   UNL     1      -1.216 -13.404 -15.171  1.00  0.00    -0.550 OA
ENDBRANCH   1   2
BRANCH   1   5
ATOM      5  C   UNL     1       0.704 -13.946 -13.252  1.00  0.00     0.059 C 
BRANCH   5   6
ATOM      6  C   UNL     1       0.090 -14.939 -12.314  1.00  0.00     0.042 C 
ATOM      7  O   UNL     1      -1.082 -14.767 -11.889  1.00  0.00    -0.550 OA
ATOM      8  O   UNL     1       0.829 -16.031 -11.877  1.00  0.00    -0.550 OA
ENDBRANCH   5   6
ENDBRANCH   1   5
TORSDOF 3
ENDMDL
