MODEL 1
REMARK VINA RESULT:    -3.321      0.000      0.000
REMARK INTER + INTRA:          -4.711
REMARK INTER:                  -4.292
REMARK INTRA:                  -0.419
REMARK UNBOUND:                -0.419
REMARK SMILES CCO[C@@H]1O[C@H](CO)[C@@H](O)[C@H](O)[C@H]1O
REMARK SMILES IDX 4 1 13 2 11 3 9 4 6 5 5 6 3 7 2 8 1 9 14 10 12 12 7 14 8 15
REMARK SMILES IDX 10 17
REMARK H PARENT 14 11 12 13 8 16 10 18
REMARK Flexibility Score: inf
ROOT
ATOM      1  C   UNL     1      19.377  -9.411   6.283  1.00  0.00     0.281 C 
ATOM      2  C   UNL     1      18.254  -9.640   5.257  1.00  0.00     0.202 C 
ATOM      3  C   UNL     1      17.063  -8.713   5.531  1.00  0.00     0.179 C 
ATOM      4  C   UNL     1      17.528  -7.251   5.680  1.00  0.00     0.177 C 
ATOM      5  C   UNL     1      18.808  -7.099   6.552  1.00  0.00     0.178 C 
ATOM      6  O   UNL     1      19.825  -8.063   6.293  1.00  0.00    -0.341 OA
ENDROOT
BRANCH   1   7
ATOM      7  O   UNL     1      18.964  -9.833   7.571  1.00  0.00    -0.350 OA
BRANCH   7   8
ATOM      8  C   UNL     1      20.088 -10.124   8.377  1.00  0.00     0.160 C 
ATOM      9  C   UNL     1      19.770  -9.780   9.824  1.00  0.00     0.035 C 
ENDBRANCH   7   8
ENDBRANCH   1   7
BRANCH   2  10
ATOM     10  O   UNL     1      18.737  -9.402   3.958  1.00  0.00    -0.385 OA
ATOM     11  H   UNL     1      19.084 -10.268   3.615  1.00  0.00     0.211 HD
ENDBRANCH   2  10
BRANCH   3  12
ATOM     12  O   UNL     1      16.372  -9.124   6.682  1.00  0.00    -0.387 OA
ATOM     13  H   UNL     1      15.549  -8.570   6.740  1.00  0.00     0.211 HD
ENDBRANCH   3  12
BRANCH   5  14
ATOM     14  C   UNL     1      18.567  -6.867   8.062  1.00  0.00     0.191 C 
BRANCH  14  15
ATOM     15  O   UNL     1      17.215  -6.668   8.371  1.00  0.00    -0.394 OA
ATOM     16  H   UNL     1      17.131  -6.711   9.359  1.00  0.00     0.210 HD
ENDBRANCH  14  15
ENDBRANCH   5  14
BRANCH   4  17
ATOM     17  O   UNL     1      17.791  -6.717   4.405  1.00  0.00    -0.387 OA
ATOM     18  H   UNL     1      18.092  -7.470   3.830  1.00  0.00     0.211 HD
ENDBRANCH   4  17
TORSDOF 7
ENDMDL
MODEL 2
REMARK VINA RESULT:    -3.320      1.424      4.153
REMARK INTER + INTRA:          -4.710
REMARK INTER:                  -4.165
REMARK INTRA:                  -0.545
REMARK UNBOUND:                -0.419
REMARK SMILES CCO[C@@H]1O[C@H](CO)[C@@H](O)[C@H](O)[C@H]1O
REMARK SMILES IDX 4 1 13 2 11 3 9 4 6 5 5 6 3 7 2 8 1 9 14 10 12 12 7 14 8 15
REMARK SMILES IDX 10 17
REMARK H PARENT 14 11 12 13 8 16 10 18
REMARK Flexibility Score: inf
ROOT
ATOM      1  C   UNL     1      18.437  -7.122   4.956  1.00  0.00     0.281 C 
ATOM      2  C   UNL     1      19.219  -6.556   6.155  1.00  0.00     0.202 C 
ATOM      3  C   UNL     1      18.928  -7.360   7.428  1.00  0.00     0.179 C 
ATOM      4  C   UNL     1      19.113  -8.870   7.177  1.00  0.00     0.177 C 
ATOM      5  C   UNL     1      18.492  -9.350   5.833  1.00  0.00     0.178 C 
ATOM      6  O   UNL     1      18.734  -8.491   4.723  1.00  0.00    -0.341 OA
ENDROOT
BRANCH   1   7
ATOM      7  O   UNL     1      17.047  -6.911   5.128  1.00  0.00    -0.350 OA
BRANCH   7   8
ATOM      8  C   UNL     1      16.430  -6.659   3.881  1.00  0.00     0.160 C 
ATOM      9  C   UNL     1      14.995  -7.161   3.922  1.00  0.00     0.035 C 
ENDBRANCH   7   8
ENDBRANCH   1   7
BRANCH   2  10
ATOM     10  O   UNL     1      20.598  -6.594   5.887  1.00  0.00    -0.385 OA
ATOM     11  H   UNL     1      20.813  -7.521   5.602  1.00  0.00     0.211 HD
ENDBRANCH   2  10
BRANCH   3  12
ATOM     12  O   UNL     1      17.629  -7.098   7.892  1.00  0.00    -0.387 OA
ATOM     13  H   UNL     1      17.587  -7.413   8.833  1.00  0.00     0.211 HD
ENDBRANCH   3  12
BRANCH   5  14
ATOM     14  C   UNL     1      17.027  -9.841   5.908  1.00  0.00     0.191 C 
BRANCH  14  15
ATOM     15  O   UNL     1      16.229  -9.042   6.737  1.00  0.00    -0.394 OA
ATOM     16  H   UNL     1      16.712  -8.186   6.872  1.00  0.00     0.210 HD
ENDBRANCH  14  15
ENDBRANCH   5  14
BRANCH   4  17
ATOM     17  O   UNL     1      20.487  -9.173   7.168  1.00  0.00    -0.387 OA
ATOM     18  H   UNL     1      20.834  -8.981   8.079  1.00  0.00     0.211 HD
ENDBRANCH   4  17
TORSDOF 7
ENDMDL
MODEL 3
REMARK VINA RESULT:    -3.289      1.607      3.976
REMARK INTER + INTRA:          -4.669
REMARK INTER:                  -4.166
REMARK INTRA:                  -0.503
REMARK UNBOUND:                -0.419
REMARK SMILES CCO[C@@H]1O[C@H](CO)[C@@H](O)[C@H](O)[C@H]1O
REMARK SMILES IDX 4 1 13 2 11 3 9 4 6 5 5 6 3 7 2 8 1 9 14 10 12 12 7 14 8 15
REMARK SMILES IDX 10 17
REMARK H PARENT 14 11 12 13 8 16 10 18
REMARK Flexibility Score: inf
ROOT
ATOM      1  C   UNL     1      17.452  -7.131   6.563  1.00  0.00     0.281 C 
ATOM      2  C   UNL     1      18.530  -7.491   7.601  1.00  0.00     0.202 C 
ATOM      3  C   UNL     1      19.348  -8.704   7.144  1.00  0.00     0.179 C 
ATOM      4  C   UNL     1      19.863  -8.509   5.704  1.00  0.00     0.177 C 
ATOM      5  C   UNL     1      18.788  -7.928   4.741  1.00  0.00     0.178 C 
ATOM      6  O   UNL     1      18.010  -6.866   5.284  1.00  0.00    -0.341 OA
ENDROOT
BRANCH   1   7
ATOM      7  O   UNL     1      16.466  -8.147   6.501  1.00  0.00    -0.350 OA
BRANCH   7   8
ATOM      8  C   UNL     1      15.215  -7.597   6.141  1.00  0.00     0.160 C 
ATOM      9  C   UNL     1      14.112  -8.320   6.898  1.00  0.00     0.035 C 
ENDBRANCH   7   8
ENDBRANCH   1   7
BRANCH   2  10
ATOM     10  O   UNL     1      19.391  -6.397   7.794  1.00  0.00    -0.385 OA
ATOM     11  H   UNL     1      19.702  -6.110   6.895  1.00  0.00     0.211 HD
ENDBRANCH   2  10
BRANCH   3  12
ATOM     12  O   UNL     1      18.583  -9.878   7.232  1.00  0.00    -0.387 OA
ATOM     13  H   UNL     1      19.221 -10.638   7.278  1.00  0.00     0.211 HD
ENDBRANCH   3  12
BRANCH   5  14
ATOM     14  C   UNL     1      17.936  -8.972   3.980  1.00  0.00     0.191 C 
BRANCH  14  15
ATOM     15  O   UNL     1      17.688 -10.125   4.736  1.00  0.00    -0.394 OA
ATOM     16  H   UNL     1      16.896  -9.938   5.304  1.00  0.00     0.210 HD
ENDBRANCH  14  15
ENDBRANCH   5  14
BRANCH   4  17
ATOM     17  O   UNL     1      20.965  -7.634   5.722  1.00  0.00    -0.387 OA
ATOM     18  H   UNL     1      20.805  -6.948   5.021  1.00  0.00     0.211 HD
ENDBRANCH   4  17
TORSDOF 7
ENDMDL
MODEL 4
REMARK VINA RESULT:    -3.287      1.813      3.499
REMARK INTER + INTRA:          -4.666
REMARK INTER:                  -4.117
REMARK INTRA:                  -0.550
REMARK UNBOUND:                -0.419
REMARK SMILES CCO[C@@H]1O[C@H](CO)[C@@H](O)[C@H](O)[C@H]1O
REMARK SMILES IDX 4 1 13 2 11 3 9 4 6 5 5 6 3 7 2 8 1 9 14 10 12 12 7 14 8 15
REMARK SMILES IDX 10 17
REMARK H PARENT 14 11 12 13 8 16 10 18
REMARK Flexibility Score: inf
ROOT
ATOM      1  C   UNL     1      19.044  -7.025   5.000  1.00  0.00     0.281 C 
ATOM      2  C   UNL     1      19.518  -8.479   4.834  1.00  0.00     0.202 C 
ATOM      3  C   UNL     1      19.501  -9.218   6.178  1.00  0.00     0.179 C 
ATOM      4  C   UNL     1      18.140  -9.046   6.881  1.00  0.00     0.177 C 
ATOM      5  C   UNL     1      17.598  -7.589   6.823  1.00  0.00     0.178 C 
ATOM      6  O   UNL     1      17.741  -6.948   5.560  1.00  0.00    -0.341 OA
ENDROOT
BRANCH   1   7
ATOM      7  O   UNL     1      19.983  -6.282   5.757  1.00  0.00    -0.350 OA
BRANCH   7   8
ATOM      8  C   UNL     1      21.111  -5.964   4.968  1.00  0.00     0.160 C 
ATOM      9  C   UNL     1      20.920  -4.588   4.349  1.00  0.00     0.035 C 
ENDBRANCH   7   8
ENDBRANCH   1   7
BRANCH   2  10
ATOM     10  O   UNL     1      18.685  -9.153   3.924  1.00  0.00    -0.385 OA
ATOM     11  H   UNL     1      17.870  -8.596   3.810  1.00  0.00     0.211 HD
ENDBRANCH   2  10
BRANCH   3  12
ATOM     12  O   UNL     1      20.538  -8.760   7.007  1.00  0.00    -0.387 OA
ATOM     13  H   UNL     1      20.140  -8.581   7.899  1.00  0.00     0.211 HD
ENDBRANCH   3  12
BRANCH   5  14
ATOM     14  C   UNL     1      17.992  -6.679   8.010  1.00  0.00     0.191 C 
BRANCH  14  15
ATOM     15  O   UNL     1      19.173  -7.092   8.641  1.00  0.00    -0.394 OA
ATOM     16  H   UNL     1      19.874  -6.426   8.417  1.00  0.00     0.210 HD
ENDBRANCH  14  15
ENDBRANCH   5  14
BRANCH   4  17
ATOM     17  O   UNL     1      17.196  -9.898   6.276  1.00  0.00    -0.387 OA
ATOM     18  H   UNL     1      16.670  -9.345   5.641  1.00  0.00     0.211 HD
ENDBRANCH   4  17
TORSDOF 7
ENDMDL
MODEL 5
REMARK VINA RESULT:    -3.172      2.708      5.020
REMARK INTER + INTRA:          -4.518
REMARK INTER:                  -4.032
REMARK INTRA:                  -0.486
REMARK UNBOUND:                -0.419
REMARK SMILES CCO[C@@H]1O[C@H](CO)[C@@H](O)[C@H](O)[C@H]1O
REMARK SMILES IDX 4 1 13 2 11 3 9 4 6 5 5 6 3 7 2 8 1 9 14 10 12 12 7 14 8 15
REMARK SMILES IDX 10 17
REMARK H PARENT 14 11 12 13 8 16 10 18
REMARK Flexibility Score: inf
ROOT
ATOM      1  C   UNL     1      14.895  -7.446   4.431  1.00  0.00     0.281 C 
ATOM      2  C   UNL     1      16.016  -6.506   4.910  1.00  0.00     0.202 C 
ATOM      3  C   UNL     1      16.707  -7.069   6.158  1.00  0.00     0.179 C 
ATOM      4  C   UNL     1      17.128  -8.535   5.938  1.00  0.00     0.177 C 
ATOM      5  C   UNL     1      16.031  -9.392   5.242  1.00  0.00     0.178 C 
ATOM      6  O   UNL     1      15.376  -8.752   4.151  1.00  0.00    -0.341 OA
ENDROOT
BRANCH   1   7
ATOM      7  O   UNL     1      13.835  -7.470   5.370  1.00  0.00    -0.350 OA
BRANCH   7   8
ATOM      8  C   UNL     1      12.597  -7.649   4.711  1.00  0.00     0.160 C 
ATOM      9  C   UNL     1      11.478  -7.666   5.741  1.00  0.00     0.035 C 
ENDBRANCH   7   8
ENDBRANCH   1   7
BRANCH   2  10
ATOM     10  O   UNL     1      16.967  -6.338   3.889  1.00  0.00    -0.385 OA
ATOM     11  H   UNL     1      17.785  -6.826   4.171  1.00  0.00     0.211 HD
ENDBRANCH   2  10
BRANCH   3  12
ATOM     12  O   UNL     1      15.865  -6.967   7.277  1.00  0.00    -0.387 OA
ATOM     13  H   UNL     1      15.775  -7.880   7.658  1.00  0.00     0.211 HD
ENDBRANCH   3  12
BRANCH   5  14
ATOM     14  C   UNL     1      15.051 -10.124   6.189  1.00  0.00     0.191 C 
BRANCH  14  15
ATOM     15  O   UNL     1      14.611  -9.316   7.245  1.00  0.00    -0.394 OA
ATOM     16  H   UNL     1      13.809  -9.753   7.634  1.00  0.00     0.210 HD
ENDBRANCH  14  15
ENDBRANCH   5  14
BRANCH   4  17
ATOM     17  O   UNL     1      18.290  -8.569   5.145  1.00  0.00    -0.387 OA
ATOM     18  H   UNL     1      18.977  -8.021   5.610  1.00  0.00     0.211 HD
ENDBRANCH   4  17
TORSDOF 7
ENDMDL
MODEL 6
REMARK VINA RESULT:    -3.105      1.987      3.731
REMARK INTER + INTRA:          -4.431
REMARK INTER:                  -4.027
REMARK INTRA:                  -0.405
REMARK UNBOUND:                -0.419
REMARK SMILES CCO[C@@H]1O[C@H](CO)[C@@H](O)[C@H](O)[C@H]1O
REMARK SMILES IDX 4 1 13 2 11 3 9 4 6 5 5 6 3 7 2 8 1 9 14 10 12 12 7 14 8 15
REMARK SMILES IDX 10 17
REMARK H PARENT 14 11 12 13 8 16 10 18
REMARK Flexibility Score: inf
ROOT
ATOM      1  C   UNL     1      19.462  -7.664   4.649  1.00  0.00     0.281 C 
ATOM      2  C   UNL     1      19.800  -8.416   5.948  1.00  0.00     0.202 C 
ATOM      3  C   UNL     1      18.657  -8.296   6.964  1.00  0.00     0.179 C 
ATOM      4  C   UNL     1      17.308  -8.671   6.320  1.00  0.00     0.177 C 
ATOM      5  C   UNL     1      17.114  -8.060   4.902  1.00  0.00     0.178 C 
ATOM      6  O   UNL     1      18.259  -8.132   4.058  1.00  0.00    -0.341 OA
ENDROOT
BRANCH   1   7
ATOM      7  O   UNL     1      19.420  -6.267   4.882  1.00  0.00    -0.350 OA
BRANCH   7   8
ATOM      8  C   UNL     1      20.727  -5.758   5.056  1.00  0.00     0.160 C 
ATOM      9  C   UNL     1      20.937  -4.583   4.113  1.00  0.00     0.035 C 
ENDBRANCH   7   8
ENDBRANCH   1   7
BRANCH   2  10
ATOM     10  O   UNL     1      20.030  -9.774   5.668  1.00  0.00    -0.385 OA
ATOM     11  H   UNL     1      19.141 -10.211   5.598  1.00  0.00     0.211 HD
ENDBRANCH   2  10
BRANCH   3  12
ATOM     12  O   UNL     1      18.600  -6.996   7.492  1.00  0.00    -0.387 OA
ATOM     13  H   UNL     1      18.398  -6.384   6.736  1.00  0.00     0.211 HD
ENDBRANCH   3  12
BRANCH   5  14
ATOM     14  C   UNL     1      16.416  -6.680   4.856  1.00  0.00     0.191 C 
BRANCH  14  15
ATOM     15  O   UNL     1      15.840  -6.323   6.082  1.00  0.00    -0.394 OA
ATOM     16  H   UNL     1      14.924  -5.991   5.890  1.00  0.00     0.210 HD
ENDBRANCH  14  15
ENDBRANCH   5  14
BRANCH   4  17
ATOM     17  O   UNL     1      17.218 -10.072   6.218  1.00  0.00    -0.387 OA
ATOM     18  H   UNL     1      18.126 -10.408   5.996  1.00  0.00     0.211 HD
ENDBRANCH   4  17
TORSDOF 7
ENDMDL
MODEL 7
REMARK VINA RESULT:    -3.059      1.629      3.060
REMARK INTER + INTRA:          -4.372
REMARK INTER:                  -4.179
REMARK INTRA:                  -0.193
REMARK UNBOUND:                -0.419
REMARK SMILES CCO[C@@H]1O[C@H](CO)[C@@H](O)[C@H](O)[C@H]1O
REMARK SMILES IDX 4 1 13 2 11 3 9 4 6 5 5 6 3 7 2 8 1 9 14 10 12 12 7 14 8 15
REMARK SMILES IDX 10 17
REMARK H PARENT 14 11 12 13 8 16 10 18
REMARK Flexibility Score: inf
ROOT
ATOM      1  C   UNL     1      17.532  -9.245   5.579  1.00  0.00     0.281 C 
ATOM      2  C   UNL     1      18.303  -8.821   4.317  1.00  0.00     0.202 C 
ATOM      3  C   UNL     1      18.829  -7.387   4.452  1.00  0.00     0.179 C 
ATOM      4  C   UNL     1      19.591  -7.204   5.780  1.00  0.00     0.177 C 
ATOM      5  C   UNL     1      18.869  -7.852   6.996  1.00  0.00     0.178 C 
ATOM      6  O   UNL     1      18.329  -9.146   6.750  1.00  0.00    -0.341 OA
ENDROOT
BRANCH   1   7
ATOM      7  O   UNL     1      16.332  -8.500   5.700  1.00  0.00    -0.350 OA
BRANCH   7   8
ATOM      8  C   UNL     1      15.291  -9.321   6.189  1.00  0.00     0.160 C 
ATOM      9  C   UNL     1      14.265  -8.455   6.904  1.00  0.00     0.035 C 
ENDBRANCH   7   8
ENDBRANCH   1   7
BRANCH   2  10
ATOM     10  O   UNL     1      19.384  -9.693   4.102  1.00  0.00    -0.385 OA
ATOM     11  H   UNL     1      20.166  -9.310   4.582  1.00  0.00     0.211 HD
ENDBRANCH   2  10
BRANCH   3  12
ATOM     12  O   UNL     1      17.776  -6.463   4.365  1.00  0.00    -0.387 OA
ATOM     13  H   UNL     1      18.128  -5.663   3.893  1.00  0.00     0.211 HD
ENDBRANCH   3  12
BRANCH   5  14
ATOM     14  C   UNL     1      17.897  -6.929   7.769  1.00  0.00     0.191 C 
BRANCH  14  15
ATOM     15  O   UNL     1      18.482  -6.353   8.903  1.00  0.00    -0.394 OA
ATOM     16  H   UNL     1      19.327  -6.843   9.079  1.00  0.00     0.210 HD
ENDBRANCH  14  15
ENDBRANCH   5  14
BRANCH   4  17
ATOM     17  O   UNL     1      20.870  -7.779   5.662  1.00  0.00    -0.387 OA
ATOM     18  H   UNL     1      21.454  -7.105   5.225  1.00  0.00     0.211 HD
ENDBRANCH   4  17
TORSDOF 7
ENDMDL
MODEL 8
REMARK VINA RESULT:    -3.047      1.345      3.061
REMARK INTER + INTRA:          -4.356
REMARK INTER:                  -3.862
REMARK INTRA:                  -0.494
REMARK UNBOUND:                -0.419
REMARK SMILES CCO[C@@H]1O[C@H](CO)[C@@H](O)[C@H](O)[C@H]1O
REMARK SMILES IDX 4 1 13 2 11 3 9 4 6 5 5 6 3 7 2 8 1 9 14 10 12 12 7 14 8 15
REMARK SMILES IDX 10 17
REMARK H PARENT 14 11 12 13 8 16 10 18
REMARK Flexibility Score: inf
ROOT
ATOM      1  C   UNL     1      17.914  -8.980   5.051  1.00  0.00     0.281 C 
ATOM      2  C   UNL     1      17.476  -7.506   5.123  1.00  0.00     0.202 C 
ATOM      3  C   UNL     1      17.873  -6.882   6.466  1.00  0.00     0.179 C 
ATOM      4  C   UNL     1      19.362  -7.141   6.773  1.00  0.00     0.177 C 
ATOM      5  C   UNL     1      19.807  -8.600   6.468  1.00  0.00     0.178 C 
ATOM      6  O   UNL     1      19.313  -9.132   5.243  1.00  0.00    -0.341 OA
ENDROOT
BRANCH   1   7
ATOM      7  O   UNL     1      17.172  -9.762   5.971  1.00  0.00    -0.350 OA
BRANCH   7   8
ATOM      8  C   UNL     1      15.925 -10.124   5.415  1.00  0.00     0.160 C 
ATOM      9  C   UNL     1      14.818  -9.785   6.402  1.00  0.00     0.035 C 
ENDBRANCH   7   8
ENDBRANCH   1   7
BRANCH   2  10
ATOM     10  O   UNL     1      18.073  -6.779   4.079  1.00  0.00    -0.385 OA
ATOM     11  H   UNL     1      18.722  -6.153   4.495  1.00  0.00     0.211 HD
ENDBRANCH   2  10
BRANCH   3  12
ATOM     12  O   UNL     1      17.068  -7.382   7.501  1.00  0.00    -0.387 OA
ATOM     13  H   UNL     1      17.050  -6.692   8.215  1.00  0.00     0.211 HD
ENDBRANCH   3  12
BRANCH   5  14
ATOM     14  C   UNL     1      19.694  -9.596   7.647  1.00  0.00     0.191 C 
BRANCH  14  15
ATOM     15  O   UNL     1      19.337  -8.974   8.850  1.00  0.00    -0.394 OA
ATOM     16  H   UNL     1      18.352  -8.857   8.839  1.00  0.00     0.210 HD
ENDBRANCH  14  15
ENDBRANCH   5  14
BRANCH   4  17
ATOM     17  O   UNL     1      20.152  -6.264   6.007  1.00  0.00    -0.387 OA
ATOM     18  H   UNL     1      19.638  -6.053   5.183  1.00  0.00     0.211 HD
ENDBRANCH   4  17
TORSDOF 7
ENDMDL
MODEL 9
REMARK VINA RESULT:    -3.018      2.034      4.061
REMARK INTER + INTRA:          -4.319
REMARK INTER:                  -3.964
REMARK INTRA:                  -0.355
REMARK UNBOUND:                -0.419
REMARK SMILES CCO[C@@H]1O[C@H](CO)[C@@H](O)[C@H](O)[C@H]1O
REMARK SMILES IDX 4 1 13 2 11 3 9 4 6 5 5 6 3 7 2 8 1 9 14 10 12 12 7 14 8 15
REMARK SMILES IDX 10 17
REMARK H PARENT 14 11 12 13 8 16 10 18
REMARK Flexibility Score: inf
ROOT
ATOM      1  C   UNL     1      18.113  -7.514   6.421  1.00  0.00     0.281 C 
ATOM      2  C   UNL     1      16.780  -6.809   6.731  1.00  0.00     0.202 C 
ATOM      3  C   UNL     1      15.672  -7.291   5.788  1.00  0.00     0.179 C 
ATOM      4  C   UNL     1      15.608  -8.832   5.758  1.00  0.00     0.177 C 
ATOM      5  C   UNL     1      17.009  -9.502   5.668  1.00  0.00     0.178 C 
ATOM      6  O   UNL     1      18.002  -8.927   6.512  1.00  0.00    -0.341 OA
ENDROOT
BRANCH   1   7
ATOM      7  O   UNL     1      18.604  -7.109   5.156  1.00  0.00    -0.350 OA
BRANCH   7   8
ATOM      8  C   UNL     1      20.017  -7.081   5.163  1.00  0.00     0.160 C 
ATOM      9  C   UNL     1      20.491  -5.642   5.022  1.00  0.00     0.035 C 
ENDBRANCH   7   8
ENDBRANCH   1   7
BRANCH   2  10
ATOM     10  O   UNL     1      16.402  -7.065   8.061  1.00  0.00    -0.385 OA
ATOM     11  H   UNL     1      15.715  -6.389   8.302  1.00  0.00     0.211 HD
ENDBRANCH   2  10
BRANCH   3  12
ATOM     12  O   UNL     1      15.871  -6.787   4.493  1.00  0.00    -0.387 OA
ATOM     13  H   UNL     1      16.471  -6.000   4.576  1.00  0.00     0.211 HD
ENDBRANCH   3  12
BRANCH   5  14
ATOM     14  C   UNL     1      17.525  -9.790   4.239  1.00  0.00     0.191 C 
BRANCH  14  15
ATOM     15  O   UNL     1      18.885 -10.125   4.210  1.00  0.00    -0.394 OA
ATOM     16  H   UNL     1      19.089 -10.599   5.057  1.00  0.00     0.210 HD
ENDBRANCH  14  15
ENDBRANCH   5  14
BRANCH   4  17
ATOM     17  O   UNL     1      14.967  -9.291   6.924  1.00  0.00    -0.387 OA
ATOM     18  H   UNL     1      14.273  -9.942   6.638  1.00  0.00     0.211 HD
ENDBRANCH   4  17
TORSDOF 7
ENDMDL
