MODEL 1
REMARK VINA RESULT:    -4.171      0.000      0.000
REMARK INTER + INTRA:          -4.664
REMARK INTER:                  -4.537
REMARK INTRA:                  -0.126
REMARK UNBOUND:                -0.126
REMARK SMILES Cc1ccc(C(C)C)cc1O
REMARK SMILES IDX 1 1 2 2 10 3 9 4 5 5 4 6 3 7 11 8 6 10 7 11 8 12
REMARK H PARENT 11 9
REMARK Flexibility Score: inf
ROOT
ATOM      1  C   UNL     1     166.567 161.509 189.185  1.00  0.00     0.048 C 
ATOM      2  C   UNL     1     165.117 161.788 188.902  1.00  0.00    -0.009 A 
ATOM      3  C   UNL     1     164.625 163.103 188.958  1.00  0.00     0.118 A 
ATOM      4  C   UNL     1     163.272 163.356 188.693  1.00  0.00     0.050 A 
ATOM      5  C   UNL     1     162.395 162.305 188.369  1.00  0.00    -0.042 A 
ATOM      6  C   UNL     1     162.898 160.993 188.316  1.00  0.00     0.004 A 
ATOM      7  C   UNL     1     164.245 160.738 188.579  1.00  0.00     0.007 A 
ENDROOT
BRANCH   3   8
ATOM      8  O   UNL     1     165.482 164.156 189.279  1.00  0.00    -0.508 OA
ATOM      9  H   UNL     1     165.508 164.555 190.210  1.00  0.00     0.293 HD
ENDBRANCH   3   8
BRANCH   5  10
ATOM     10  C   UNL     1     160.933 162.597 188.085  1.00  0.00     0.013 C 
ATOM     11  C   UNL     1     160.198 161.334 187.619  1.00  0.00     0.012 C 
ATOM     12  C   UNL     1     160.245 163.216 189.308  1.00  0.00     0.012 C 
ENDBRANCH   5  10
TORSDOF 2
ENDMDL
MODEL 2
REMARK VINA RESULT:    -4.132      1.473      2.325
REMARK INTER + INTRA:          -4.621
REMARK INTER:                  -4.494
REMARK INTRA:                  -0.127
REMARK UNBOUND:                -0.126
REMARK SMILES Cc1ccc(C(C)C)cc1O
REMARK SMILES IDX 1 1 2 2 10 3 9 4 5 5 4 6 3 7 11 8 6 10 7 11 8 12
REMARK H PARENT 11 9
REMARK Flexibility Score: inf
ROOT
ATOM      1  C   UNL     1     166.280 162.285 188.824  1.00  0.00     0.048 C 
ATOM      2  C   UNL     1     164.779 162.275 188.736  1.00  0.00    -0.009 A 
ATOM      3  C   UNL     1     164.093 161.076 188.479  1.00  0.00     0.118 A 
ATOM      4  C   UNL     1     162.693 161.075 188.397  1.00  0.00     0.050 A 
ATOM      5  C   UNL     1     161.963 162.264 188.571  1.00  0.00    -0.042 A 
ATOM      6  C   UNL     1     162.659 163.458 188.827  1.00  0.00     0.004 A 
ATOM      7  C   UNL     1     164.053 163.463 188.909  1.00  0.00     0.007 A 
ENDROOT
BRANCH   3   8
ATOM      8  O   UNL     1     164.802 159.888 188.304  1.00  0.00    -0.508 OA
ATOM      9  H   UNL     1     164.869 159.436 187.399  1.00  0.00     0.293 HD
ENDBRANCH   3   8
BRANCH   5  10
ATOM     10  C   UNL     1     160.447 162.244 188.479  1.00  0.00     0.013 C 
ATOM     11  C   UNL     1     159.876 163.667 188.481  1.00  0.00     0.012 C 
ATOM     12  C   UNL     1     159.978 161.462 187.246  1.00  0.00     0.012 C 
ENDBRANCH   5  10
TORSDOF 2
ENDMDL
MODEL 3
REMARK VINA RESULT:    -4.106      2.008      4.582
REMARK INTER + INTRA:          -4.592
REMARK INTER:                  -4.467
REMARK INTRA:                  -0.125
REMARK UNBOUND:                -0.126
REMARK SMILES Cc1ccc(C(C)C)cc1O
REMARK SMILES IDX 1 1 2 2 10 3 9 4 5 5 4 6 3 7 11 8 6 10 7 11 8 12
REMARK H PARENT 11 9
REMARK Flexibility Score: inf
ROOT
ATOM      1  C   UNL     1     160.759 163.900 188.512  1.00  0.00     0.048 C 
ATOM      2  C   UNL     1     161.998 163.050 188.545  1.00  0.00    -0.009 A 
ATOM      3  C   UNL     1     161.912 161.664 188.325  1.00  0.00     0.118 A 
ATOM      4  C   UNL     1     163.073 160.877 188.358  1.00  0.00     0.050 A 
ATOM      5  C   UNL     1     164.327 161.459 188.609  1.00  0.00    -0.042 A 
ATOM      6  C   UNL     1     164.402 162.846 188.829  1.00  0.00     0.004 A 
ATOM      7  C   UNL     1     163.249 163.632 188.796  1.00  0.00     0.007 A 
ENDROOT
BRANCH   3   8
ATOM      8  O   UNL     1     160.675 161.072 188.075  1.00  0.00    -0.508 OA
ATOM      9  H   UNL     1     159.913 161.129 188.741  1.00  0.00     0.293 HD
ENDBRANCH   3   8
BRANCH   5  10
ATOM     10  C   UNL     1     165.573 160.592 188.642  1.00  0.00     0.013 C 
ATOM     11  C   UNL     1     166.553 160.991 187.532  1.00  0.00     0.012 C 
ATOM     12  C   UNL     1     166.247 160.644 190.018  1.00  0.00     0.012 C 
ENDBRANCH   5  10
TORSDOF 2
ENDMDL
MODEL 4
REMARK VINA RESULT:    -4.102     10.738     13.126
REMARK INTER + INTRA:          -4.587
REMARK INTER:                  -4.467
REMARK INTRA:                  -0.120
REMARK UNBOUND:                -0.126
REMARK SMILES Cc1ccc(C(C)C)cc1O
REMARK SMILES IDX 1 1 2 2 10 3 9 4 5 5 4 6 3 7 11 8 6 10 7 11 8 12
REMARK H PARENT 11 9
REMARK Flexibility Score: inf
ROOT
ATOM      1  C   UNL     1     177.987 165.580 187.764  1.00  0.00     0.048 C 
ATOM      2  C   UNL     1     177.142 164.351 187.949  1.00  0.00    -0.009 A 
ATOM      3  C   UNL     1     177.175 163.319 186.994  1.00  0.00     0.118 A 
ATOM      4  C   UNL     1     176.383 162.176 187.173  1.00  0.00     0.050 A 
ATOM      5  C   UNL     1     175.554 162.046 188.301  1.00  0.00    -0.042 A 
ATOM      6  C   UNL     1     175.529 163.083 189.250  1.00  0.00     0.004 A 
ATOM      7  C   UNL     1     176.316 164.223 189.075  1.00  0.00     0.007 A 
ENDROOT
BRANCH   3   8
ATOM      8  O   UNL     1     177.991 163.434 185.870  1.00  0.00    -0.508 OA
ATOM      9  H   UNL     1     178.515 162.644 185.510  1.00  0.00     0.293 HD
ENDBRANCH   3   8
BRANCH   5  10
ATOM     10  C   UNL     1     174.704 160.800 188.479  1.00  0.00     0.013 C 
ATOM     11  C   UNL     1     173.241 161.166 188.759  1.00  0.00     0.012 C 
ATOM     12  C   UNL     1     174.818 159.875 187.261  1.00  0.00     0.012 C 
ENDBRANCH   5  10
TORSDOF 2
ENDMDL
MODEL 5
REMARK VINA RESULT:    -4.091     16.995     18.281
REMARK INTER + INTRA:          -4.577
REMARK INTER:                  -4.477
REMARK INTRA:                  -0.100
REMARK UNBOUND:                -0.126
REMARK SMILES Cc1ccc(C(C)C)cc1O
REMARK SMILES IDX 1 1 2 2 10 3 9 4 5 5 4 6 3 7 11 8 6 10 7 11 8 12
REMARK H PARENT 11 9
REMARK Flexibility Score: inf
ROOT
ATOM      1  C   UNL     1     179.709 169.245 188.224  1.00  0.00     0.048 C 
ATOM      2  C   UNL     1     179.208 170.652 188.395  1.00  0.00    -0.009 A 
ATOM      3  C   UNL     1     177.831 170.904 188.519  1.00  0.00     0.118 A 
ATOM      4  C   UNL     1     177.372 172.219 188.678  1.00  0.00     0.050 A 
ATOM      5  C   UNL     1     178.275 173.295 188.717  1.00  0.00    -0.042 A 
ATOM      6  C   UNL     1     179.651 173.033 188.593  1.00  0.00     0.004 A 
ATOM      7  C   UNL     1     180.112 171.724 188.434  1.00  0.00     0.007 A 
ENDROOT
BRANCH   3   8
ATOM      8  O   UNL     1     176.922 169.847 188.482  1.00  0.00    -0.508 OA
ATOM      9  H   UNL     1     176.875 169.159 189.224  1.00  0.00     0.293 HD
ENDBRANCH   3   8
BRANCH   5  10
ATOM     10  C   UNL     1     177.761 174.713 188.891  1.00  0.00     0.013 C 
ATOM     11  C   UNL     1     176.754 175.073 187.791  1.00  0.00     0.012 C 
ATOM     12  C   UNL     1     177.152 174.914 190.284  1.00  0.00     0.012 C 
ENDBRANCH   5  10
TORSDOF 2
ENDMDL
MODEL 6
REMARK VINA RESULT:    -4.090      1.196      4.136
REMARK INTER + INTRA:          -4.575
REMARK INTER:                  -4.474
REMARK INTRA:                  -0.101
REMARK UNBOUND:                -0.126
REMARK SMILES Cc1ccc(C(C)C)cc1O
REMARK SMILES IDX 1 1 2 2 10 3 9 4 5 5 4 6 3 7 11 8 6 10 7 11 8 12
REMARK H PARENT 11 9
REMARK Flexibility Score: inf
ROOT
ATOM      1  C   UNL     1     160.892 163.551 188.447  1.00  0.00     0.048 C 
ATOM      2  C   UNL     1     162.186 162.790 188.515  1.00  0.00    -0.009 A 
ATOM      3  C   UNL     1     163.410 163.479 188.581  1.00  0.00     0.118 A 
ATOM      4  C   UNL     1     164.614 162.762 188.644  1.00  0.00     0.050 A 
ATOM      5  C   UNL     1     164.613 161.356 188.643  1.00  0.00    -0.042 A 
ATOM      6  C   UNL     1     163.384 160.677 188.576  1.00  0.00     0.004 A 
ATOM      7  C   UNL     1     162.183 161.388 188.513  1.00  0.00     0.007 A 
ENDROOT
BRANCH   3   8
ATOM      8  O   UNL     1     163.427 164.873 188.583  1.00  0.00    -0.508 OA
ATOM      9  H   UNL     1     163.796 165.400 189.367  1.00  0.00     0.293 HD
ENDBRANCH   3   8
BRANCH   5  10
ATOM     10  C   UNL     1     165.926 160.597 188.711  1.00  0.00     0.013 C 
ATOM     11  C   UNL     1     166.942 161.159 187.710  1.00  0.00     0.012 C 
ATOM     12  C   UNL     1     166.493 160.601 190.136  1.00  0.00     0.012 C 
ENDBRANCH   5  10
TORSDOF 2
ENDMDL
MODEL 7
REMARK VINA RESULT:    -3.975      1.971      2.483
REMARK INTER + INTRA:          -4.450
REMARK INTER:                  -4.324
REMARK INTRA:                  -0.126
REMARK UNBOUND:                -0.126
REMARK SMILES Cc1ccc(C(C)C)cc1O
REMARK SMILES IDX 1 1 2 2 10 3 9 4 5 5 4 6 3 7 11 8 6 10 7 11 8 12
REMARK H PARENT 11 9
REMARK Flexibility Score: inf
ROOT
ATOM      1  C   UNL     1     165.950 160.292 186.604  1.00  0.00     0.048 C 
ATOM      2  C   UNL     1     164.529 160.683 186.898  1.00  0.00    -0.009 A 
ATOM      3  C   UNL     1     164.060 160.704 188.223  1.00  0.00     0.118 A 
ATOM      4  C   UNL     1     162.732 161.069 188.490  1.00  0.00     0.050 A 
ATOM      5  C   UNL     1     161.859 161.417 187.444  1.00  0.00    -0.042 A 
ATOM      6  C   UNL     1     162.338 161.392 186.122  1.00  0.00     0.004 A 
ATOM      7  C   UNL     1     163.660 161.029 185.853  1.00  0.00     0.007 A 
ENDROOT
BRANCH   3   8
ATOM      8  O   UNL     1     164.913 160.361 189.272  1.00  0.00    -0.508 OA
ATOM      9  H   UNL     1     165.892 160.623 189.268  1.00  0.00     0.293 HD
ENDBRANCH   3   8
BRANCH   5  10
ATOM     10  C   UNL     1     160.425 161.809 187.751  1.00  0.00     0.013 C 
ATOM     11  C   UNL     1     160.307 162.415 189.155  1.00  0.00     0.012 C 
ATOM     12  C   UNL     1     159.875 162.768 186.688  1.00  0.00     0.012 C 
ENDBRANCH   5  10
TORSDOF 2
ENDMDL
MODEL 8
REMARK VINA RESULT:    -3.951      2.601      4.909
REMARK INTER + INTRA:          -4.424
REMARK INTER:                  -4.301
REMARK INTRA:                  -0.123
REMARK UNBOUND:                -0.126
REMARK SMILES Cc1ccc(C(C)C)cc1O
REMARK SMILES IDX 1 1 2 2 10 3 9 4 5 5 4 6 3 7 11 8 6 10 7 11 8 12
REMARK H PARENT 11 9
REMARK Flexibility Score: inf
ROOT
ATOM      1  C   UNL     1     161.822 161.158 185.765  1.00  0.00     0.048 C 
ATOM      2  C   UNL     1     163.020 161.000 186.658  1.00  0.00    -0.009 A 
ATOM      3  C   UNL     1     164.247 160.566 186.127  1.00  0.00     0.118 A 
ATOM      4  C   UNL     1     165.361 160.420 186.967  1.00  0.00     0.050 A 
ATOM      5  C   UNL     1     165.266 160.704 188.340  1.00  0.00    -0.042 A 
ATOM      6  C   UNL     1     164.034 161.137 188.862  1.00  0.00     0.004 A 
ATOM      7  C   UNL     1     162.923 161.283 188.028  1.00  0.00     0.007 A 
ENDROOT
BRANCH   3   8
ATOM      8  O   UNL     1     164.357 160.280 184.766  1.00  0.00    -0.508 OA
ATOM      9  H   UNL     1     164.528 161.008 184.082  1.00  0.00     0.293 HD
ENDBRANCH   3   8
BRANCH   5  10
ATOM     10  C   UNL     1     166.482 160.540 189.235  1.00  0.00     0.013 C 
ATOM     11  C   UNL     1     167.758 160.354 188.404  1.00  0.00     0.012 C 
ATOM     12  C   UNL     1     166.620 161.723 190.201  1.00  0.00     0.012 C 
ENDBRANCH   5  10
TORSDOF 2
ENDMDL
