MODEL 1
REMARK VINA RESULT:    -3.847      0.000      0.000
REMARK INTER + INTRA:          -9.064
REMARK INTER:                  -7.220
REMARK INTRA:                  -1.844
REMARK UNBOUND:                -1.844
REMARK SMILES O=C([O-])CCCCCCCCCCCCCCC(=O)[O-]
REMARK SMILES IDX 10 1 9 2 8 3 7 4 6 5 5 6 4 7 2 8 1 9 3 10 11 11 12 12 13 13
REMARK SMILES IDX 14 14 15 15 16 16 17 17 18 18 19 19 20 20
REMARK H PARENT
REMARK Flexibility Score: inf
ROOT
ATOM      1  C   UNL     1      23.489  12.241  20.456  1.00  0.00     0.000 C 
ENDROOT
BRANCH   1   2
ATOM      2  C   UNL     1      23.078  10.762  20.488  1.00  0.00     0.000 C 
BRANCH   2   3
ATOM      3  C   UNL     1      22.582  10.362  21.886  1.00  0.00     0.000 C 
BRANCH   3   4
ATOM      4  C   UNL     1      22.417  11.566  22.830  1.00  0.00     0.000 C 
BRANCH   4   5
ATOM      5  C   UNL     1      23.500  11.694  23.922  1.00  0.00     0.000 C 
BRANCH   5   6
ATOM      6  C   UNL     1      23.681  13.112  24.501  1.00  0.00     0.006 C 
BRANCH   6   7
ATOM      7  C   UNL     1      24.638  14.007  23.698  1.00  0.00     0.053 C 
BRANCH   7   8
ATOM      8  C   UNL     1      23.905  15.058  22.922  1.00  0.00     0.041 C 
ATOM      9  O   UNL     1      24.457  15.618  21.939  1.00  0.00    -0.550 OA
ATOM     10  O   UNL     1      22.602  15.395  23.265  1.00  0.00    -0.550 OA
ENDBRANCH   7   8
ENDBRANCH   6   7
ENDBRANCH   5   6
ENDBRANCH   4   5
ENDBRANCH   3   4
ENDBRANCH   2   3
ENDBRANCH   1   2
BRANCH   1  11
ATOM     11  C   UNL     1      25.008  12.433  20.306  1.00  0.00     0.000 C 
BRANCH  11  12
ATOM     12  C   UNL     1      25.806  11.205  20.777  1.00  0.00     0.000 C 
BRANCH  12  13
ATOM     13  C   UNL     1      26.723  11.510  21.977  1.00  0.00     0.000 C 
BRANCH  13  14
ATOM     14  C   UNL     1      26.847  10.380  23.015  1.00  0.00     0.000 C 
BRANCH  14  15
ATOM     15  C   UNL     1      28.016   9.423  22.723  1.00  0.00     0.000 C 
BRANCH  15  16
ATOM     16  C   UNL     1      28.966   9.962  21.637  1.00  0.00     0.006 C 
BRANCH  16  17
ATOM     17  C   UNL     1      29.789   8.879  20.920  1.00  0.00     0.053 C 
BRANCH  17  18
ATOM     18  C   UNL     1      30.115   9.265  19.510  1.00  0.00     0.041 C 
ATOM     19  O   UNL     1      31.295   9.569  19.192  1.00  0.00    -0.550 OA
ATOM     20  O   UNL     1      29.121   9.260  18.540  1.00  0.00    -0.550 OA
ENDBRANCH  17  18
ENDBRANCH  16  17
ENDBRANCH  15  16
ENDBRANCH  14  15
ENDBRANCH  13  14
ENDBRANCH  12  13
ENDBRANCH  11  12
ENDBRANCH   1  11
TORSDOF 15
ENDMDL
MODEL 2
REMARK VINA RESULT:    -3.845      1.182      6.961
REMARK INTER + INTRA:          -9.060
REMARK INTER:                  -7.224
REMARK INTRA:                  -1.836
REMARK UNBOUND:                -1.844
REMARK SMILES O=C([O-])CCCCCCCCCCCCCCC(=O)[O-]
REMARK SMILES IDX 10 1 9 2 8 3 7 4 6 5 5 6 4 7 2 8 1 9 3 10 11 11 12 12 13 13
REMARK SMILES IDX 14 14 15 15 16 16 17 17 18 18 19 19 20 20
REMARK H PARENT
REMARK Flexibility Score: inf
ROOT
ATOM      1  C   UNL     1      24.040  12.719  20.657  1.00  0.00     0.000 C 
ENDROOT
BRANCH   1   2
ATOM      2  C   UNL     1      25.315  11.903  20.398  1.00  0.00     0.000 C 
BRANCH   2   3
ATOM      3  C   UNL     1      26.289  12.021  21.579  1.00  0.00     0.000 C 
BRANCH   3   4
ATOM      4  C   UNL     1      26.629  10.660  22.214  1.00  0.00     0.000 C 
BRANCH   4   5
ATOM      5  C   UNL     1      28.130  10.306  22.238  1.00  0.00     0.000 C 
BRANCH   5   6
ATOM      6  C   UNL     1      28.497   8.964  21.572  1.00  0.00     0.006 C 
BRANCH   6   7
ATOM      7  C   UNL     1      29.951   8.875  21.085  1.00  0.00     0.053 C 
BRANCH   7   8
ATOM      8  C   UNL     1      30.082   9.245  19.639  1.00  0.00     0.041 C 
ATOM      9  O   UNL     1      31.170   9.700  19.199  1.00  0.00    -0.550 OA
ATOM     10  O   UNL     1      29.013   9.057  18.773  1.00  0.00    -0.550 OA
ENDBRANCH   7   8
ENDBRANCH   6   7
ENDBRANCH   5   6
ENDBRANCH   4   5
ENDBRANCH   3   4
ENDBRANCH   2   3
ENDBRANCH   1   2
BRANCH   1  11
ATOM     11  C   UNL     1      22.763  11.865  20.581  1.00  0.00     0.000 C 
BRANCH  11  12
ATOM     12  C   UNL     1      22.997  10.414  21.034  1.00  0.00     0.000 C 
BRANCH  12  13
ATOM     13  C   UNL     1      22.241  10.061  22.329  1.00  0.00     0.000 C 
BRANCH  13  14
ATOM     14  C   UNL     1      22.445  11.041  23.499  1.00  0.00     0.000 C 
BRANCH  14  15
ATOM     15  C   UNL     1      23.609  10.640  24.421  1.00  0.00     0.000 C 
BRANCH  15  16
ATOM     16  C   UNL     1      24.345  11.857  25.012  1.00  0.00     0.006 C 
BRANCH  16  17
ATOM     17  C   UNL     1      24.097  13.175  24.260  1.00  0.00     0.053 C 
BRANCH  17  18
ATOM     18  C   UNL     1      23.638  14.266  25.177  1.00  0.00     0.041 C 
ATOM     19  O   UNL     1      24.008  14.281  26.381  1.00  0.00    -0.550 OA
ATOM     20  O   UNL     1      22.826  15.285  24.695  1.00  0.00    -0.550 OA
ENDBRANCH  17  18
ENDBRANCH  16  17
ENDBRANCH  15  16
ENDBRANCH  14  15
ENDBRANCH  13  14
ENDBRANCH  12  13
ENDBRANCH  11  12
ENDBRANCH   1  11
TORSDOF 15
ENDMDL
MODEL 3
REMARK VINA RESULT:    -3.778      2.607      3.992
REMARK INTER + INTRA:          -8.934
REMARK INTER:                  -6.594
REMARK INTRA:                  -2.340
REMARK UNBOUND:                -1.844
REMARK SMILES O=C([O-])CCCCCCCCCCCCCCC(=O)[O-]
REMARK SMILES IDX 10 1 9 2 8 3 7 4 6 5 5 6 4 7 2 8 1 9 3 10 11 11 12 12 13 13
REMARK SMILES IDX 14 14 15 15 16 16 17 17 18 18 19 19 20 20
REMARK H PARENT
REMARK Flexibility Score: inf
ROOT
ATOM      1  C   UNL     1      23.020  10.529  23.876  1.00  0.00     0.000 C 
ENDROOT
BRANCH   1   2
ATOM      2  C   UNL     1      22.107  10.435  22.644  1.00  0.00     0.000 C 
BRANCH   2   3
ATOM      3  C   UNL     1      22.924  10.134  21.379  1.00  0.00     0.000 C 
BRANCH   3   4
ATOM      4  C   UNL     1      22.987  11.327  20.409  1.00  0.00     0.000 C 
BRANCH   4   5
ATOM      5  C   UNL     1      22.048  12.502  20.754  1.00  0.00     0.000 C 
BRANCH   5   6
ATOM      6  C   UNL     1      22.676  13.904  20.619  1.00  0.00     0.006 C 
BRANCH   6   7
ATOM      7  C   UNL     1      23.710  14.029  19.490  1.00  0.00     0.053 C 
BRANCH   7   8
ATOM      8  C   UNL     1      23.351  15.110  18.518  1.00  0.00     0.041 C 
ATOM      9  O   UNL     1      22.468  14.907  17.643  1.00  0.00    -0.550 OA
ATOM     10  O   UNL     1      23.969  16.352  18.599  1.00  0.00    -0.550 OA
ENDBRANCH   7   8
ENDBRANCH   6   7
ENDBRANCH   5   6
ENDBRANCH   4   5
ENDBRANCH   3   4
ENDBRANCH   2   3
ENDBRANCH   1   2
BRANCH   1  11
ATOM     11  C   UNL     1      23.267  11.980  24.322  1.00  0.00     0.000 C 
BRANCH  11  12
ATOM     12  C   UNL     1      24.529  12.123  25.190  1.00  0.00     0.000 C 
BRANCH  12  13
ATOM     13  C   UNL     1      25.649  12.917  24.493  1.00  0.00     0.000 C 
BRANCH  13  14
ATOM     14  C   UNL     1      25.405  13.234  23.006  1.00  0.00     0.000 C 
BRANCH  14  15
ATOM     15  C   UNL     1      26.400  12.526  22.071  1.00  0.00     0.000 C 
BRANCH  15  16
ATOM     16  C   UNL     1      26.315  10.991  22.165  1.00  0.00     0.006 C 
BRANCH  16  17
ATOM     17  C   UNL     1      27.678  10.279  22.169  1.00  0.00     0.053 C 
BRANCH  17  18
ATOM     18  C   UNL     1      28.055   9.797  23.535  1.00  0.00     0.041 C 
ATOM     19  O   UNL     1      29.254   9.524  23.804  1.00  0.00    -0.550 OA
ATOM     20  O   UNL     1      27.085   9.678  24.523  1.00  0.00    -0.550 OA
ENDBRANCH  17  18
ENDBRANCH  16  17
ENDBRANCH  15  16
ENDBRANCH  14  15
ENDBRANCH  13  14
ENDBRANCH  12  13
ENDBRANCH  11  12
ENDBRANCH   1  11
TORSDOF 15
ENDMDL
MODEL 4
REMARK VINA RESULT:    -3.771      2.438      6.511
REMARK INTER + INTRA:          -8.922
REMARK INTER:                  -7.427
REMARK INTRA:                  -1.495
REMARK UNBOUND:                -1.844
REMARK SMILES O=C([O-])CCCCCCCCCCCCCCC(=O)[O-]
REMARK SMILES IDX 10 1 9 2 8 3 7 4 6 5 5 6 4 7 2 8 1 9 3 10 11 11 12 12 13 13
REMARK SMILES IDX 14 14 15 15 16 16 17 17 18 18 19 19 20 20
REMARK H PARENT
REMARK Flexibility Score: inf
ROOT
ATOM      1  C   UNL     1      23.929  12.805  21.085  1.00  0.00     0.000 C 
ENDROOT
BRANCH   1   2
ATOM      2  C   UNL     1      25.265  12.256  20.562  1.00  0.00     0.000 C 
BRANCH   2   3
ATOM      3  C   UNL     1      26.309  12.195  21.686  1.00  0.00     0.000 C 
BRANCH   3   4
ATOM      4  C   UNL     1      26.561  10.763  22.194  1.00  0.00     0.000 C 
BRANCH   4   5
ATOM      5  C   UNL     1      28.047  10.376  22.346  1.00  0.00     0.000 C 
BRANCH   5   6
ATOM      6  C   UNL     1      28.531   9.255  21.403  1.00  0.00     0.006 C 
BRANCH   6   7
ATOM      7  C   UNL     1      29.993   9.395  20.952  1.00  0.00     0.053 C 
BRANCH   7   8
ATOM      8  C   UNL     1      30.126   9.344  19.460  1.00  0.00     0.041 C 
ATOM      9  O   UNL     1      29.125   9.077  18.745  1.00  0.00    -0.550 OA
ATOM     10  O   UNL     1      31.347   9.625  18.861  1.00  0.00    -0.550 OA
ENDBRANCH   7   8
ENDBRANCH   6   7
ENDBRANCH   5   6
ENDBRANCH   4   5
ENDBRANCH   3   4
ENDBRANCH   2   3
ENDBRANCH   1   2
BRANCH   1  11
ATOM     11  C   UNL     1      22.732  11.915  20.707  1.00  0.00     0.000 C 
BRANCH  11  12
ATOM     12  C   UNL     1      23.042  10.416  20.857  1.00  0.00     0.000 C 
BRANCH  12  13
ATOM     13  C   UNL     1      22.299   9.766  22.039  1.00  0.00     0.000 C 
BRANCH  13  14
ATOM     14  C   UNL     1      21.875  10.731  23.162  1.00  0.00     0.000 C 
BRANCH  14  15
ATOM     15  C   UNL     1      22.623  10.480  24.482  1.00  0.00     0.000 C 
BRANCH  15  16
ATOM     16  C   UNL     1      24.119  10.836  24.395  1.00  0.00     0.006 C 
BRANCH  16  17
ATOM     17  C   UNL     1      24.683  11.522  25.649  1.00  0.00     0.053 C 
BRANCH  17  18
ATOM     18  C   UNL     1      26.049  11.016  25.998  1.00  0.00     0.041 C 
ATOM     19  O   UNL     1      26.374   9.830  25.728  1.00  0.00    -0.550 OA
ATOM     20  O   UNL     1      26.973  11.864  26.595  1.00  0.00    -0.550 OA
ENDBRANCH  17  18
ENDBRANCH  16  17
ENDBRANCH  15  16
ENDBRANCH  14  15
ENDBRANCH  13  14
ENDBRANCH  12  13
ENDBRANCH  11  12
ENDBRANCH   1  11
TORSDOF 15
ENDMDL
MODEL 5
REMARK VINA RESULT:    -3.742      2.143      6.537
REMARK INTER + INTRA:          -8.866
REMARK INTER:                  -6.632
REMARK INTRA:                  -2.235
REMARK UNBOUND:                -1.844
REMARK SMILES O=C([O-])CCCCCCCCCCCCCCC(=O)[O-]
REMARK SMILES IDX 10 1 9 2 8 3 7 4 6 5 5 6 4 7 2 8 1 9 3 10 11 11 12 12 13 13
REMARK SMILES IDX 14 14 15 15 16 16 17 17 18 18 19 19 20 20
REMARK H PARENT
REMARK Flexibility Score: inf
ROOT
ATOM      1  C   UNL     1      23.377  11.224  23.726  1.00  0.00     0.000 C 
ENDROOT
BRANCH   1   2
ATOM      2  C   UNL     1      23.446  12.665  24.253  1.00  0.00     0.000 C 
BRANCH   2   3
ATOM      3  C   UNL     1      23.867  13.635  23.140  1.00  0.00     0.000 C 
BRANCH   3   4
ATOM      4  C   UNL     1      25.379  13.928  23.140  1.00  0.00     0.000 C 
BRANCH   4   5
ATOM      5  C   UNL     1      26.215  13.056  22.180  1.00  0.00     0.000 C 
BRANCH   5   6
ATOM      6  C   UNL     1      26.948  11.872  22.842  1.00  0.00     0.006 C 
BRANCH   6   7
ATOM      7  C   UNL     1      26.918  10.572  22.024  1.00  0.00     0.053 C 
BRANCH   7   8
ATOM      8  C   UNL     1      28.268   9.928  21.945  1.00  0.00     0.041 C 
ATOM      9  O   UNL     1      28.592   9.259  20.928  1.00  0.00    -0.550 OA
ATOM     10  O   UNL     1      29.180  10.093  22.980  1.00  0.00    -0.550 OA
ENDBRANCH   7   8
ENDBRANCH   6   7
ENDBRANCH   5   6
ENDBRANCH   4   5
ENDBRANCH   3   4
ENDBRANCH   2   3
ENDBRANCH   1   2
BRANCH   1  11
ATOM     11  C   UNL     1      22.374  11.063  22.570  1.00  0.00     0.000 C 
BRANCH  11  12
ATOM     12  C   UNL     1      22.973  10.304  21.373  1.00  0.00     0.000 C 
BRANCH  12  13
ATOM     13  C   UNL     1      23.698  11.231  20.378  1.00  0.00     0.000 C 
BRANCH  13  14
ATOM     14  C   UNL     1      22.868  12.421  19.862  1.00  0.00     0.000 C 
BRANCH  14  15
ATOM     15  C   UNL     1      23.738  13.576  19.339  1.00  0.00     0.000 C 
BRANCH  15  16
ATOM     16  C   UNL     1      23.120  14.959  19.619  1.00  0.00     0.006 C 
BRANCH  16  17
ATOM     17  C   UNL     1      23.845  16.129  18.935  1.00  0.00     0.053 C 
BRANCH  17  18
ATOM     18  C   UNL     1      24.287  17.167  19.919  1.00  0.00     0.041 C 
ATOM     19  O   UNL     1      24.691  18.291  19.518  1.00  0.00    -0.550 OA
ATOM     20  O   UNL     1      24.225  16.905  21.282  1.00  0.00    -0.550 OA
ENDBRANCH  17  18
ENDBRANCH  16  17
ENDBRANCH  15  16
ENDBRANCH  14  15
ENDBRANCH  13  14
ENDBRANCH  12  13
ENDBRANCH  11  12
ENDBRANCH   1  11
TORSDOF 15
ENDMDL
MODEL 6
REMARK VINA RESULT:    -3.728      1.476      6.969
REMARK INTER + INTRA:          -8.842
REMARK INTER:                  -6.833
REMARK INTRA:                  -2.009
REMARK UNBOUND:                -1.844
REMARK SMILES O=C([O-])CCCCCCCCCCCCCCC(=O)[O-]
REMARK SMILES IDX 10 1 9 2 8 3 7 4 6 5 5 6 4 7 2 8 1 9 3 10 11 11 12 12 13 13
REMARK SMILES IDX 14 14 15 15 16 16 17 17 18 18 19 19 20 20
REMARK H PARENT
REMARK Flexibility Score: inf
ROOT
ATOM      1  C   UNL     1      25.149  11.847  20.365  1.00  0.00     0.000 C 
ENDROOT
BRANCH   1   2
ATOM      2  C   UNL     1      26.164  11.938  21.515  1.00  0.00     0.000 C 
BRANCH   2   3
ATOM      3  C   UNL     1      25.943  10.808  22.531  1.00  0.00     0.000 C 
BRANCH   3   4
ATOM      4  C   UNL     1      27.261  10.209  23.056  1.00  0.00     0.000 C 
BRANCH   4   5
ATOM      5  C   UNL     1      28.543  10.819  22.452  1.00  0.00     0.000 C 
BRANCH   5   6
ATOM      6  C   UNL     1      29.494   9.809  21.778  1.00  0.00     0.006 C 
BRANCH   6   7
ATOM      7  C   UNL     1      28.892   9.085  20.564  1.00  0.00     0.053 C 
BRANCH   7   8
ATOM      8  C   UNL     1      29.680   9.336  19.315  1.00  0.00     0.041 C 
ATOM      9  O   UNL     1      30.930   9.472  19.372  1.00  0.00    -0.550 OA
ATOM     10  O   UNL     1      29.036   9.387  18.085  1.00  0.00    -0.550 OA
ENDBRANCH   7   8
ENDBRANCH   6   7
ENDBRANCH   5   6
ENDBRANCH   4   5
ENDBRANCH   3   4
ENDBRANCH   2   3
ENDBRANCH   1   2
BRANCH   1  11
ATOM     11  C   UNL     1      23.866  11.097  20.764  1.00  0.00     0.000 C 
BRANCH  11  12
ATOM     12  C   UNL     1      22.593  11.806  20.272  1.00  0.00     0.000 C 
BRANCH  12  13
ATOM     13  C   UNL     1      22.893  13.043  19.405  1.00  0.00     0.000 C 
BRANCH  13  14
ATOM     14  C   UNL     1      22.452  14.391  20.005  1.00  0.00     0.000 C 
BRANCH  14  15
ATOM     15  C   UNL     1      23.636  15.308  20.354  1.00  0.00     0.000 C 
BRANCH  15  16
ATOM     16  C   UNL     1      24.026  15.235  21.842  1.00  0.00     0.006 C 
BRANCH  16  17
ATOM     17  C   UNL     1      22.989  14.537  22.736  1.00  0.00     0.053 C 
BRANCH  17  18
ATOM     18  C   UNL     1      23.626  13.561  23.677  1.00  0.00     0.041 C 
ATOM     19  O   UNL     1      24.728  13.833  24.222  1.00  0.00    -0.550 OA
ATOM     20  O   UNL     1      22.986  12.365  23.977  1.00  0.00    -0.550 OA
ENDBRANCH  17  18
ENDBRANCH  16  17
ENDBRANCH  15  16
ENDBRANCH  14  15
ENDBRANCH  13  14
ENDBRANCH  12  13
ENDBRANCH  11  12
ENDBRANCH   1  11
TORSDOF 15
ENDMDL
MODEL 7
REMARK VINA RESULT:    -3.694      2.569      3.953
REMARK INTER + INTRA:          -8.777
REMARK INTER:                  -6.594
REMARK INTRA:                  -2.183
REMARK UNBOUND:                -1.844
REMARK SMILES O=C([O-])CCCCCCCCCCCCCCC(=O)[O-]
REMARK SMILES IDX 10 1 9 2 8 3 7 4 6 5 5 6 4 7 2 8 1 9 3 10 11 11 12 12 13 13
REMARK SMILES IDX 14 14 15 15 16 16 17 17 18 18 19 19 20 20
REMARK H PARENT
REMARK Flexibility Score: inf
ROOT
ATOM      1  C   UNL     1      22.839  13.005  24.015  1.00  0.00     0.000 C 
ENDROOT
BRANCH   1   2
ATOM      2  C   UNL     1      23.344  11.793  24.812  1.00  0.00     0.000 C 
BRANCH   2   3
ATOM      3  C   UNL     1      23.103  10.490  24.036  1.00  0.00     0.000 C 
BRANCH   3   4
ATOM      4  C   UNL     1      22.306  10.705  22.736  1.00  0.00     0.000 C 
BRANCH   4   5
ATOM      5  C   UNL     1      22.953  10.111  21.467  1.00  0.00     0.000 C 
BRANCH   5   6
ATOM      6  C   UNL     1      23.398  11.147  20.414  1.00  0.00     0.006 C 
BRANCH   6   7
ATOM      7  C   UNL     1      22.576  12.445  20.415  1.00  0.00     0.053 C 
BRANCH   7   8
ATOM      8  C   UNL     1      23.271  13.549  19.680  1.00  0.00     0.041 C 
ATOM      9  O   UNL     1      24.468  13.409  19.312  1.00  0.00    -0.550 OA
ATOM     10  O   UNL     1      22.588  14.719  19.372  1.00  0.00    -0.550 OA
ENDBRANCH   7   8
ENDBRANCH   6   7
ENDBRANCH   5   6
ENDBRANCH   4   5
ENDBRANCH   3   4
ENDBRANCH   2   3
ENDBRANCH   1   2
BRANCH   1  11
ATOM     11  C   UNL     1      23.846  14.168  24.004  1.00  0.00     0.000 C 
BRANCH  11  12
ATOM     12  C   UNL     1      25.306  13.683  23.985  1.00  0.00     0.000 C 
BRANCH  12  13
ATOM     13  C   UNL     1      25.762  13.209  22.592  1.00  0.00     0.000 C 
BRANCH  13  14
ATOM     14  C   UNL     1      26.978  12.265  22.584  1.00  0.00     0.000 C 
BRANCH  14  15
ATOM     15  C   UNL     1      26.626  10.836  22.138  1.00  0.00     0.000 C 
BRANCH  15  16
ATOM     16  C   UNL     1      27.582   9.779  22.721  1.00  0.00     0.006 C 
BRANCH  16  17
ATOM     17  C   UNL     1      27.441   9.561  24.236  1.00  0.00     0.053 C 
BRANCH  17  18
ATOM     18  C   UNL     1      28.768   9.567  24.929  1.00  0.00     0.041 C 
ATOM     19  O   UNL     1      28.855   9.930  26.132  1.00  0.00    -0.550 OA
ATOM     20  O   UNL     1      29.907   9.141  24.256  1.00  0.00    -0.550 OA
ENDBRANCH  17  18
ENDBRANCH  16  17
ENDBRANCH  15  16
ENDBRANCH  14  15
ENDBRANCH  13  14
ENDBRANCH  12  13
ENDBRANCH  11  12
ENDBRANCH   1  11
TORSDOF 15
ENDMDL
MODEL 8
REMARK VINA RESULT:    -3.653     14.405     16.164
REMARK INTER + INTRA:          -8.699
REMARK INTER:                  -6.957
REMARK INTRA:                  -1.742
REMARK UNBOUND:                -1.844
REMARK SMILES O=C([O-])CCCCCCCCCCCCCCC(=O)[O-]
REMARK SMILES IDX 10 1 9 2 8 3 7 4 6 5 5 6 4 7 2 8 1 9 3 10 11 11 12 12 13 13
REMARK SMILES IDX 14 14 15 15 16 16 17 17 18 18 19 19 20 20
REMARK H PARENT
REMARK Flexibility Score: inf
ROOT
ATOM      1  C   UNL     1      25.720  25.189  23.448  1.00  0.00     0.000 C 
ENDROOT
BRANCH   1   2
ATOM      2  C   UNL     1      25.372  26.151  24.594  1.00  0.00     0.000 C 
BRANCH   2   3
ATOM      3  C   UNL     1      24.128  25.668  25.354  1.00  0.00     0.000 C 
BRANCH   3   4
ATOM      4  C   UNL     1      22.812  26.175  24.735  1.00  0.00     0.000 C 
BRANCH   4   5
ATOM      5  C   UNL     1      22.785  27.681  24.399  1.00  0.00     0.000 C 
BRANCH   5   6
ATOM      6  C   UNL     1      22.358  28.023  22.958  1.00  0.00     0.006 C 
BRANCH   6   7
ATOM      7  C   UNL     1      22.920  27.073  21.888  1.00  0.00     0.053 C 
BRANCH   7   8
ATOM      8  C   UNL     1      23.524  27.819  20.738  1.00  0.00     0.041 C 
ATOM      9  O   UNL     1      23.147  28.992  20.477  1.00  0.00    -0.550 OA
ATOM     10  O   UNL     1      24.526  27.230  19.976  1.00  0.00    -0.550 OA
ENDBRANCH   7   8
ENDBRANCH   6   7
ENDBRANCH   5   6
ENDBRANCH   4   5
ENDBRANCH   3   4
ENDBRANCH   2   3
ENDBRANCH   1   2
BRANCH   1  11
ATOM     11  C   UNL     1      26.756  25.777  22.474  1.00  0.00     0.000 C 
BRANCH  11  12
ATOM     12  C   UNL     1      26.938  27.294  22.655  1.00  0.00     0.000 C 
BRANCH  12  13
ATOM     13  C   UNL     1      28.408  27.699  22.878  1.00  0.00     0.000 C 
BRANCH  13  14
ATOM     14  C   UNL     1      28.877  28.937  22.091  1.00  0.00     0.000 C 
BRANCH  14  15
ATOM     15  C   UNL     1      30.244  28.735  21.415  1.00  0.00     0.000 C 
BRANCH  15  16
ATOM     16  C   UNL     1      30.119  28.324  19.935  1.00  0.00     0.006 C 
BRANCH  16  17
ATOM     17  C   UNL     1      28.771  28.681  19.289  1.00  0.00     0.053 C 
BRANCH  17  18
ATOM     18  C   UNL     1      28.202  27.536  18.510  1.00  0.00     0.041 C 
ATOM     19  O   UNL     1      28.140  27.592  17.253  1.00  0.00    -0.550 OA
ATOM     20  O   UNL     1      27.769  26.392  19.169  1.00  0.00    -0.550 OA
ENDBRANCH  17  18
ENDBRANCH  16  17
ENDBRANCH  15  16
ENDBRANCH  14  15
ENDBRANCH  13  14
ENDBRANCH  12  13
ENDBRANCH  11  12
ENDBRANCH   1  11
TORSDOF 15
ENDMDL
MODEL 9
REMARK VINA RESULT:    -3.631      3.309      4.861
REMARK INTER + INTRA:          -8.658
REMARK INTER:                  -6.185
REMARK INTRA:                  -2.474
REMARK UNBOUND:                -1.844
REMARK SMILES O=C([O-])CCCCCCCCCCCCCCC(=O)[O-]
REMARK SMILES IDX 10 1 9 2 8 3 7 4 6 5 5 6 4 7 2 8 1 9 3 10 11 11 12 12 13 13
REMARK SMILES IDX 14 14 15 15 16 16 17 17 18 18 19 19 20 20
REMARK H PARENT
REMARK Flexibility Score: inf
ROOT
ATOM      1  C   UNL     1      25.169  11.875  20.554  1.00  0.00     0.000 C 
ENDROOT
BRANCH   1   2
ATOM      2  C   UNL     1      25.654  11.098  21.787  1.00  0.00     0.000 C 
BRANCH   2   3
ATOM      3  C   UNL     1      26.732  11.888  22.543  1.00  0.00     0.000 C 
BRANCH   3   4
ATOM      4  C   UNL     1      26.374  13.375  22.717  1.00  0.00     0.000 C 
BRANCH   4   5
ATOM      5  C   UNL     1      25.692  13.731  24.054  1.00  0.00     0.000 C 
BRANCH   5   6
ATOM      6  C   UNL     1      24.510  14.716  23.945  1.00  0.00     0.006 C 
BRANCH   6   7
ATOM      7  C   UNL     1      23.595  14.475  22.734  1.00  0.00     0.053 C 
BRANCH   7   8
ATOM      8  C   UNL     1      23.749  15.542  21.694  1.00  0.00     0.041 C 
ATOM      9  O   UNL     1      24.129  16.697  22.024  1.00  0.00    -0.550 OA
ATOM     10  O   UNL     1      23.503  15.253  20.358  1.00  0.00    -0.550 OA
ENDBRANCH   7   8
ENDBRANCH   6   7
ENDBRANCH   5   6
ENDBRANCH   4   5
ENDBRANCH   3   4
ENDBRANCH   2   3
ENDBRANCH   1   2
BRANCH   1  11
ATOM     11  C   UNL     1      23.660  11.712  20.306  1.00  0.00     0.000 C 
BRANCH  11  12
ATOM     12  C   UNL     1      23.045  10.574  21.140  1.00  0.00     0.000 C 
BRANCH  12  13
ATOM     13  C   UNL     1      22.097  11.083  22.242  1.00  0.00     0.000 C 
BRANCH  13  14
ATOM     14  C   UNL     1      22.229  10.374  23.603  1.00  0.00     0.000 C 
BRANCH  14  15
ATOM     15  C   UNL     1      23.107  11.150  24.600  1.00  0.00     0.000 C 
BRANCH  15  16
ATOM     16  C   UNL     1      24.347  10.352  25.045  1.00  0.00     0.006 C 
BRANCH  16  17
ATOM     17  C   UNL     1      25.047  10.910  26.295  1.00  0.00     0.053 C 
BRANCH  17  18
ATOM     18  C   UNL     1      26.221  10.074  26.700  1.00  0.00     0.041 C 
ATOM     19  O   UNL     1      26.961  10.439  27.651  1.00  0.00    -0.550 OA
ATOM     20  O   UNL     1      26.479   8.875  26.048  1.00  0.00    -0.550 OA
ENDBRANCH  17  18
ENDBRANCH  16  17
ENDBRANCH  15  16
ENDBRANCH  14  15
ENDBRANCH  13  14
ENDBRANCH  12  13
ENDBRANCH  11  12
ENDBRANCH   1  11
TORSDOF 15
ENDMDL
