MODEL 1
REMARK VINA RESULT:    -2.939      0.000      0.000
REMARK INTER + INTRA:         -10.756
REMARK INTER:                  -6.718
REMARK INTRA:                  -4.038
REMARK UNBOUND:                -4.038
REMARK SMILES CCCCCCCCCCCCCCCCCCCCCCCC(=O)[O-]
REMARK SMILES IDX 13 1 14 2 15 3 16 4 17 5 18 6 19 7 20 8 21 9 22 10 23 11
REMARK SMILES IDX 24 12 25 13 26 14 12 15 11 16 10 17 9 18 8 19 7 20 6 21 5 22
REMARK SMILES IDX 4 23 3 24 2 25 1 26
REMARK H PARENT
REMARK Flexibility Score: inf
ROOT
ATOM      1  C   UNL     1     -11.047 -20.821  20.144  1.00  0.00     0.000 C 
ENDROOT
BRANCH   1   2
ATOM      2  C   UNL     1     -11.703 -19.440  20.297  1.00  0.00     0.000 C 
BRANCH   2   3
ATOM      3  C   UNL     1     -13.018 -19.323  19.508  1.00  0.00     0.000 C 
BRANCH   3   4
ATOM      4  C   UNL     1     -12.980 -18.202  18.454  1.00  0.00     0.000 C 
BRANCH   4   5
ATOM      5  C   UNL     1     -11.580 -17.989  17.837  1.00  0.00     0.000 C 
BRANCH   5   6
ATOM      6  C   UNL     1     -11.239 -19.061  16.787  1.00  0.00     0.000 C 
BRANCH   6   7
ATOM      7  C   UNL     1      -9.726 -19.148  16.500  1.00  0.00     0.000 C 
BRANCH   7   8
ATOM      8  C   UNL     1      -8.879 -18.143  17.300  1.00  0.00     0.000 C 
BRANCH   8   9
ATOM      9  C   UNL     1      -7.612 -18.771  17.896  1.00  0.00     0.000 C 
BRANCH   9  10
ATOM     10  C   UNL     1      -7.956 -19.726  19.049  1.00  0.00     0.006 C 
BRANCH  10  11
ATOM     11  C   UNL     1      -7.936 -19.022  20.412  1.00  0.00     0.053 C 
BRANCH  11  12
ATOM     12  C   UNL     1      -6.558 -18.565  20.784  1.00  0.00     0.041 C 
ATOM     13  O   UNL     1      -6.335 -17.347  21.015  1.00  0.00    -0.550 OA
ATOM     14  O   UNL     1      -5.512 -19.476  20.831  1.00  0.00    -0.550 OA
ENDBRANCH  11  12
ENDBRANCH  10  11
ENDBRANCH   9  10
ENDBRANCH   8   9
ENDBRANCH   7   8
ENDBRANCH   6   7
ENDBRANCH   5   6
ENDBRANCH   4   5
ENDBRANCH   3   4
ENDBRANCH   2   3
ENDBRANCH   1   2
BRANCH   1  15
ATOM     15  C   UNL     1     -11.858 -21.763  19.235  1.00  0.00     0.000 C 
BRANCH  15  16
ATOM     16  C   UNL     1     -11.634 -23.247  19.564  1.00  0.00     0.000 C 
BRANCH  16  17
ATOM     17  C   UNL     1     -11.149 -23.466  21.008  1.00  0.00     0.000 C 
BRANCH  17  18
ATOM     18  C   UNL     1     -12.299 -23.772  21.986  1.00  0.00    -0.000 C 
BRANCH  18  19
ATOM     19  C   UNL     1     -11.965 -23.572  23.477  1.00  0.00    -0.000 C 
BRANCH  19  20
ATOM     20  C   UNL     1     -12.776 -22.438  24.128  1.00  0.00    -0.000 C 
BRANCH  20  21
ATOM     21  C   UNL     1     -12.773 -21.152  23.286  1.00  0.00    -0.000 C 
BRANCH  21  22
ATOM     22  C   UNL     1     -14.183 -20.738  22.827  1.00  0.00    -0.000 C 
BRANCH  22  23
ATOM     23  C   UNL     1     -15.246 -21.795  23.163  1.00  0.00    -0.000 C 
BRANCH  23  24
ATOM     24  C   UNL     1     -15.760 -22.530  21.913  1.00  0.00    -0.000 C 
BRANCH  24  25
ATOM     25  C   UNL     1     -15.219 -21.924  20.609  1.00  0.00    -0.003 C 
ATOM     26  C   UNL     1     -15.632 -22.722  19.372  1.00  0.00     0.004 C 
ENDBRANCH  24  25
ENDBRANCH  23  24
ENDBRANCH  22  23
ENDBRANCH  21  22
ENDBRANCH  20  21
ENDBRANCH  19  20
ENDBRANCH  18  19
ENDBRANCH  17  18
ENDBRANCH  16  17
ENDBRANCH  15  16
ENDBRANCH   1  15
TORSDOF 22
ENDMDL
MODEL 2
REMARK VINA RESULT:    -2.938     10.363     13.023
REMARK INTER + INTRA:         -10.755
REMARK INTER:                  -6.473
REMARK INTRA:                  -4.283
REMARK UNBOUND:                -4.038
REMARK SMILES CCCCCCCCCCCCCCCCCCCCCCCC(=O)[O-]
REMARK SMILES IDX 13 1 14 2 15 3 16 4 17 5 18 6 19 7 20 8 21 9 22 10 23 11
REMARK SMILES IDX 24 12 25 13 26 14 12 15 11 16 10 17 9 18 8 19 7 20 6 21 5 22
REMARK SMILES IDX 4 23 3 24 2 25 1 26
REMARK H PARENT
REMARK Flexibility Score: inf
ROOT
ATOM      1  C   UNL     1     -12.208 -14.814  28.836  1.00  0.00     0.000 C 
ENDROOT
BRANCH   1   2
ATOM      2  C   UNL     1     -13.026 -13.692  29.492  1.00  0.00     0.000 C 
BRANCH   2   3
ATOM      3  C   UNL     1     -12.888 -13.682  31.024  1.00  0.00     0.000 C 
BRANCH   3   4
ATOM      4  C   UNL     1     -14.245 -13.773  31.743  1.00  0.00     0.000 C 
BRANCH   4   5
ATOM      5  C   UNL     1     -14.603 -15.205  32.197  1.00  0.00     0.000 C 
BRANCH   5   6
ATOM      6  C   UNL     1     -15.719 -15.825  31.337  1.00  0.00     0.000 C 
BRANCH   6   7
ATOM      7  C   UNL     1     -16.450 -14.777  30.473  1.00  0.00     0.000 C 
BRANCH   7   8
ATOM      8  C   UNL     1     -16.623 -15.190  29.001  1.00  0.00     0.000 C 
BRANCH   8   9
ATOM      9  C   UNL     1     -16.355 -14.040  28.021  1.00  0.00     0.000 C 
BRANCH   9  10
ATOM     10  C   UNL     1     -15.967 -14.574  26.634  1.00  0.00     0.006 C 
BRANCH  10  11
ATOM     11  C   UNL     1     -17.190 -14.786  25.731  1.00  0.00     0.053 C 
BRANCH  11  12
ATOM     12  C   UNL     1     -18.086 -13.584  25.714  1.00  0.00     0.041 C 
ATOM     13  O   UNL     1     -19.264 -13.666  26.151  1.00  0.00    -0.550 OA
ATOM     14  O   UNL     1     -17.634 -12.388  25.174  1.00  0.00    -0.550 OA
ENDBRANCH  11  12
ENDBRANCH  10  11
ENDBRANCH   9  10
ENDBRANCH   8   9
ENDBRANCH   7   8
ENDBRANCH   6   7
ENDBRANCH   5   6
ENDBRANCH   4   5
ENDBRANCH   3   4
ENDBRANCH   2   3
ENDBRANCH   1   2
BRANCH   1  15
ATOM     15  C   UNL     1     -13.038 -16.088  28.595  1.00  0.00     0.000 C 
BRANCH  15  16
ATOM     16  C   UNL     1     -12.810 -17.160  29.672  1.00  0.00     0.000 C 
BRANCH  16  17
ATOM     17  C   UNL     1     -11.339 -17.251  30.113  1.00  0.00     0.000 C 
BRANCH  17  18
ATOM     18  C   UNL     1     -11.130 -16.853  31.587  1.00  0.00    -0.000 C 
BRANCH  18  19
ATOM     19  C   UNL     1      -9.827 -16.086  31.882  1.00  0.00    -0.000 C 
BRANCH  19  20
ATOM     20  C   UNL     1      -8.728 -16.343  30.836  1.00  0.00    -0.000 C 
BRANCH  20  21
ATOM     21  C   UNL     1      -8.261 -15.053  30.144  1.00  0.00    -0.000 C 
BRANCH  21  22
ATOM     22  C   UNL     1      -9.059 -13.814  30.591  1.00  0.00    -0.000 C 
BRANCH  22  23
ATOM     23  C   UNL     1      -8.873 -12.620  29.642  1.00  0.00    -0.000 C 
BRANCH  23  24
ATOM     24  C   UNL     1     -10.097 -11.689  29.620  1.00  0.00    -0.000 C 
BRANCH  24  25
ATOM     25  C   UNL     1     -10.490 -11.266  28.196  1.00  0.00    -0.003 C 
ATOM     26  C   UNL     1      -9.293 -11.203  27.248  1.00  0.00     0.004 C 
ENDBRANCH  24  25
ENDBRANCH  23  24
ENDBRANCH  22  23
ENDBRANCH  21  22
ENDBRANCH  20  21
ENDBRANCH  19  20
ENDBRANCH  18  19
ENDBRANCH  17  18
ENDBRANCH  16  17
ENDBRANCH  15  16
ENDBRANCH   1  15
TORSDOF 22
ENDMDL
MODEL 3
REMARK VINA RESULT:    -2.933      8.917     11.154
REMARK INTER + INTRA:         -10.743
REMARK INTER:                  -7.468
REMARK INTRA:                  -3.275
REMARK UNBOUND:                -4.038
REMARK SMILES CCCCCCCCCCCCCCCCCCCCCCCC(=O)[O-]
REMARK SMILES IDX 13 1 14 2 15 3 16 4 17 5 18 6 19 7 20 8 21 9 22 10 23 11
REMARK SMILES IDX 24 12 25 13 26 14 12 15 11 16 10 17 9 18 8 19 7 20 6 21 5 22
REMARK SMILES IDX 4 23 3 24 2 25 1 26
REMARK H PARENT
REMARK Flexibility Score: inf
ROOT
ATOM      1  C   UNL     1     -18.569 -16.417  25.910  1.00  0.00     0.000 C 
ENDROOT
BRANCH   1   2
ATOM      2  C   UNL     1     -17.524 -15.923  26.922  1.00  0.00     0.000 C 
BRANCH   2   3
ATOM      3  C   UNL     1     -16.185 -15.562  26.257  1.00  0.00     0.000 C 
BRANCH   3   4
ATOM      4  C   UNL     1     -15.005 -16.372  26.822  1.00  0.00     0.000 C 
BRANCH   4   5
ATOM      5  C   UNL     1     -15.302 -17.011  28.196  1.00  0.00     0.000 C 
BRANCH   5   6
ATOM      6  C   UNL     1     -14.102 -16.908  29.154  1.00  0.00     0.000 C 
BRANCH   6   7
ATOM      7  C   UNL     1     -12.978 -16.008  28.600  1.00  0.00     0.000 C 
BRANCH   7   8
ATOM      8  C   UNL     1     -11.805 -15.802  29.574  1.00  0.00     0.000 C 
BRANCH   8   9
ATOM      9  C   UNL     1     -11.182 -17.121  30.049  1.00  0.00     0.000 C 
BRANCH   9  10
ATOM     10  C   UNL     1      -9.878 -16.872  30.821  1.00  0.00     0.006 C 
BRANCH  10  11
ATOM     11  C   UNL     1      -9.126 -15.636  30.308  1.00  0.00     0.053 C 
BRANCH  11  12
ATOM     12  C   UNL     1      -7.640 -15.814  30.384  1.00  0.00     0.041 C 
ATOM     13  O   UNL     1      -6.953 -15.860  29.330  1.00  0.00    -0.550 OA
ATOM     14  O   UNL     1      -7.022 -15.975  31.617  1.00  0.00    -0.550 OA
ENDBRANCH  11  12
ENDBRANCH  10  11
ENDBRANCH   9  10
ENDBRANCH   8   9
ENDBRANCH   7   8
ENDBRANCH   6   7
ENDBRANCH   5   6
ENDBRANCH   4   5
ENDBRANCH   3   4
ENDBRANCH   2   3
ENDBRANCH   1   2
BRANCH   1  15
ATOM     15  C   UNL     1     -17.930 -17.109  24.692  1.00  0.00     0.000 C 
BRANCH  15  16
ATOM     16  C   UNL     1     -18.600 -16.718  23.366  1.00  0.00     0.000 C 
BRANCH  16  17
ATOM     17  C   UNL     1     -19.903 -15.926  23.573  1.00  0.00     0.000 C 
BRANCH  17  18
ATOM     18  C   UNL     1     -19.825 -14.489  23.023  1.00  0.00    -0.000 C 
BRANCH  18  19
ATOM     19  C   UNL     1     -18.405 -13.979  22.715  1.00  0.00    -0.000 C 
BRANCH  19  20
ATOM     20  C   UNL     1     -18.046 -12.697  23.486  1.00  0.00    -0.000 C 
BRANCH  20  21
ATOM     21  C   UNL     1     -18.377 -12.798  24.983  1.00  0.00    -0.000 C 
BRANCH  21  22
ATOM     22  C   UNL     1     -17.345 -12.077  25.871  1.00  0.00    -0.000 C 
BRANCH  22  23
ATOM     23  C   UNL     1     -17.657 -12.219  27.369  1.00  0.00    -0.000 C 
BRANCH  23  24
ATOM     24  C   UNL     1     -16.482 -11.776  28.259  1.00  0.00    -0.000 C 
BRANCH  24  25
ATOM     25  C   UNL     1     -15.672 -12.965  28.798  1.00  0.00    -0.003 C 
ATOM     26  C   UNL     1     -16.468 -13.825  29.780  1.00  0.00     0.004 C 
ENDBRANCH  24  25
ENDBRANCH  23  24
ENDBRANCH  22  23
ENDBRANCH  21  22
ENDBRANCH  20  21
ENDBRANCH  19  20
ENDBRANCH  18  19
ENDBRANCH  17  18
ENDBRANCH  16  17
ENDBRANCH  15  16
ENDBRANCH   1  15
TORSDOF 22
ENDMDL
MODEL 4
REMARK VINA RESULT:    -2.884      1.751      3.632
REMARK INTER + INTRA:         -10.631
REMARK INTER:                  -6.378
REMARK INTRA:                  -4.253
REMARK UNBOUND:                -4.038
REMARK SMILES CCCCCCCCCCCCCCCCCCCCCCCC(=O)[O-]
REMARK SMILES IDX 13 1 14 2 15 3 16 4 17 5 18 6 19 7 20 8 21 9 22 10 23 11
REMARK SMILES IDX 24 12 25 13 26 14 12 15 11 16 10 17 9 18 8 19 7 20 6 21 5 22
REMARK SMILES IDX 4 23 3 24 2 25 1 26
REMARK H PARENT
REMARK Flexibility Score: inf
ROOT
ATOM      1  C   UNL     1     -15.320 -22.772  19.595  1.00  0.00     0.000 C 
ENDROOT
BRANCH   1   2
ATOM      2  C   UNL     1     -13.966 -22.311  19.035  1.00  0.00     0.000 C 
BRANCH   2   3
ATOM      3  C   UNL     1     -14.112 -21.480  17.750  1.00  0.00     0.000 C 
BRANCH   3   4
ATOM      4  C   UNL     1     -14.994 -20.235  17.946  1.00  0.00     0.000 C 
BRANCH   4   5
ATOM      5  C   UNL     1     -14.339 -18.933  17.436  1.00  0.00     0.000 C 
BRANCH   5   6
ATOM      6  C   UNL     1     -12.857 -18.832  17.842  1.00  0.00     0.000 C 
BRANCH   6   7
ATOM      7  C   UNL     1     -12.657 -18.052  19.158  1.00  0.00     0.000 C 
BRANCH   7   8
ATOM      8  C   UNL     1     -12.367 -18.945  20.376  1.00  0.00     0.000 C 
BRANCH   8   9
ATOM      9  C   UNL     1     -11.332 -20.039  20.084  1.00  0.00     0.000 C 
BRANCH   9  10
ATOM     10  C   UNL     1      -9.951 -19.658  20.639  1.00  0.00     0.006 C 
BRANCH  10  11
ATOM     11  C   UNL     1      -8.875 -19.622  19.546  1.00  0.00     0.053 C 
BRANCH  11  12
ATOM     12  C   UNL     1      -7.704 -18.775  19.943  1.00  0.00     0.041 C 
ATOM     13  O   UNL     1      -7.148 -18.945  21.060  1.00  0.00    -0.550 OA
ATOM     14  O   UNL     1      -7.256 -17.769  19.097  1.00  0.00    -0.550 OA
ENDBRANCH  11  12
ENDBRANCH  10  11
ENDBRANCH   9  10
ENDBRANCH   8   9
ENDBRANCH   7   8
ENDBRANCH   6   7
ENDBRANCH   5   6
ENDBRANCH   4   5
ENDBRANCH   3   4
ENDBRANCH   2   3
ENDBRANCH   1   2
BRANCH   1  15
ATOM     15  C   UNL     1     -15.490 -22.430  21.086  1.00  0.00     0.000 C 
BRANCH  15  16
ATOM     16  C   UNL     1     -14.566 -21.292  21.545  1.00  0.00     0.000 C 
BRANCH  16  17
ATOM     17  C   UNL     1     -14.230 -21.372  23.045  1.00  0.00     0.000 C 
BRANCH  17  18
ATOM     18  C   UNL     1     -12.715 -21.349  23.322  1.00  0.00    -0.000 C 
BRANCH  18  19
ATOM     19  C   UNL     1     -12.013 -22.718  23.254  1.00  0.00    -0.000 C 
BRANCH  19  20
ATOM     20  C   UNL     1     -11.678 -23.151  21.816  1.00  0.00    -0.000 C 
BRANCH  20  21
ATOM     21  C   UNL     1     -11.716 -24.677  21.635  1.00  0.00    -0.000 C 
BRANCH  21  22
ATOM     22  C   UNL     1     -12.630 -25.375  22.659  1.00  0.00    -0.000 C 
BRANCH  22  23
ATOM     23  C   UNL     1     -13.981 -25.791  22.055  1.00  0.00    -0.000 C 
BRANCH  23  24
ATOM     24  C   UNL     1     -15.166 -25.449  22.973  1.00  0.00    -0.000 C 
BRANCH  24  25
ATOM     25  C   UNL     1     -14.717 -24.998  24.372  1.00  0.00    -0.003 C 
ATOM     26  C   UNL     1     -15.715 -24.048  25.034  1.00  0.00     0.004 C 
ENDBRANCH  24  25
ENDBRANCH  23  24
ENDBRANCH  22  23
ENDBRANCH  21  22
ENDBRANCH  20  21
ENDBRANCH  19  20
ENDBRANCH  18  19
ENDBRANCH  17  18
ENDBRANCH  16  17
ENDBRANCH  15  16
ENDBRANCH   1  15
TORSDOF 22
ENDMDL
MODEL 5
REMARK VINA RESULT:    -2.870      2.446      6.545
REMARK INTER + INTRA:         -10.598
REMARK INTER:                  -6.419
REMARK INTRA:                  -4.179
REMARK UNBOUND:                -4.038
REMARK SMILES CCCCCCCCCCCCCCCCCCCCCCCC(=O)[O-]
REMARK SMILES IDX 13 1 14 2 15 3 16 4 17 5 18 6 19 7 20 8 21 9 22 10 23 11
REMARK SMILES IDX 24 12 25 13 26 14 12 15 11 16 10 17 9 18 8 19 7 20 6 21 5 22
REMARK SMILES IDX 4 23 3 24 2 25 1 26
REMARK H PARENT
REMARK Flexibility Score: inf
ROOT
ATOM      1  C   UNL     1     -15.753 -23.004  21.160  1.00  0.00     0.000 C 
ENDROOT
BRANCH   1   2
ATOM      2  C   UNL     1     -16.108 -22.125  22.369  1.00  0.00     0.000 C 
BRANCH   2   3
ATOM      3  C   UNL     1     -15.794 -22.811  23.709  1.00  0.00     0.000 C 
BRANCH   3   4
ATOM      4  C   UNL     1     -15.153 -24.198  23.529  1.00  0.00     0.000 C 
BRANCH   4   5
ATOM      5  C   UNL     1     -13.739 -24.303  24.139  1.00  0.00     0.000 C 
BRANCH   5   6
ATOM      6  C   UNL     1     -13.187 -22.930  24.563  1.00  0.00     0.000 C 
BRANCH   6   7
ATOM      7  C   UNL     1     -12.263 -22.308  23.495  1.00  0.00     0.000 C 
BRANCH   7   8
ATOM      8  C   UNL     1     -12.670 -20.889  23.065  1.00  0.00     0.000 C 
BRANCH   8   9
ATOM      9  C   UNL     1     -11.907 -20.397  21.828  1.00  0.00     0.000 C 
BRANCH   9  10
ATOM     10  C   UNL     1     -12.856 -19.724  20.824  1.00  0.00     0.006 C 
BRANCH  10  11
ATOM     11  C   UNL     1     -12.152 -18.642  19.994  1.00  0.00     0.053 C 
BRANCH  11  12
ATOM     12  C   UNL     1     -12.496 -18.742  18.539  1.00  0.00     0.041 C 
ATOM     13  O   UNL     1     -12.902 -19.833  18.057  1.00  0.00    -0.550 OA
ATOM     14  O   UNL     1     -12.325 -17.644  17.708  1.00  0.00    -0.550 OA
ENDBRANCH  11  12
ENDBRANCH  10  11
ENDBRANCH   9  10
ENDBRANCH   8   9
ENDBRANCH   7   8
ENDBRANCH   6   7
ENDBRANCH   5   6
ENDBRANCH   4   5
ENDBRANCH   3   4
ENDBRANCH   2   3
ENDBRANCH   1   2
BRANCH   1  15
ATOM     15  C   UNL     1     -14.942 -22.245  20.095  1.00  0.00     0.000 C 
BRANCH  15  16
ATOM     16  C   UNL     1     -13.682 -23.003  19.652  1.00  0.00     0.000 C 
BRANCH  16  17
ATOM     17  C   UNL     1     -13.652 -24.452  20.169  1.00  0.00     0.000 C 
BRANCH  17  18
ATOM     18  C   UNL     1     -12.286 -24.850  20.759  1.00  0.00    -0.000 C 
BRANCH  18  19
ATOM     19  C   UNL     1     -11.134 -23.867  20.473  1.00  0.00    -0.000 C 
BRANCH  19  20
ATOM     20  C   UNL     1     -10.359 -24.208  19.188  1.00  0.00    -0.000 C 
BRANCH  20  21
ATOM     21  C   UNL     1      -9.473 -23.047  18.709  1.00  0.00    -0.000 C 
BRANCH  21  22
ATOM     22  C   UNL     1     -10.046 -21.667  19.082  1.00  0.00    -0.000 C 
BRANCH  22  23
ATOM     23  C   UNL     1      -9.087 -20.518  18.735  1.00  0.00    -0.000 C 
BRANCH  23  24
ATOM     24  C   UNL     1      -8.697 -19.685  19.968  1.00  0.00    -0.000 C 
BRANCH  24  25
ATOM     25  C   UNL     1      -7.572 -18.681  19.669  1.00  0.00    -0.003 C 
ATOM     26  C   UNL     1      -6.751 -18.329  20.910  1.00  0.00     0.004 C 
ENDBRANCH  24  25
ENDBRANCH  23  24
ENDBRANCH  22  23
ENDBRANCH  21  22
ENDBRANCH  20  21
ENDBRANCH  19  20
ENDBRANCH  18  19
ENDBRANCH  17  18
ENDBRANCH  16  17
ENDBRANCH  15  16
ENDBRANCH   1  15
TORSDOF 22
ENDMDL
MODEL 6
REMARK VINA RESULT:    -2.857      1.490      3.432
REMARK INTER + INTRA:         -10.570
REMARK INTER:                  -6.256
REMARK INTRA:                  -4.314
REMARK UNBOUND:                -4.038
REMARK SMILES CCCCCCCCCCCCCCCCCCCCCCCC(=O)[O-]
REMARK SMILES IDX 13 1 14 2 15 3 16 4 17 5 18 6 19 7 20 8 21 9 22 10 23 11
REMARK SMILES IDX 24 12 25 13 26 14 12 15 11 16 10 17 9 18 8 19 7 20 6 21 5 22
REMARK SMILES IDX 4 23 3 24 2 25 1 26
REMARK H PARENT
REMARK Flexibility Score: inf
ROOT
ATOM      1  C   UNL     1     -14.857 -22.598  19.662  1.00  0.00     0.000 C 
ENDROOT
BRANCH   1   2
ATOM      2  C   UNL     1     -13.864 -22.830  18.513  1.00  0.00     0.000 C 
BRANCH   2   3
ATOM      3  C   UNL     1     -13.756 -21.617  17.574  1.00  0.00     0.000 C 
BRANCH   3   4
ATOM      4  C   UNL     1     -12.301 -21.274  17.212  1.00  0.00     0.000 C 
BRANCH   4   5
ATOM      5  C   UNL     1     -11.405 -22.518  17.030  1.00  0.00     0.000 C 
BRANCH   5   6
ATOM      6  C   UNL     1      -9.988 -22.298  17.589  1.00  0.00     0.000 C 
BRANCH   6   7
ATOM      7  C   UNL     1      -9.664 -20.806  17.809  1.00  0.00     0.000 C 
BRANCH   7   8
ATOM      8  C   UNL     1      -8.720 -20.539  18.994  1.00  0.00     0.000 C 
BRANCH   8   9
ATOM      9  C   UNL     1      -8.450 -19.045  19.219  1.00  0.00     0.000 C 
BRANCH   9  10
ATOM     10  C   UNL     1      -6.988 -18.802  19.627  1.00  0.00     0.006 C 
BRANCH  10  11
ATOM     11  C   UNL     1      -6.811 -18.755  21.150  1.00  0.00     0.053 C 
BRANCH  11  12
ATOM     12  C   UNL     1      -5.419 -19.126  21.562  1.00  0.00     0.041 C 
ATOM     13  O   UNL     1      -4.432 -18.738  20.882  1.00  0.00    -0.550 OA
ATOM     14  O   UNL     1      -5.215 -19.937  22.670  1.00  0.00    -0.550 OA
ENDBRANCH  11  12
ENDBRANCH  10  11
ENDBRANCH   9  10
ENDBRANCH   8   9
ENDBRANCH   7   8
ENDBRANCH   6   7
ENDBRANCH   5   6
ENDBRANCH   4   5
ENDBRANCH   3   4
ENDBRANCH   2   3
ENDBRANCH   1   2
BRANCH   1  15
ATOM     15  C   UNL     1     -15.120 -23.874  20.482  1.00  0.00     0.000 C 
BRANCH  15  16
ATOM     16  C   UNL     1     -15.509 -23.577  21.938  1.00  0.00     0.000 C 
BRANCH  16  17
ATOM     17  C   UNL     1     -15.660 -22.071  22.214  1.00  0.00     0.000 C 
BRANCH  17  18
ATOM     18  C   UNL     1     -14.639 -21.544  23.241  1.00  0.00    -0.000 C 
BRANCH  18  19
ATOM     19  C   UNL     1     -13.657 -22.596  23.790  1.00  0.00    -0.000 C 
BRANCH  19  20
ATOM     20  C   UNL     1     -12.198 -22.325  23.383  1.00  0.00    -0.000 C 
BRANCH  20  21
ATOM     21  C   UNL     1     -11.839 -22.949  22.025  1.00  0.00    -0.000 C 
BRANCH  21  22
ATOM     22  C   UNL     1     -11.380 -21.904  20.992  1.00  0.00    -0.000 C 
BRANCH  22  23
ATOM     23  C   UNL     1     -11.604 -20.462  21.475  1.00  0.00    -0.000 C 
BRANCH  23  24
ATOM     24  C   UNL     1     -12.691 -19.733  20.667  1.00  0.00    -0.000 C 
BRANCH  24  25
ATOM     25  C   UNL     1     -12.124 -18.580  19.824  1.00  0.00    -0.003 C 
ATOM     26  C   UNL     1     -13.156 -17.990  18.862  1.00  0.00     0.004 C 
ENDBRANCH  24  25
ENDBRANCH  23  24
ENDBRANCH  22  23
ENDBRANCH  21  22
ENDBRANCH  20  21
ENDBRANCH  19  20
ENDBRANCH  18  19
ENDBRANCH  17  18
ENDBRANCH  16  17
ENDBRANCH  15  16
ENDBRANCH   1  15
TORSDOF 22
ENDMDL
MODEL 7
REMARK VINA RESULT:    -2.847      2.912      6.564
REMARK INTER + INTRA:         -10.546
REMARK INTER:                  -5.869
REMARK INTRA:                  -4.677
REMARK UNBOUND:                -4.038
REMARK SMILES CCCCCCCCCCCCCCCCCCCCCCCC(=O)[O-]
REMARK SMILES IDX 13 1 14 2 15 3 16 4 17 5 18 6 19 7 20 8 21 9 22 10 23 11
REMARK SMILES IDX 24 12 25 13 26 14 12 15 11 16 10 17 9 18 8 19 7 20 6 21 5 22
REMARK SMILES IDX 4 23 3 24 2 25 1 26
REMARK H PARENT
REMARK Flexibility Score: inf
ROOT
ATOM      1  C   UNL     1     -15.968 -22.303  21.576  1.00  0.00     0.000 C 
ENDROOT
BRANCH   1   2
ATOM      2  C   UNL     1     -15.377 -21.768  22.890  1.00  0.00     0.000 C 
BRANCH   2   3
ATOM      3  C   UNL     1     -14.240 -20.760  22.657  1.00  0.00     0.000 C 
BRANCH   3   4
ATOM      4  C   UNL     1     -12.943 -21.149  23.388  1.00  0.00     0.000 C 
BRANCH   4   5
ATOM      5  C   UNL     1     -13.048 -22.487  24.151  1.00  0.00     0.000 C 
BRANCH   5   6
ATOM      6  C   UNL     1     -12.071 -23.544  23.604  1.00  0.00     0.000 C 
BRANCH   6   7
ATOM      7  C   UNL     1     -12.718 -24.452  22.538  1.00  0.00     0.000 C 
BRANCH   7   8
ATOM      8  C   UNL     1     -11.931 -24.526  21.218  1.00  0.00     0.000 C 
BRANCH   8   9
ATOM      9  C   UNL     1     -11.136 -23.247  20.924  1.00  0.00     0.000 C 
BRANCH   9  10
ATOM     10  C   UNL     1     -10.876 -23.091  19.417  1.00  0.00     0.006 C 
BRANCH  10  11
ATOM     11  C   UNL     1     -10.554 -24.431  18.742  1.00  0.00     0.053 C 
BRANCH  11  12
ATOM     12  C   UNL     1     -11.391 -24.655  17.519  1.00  0.00     0.041 C 
ATOM     13  O   UNL     1     -12.414 -23.950  17.313  1.00  0.00    -0.550 OA
ATOM     14  O   UNL     1     -11.066 -25.671  16.631  1.00  0.00    -0.550 OA
ENDBRANCH  11  12
ENDBRANCH  10  11
ENDBRANCH   9  10
ENDBRANCH   8   9
ENDBRANCH   7   8
ENDBRANCH   6   7
ENDBRANCH   5   6
ENDBRANCH   4   5
ENDBRANCH   3   4
ENDBRANCH   2   3
ENDBRANCH   1   2
BRANCH   1  15
ATOM     15  C   UNL     1     -14.916 -22.412  20.458  1.00  0.00     0.000 C 
BRANCH  15  16
ATOM     16  C   UNL     1     -15.494 -22.119  19.065  1.00  0.00     0.000 C 
BRANCH  16  17
ATOM     17  C   UNL     1     -14.570 -21.229  18.217  1.00  0.00     0.000 C 
BRANCH  17  18
ATOM     18  C   UNL     1     -13.412 -20.619  19.030  1.00  0.00    -0.000 C 
BRANCH  18  19
ATOM     19  C   UNL     1     -13.308 -19.083  18.976  1.00  0.00    -0.000 C 
BRANCH  19  20
ATOM     20  C   UNL     1     -12.122 -18.532  19.787  1.00  0.00    -0.000 C 
BRANCH  20  21
ATOM     21  C   UNL     1     -11.427 -19.616  20.625  1.00  0.00    -0.000 C 
BRANCH  21  22
ATOM     22  C   UNL     1      -9.893 -19.573  20.499  1.00  0.00    -0.000 C 
BRANCH  22  23
ATOM     23  C   UNL     1      -9.427 -19.318  19.057  1.00  0.00    -0.000 C 
BRANCH  23  24
ATOM     24  C   UNL     1      -8.636 -20.502  18.476  1.00  0.00    -0.000 C 
BRANCH  24  25
ATOM     25  C   UNL     1      -9.026 -20.816  17.023  1.00  0.00    -0.003 C 
ATOM     26  C   UNL     1     -10.524 -20.646  16.765  1.00  0.00     0.004 C 
ENDBRANCH  24  25
ENDBRANCH  23  24
ENDBRANCH  22  23
ENDBRANCH  21  22
ENDBRANCH  20  21
ENDBRANCH  19  20
ENDBRANCH  18  19
ENDBRANCH  17  18
ENDBRANCH  16  17
ENDBRANCH  15  16
ENDBRANCH   1  15
TORSDOF 22
ENDMDL
MODEL 8
REMARK VINA RESULT:    -2.811     10.132     12.798
REMARK INTER + INTRA:         -10.465
REMARK INTER:                  -6.052
REMARK INTRA:                  -4.413
REMARK UNBOUND:                -4.038
REMARK SMILES CCCCCCCCCCCCCCCCCCCCCCCC(=O)[O-]
REMARK SMILES IDX 13 1 14 2 15 3 16 4 17 5 18 6 19 7 20 8 21 9 22 10 23 11
REMARK SMILES IDX 24 12 25 13 26 14 12 15 11 16 10 17 9 18 8 19 7 20 6 21 5 22
REMARK SMILES IDX 4 23 3 24 2 25 1 26
REMARK H PARENT
REMARK Flexibility Score: inf
ROOT
ATOM      1  C   UNL     1     -14.696 -17.500  29.052  1.00  0.00     0.000 C 
ENDROOT
BRANCH   1   2
ATOM      2  C   UNL     1     -16.109 -17.108  29.513  1.00  0.00     0.000 C 
BRANCH   2   3
ATOM      3  C   UNL     1     -16.285 -17.227  31.036  1.00  0.00     0.000 C 
BRANCH   3   4
ATOM      4  C   UNL     1     -15.653 -16.051  31.800  1.00  0.00     0.000 C 
BRANCH   4   5
ATOM      5  C   UNL     1     -16.118 -14.669  31.292  1.00  0.00     0.000 C 
BRANCH   5   6
ATOM      6  C   UNL     1     -14.939 -13.699  31.092  1.00  0.00     0.000 C 
BRANCH   6   7
ATOM      7  C   UNL     1     -14.921 -13.072  29.683  1.00  0.00     0.000 C 
BRANCH   7   8
ATOM      8  C   UNL     1     -16.283 -13.102  28.967  1.00  0.00     0.000 C 
BRANCH   8   9
ATOM      9  C   UNL     1     -16.174 -13.506  27.491  1.00  0.00     0.000 C 
BRANCH   9  10
ATOM     10  C   UNL     1     -17.190 -14.605  27.141  1.00  0.00     0.006 C 
BRANCH  10  11
ATOM     11  C   UNL     1     -17.216 -14.914  25.639  1.00  0.00     0.053 C 
BRANCH  11  12
ATOM     12  C   UNL     1     -17.866 -13.816  24.854  1.00  0.00     0.041 C 
ATOM     13  O   UNL     1     -17.326 -13.384  23.801  1.00  0.00    -0.550 OA
ATOM     14  O   UNL     1     -19.044 -13.240  25.309  1.00  0.00    -0.550 OA
ENDBRANCH  11  12
ENDBRANCH  10  11
ENDBRANCH   9  10
ENDBRANCH   8   9
ENDBRANCH   7   8
ENDBRANCH   6   7
ENDBRANCH   5   6
ENDBRANCH   4   5
ENDBRANCH   3   4
ENDBRANCH   2   3
ENDBRANCH   1   2
BRANCH   1  15
ATOM     15  C   UNL     1     -14.018 -16.395  28.222  1.00  0.00     0.000 C 
BRANCH  15  16
ATOM     16  C   UNL     1     -12.708 -15.897  28.852  1.00  0.00     0.000 C 
BRANCH  16  17
ATOM     17  C   UNL     1     -12.418 -16.555  30.212  1.00  0.00     0.000 C 
BRANCH  17  18
ATOM     18  C   UNL     1     -11.145 -17.422  30.199  1.00  0.00    -0.000 C 
BRANCH  18  19
ATOM     19  C   UNL     1      -9.818 -16.642  30.270  1.00  0.00    -0.000 C 
BRANCH  19  20
ATOM     20  C   UNL     1      -9.424 -16.256  31.706  1.00  0.00    -0.000 C 
BRANCH  20  21
ATOM     21  C   UNL     1      -9.323 -14.734  31.901  1.00  0.00    -0.000 C 
BRANCH  21  22
ATOM     22  C   UNL     1     -10.637 -14.110  32.404  1.00  0.00    -0.000 C 
BRANCH  22  23
ATOM     23  C   UNL     1     -11.330 -13.255  31.331  1.00  0.00    -0.000 C 
BRANCH  23  24
ATOM     24  C   UNL     1     -10.464 -13.075  30.072  1.00  0.00    -0.000 C 
BRANCH  24  25
ATOM     25  C   UNL     1     -11.253 -12.481  28.895  1.00  0.00    -0.003 C 
ATOM     26  C   UNL     1     -11.719 -11.049  29.160  1.00  0.00     0.004 C 
ENDBRANCH  24  25
ENDBRANCH  23  24
ENDBRANCH  22  23
ENDBRANCH  21  22
ENDBRANCH  20  21
ENDBRANCH  19  20
ENDBRANCH  18  19
ENDBRANCH  17  18
ENDBRANCH  16  17
ENDBRANCH  15  16
ENDBRANCH   1  15
TORSDOF 22
ENDMDL
MODEL 9
REMARK VINA RESULT:    -2.808      4.121      7.380
REMARK INTER + INTRA:         -10.458
REMARK INTER:                  -5.708
REMARK INTRA:                  -4.750
REMARK UNBOUND:                -4.038
REMARK SMILES CCCCCCCCCCCCCCCCCCCCCCCC(=O)[O-]
REMARK SMILES IDX 13 1 14 2 15 3 16 4 17 5 18 6 19 7 20 8 21 9 22 10 23 11
REMARK SMILES IDX 24 12 25 13 26 14 12 15 11 16 10 17 9 18 8 19 7 20 6 21 5 22
REMARK SMILES IDX 4 23 3 24 2 25 1 26
REMARK H PARENT
REMARK Flexibility Score: inf
ROOT
ATOM      1  C   UNL     1     -15.317 -23.872  20.368  1.00  0.00     0.000 C 
ENDROOT
BRANCH   1   2
ATOM      2  C   UNL     1     -15.485 -22.391  20.739  1.00  0.00     0.000 C 
BRANCH   2   3
ATOM      3  C   UNL     1     -16.092 -22.200  22.139  1.00  0.00     0.000 C 
BRANCH   3   4
ATOM      4  C   UNL     1     -15.254 -21.263  23.026  1.00  0.00     0.000 C 
BRANCH   4   5
ATOM      5  C   UNL     1     -13.912 -20.849  22.384  1.00  0.00     0.000 C 
BRANCH   5   6
ATOM      6  C   UNL     1     -12.723 -21.060  23.339  1.00  0.00     0.000 C 
BRANCH   6   7
ATOM      7  C   UNL     1     -12.808 -22.398  24.103  1.00  0.00     0.000 C 
BRANCH   7   8
ATOM      8  C   UNL     1     -12.199 -23.590  23.346  1.00  0.00     0.000 C 
BRANCH   8   9
ATOM      9  C   UNL     1     -13.052 -24.862  23.446  1.00  0.00     0.000 C 
BRANCH   9  10
ATOM     10  C   UNL     1     -14.307 -24.620  24.300  1.00  0.00     0.006 C 
BRANCH  10  11
ATOM     11  C   UNL     1     -15.283 -25.803  24.244  1.00  0.00     0.053 C 
BRANCH  11  12
ATOM     12  C   UNL     1     -16.702 -25.348  24.082  1.00  0.00     0.041 C 
ATOM     13  O   UNL     1     -17.342 -24.904  25.072  1.00  0.00    -0.550 OA
ATOM     14  O   UNL     1     -17.330 -25.457  22.849  1.00  0.00    -0.550 OA
ENDBRANCH  11  12
ENDBRANCH  10  11
ENDBRANCH   9  10
ENDBRANCH   8   9
ENDBRANCH   7   8
ENDBRANCH   6   7
ENDBRANCH   5   6
ENDBRANCH   4   5
ENDBRANCH   3   4
ENDBRANCH   2   3
ENDBRANCH   1   2
BRANCH   1  15
ATOM     15  C   UNL     1     -13.856 -24.239  20.049  1.00  0.00     0.000 C 
BRANCH  15  16
ATOM     16  C   UNL     1     -13.043 -23.046  19.525  1.00  0.00     0.000 C 
BRANCH  16  17
ATOM     17  C   UNL     1     -11.528 -23.231  19.723  1.00  0.00     0.000 C 
BRANCH  17  18
ATOM     18  C   UNL     1     -10.841 -21.978  20.299  1.00  0.00    -0.000 C 
BRANCH  18  19
ATOM     19  C   UNL     1     -10.022 -21.154  19.287  1.00  0.00    -0.000 C 
BRANCH  19  20
ATOM     20  C   UNL     1     -10.156 -19.636  19.501  1.00  0.00    -0.000 C 
BRANCH  20  21
ATOM     21  C   UNL     1     -11.281 -19.275  20.484  1.00  0.00    -0.000 C 
BRANCH  21  22
ATOM     22  C   UNL     1     -12.466 -18.569  19.800  1.00  0.00    -0.000 C 
BRANCH  22  23
ATOM     23  C   UNL     1     -12.152 -18.162  18.352  1.00  0.00    -0.000 C 
BRANCH  23  24
ATOM     24  C   UNL     1     -13.225 -18.641  17.359  1.00  0.00    -0.000 C 
BRANCH  24  25
ATOM     25  C   UNL     1     -13.618 -20.110  17.581  1.00  0.00    -0.003 C 
ATOM     26  C   UNL     1     -15.127 -20.302  17.728  1.00  0.00     0.004 C 
ENDBRANCH  24  25
ENDBRANCH  23  24
ENDBRANCH  22  23
ENDBRANCH  21  22
ENDBRANCH  20  21
ENDBRANCH  19  20
ENDBRANCH  18  19
ENDBRANCH  17  18
ENDBRANCH  16  17
ENDBRANCH  15  16
ENDBRANCH   1  15
TORSDOF 22
ENDMDL
