MODEL 1
REMARK VINA RESULT:    -3.566      0.000      0.000
REMARK INTER + INTRA:          -4.212
REMARK INTER:                  -4.191
REMARK INTRA:                  -0.021
REMARK UNBOUND:                -0.021
REMARK SMILES CCCCC(=O)[O-]
REMARK SMILES IDX 4 1 5 2 6 3 7 4 3 5 2 6 1 7
REMARK H PARENT
REMARK Flexibility Score: inf
ROOT
ATOM      1  C   UNL     1      16.571  33.939   1.020  1.00  0.00     0.053 C 
ENDROOT
BRANCH   1   2
ATOM      2  C   UNL     1      15.843  33.547  -0.225  1.00  0.00     0.041 C 
ATOM      3  O   UNL     1      15.911  32.365  -0.653  1.00  0.00    -0.550 OA
ATOM      4  O   UNL     1      15.128  34.499  -0.943  1.00  0.00    -0.550 OA
ENDBRANCH   1   2
BRANCH   1   5
ATOM      5  C   UNL     1      16.417  35.441   1.281  1.00  0.00     0.006 C 
BRANCH   5   6
ATOM      6  C   UNL     1      16.836  35.795   2.713  1.00  0.00    -0.003 C 
ATOM      7  C   UNL     1      17.505  37.165   2.769  1.00  0.00     0.004 C 
ENDBRANCH   5   6
ENDBRANCH   1   5
TORSDOF 3
ENDMDL
MODEL 2
REMARK VINA RESULT:    -3.543     10.693     11.474
REMARK INTER + INTRA:          -4.186
REMARK INTER:                  -4.096
REMARK INTRA:                  -0.090
REMARK UNBOUND:                -0.021
REMARK SMILES CCCCC(=O)[O-]
REMARK SMILES IDX 4 1 5 2 6 3 7 4 3 5 2 6 1 7
REMARK H PARENT
REMARK Flexibility Score: inf
ROOT
ATOM      1  C   UNL     1      17.683  43.769   6.438  1.00  0.00     0.053 C 
ENDROOT
BRANCH   1   2
ATOM      2  C   UNL     1      17.023  44.740   7.364  1.00  0.00     0.041 C 
ATOM      3  O   UNL     1      17.397  44.826   8.563  1.00  0.00    -0.550 OA
ATOM      4  O   UNL     1      15.959  45.516   6.917  1.00  0.00    -0.550 OA
ENDBRANCH   1   2
BRANCH   1   5
ATOM      5  C   UNL     1      16.632  42.982   5.648  1.00  0.00     0.006 C 
BRANCH   5   6
ATOM      6  C   UNL     1      16.666  43.360   4.162  1.00  0.00    -0.003 C 
ATOM      7  C   UNL     1      15.270  43.700   3.649  1.00  0.00     0.004 C 
ENDBRANCH   5   6
ENDBRANCH   1   5
TORSDOF 3
ENDMDL
MODEL 3
REMARK VINA RESULT:    -3.531      9.670     10.537
REMARK INTER + INTRA:          -4.171
REMARK INTER:                  -4.104
REMARK INTRA:                  -0.067
REMARK UNBOUND:                -0.021
REMARK SMILES CCCCC(=O)[O-]
REMARK SMILES IDX 4 1 5 2 6 3 7 4 3 5 2 6 1 7
REMARK H PARENT
REMARK Flexibility Score: inf
ROOT
ATOM      1  C   UNL     1      16.716  43.346   4.121  1.00  0.00     0.053 C 
ENDROOT
BRANCH   1   2
ATOM      2  C   UNL     1      16.810  43.206   5.607  1.00  0.00     0.041 C 
ATOM      3  O   UNL     1      15.906  42.606   6.245  1.00  0.00    -0.550 OA
ATOM      4  O   UNL     1      17.873  43.781   6.294  1.00  0.00    -0.550 OA
ENDBRANCH   1   2
BRANCH   1   5
ATOM      5  C   UNL     1      15.273  43.644   3.701  1.00  0.00     0.006 C 
BRANCH   5   6
ATOM      6  C   UNL     1      15.022  45.156   3.635  1.00  0.00    -0.003 C 
ATOM      7  C   UNL     1      13.562  45.485   3.931  1.00  0.00     0.004 C 
ENDBRANCH   5   6
ENDBRANCH   1   5
TORSDOF 3
ENDMDL
MODEL 4
REMARK VINA RESULT:    -3.509     11.877     12.363
REMARK INTER + INTRA:          -4.146
REMARK INTER:                  -4.055
REMARK INTRA:                  -0.091
REMARK UNBOUND:                -0.021
REMARK SMILES CCCCC(=O)[O-]
REMARK SMILES IDX 4 1 5 2 6 3 7 4 3 5 2 6 1 7
REMARK H PARENT
REMARK Flexibility Score: inf
ROOT
ATOM      1  C   UNL     1       5.896  39.492  -0.999  1.00  0.00     0.053 C 
ENDROOT
BRANCH   1   2
ATOM      2  C   UNL     1       6.331  40.075  -2.305  1.00  0.00     0.041 C 
ATOM      3  O   UNL     1       7.028  41.124  -2.330  1.00  0.00    -0.550 OA
ATOM      4  O   UNL     1       5.926  39.489  -3.499  1.00  0.00    -0.550 OA
ENDBRANCH   1   2
BRANCH   1   5
ATOM      5  C   UNL     1       4.623  40.184  -0.501  1.00  0.00     0.006 C 
BRANCH   5   6
ATOM      6  C   UNL     1       4.790  40.668   0.944  1.00  0.00    -0.003 C 
ATOM      7  C   UNL     1       5.449  42.042   0.992  1.00  0.00     0.004 C 
ENDBRANCH   5   6
ENDBRANCH   1   5
TORSDOF 3
ENDMDL
MODEL 5
REMARK VINA RESULT:    -3.451     10.138     11.372
REMARK INTER + INTRA:          -4.078
REMARK INTER:                  -4.001
REMARK INTRA:                  -0.077
REMARK UNBOUND:                -0.021
REMARK SMILES CCCCC(=O)[O-]
REMARK SMILES IDX 4 1 5 2 6 3 7 4 3 5 2 6 1 7
REMARK H PARENT
REMARK Flexibility Score: inf
ROOT
ATOM      1  C   UNL     1      14.784  45.197   3.641  1.00  0.00     0.053 C 
ENDROOT
BRANCH   1   2
ATOM      2  C   UNL     1      14.691  45.587   5.082  1.00  0.00     0.041 C 
ATOM      3  O   UNL     1      13.951  46.543   5.432  1.00  0.00    -0.550 OA
ATOM      4  O   UNL     1      15.461  44.927   6.033  1.00  0.00    -0.550 OA
ENDBRANCH   1   2
BRANCH   1   5
ATOM      5  C   UNL     1      14.671  43.677   3.489  1.00  0.00     0.006 C 
BRANCH   5   6
ATOM      6  C   UNL     1      13.271  43.188   3.881  1.00  0.00    -0.003 C 
ATOM      7  C   UNL     1      12.659  42.329   2.779  1.00  0.00     0.004 C 
ENDBRANCH   5   6
ENDBRANCH   1   5
TORSDOF 3
ENDMDL
MODEL 6
REMARK VINA RESULT:    -3.431     10.786     12.040
REMARK INTER + INTRA:          -4.054
REMARK INTER:                  -3.978
REMARK INTRA:                  -0.076
REMARK UNBOUND:                -0.021
REMARK SMILES CCCCC(=O)[O-]
REMARK SMILES IDX 4 1 5 2 6 3 7 4 3 5 2 6 1 7
REMARK H PARENT
REMARK Flexibility Score: inf
ROOT
ATOM      1  C   UNL     1      13.624  45.611   4.132  1.00  0.00     0.053 C 
ENDROOT
BRANCH   1   2
ATOM      2  C   UNL     1      13.723  46.302   5.454  1.00  0.00     0.041 C 
ATOM      3  O   UNL     1      14.694  46.068   6.220  1.00  0.00    -0.550 OA
ATOM      4  O   UNL     1      12.716  47.169   5.863  1.00  0.00    -0.550 OA
ENDBRANCH   1   2
BRANCH   1   5
ATOM      5  C   UNL     1      15.018  45.234   3.618  1.00  0.00     0.006 C 
BRANCH   5   6
ATOM      6  C   UNL     1      15.242  43.719   3.702  1.00  0.00    -0.003 C 
ATOM      7  C   UNL     1      16.618  43.397   4.277  1.00  0.00     0.004 C 
ENDBRANCH   5   6
ENDBRANCH   1   5
TORSDOF 3
ENDMDL
MODEL 7
REMARK VINA RESULT:    -3.398      9.442     10.310
REMARK INTER + INTRA:          -4.015
REMARK INTER:                  -3.910
REMARK INTRA:                  -0.105
REMARK UNBOUND:                -0.021
REMARK SMILES CCCCC(=O)[O-]
REMARK SMILES IDX 4 1 5 2 6 3 7 4 3 5 2 6 1 7
REMARK H PARENT
REMARK Flexibility Score: inf
ROOT
ATOM      1  C   UNL     1      16.662  43.349   4.239  1.00  0.00     0.053 C 
ENDROOT
BRANCH   1   2
ATOM      2  C   UNL     1      15.388  44.038   3.867  1.00  0.00     0.041 C 
ATOM      3  O   UNL     1      14.505  43.424   3.212  1.00  0.00    -0.550 OA
ATOM      4  O   UNL     1      15.195  45.373   4.200  1.00  0.00    -0.550 OA
ENDBRANCH   1   2
BRANCH   1   5
ATOM      5  C   UNL     1      16.652  42.969   5.723  1.00  0.00     0.006 C 
BRANCH   5   6
ATOM      6  C   UNL     1      17.762  43.703   6.486  1.00  0.00    -0.003 C 
ATOM      7  C   UNL     1      17.215  44.927   7.212  1.00  0.00     0.004 C 
ENDBRANCH   5   6
ENDBRANCH   1   5
TORSDOF 3
ENDMDL
MODEL 8
REMARK VINA RESULT:    -3.390     10.555     12.115
REMARK INTER + INTRA:          -4.006
REMARK INTER:                  -3.878
REMARK INTRA:                  -0.129
REMARK UNBOUND:                -0.021
REMARK SMILES CCCCC(=O)[O-]
REMARK SMILES IDX 4 1 5 2 6 3 7 4 3 5 2 6 1 7
REMARK H PARENT
REMARK Flexibility Score: inf
ROOT
ATOM      1  C   UNL     1      14.112  46.347   5.722  1.00  0.00     0.053 C 
ENDROOT
BRANCH   1   2
ATOM      2  C   UNL     1      14.763  45.356   6.632  1.00  0.00     0.041 C 
ATOM      3  O   UNL     1      14.110  44.369   7.065  1.00  0.00    -0.550 OA
ATOM      4  O   UNL     1      16.077  45.546   7.044  1.00  0.00    -0.550 OA
ENDBRANCH   1   2
BRANCH   1   5
ATOM      5  C   UNL     1      13.706  45.680   4.404  1.00  0.00     0.006 C 
BRANCH   5   6
ATOM      6  C   UNL     1      14.936  45.159   3.651  1.00  0.00    -0.003 C 
ATOM      7  C   UNL     1      14.816  43.665   3.366  1.00  0.00     0.004 C 
ENDBRANCH   5   6
ENDBRANCH   1   5
TORSDOF 3
ENDMDL
MODEL 9
REMARK VINA RESULT:    -3.390     12.281     12.784
REMARK INTER + INTRA:          -4.006
REMARK INTER:                  -3.918
REMARK INTRA:                  -0.088
REMARK UNBOUND:                -0.021
REMARK SMILES CCCCC(=O)[O-]
REMARK SMILES IDX 4 1 5 2 6 3 7 4 3 5 2 6 1 7
REMARK H PARENT
REMARK Flexibility Score: inf
ROOT
ATOM      1  C   UNL     1       4.719  39.872  -0.956  1.00  0.00     0.053 C 
ENDROOT
BRANCH   1   2
ATOM      2  C   UNL     1       4.714  40.592   0.355  1.00  0.00     0.041 C 
ATOM      3  O   UNL     1       4.160  40.073   1.360  1.00  0.00    -0.550 OA
ATOM      4  O   UNL     1       5.278  41.858   0.456  1.00  0.00    -0.550 OA
ENDBRANCH   1   2
BRANCH   1   5
ATOM      5  C   UNL     1       6.151  39.514  -1.366  1.00  0.00     0.006 C 
BRANCH   5   6
ATOM      6  C   UNL     1       6.463  40.027  -2.777  1.00  0.00    -0.003 C 
ATOM      7  C   UNL     1       7.311  41.293  -2.728  1.00  0.00     0.004 C 
ENDBRANCH   5   6
ENDBRANCH   1   5
TORSDOF 3
ENDMDL
