MODEL 1
REMARK VINA RESULT:    -4.028      0.000      0.000
REMARK INTER + INTRA:          -4.530
REMARK INTER:                  -4.500
REMARK INTRA:                  -0.030
REMARK UNBOUND:                -0.030
REMARK SMILES CCCC(=O)[O-]
REMARK SMILES IDX 3 1 4 2 5 3 6 4 2 5 1 6
REMARK H PARENT
REMARK Flexibility Score: inf
ROOT
ATOM      1  C   UNL     1      11.018  -3.039  64.674  1.00  0.00     0.052 C 
ENDROOT
BRANCH   1   2
ATOM      2  C   UNL     1      11.567  -1.845  65.393  1.00  0.00     0.041 C 
ATOM      3  O   UNL     1      11.696  -1.863  66.644  1.00  0.00    -0.550 OA
ATOM      4  O   UNL     1      11.902  -0.698  64.683  1.00  0.00    -0.550 OA
ENDBRANCH   1   2
BRANCH   1   5
ATOM      5  C   UNL     1       9.924  -2.649  63.673  1.00  0.00     0.003 C 
ATOM      6  C   UNL     1      10.202  -3.185  62.269  1.00  0.00     0.004 C 
ENDBRANCH   1   5
TORSDOF 2
ENDMDL
MODEL 2
REMARK VINA RESULT:    -3.772      1.977      3.106
REMARK INTER + INTRA:          -4.244
REMARK INTER:                  -4.234
REMARK INTRA:                  -0.010
REMARK UNBOUND:                -0.030
REMARK SMILES CCCC(=O)[O-]
REMARK SMILES IDX 3 1 4 2 5 3 6 4 2 5 1 6
REMARK H PARENT
REMARK Flexibility Score: inf
ROOT
ATOM      1  C   UNL     1      11.738  -1.598  65.599  1.00  0.00     0.052 C 
ENDROOT
BRANCH   1   2
ATOM      2  C   UNL     1      10.941  -2.697  64.965  1.00  0.00     0.041 C 
ATOM      3  O   UNL     1      10.836  -3.814  65.536  1.00  0.00    -0.550 OA
ATOM      4  O   UNL     1      10.342  -2.498  63.728  1.00  0.00    -0.550 OA
ENDBRANCH   1   2
BRANCH   1   5
ATOM      5  C   UNL     1      11.912  -0.403  64.654  1.00  0.00     0.003 C 
ATOM      6  C   UNL     1      12.437   0.838  65.376  1.00  0.00     0.004 C 
ENDBRANCH   1   5
TORSDOF 2
ENDMDL
MODEL 3
REMARK VINA RESULT:    -3.541      2.047      2.699
REMARK INTER + INTRA:          -3.986
REMARK INTER:                  -3.979
REMARK INTRA:                  -0.007
REMARK UNBOUND:                -0.030
REMARK SMILES CCCC(=O)[O-]
REMARK SMILES IDX 3 1 4 2 5 3 6 4 2 5 1 6
REMARK H PARENT
REMARK Flexibility Score: inf
ROOT
ATOM      1  C   UNL     1      11.834  -0.619  64.680  1.00  0.00     0.052 C 
ENDROOT
BRANCH   1   2
ATOM      2  C   UNL     1      12.074   0.674  65.398  1.00  0.00     0.041 C 
ATOM      3  O   UNL     1      12.881   0.723  66.362  1.00  0.00    -0.550 OA
ATOM      4  O   UNL     1      11.379   1.817  65.023  1.00  0.00    -0.550 OA
ENDBRANCH   1   2
BRANCH   1   5
ATOM      5  C   UNL     1      11.635  -1.784  65.657  1.00  0.00     0.003 C 
ATOM      6  C   UNL     1      10.922  -2.971  65.009  1.00  0.00     0.004 C 
ENDBRANCH   1   5
TORSDOF 2
ENDMDL
MODEL 4
REMARK VINA RESULT:    -3.520      2.148      3.312
REMARK INTER + INTRA:          -3.962
REMARK INTER:                  -3.936
REMARK INTRA:                  -0.027
REMARK UNBOUND:                -0.030
REMARK SMILES CCCC(=O)[O-]
REMARK SMILES IDX 3 1 4 2 5 3 6 4 2 5 1 6
REMARK H PARENT
REMARK Flexibility Score: inf
ROOT
ATOM      1  C   UNL     1      11.843  -0.717  64.649  1.00  0.00     0.052 C 
ENDROOT
BRANCH   1   2
ATOM      2  C   UNL     1      11.496  -1.915  65.479  1.00  0.00     0.041 C 
ATOM      3  O   UNL     1      11.677  -1.898  66.724  1.00  0.00    -0.550 OA
ATOM      4  O   UNL     1      11.006  -3.065  64.871  1.00  0.00    -0.550 OA
ENDBRANCH   1   2
BRANCH   1   5
ATOM      5  C   UNL     1      12.290   0.466  65.515  1.00  0.00     0.003 C 
ATOM      6  C   UNL     1      11.475   1.730  65.239  1.00  0.00     0.004 C 
ENDBRANCH   1   5
TORSDOF 2
ENDMDL
MODEL 5
REMARK VINA RESULT:    -3.418      3.093      3.924
REMARK INTER + INTRA:          -3.848
REMARK INTER:                  -3.813
REMARK INTRA:                  -0.034
REMARK UNBOUND:                -0.030
REMARK SMILES CCCC(=O)[O-]
REMARK SMILES IDX 3 1 4 2 5 3 6 4 2 5 1 6
REMARK H PARENT
REMARK Flexibility Score: inf
ROOT
ATOM      1  C   UNL     1      12.254   0.782  66.302  1.00  0.00     0.052 C 
ENDROOT
BRANCH   1   2
ATOM      2  C   UNL     1      11.272   1.914  66.321  1.00  0.00     0.041 C 
ATOM      3  O   UNL     1      10.977   2.478  67.406  1.00  0.00    -0.550 OA
ATOM      4  O   UNL     1      10.657   2.322  65.144  1.00  0.00    -0.550 OA
ENDBRANCH   1   2
BRANCH   1   5
ATOM      5  C   UNL     1      12.286   0.080  64.940  1.00  0.00     0.003 C 
ATOM      6  C   UNL     1      11.681  -1.324  64.994  1.00  0.00     0.004 C 
ENDBRANCH   1   5
TORSDOF 2
ENDMDL
MODEL 6
REMARK VINA RESULT:    -2.881      8.918      9.661
REMARK INTER + INTRA:          -3.249
REMARK INTER:                  -3.235
REMARK INTRA:                  -0.014
REMARK UNBOUND:                -0.030
REMARK SMILES CCCC(=O)[O-]
REMARK SMILES IDX 3 1 4 2 5 3 6 4 2 5 1 6
REMARK H PARENT
REMARK Flexibility Score: inf
ROOT
ATOM      1  C   UNL     1       7.746   3.001  56.876  1.00  0.00     0.052 C 
ENDROOT
BRANCH   1   2
ATOM      2  C   UNL     1       6.594   2.388  57.613  1.00  0.00     0.041 C 
ATOM      3  O   UNL     1       6.767   1.888  58.754  1.00  0.00    -0.550 OA
ATOM      4  O   UNL     1       5.338   2.339  57.022  1.00  0.00    -0.550 OA
ENDBRANCH   1   2
BRANCH   1   5
ATOM      5  C   UNL     1       9.006   3.073  57.747  1.00  0.00     0.003 C 
ATOM      6  C   UNL     1      10.287   3.125  56.914  1.00  0.00     0.004 C 
ENDBRANCH   1   5
TORSDOF 2
ENDMDL
MODEL 7
REMARK VINA RESULT:    -2.633     19.154     19.715
REMARK INTER + INTRA:          -2.971
REMARK INTER:                  -2.939
REMARK INTRA:                  -0.031
REMARK UNBOUND:                -0.030
REMARK SMILES CCCC(=O)[O-]
REMARK SMILES IDX 3 1 4 2 5 3 6 4 2 5 1 6
REMARK H PARENT
REMARK Flexibility Score: inf
ROOT
ATOM      1  C   UNL     1      -4.082 -14.558  64.425  1.00  0.00     0.052 C 
ENDROOT
BRANCH   1   2
ATOM      2  C   UNL     1      -4.815 -13.803  63.358  1.00  0.00     0.041 C 
ATOM      3  O   UNL     1      -4.929 -14.288  62.203  1.00  0.00    -0.550 OA
ATOM      4  O   UNL     1      -5.342 -12.547  63.632  1.00  0.00    -0.550 OA
ENDBRANCH   1   2
BRANCH   1   5
ATOM      5  C   UNL     1      -4.632 -14.248  65.822  1.00  0.00     0.003 C 
ATOM      6  C   UNL     1      -3.693 -13.352  66.631  1.00  0.00     0.004 C 
ENDBRANCH   1   5
TORSDOF 2
ENDMDL
MODEL 8
REMARK VINA RESULT:    -2.622     18.413     18.983
REMARK INTER + INTRA:          -2.959
REMARK INTER:                  -2.935
REMARK INTRA:                  -0.025
REMARK UNBOUND:                -0.030
REMARK SMILES CCCC(=O)[O-]
REMARK SMILES IDX 3 1 4 2 5 3 6 4 2 5 1 6
REMARK H PARENT
REMARK Flexibility Score: inf
ROOT
ATOM      1  C   UNL     1      -5.051 -12.466  64.028  1.00  0.00     0.052 C 
ENDROOT
BRANCH   1   2
ATOM      2  C   UNL     1      -4.599 -13.818  63.566  1.00  0.00     0.041 C 
ATOM      3  O   UNL     1      -3.927 -14.556  64.332  1.00  0.00    -0.550 OA
ATOM      4  O   UNL     1      -4.891 -14.247  62.277  1.00  0.00    -0.550 OA
ENDBRANCH   1   2
BRANCH   1   5
ATOM      5  C   UNL     1      -4.053 -11.834  65.005  1.00  0.00     0.003 C 
ATOM      6  C   UNL     1      -3.333 -10.628  64.402  1.00  0.00     0.004 C 
ENDBRANCH   1   5
TORSDOF 2
ENDMDL
MODEL 9
REMARK VINA RESULT:    -2.612     17.955     18.462
REMARK INTER + INTRA:          -2.948
REMARK INTER:                  -2.915
REMARK INTRA:                  -0.033
REMARK UNBOUND:                -0.030
REMARK SMILES CCCC(=O)[O-]
REMARK SMILES IDX 3 1 4 2 5 3 6 4 2 5 1 6
REMARK H PARENT
REMARK Flexibility Score: inf
ROOT
ATOM      1  C   UNL     1      -4.143 -12.748  64.516  1.00  0.00     0.052 C 
ENDROOT
BRANCH   1   2
ATOM      2  C   UNL     1      -4.161 -11.260  64.349  1.00  0.00     0.041 C 
ATOM      3  O   UNL     1      -5.248 -10.657  64.153  1.00  0.00    -0.550 OA
ATOM      4  O   UNL     1      -2.970 -10.543  64.373  1.00  0.00    -0.550 OA
ENDBRANCH   1   2
BRANCH   1   5
ATOM      5  C   UNL     1      -5.316 -13.417  63.791  1.00  0.00     0.003 C 
ATOM      6  C   UNL     1      -4.885 -14.098  62.491  1.00  0.00     0.004 C 
ENDBRANCH   1   5
TORSDOF 2
ENDMDL
