MODEL 1
REMARK VINA RESULT:    -7.472      0.000      0.000
REMARK INTER + INTRA:          -9.564
REMARK INTER:                  -9.219
REMARK INTRA:                  -0.345
REMARK UNBOUND:                -0.345
REMARK SMILES Oc1cc(O)c2cc(O)c(-c3cc(O)c(O)c(O)c3)[o+]c2c1
REMARK SMILES IDX 10 1 20 2 21 3 22 4 2 5 3 6 4 7 6 8 7 9 8 10 11 11 12 12
REMARK SMILES IDX 13 13 19 14 15 15 17 16 14 17 16 19 18 21 9 23 1 25 5 27
REMARK H PARENT 14 18 16 20 18 22 9 24 1 26 5 28
REMARK Flexibility Score: inf
ROOT
ATOM      1  C   UNL     1      39.038 -11.725   8.355  1.00  0.00     0.402 A 
ATOM      2  O   UNL     1      39.111 -11.365   7.076  1.00  0.00    -0.202 OA
ATOM      3  C   UNL     1      38.141 -11.595   6.197  1.00  0.00     0.368 A 
ATOM      4  C   UNL     1      38.310 -11.178   4.874  1.00  0.00     0.162 A 
ATOM      5  C   UNL     1      37.303 -11.402   3.929  1.00  0.00     0.128 A 
ATOM      6  C   UNL     1      36.125 -12.048   4.310  1.00  0.00     0.093 A 
ATOM      7  C   UNL     1      35.931 -12.476   5.629  1.00  0.00     0.136 A 
ATOM      8  C   UNL     1      36.951 -12.252   6.591  1.00  0.00     0.125 A 
ATOM      9  C   UNL     1      36.850 -12.658   7.932  1.00  0.00     0.078 A 
ATOM     10  C   UNL     1      37.898 -12.406   8.821  1.00  0.00     0.223 A 
ENDROOT
BRANCH   1  11
ATOM     11  C   UNL     1      40.182 -11.403   9.239  1.00  0.00     0.091 A 
ATOM     12  C   UNL     1      40.116 -10.350  10.167  1.00  0.00     0.068 A 
ATOM     13  C   UNL     1      41.218 -10.047  10.980  1.00  0.00     0.162 A 
ATOM     14  C   UNL     1      41.376 -12.129   9.112  1.00  0.00     0.068 A 
ATOM     15  C   UNL     1      42.403 -10.795  10.860  1.00  0.00     0.200 A 
ATOM     16  C   UNL     1      42.481 -11.832   9.923  1.00  0.00     0.162 A 
BRANCH  13  17
ATOM     17  O   UNL     1      41.141  -9.004  11.901  1.00  0.00    -0.504 OA
ATOM     18  H   UNL     1      41.553  -9.079  12.824  1.00  0.00     0.293 HD
ENDBRANCH  13  17
BRANCH  15  19
ATOM     19  O   UNL     1      43.510 -10.514  11.661  1.00  0.00    -0.502 OA
ATOM     20  H   UNL     1      43.529  -9.727  12.299  1.00  0.00     0.293 HD
ENDBRANCH  15  19
BRANCH  16  21
ATOM     21  O   UNL     1      43.659 -12.565   9.802  1.00  0.00    -0.504 OA
ATOM     22  H   UNL     1      43.762 -13.480  10.227  1.00  0.00     0.293 HD
ENDBRANCH  16  21
ENDBRANCH   1  11
BRANCH  10  23
ATOM     23  O   UNL     1      37.820 -12.852  10.140  1.00  0.00    -0.500 OA
ATOM     24  H   UNL     1      38.106 -12.268  10.917  1.00  0.00     0.294 HD
ENDBRANCH  10  23
BRANCH   5  25
ATOM     25  O   UNL     1      37.465 -10.989   2.609  1.00  0.00    -0.507 OA
ATOM     26  H   UNL     1      38.194 -10.339   2.343  1.00  0.00     0.293 HD
ENDBRANCH   5  25
BRANCH   7  27
ATOM     27  O   UNL     1      34.723 -13.110   5.930  1.00  0.00    -0.507 OA
ATOM     28  H   UNL     1      33.887 -12.631   6.233  1.00  0.00     0.293 HD
ENDBRANCH   7  27
TORSDOF 7
ENDMDL
MODEL 2
REMARK VINA RESULT:    -7.457      0.082      1.790
REMARK INTER + INTRA:          -9.545
REMARK INTER:                  -9.221
REMARK INTRA:                  -0.325
REMARK UNBOUND:                -0.345
REMARK SMILES Oc1cc(O)c2cc(O)c(-c3cc(O)c(O)c(O)c3)[o+]c2c1
REMARK SMILES IDX 10 1 20 2 21 3 22 4 2 5 3 6 4 7 6 8 7 9 8 10 11 11 12 12
REMARK SMILES IDX 13 13 19 14 15 15 17 16 14 17 16 19 18 21 9 23 1 25 5 27
REMARK H PARENT 14 18 16 20 18 22 9 24 1 26 5 28
REMARK Flexibility Score: inf
ROOT
ATOM      1  C   UNL     1      39.035 -11.754   8.327  1.00  0.00     0.402 A 
ATOM      2  O   UNL     1      39.086 -11.397   7.047  1.00  0.00    -0.202 OA
ATOM      3  C   UNL     1      38.095 -11.613   6.189  1.00  0.00     0.368 A 
ATOM      4  C   UNL     1      38.240 -11.199   4.862  1.00  0.00     0.162 A 
ATOM      5  C   UNL     1      37.211 -11.411   3.939  1.00  0.00     0.128 A 
ATOM      6  C   UNL     1      36.033 -12.042   4.345  1.00  0.00     0.093 A 
ATOM      7  C   UNL     1      35.862 -12.466   5.669  1.00  0.00     0.136 A 
ATOM      8  C   UNL     1      36.905 -12.255   6.608  1.00  0.00     0.125 A 
ATOM      9  C   UNL     1      36.827 -12.659   7.952  1.00  0.00     0.078 A 
ATOM     10  C   UNL     1      37.897 -12.420   8.818  1.00  0.00     0.223 A 
ENDROOT
BRANCH   1  11
ATOM     11  C   UNL     1      40.202 -11.448   9.186  1.00  0.00     0.091 A 
ATOM     12  C   UNL     1      41.374 -12.221   9.132  1.00  0.00     0.068 A 
ATOM     13  C   UNL     1      42.460 -11.928   9.970  1.00  0.00     0.162 A 
ATOM     14  C   UNL     1      40.118 -10.398  10.113  1.00  0.00     0.068 A 
ATOM     15  C   UNL     1      42.374 -10.860  10.879  1.00  0.00     0.200 A 
ATOM     16  C   UNL     1      41.201 -10.099  10.952  1.00  0.00     0.162 A 
BRANCH  13  17
ATOM     17  O   UNL     1      43.621 -12.697   9.905  1.00  0.00    -0.504 OA
ATOM     18  H   UNL     1      44.436 -12.476  10.464  1.00  0.00     0.293 HD
ENDBRANCH  13  17
BRANCH  15  19
ATOM     19  O   UNL     1      43.443 -10.547  11.720  1.00  0.00    -0.502 OA
ATOM     20  H   UNL     1      44.003  -9.712  11.593  1.00  0.00     0.293 HD
ENDBRANCH  15  19
BRANCH  16  21
ATOM     21  O   UNL     1      41.117  -9.046  11.861  1.00  0.00    -0.504 OA
ATOM     22  H   UNL     1      41.945  -8.574  12.205  1.00  0.00     0.293 HD
ENDBRANCH  16  21
ENDBRANCH   1  11
BRANCH  10  23
ATOM     23  O   UNL     1      37.841 -12.865  10.139  1.00  0.00    -0.500 OA
ATOM     24  H   UNL     1      38.352 -13.685  10.446  1.00  0.00     0.294 HD
ENDBRANCH  10  23
BRANCH   5  25
ATOM     25  O   UNL     1      37.350 -11.001   2.616  1.00  0.00    -0.507 OA
ATOM     26  H   UNL     1      38.246 -11.027   2.144  1.00  0.00     0.293 HD
ENDBRANCH   5  25
BRANCH   7  27
ATOM     27  O   UNL     1      34.652 -13.085   5.995  1.00  0.00    -0.507 OA
ATOM     28  H   UNL     1      34.007 -13.468   5.319  1.00  0.00     0.293 HD
ENDBRANCH   7  27
TORSDOF 7
ENDMDL
MODEL 3
REMARK VINA RESULT:    -7.118      1.410      7.232
REMARK INTER + INTRA:          -9.127
REMARK INTER:                  -8.930
REMARK INTRA:                  -0.197
REMARK UNBOUND:                -0.345
REMARK SMILES Oc1cc(O)c2cc(O)c(-c3cc(O)c(O)c(O)c3)[o+]c2c1
REMARK SMILES IDX 10 1 20 2 21 3 22 4 2 5 3 6 4 7 6 8 7 9 8 10 11 11 12 12
REMARK SMILES IDX 13 13 19 14 15 15 17 16 14 17 16 19 18 21 9 23 1 25 5 27
REMARK H PARENT 14 18 16 20 18 22 9 24 1 26 5 28
REMARK Flexibility Score: inf
ROOT
ATOM      1  C   UNL     1      39.160 -11.932   8.051  1.00  0.00     0.402 A 
ATOM      2  O   UNL     1      40.005 -12.904   8.384  1.00  0.00    -0.202 OA
ATOM      3  C   UNL     1      40.951 -12.763   9.307  1.00  0.00     0.368 A 
ATOM      4  C   UNL     1      41.792 -13.843   9.590  1.00  0.00     0.162 A 
ATOM      5  C   UNL     1      42.792 -13.724  10.559  1.00  0.00     0.128 A 
ATOM      6  C   UNL     1      42.954 -12.519  11.246  1.00  0.00     0.093 A 
ATOM      7  C   UNL     1      42.125 -11.422  10.982  1.00  0.00     0.136 A 
ATOM      8  C   UNL     1      41.109 -11.537   9.997  1.00  0.00     0.125 A 
ATOM      9  C   UNL     1      40.241 -10.487   9.656  1.00  0.00     0.078 A 
ATOM     10  C   UNL     1      39.266 -10.674   8.673  1.00  0.00     0.223 A 
ENDROOT
BRANCH   1  11
ATOM     11  C   UNL     1      38.141 -12.215   7.013  1.00  0.00     0.091 A 
ATOM     12  C   UNL     1      37.161 -13.204   7.202  1.00  0.00     0.068 A 
ATOM     13  C   UNL     1      36.218 -13.473   6.198  1.00  0.00     0.162 A 
ATOM     14  C   UNL     1      38.188 -11.522   5.795  1.00  0.00     0.068 A 
ATOM     15  C   UNL     1      36.260 -12.757   4.989  1.00  0.00     0.200 A 
ATOM     16  C   UNL     1      37.247 -11.785   4.788  1.00  0.00     0.162 A 
BRANCH  13  17
ATOM     17  O   UNL     1      35.246 -14.452   6.397  1.00  0.00    -0.504 OA
ATOM     18  H   UNL     1      34.397 -14.476   5.844  1.00  0.00     0.293 HD
ENDBRANCH  13  17
BRANCH  15  19
ATOM     19  O   UNL     1      35.331 -13.004   3.979  1.00  0.00    -0.502 OA
ATOM     20  H   UNL     1      34.463 -12.487   3.905  1.00  0.00     0.293 HD
ENDBRANCH  15  19
BRANCH  16  21
ATOM     21  O   UNL     1      37.290 -11.083   3.585  1.00  0.00    -0.504 OA
ATOM     22  H   UNL     1      38.169 -10.823   3.152  1.00  0.00     0.293 HD
ENDBRANCH  16  21
ENDBRANCH   1  11
BRANCH  10  23
ATOM     23  O   UNL     1      38.437  -9.617   8.298  1.00  0.00    -0.500 OA
ATOM     24  H   UNL     1      38.802  -8.793   7.835  1.00  0.00     0.294 HD
ENDBRANCH  10  23
BRANCH   5  25
ATOM     25  O   UNL     1      43.633 -14.797  10.846  1.00  0.00    -0.507 OA
ATOM     26  H   UNL     1      43.734 -15.576  10.207  1.00  0.00     0.293 HD
ENDBRANCH   5  25
BRANCH   7  27
ATOM     27  O   UNL     1      42.349 -10.254  11.716  1.00  0.00    -0.507 OA
ATOM     28  H   UNL     1      43.027  -9.547  11.471  1.00  0.00     0.293 HD
ENDBRANCH   7  27
TORSDOF 7
ENDMDL
MODEL 4
REMARK VINA RESULT:    -7.093      5.577      9.279
REMARK INTER + INTRA:          -9.096
REMARK INTER:                  -8.969
REMARK INTRA:                  -0.127
REMARK UNBOUND:                -0.345
REMARK SMILES Oc1cc(O)c2cc(O)c(-c3cc(O)c(O)c(O)c3)[o+]c2c1
REMARK SMILES IDX 10 1 20 2 21 3 22 4 2 5 3 6 4 7 6 8 7 9 8 10 11 11 12 12
REMARK SMILES IDX 13 13 19 14 15 15 17 16 14 17 16 19 18 21 9 23 1 25 5 27
REMARK H PARENT 14 18 16 20 18 22 9 24 1 26 5 28
REMARK Flexibility Score: inf
ROOT
ATOM      1  C   UNL     1      33.126 -14.261   2.259  1.00  0.00     0.402 A 
ATOM      2  O   UNL     1      31.912 -14.179   2.798  1.00  0.00    -0.202 OA
ATOM      3  C   UNL     1      30.804 -14.535   2.157  1.00  0.00     0.368 A 
ATOM      4  C   UNL     1      29.573 -14.414   2.808  1.00  0.00     0.162 A 
ATOM      5  C   UNL     1      28.392 -14.785   2.158  1.00  0.00     0.128 A 
ATOM      6  C   UNL     1      28.442 -15.277   0.852  1.00  0.00     0.093 A 
ATOM      7  C   UNL     1      29.662 -15.408   0.178  1.00  0.00     0.136 A 
ATOM      8  C   UNL     1      30.864 -15.031   0.832  1.00  0.00     0.125 A 
ATOM      9  C   UNL     1      32.130 -15.114   0.230  1.00  0.00     0.078 A 
ATOM     10  C   UNL     1      33.270 -14.720   0.936  1.00  0.00     0.223 A 
ENDROOT
BRANCH   1  11
ATOM     11  C   UNL     1      34.286 -13.843   3.080  1.00  0.00     0.091 A 
ATOM     12  C   UNL     1      34.546 -14.429   4.330  1.00  0.00     0.068 A 
ATOM     13  C   UNL     1      35.637 -14.005   5.103  1.00  0.00     0.162 A 
ATOM     14  C   UNL     1      35.112 -12.804   2.626  1.00  0.00     0.068 A 
ATOM     15  C   UNL     1      36.472 -12.978   4.629  1.00  0.00     0.200 A 
ATOM     16  C   UNL     1      36.205 -12.376   3.393  1.00  0.00     0.162 A 
BRANCH  13  17
ATOM     17  O   UNL     1      35.890 -14.596   6.339  1.00  0.00    -0.504 OA
ATOM     18  H   UNL     1      35.871 -14.059   7.198  1.00  0.00     0.293 HD
ENDBRANCH  13  17
BRANCH  15  19
ATOM     19  O   UNL     1      37.565 -12.541   5.378  1.00  0.00    -0.502 OA
ATOM     20  H   UNL     1      38.392 -12.146   4.946  1.00  0.00     0.293 HD
ENDBRANCH  15  19
BRANCH  16  21
ATOM     21  O   UNL     1      37.031 -11.353   2.932  1.00  0.00    -0.504 OA
ATOM     22  H   UNL     1      37.975 -11.535   2.612  1.00  0.00     0.293 HD
ENDBRANCH  16  21
ENDBRANCH   1  11
BRANCH  10  23
ATOM     23  O   UNL     1      34.521 -14.756   0.322  1.00  0.00    -0.500 OA
ATOM     24  H   UNL     1      35.030 -13.907   0.103  1.00  0.00     0.294 HD
ENDBRANCH  10  23
BRANCH   5  25
ATOM     25  O   UNL     1      27.162 -14.668   2.801  1.00  0.00    -0.507 OA
ATOM     26  H   UNL     1      26.490 -15.426   2.803  1.00  0.00     0.293 HD
ENDBRANCH   5  25
BRANCH   7  27
ATOM     27  O   UNL     1      29.627 -15.913  -1.125  1.00  0.00    -0.507 OA
ATOM     28  H   UNL     1      28.838 -16.399  -1.527  1.00  0.00     0.293 HD
ENDBRANCH   7  27
TORSDOF 7
ENDMDL
MODEL 5
REMARK VINA RESULT:    -7.040      0.972      2.532
REMARK INTER + INTRA:          -9.031
REMARK INTER:                  -8.654
REMARK INTRA:                  -0.377
REMARK UNBOUND:                -0.345
REMARK SMILES Oc1cc(O)c2cc(O)c(-c3cc(O)c(O)c(O)c3)[o+]c2c1
REMARK SMILES IDX 10 1 20 2 21 3 22 4 2 5 3 6 4 7 6 8 7 9 8 10 11 11 12 12
REMARK SMILES IDX 13 13 19 14 15 15 17 16 14 17 16 19 18 21 9 23 1 25 5 27
REMARK H PARENT 14 18 16 20 18 22 9 24 1 26 5 28
REMARK Flexibility Score: inf
ROOT
ATOM      1  C   UNL     1      39.589 -11.216   7.669  1.00  0.00     0.402 A 
ATOM      2  O   UNL     1      38.495 -11.958   7.821  1.00  0.00    -0.202 OA
ATOM      3  C   UNL     1      37.595 -12.135   6.859  1.00  0.00     0.368 A 
ATOM      4  C   UNL     1      36.477 -12.935   7.113  1.00  0.00     0.162 A 
ATOM      5  C   UNL     1      35.517 -13.142   6.118  1.00  0.00     0.128 A 
ATOM      6  C   UNL     1      35.674 -12.545   4.865  1.00  0.00     0.093 A 
ATOM      7  C   UNL     1      36.785 -11.739   4.585  1.00  0.00     0.136 A 
ATOM      8  C   UNL     1      37.761 -11.525   5.593  1.00  0.00     0.125 A 
ATOM      9  C   UNL     1      38.899 -10.722   5.407  1.00  0.00     0.078 A 
ATOM     10  C   UNL     1      39.816 -10.554   6.448  1.00  0.00     0.223 A 
ENDROOT
BRANCH   1  11
ATOM     11  C   UNL     1      40.523 -11.104   8.813  1.00  0.00     0.091 A 
ATOM     12  C   UNL     1      40.353 -10.121   9.803  1.00  0.00     0.068 A 
ATOM     13  C   UNL     1      41.260 -10.017  10.867  1.00  0.00     0.162 A 
ATOM     14  C   UNL     1      41.632 -11.960   8.884  1.00  0.00     0.068 A 
ATOM     15  C   UNL     1      42.356 -10.894  10.940  1.00  0.00     0.200 A 
ATOM     16  C   UNL     1      42.542 -11.862   9.946  1.00  0.00     0.162 A 
BRANCH  13  17
ATOM     17  O   UNL     1      41.080  -9.042  11.847  1.00  0.00    -0.504 OA
ATOM     18  H   UNL     1      40.167  -8.848  12.240  1.00  0.00     0.293 HD
ENDBRANCH  13  17
BRANCH  15  19
ATOM     19  O   UNL     1      43.270 -10.812  11.991  1.00  0.00    -0.502 OA
ATOM     20  H   UNL     1      43.632  -9.926  12.323  1.00  0.00     0.293 HD
ENDBRANCH  15  19
BRANCH  16  21
ATOM     21  O   UNL     1      43.634 -12.725  10.018  1.00  0.00    -0.504 OA
ATOM     22  H   UNL     1      43.856 -13.365   9.265  1.00  0.00     0.293 HD
ENDBRANCH  16  21
ENDBRANCH   1  11
BRANCH  10  23
ATOM     23  O   UNL     1      40.919  -9.718   6.281  1.00  0.00    -0.500 OA
ATOM     24  H   UNL     1      40.825  -8.709   6.264  1.00  0.00     0.294 HD
ENDBRANCH  10  23
BRANCH   5  25
ATOM     25  O   UNL     1      34.401 -13.938   6.364  1.00  0.00    -0.507 OA
ATOM     26  H   UNL     1      34.112 -14.661   5.716  1.00  0.00     0.293 HD
ENDBRANCH   5  25
BRANCH   7  27
ATOM     27  O   UNL     1      36.870 -11.183   3.306  1.00  0.00    -0.507 OA
ATOM     28  H   UNL     1      36.989 -10.197   3.120  1.00  0.00     0.293 HD
ENDBRANCH   7  27
TORSDOF 7
ENDMDL
MODEL 6
REMARK VINA RESULT:    -7.027      1.021      3.108
REMARK INTER + INTRA:          -9.016
REMARK INTER:                  -8.633
REMARK INTRA:                  -0.383
REMARK UNBOUND:                -0.345
REMARK SMILES Oc1cc(O)c2cc(O)c(-c3cc(O)c(O)c(O)c3)[o+]c2c1
REMARK SMILES IDX 10 1 20 2 21 3 22 4 2 5 3 6 4 7 6 8 7 9 8 10 11 11 12 12
REMARK SMILES IDX 13 13 19 14 15 15 17 16 14 17 16 19 18 21 9 23 1 25 5 27
REMARK H PARENT 14 18 16 20 18 22 9 24 1 26 5 28
REMARK Flexibility Score: inf
ROOT
ATOM      1  C   UNL     1      39.655 -11.251   7.562  1.00  0.00     0.402 A 
ATOM      2  O   UNL     1      38.616 -12.070   7.704  1.00  0.00    -0.202 OA
ATOM      3  C   UNL     1      37.692 -12.247   6.766  1.00  0.00     0.368 A 
ATOM      4  C   UNL     1      36.637 -13.131   7.007  1.00  0.00     0.162 A 
ATOM      5  C   UNL     1      35.654 -13.339   6.035  1.00  0.00     0.128 A 
ATOM      6  C   UNL     1      35.725 -12.657   4.818  1.00  0.00     0.093 A 
ATOM      7  C   UNL     1      36.771 -11.765   4.551  1.00  0.00     0.136 A 
ATOM      8  C   UNL     1      37.770 -11.550   5.536  1.00  0.00     0.125 A 
ATOM      9  C   UNL     1      38.848 -10.665   5.362  1.00  0.00     0.078 A 
ATOM     10  C   UNL     1      39.792 -10.502   6.378  1.00  0.00     0.223 A 
ENDROOT
BRANCH   1  11
ATOM     11  C   UNL     1      40.624 -11.148   8.677  1.00  0.00     0.091 A 
ATOM     12  C   UNL     1      41.732 -12.007   8.764  1.00  0.00     0.068 A 
ATOM     13  C   UNL     1      42.627 -11.910   9.840  1.00  0.00     0.162 A 
ATOM     14  C   UNL     1      40.403 -10.212   9.698  1.00  0.00     0.068 A 
ATOM     15  C   UNL     1      42.409 -10.953  10.846  1.00  0.00     0.200 A 
ATOM     16  C   UNL     1      41.294 -10.108  10.776  1.00  0.00     0.162 A 
BRANCH  13  17
ATOM     17  O   UNL     1      43.727 -12.762   9.914  1.00  0.00    -0.504 OA
ATOM     18  H   UNL     1      44.390 -12.707  10.678  1.00  0.00     0.293 HD
ENDBRANCH  13  17
BRANCH  15  19
ATOM     19  O   UNL     1      43.287 -10.834  11.924  1.00  0.00    -0.502 OA
ATOM     20  H   UNL     1      43.807  -9.984  12.105  1.00  0.00     0.293 HD
ENDBRANCH  15  19
BRANCH  16  21
ATOM     21  O   UNL     1      41.078  -9.166  11.780  1.00  0.00    -0.504 OA
ATOM     22  H   UNL     1      41.599  -9.187  12.649  1.00  0.00     0.293 HD
ENDBRANCH  16  21
ENDBRANCH   1  11
BRANCH  10  23
ATOM     23  O   UNL     1      40.833  -9.587   6.226  1.00  0.00    -0.500 OA
ATOM     24  H   UNL     1      41.667  -9.813   5.697  1.00  0.00     0.294 HD
ENDBRANCH  10  23
BRANCH   5  25
ATOM     25  O   UNL     1      34.600 -14.219   6.269  1.00  0.00    -0.507 OA
ATOM     26  H   UNL     1      34.326 -14.911   5.582  1.00  0.00     0.293 HD
ENDBRANCH   5  25
BRANCH   7  27
ATOM     27  O   UNL     1      36.771 -11.127   3.308  1.00  0.00    -0.507 OA
ATOM     28  H   UNL     1      36.420 -10.194   3.146  1.00  0.00     0.293 HD
ENDBRANCH   7  27
TORSDOF 7
ENDMDL
MODEL 7
REMARK VINA RESULT:    -7.023      1.345      7.233
REMARK INTER + INTRA:          -9.011
REMARK INTER:                  -8.729
REMARK INTRA:                  -0.282
REMARK UNBOUND:                -0.345
REMARK SMILES Oc1cc(O)c2cc(O)c(-c3cc(O)c(O)c(O)c3)[o+]c2c1
REMARK SMILES IDX 10 1 20 2 21 3 22 4 2 5 3 6 4 7 6 8 7 9 8 10 11 11 12 12
REMARK SMILES IDX 13 13 19 14 15 15 17 16 14 17 16 19 18 21 9 23 1 25 5 27
REMARK H PARENT 14 18 16 20 18 22 9 24 1 26 5 28
REMARK Flexibility Score: inf
ROOT
ATOM      1  C   UNL     1      39.102 -11.892   7.961  1.00  0.00     0.402 A 
ATOM      2  O   UNL     1      39.983 -12.827   8.306  1.00  0.00    -0.202 OA
ATOM      3  C   UNL     1      40.907 -12.649   9.245  1.00  0.00     0.368 A 
ATOM      4  C   UNL     1      41.789 -13.693   9.539  1.00  0.00     0.162 A 
ATOM      5  C   UNL     1      42.767 -13.534  10.525  1.00  0.00     0.128 A 
ATOM      6  C   UNL     1      42.864 -12.325  11.218  1.00  0.00     0.093 A 
ATOM      7  C   UNL     1      41.993 -11.264  10.943  1.00  0.00     0.136 A 
ATOM      8  C   UNL     1      41.000 -11.420   9.941  1.00  0.00     0.125 A 
ATOM      9  C   UNL     1      40.093 -10.407   9.588  1.00  0.00     0.078 A 
ATOM     10  C   UNL     1      39.144 -10.633   8.588  1.00  0.00     0.223 A 
ENDROOT
BRANCH   1  11
ATOM     11  C   UNL     1      38.115 -12.216   6.906  1.00  0.00     0.091 A 
ATOM     12  C   UNL     1      38.187 -11.630   5.631  1.00  0.00     0.068 A 
ATOM     13  C   UNL     1      37.230 -11.932   4.652  1.00  0.00     0.162 A 
ATOM     14  C   UNL     1      37.052 -13.084   7.199  1.00  0.00     0.068 A 
ATOM     15  C   UNL     1      36.181 -12.820   4.949  1.00  0.00     0.200 A 
ATOM     16  C   UNL     1      36.092 -13.392   6.224  1.00  0.00     0.162 A 
BRANCH  13  17
ATOM     17  O   UNL     1      37.313 -11.349   3.388  1.00  0.00    -0.504 OA
ATOM     18  H   UNL     1      37.889 -11.749   2.657  1.00  0.00     0.293 HD
ENDBRANCH  13  17
BRANCH  15  19
ATOM     19  O   UNL     1      35.220 -13.139   3.991  1.00  0.00    -0.502 OA
ATOM     20  H   UNL     1      34.430 -12.535   3.797  1.00  0.00     0.293 HD
ENDBRANCH  15  19
BRANCH  16  21
ATOM     21  O   UNL     1      35.047 -14.265   6.517  1.00  0.00    -0.504 OA
ATOM     22  H   UNL     1      34.762 -14.990   5.868  1.00  0.00     0.293 HD
ENDBRANCH  16  21
ENDBRANCH   1  11
BRANCH  10  23
ATOM     23  O   UNL     1      38.276  -9.612   8.203  1.00  0.00    -0.500 OA
ATOM     24  H   UNL     1      38.578  -8.645   8.159  1.00  0.00     0.294 HD
ENDBRANCH  10  23
BRANCH   5  25
ATOM     25  O   UNL     1      43.649 -14.570  10.823  1.00  0.00    -0.507 OA
ATOM     26  H   UNL     1      43.614 -15.453  10.329  1.00  0.00     0.293 HD
ENDBRANCH   5  25
BRANCH   7  27
ATOM     27  O   UNL     1      42.154 -10.090  11.684  1.00  0.00    -0.507 OA
ATOM     28  H   UNL     1      42.062  -9.159  11.305  1.00  0.00     0.293 HD
ENDBRANCH   7  27
TORSDOF 7
ENDMDL
MODEL 8
REMARK VINA RESULT:    -6.725      2.567      8.062
REMARK INTER + INTRA:          -8.643
REMARK INTER:                  -8.270
REMARK INTRA:                  -0.372
REMARK UNBOUND:                -0.345
REMARK SMILES Oc1cc(O)c2cc(O)c(-c3cc(O)c(O)c(O)c3)[o+]c2c1
REMARK SMILES IDX 10 1 20 2 21 3 22 4 2 5 3 6 4 7 6 8 7 9 8 10 11 11 12 12
REMARK SMILES IDX 13 13 19 14 15 15 17 16 14 17 16 19 18 21 9 23 1 25 5 27
REMARK H PARENT 14 18 16 20 18 22 9 24 1 26 5 28
REMARK Flexibility Score: inf
ROOT
ATOM      1  C   UNL     1      36.506 -12.741   5.549  1.00  0.00     0.402 A 
ATOM      2  O   UNL     1      37.197 -13.481   6.412  1.00  0.00    -0.202 OA
ATOM      3  C   UNL     1      37.967 -12.963   7.364  1.00  0.00     0.368 A 
ATOM      4  C   UNL     1      38.653 -13.822   8.226  1.00  0.00     0.162 A 
ATOM      5  C   UNL     1      39.466 -13.304   9.239  1.00  0.00     0.128 A 
ATOM      6  C   UNL     1      39.594 -11.921   9.389  1.00  0.00     0.093 A 
ATOM      7  C   UNL     1      38.916 -11.038   8.538  1.00  0.00     0.136 A 
ATOM      8  C   UNL     1      38.092 -11.560   7.507  1.00  0.00     0.125 A 
ATOM      9  C   UNL     1      37.386 -10.752   6.600  1.00  0.00     0.078 A 
ATOM     10  C   UNL     1      36.596 -11.338   5.607  1.00  0.00     0.223 A 
ENDROOT
BRANCH   1  11
ATOM     11  C   UNL     1      35.676 -13.437   4.539  1.00  0.00     0.091 A 
ATOM     12  C   UNL     1      34.370 -13.865   4.835  1.00  0.00     0.068 A 
ATOM     13  C   UNL     1      33.607 -14.542   3.872  1.00  0.00     0.162 A 
ATOM     14  C   UNL     1      36.220 -13.725   3.278  1.00  0.00     0.068 A 
ATOM     15  C   UNL     1      34.154 -14.806   2.604  1.00  0.00     0.200 A 
ATOM     16  C   UNL     1      35.462 -14.400   2.311  1.00  0.00     0.162 A 
BRANCH  13  17
ATOM     17  O   UNL     1      32.311 -14.958   4.173  1.00  0.00    -0.504 OA
ATOM     18  H   UNL     1      31.509 -14.363   3.999  1.00  0.00     0.293 HD
ENDBRANCH  13  17
BRANCH  15  19
ATOM     19  O   UNL     1      33.413 -15.475   1.630  1.00  0.00    -0.502 OA
ATOM     20  H   UNL     1      32.834 -14.982   0.960  1.00  0.00     0.293 HD
ENDBRANCH  15  19
BRANCH  16  21
ATOM     21  O   UNL     1      36.003 -14.671   1.056  1.00  0.00    -0.504 OA
ATOM     22  H   UNL     1      36.990 -14.866   0.934  1.00  0.00     0.293 HD
ENDBRANCH  16  21
ENDBRANCH   1  11
BRANCH  10  23
ATOM     23  O   UNL     1      35.935 -10.538   4.675  1.00  0.00    -0.500 OA
ATOM     24  H   UNL     1      35.640 -10.902   3.777  1.00  0.00     0.294 HD
ENDBRANCH  10  23
BRANCH   5  25
ATOM     25  O   UNL     1      40.153 -14.154  10.102  1.00  0.00    -0.507 OA
ATOM     26  H   UNL     1      40.034 -15.159  10.061  1.00  0.00     0.293 HD
ENDBRANCH   5  25
BRANCH   7  27
ATOM     27  O   UNL     1      39.093  -9.670   8.757  1.00  0.00    -0.507 OA
ATOM     28  H   UNL     1      38.636  -9.145   9.489  1.00  0.00     0.293 HD
ENDBRANCH   7  27
TORSDOF 7
ENDMDL
MODEL 9
REMARK VINA RESULT:    -6.663      2.920      5.381
REMARK INTER + INTRA:          -8.566
REMARK INTER:                  -8.209
REMARK INTRA:                  -0.357
REMARK UNBOUND:                -0.345
REMARK SMILES Oc1cc(O)c2cc(O)c(-c3cc(O)c(O)c(O)c3)[o+]c2c1
REMARK SMILES IDX 10 1 20 2 21 3 22 4 2 5 3 6 4 7 6 8 7 9 8 10 11 11 12 12
REMARK SMILES IDX 13 13 19 14 15 15 17 16 14 17 16 19 18 21 9 23 1 25 5 27
REMARK H PARENT 14 18 16 20 18 22 9 24 1 26 5 28
REMARK Flexibility Score: inf
ROOT
ATOM      1  C   UNL     1      36.349 -13.060   4.839  1.00  0.00     0.402 A 
ATOM      2  O   UNL     1      35.142 -13.605   4.969  1.00  0.00    -0.202 OA
ATOM      3  C   UNL     1      34.447 -14.093   3.947  1.00  0.00     0.368 A 
ATOM      4  C   UNL     1      33.187 -14.648   4.183  1.00  0.00     0.162 A 
ATOM      5  C   UNL     1      32.436 -15.172   3.126  1.00  0.00     0.128 A 
ATOM      6  C   UNL     1      32.948 -15.139   1.827  1.00  0.00     0.093 A 
ATOM      7  C   UNL     1      34.208 -14.588   1.563  1.00  0.00     0.136 A 
ATOM      8  C   UNL     1      34.973 -14.053   2.633  1.00  0.00     0.125 A 
ATOM      9  C   UNL     1      36.239 -13.469   2.461  1.00  0.00     0.078 A 
ATOM     10  C   UNL     1      36.931 -12.959   3.562  1.00  0.00     0.223 A 
ENDROOT
BRANCH   1  11
ATOM     11  C   UNL     1      37.027 -12.562   6.057  1.00  0.00     0.091 A 
ATOM     12  C   UNL     1      37.000 -11.200   6.404  1.00  0.00     0.068 A 
ATOM     13  C   UNL     1      37.667 -10.744   7.550  1.00  0.00     0.162 A 
ATOM     14  C   UNL     1      37.757 -13.456   6.854  1.00  0.00     0.068 A 
ATOM     15  C   UNL     1      38.378 -11.652   8.355  1.00  0.00     0.200 A 
ATOM     16  C   UNL     1      38.425 -13.006   8.003  1.00  0.00     0.162 A 
BRANCH  13  17
ATOM     17  O   UNL     1      37.630  -9.392   7.889  1.00  0.00    -0.504 OA
ATOM     18  H   UNL     1      37.141  -8.715   7.316  1.00  0.00     0.293 HD
ENDBRANCH  13  17
BRANCH  15  19
ATOM     19  O   UNL     1      39.046 -11.222   9.501  1.00  0.00    -0.502 OA
ATOM     20  H   UNL     1      39.539 -10.337   9.539  1.00  0.00     0.293 HD
ENDBRANCH  15  19
BRANCH  16  21
ATOM     21  O   UNL     1      39.137 -13.901   8.798  1.00  0.00    -0.504 OA
ATOM     22  H   UNL     1      40.146 -13.851   8.881  1.00  0.00     0.293 HD
ENDBRANCH  16  21
ENDBRANCH   1  11
BRANCH  10  23
ATOM     23  O   UNL     1      38.166 -12.335   3.385  1.00  0.00    -0.500 OA
ATOM     24  H   UNL     1      38.728 -12.493   2.557  1.00  0.00     0.294 HD
ENDBRANCH  10  23
BRANCH   5  25
ATOM     25  O   UNL     1      31.180 -15.727   3.355  1.00  0.00    -0.507 OA
ATOM     26  H   UNL     1      31.063 -16.557   3.924  1.00  0.00     0.293 HD
ENDBRANCH   5  25
BRANCH   7  27
ATOM     27  O   UNL     1      34.650 -14.597   0.237  1.00  0.00    -0.507 OA
ATOM     28  H   UNL     1      34.194 -15.098  -0.512  1.00  0.00     0.293 HD
ENDBRANCH   7  27
TORSDOF 7
ENDMDL
