MODEL 1
REMARK VINA RESULT:    -3.437      0.000      0.000
REMARK INTER + INTRA:          -4.296
REMARK INTER:                  -4.241
REMARK INTRA:                  -0.055
REMARK UNBOUND:                -0.055
REMARK SMILES CCCCCC(=O)[O-]
REMARK SMILES IDX 4 1 5 2 6 3 7 4 8 5 3 6 2 7 1 8
REMARK H PARENT
REMARK Flexibility Score: inf
ROOT
ATOM      1  C   UNL     1      43.846  27.050   2.606  1.00  0.00     0.006 C 
ENDROOT
BRANCH   1   2
ATOM      2  C   UNL     1      45.223  27.390   3.192  1.00  0.00     0.053 C 
BRANCH   2   3
ATOM      3  C   UNL     1      45.684  26.298   4.106  1.00  0.00     0.041 C 
ATOM      4  O   UNL     1      46.274  26.579   5.182  1.00  0.00    -0.550 OA
ATOM      5  O   UNL     1      45.504  24.969   3.747  1.00  0.00    -0.550 OA
ENDBRANCH   2   3
ENDBRANCH   1   2
BRANCH   1   6
ATOM      6  C   UNL     1      43.064  28.299   2.171  1.00  0.00     0.000 C 
BRANCH   6   7
ATOM      7  C   UNL     1      41.588  28.248   2.593  1.00  0.00    -0.003 C 
ATOM      8  C   UNL     1      41.099  29.621   3.045  1.00  0.00     0.004 C 
ENDBRANCH   6   7
ENDBRANCH   1   6
TORSDOF 4
ENDMDL
MODEL 2
REMARK VINA RESULT:    -3.258      0.971      1.559
REMARK INTER + INTRA:          -4.075
REMARK INTER:                  -4.013
REMARK INTRA:                  -0.061
REMARK UNBOUND:                -0.055
REMARK SMILES CCCCCC(=O)[O-]
REMARK SMILES IDX 4 1 5 2 6 3 7 4 8 5 3 6 2 7 1 8
REMARK H PARENT
REMARK Flexibility Score: inf
ROOT
ATOM      1  C   UNL     1      44.417  26.661   3.090  1.00  0.00     0.006 C 
ENDROOT
BRANCH   1   2
ATOM      2  C   UNL     1      45.872  27.087   3.326  1.00  0.00     0.053 C 
BRANCH   2   3
ATOM      3  C   UNL     1      46.567  26.100   4.210  1.00  0.00     0.041 C 
ATOM      4  O   UNL     1      47.115  25.081   3.713  1.00  0.00    -0.550 OA
ATOM      5  O   UNL     1      46.569  26.281   5.587  1.00  0.00    -0.550 OA
ENDBRANCH   2   3
ENDBRANCH   1   2
BRANCH   1   6
ATOM      6  C   UNL     1      43.786  27.359   1.875  1.00  0.00     0.000 C 
BRANCH   6   7
ATOM      7  C   UNL     1      42.938  28.578   2.269  1.00  0.00    -0.003 C 
ATOM      8  C   UNL     1      41.503  28.168   2.586  1.00  0.00     0.004 C 
ENDBRANCH   6   7
ENDBRANCH   1   6
TORSDOF 4
ENDMDL
MODEL 3
REMARK VINA RESULT:    -3.192      3.141      4.911
REMARK INTER + INTRA:          -3.993
REMARK INTER:                  -3.941
REMARK INTRA:                  -0.053
REMARK UNBOUND:                -0.055
REMARK SMILES CCCCCC(=O)[O-]
REMARK SMILES IDX 4 1 5 2 6 3 7 4 8 5 3 6 2 7 1 8
REMARK H PARENT
REMARK Flexibility Score: inf
ROOT
ATOM      1  C   UNL     1      46.359  26.450   5.951  1.00  0.00     0.006 C 
ENDROOT
BRANCH   1   2
ATOM      2  C   UNL     1      46.118  27.313   4.705  1.00  0.00     0.053 C 
BRANCH   2   3
ATOM      3  C   UNL     1      45.811  26.448   3.523  1.00  0.00     0.041 C 
ATOM      4  O   UNL     1      45.347  25.290   3.689  1.00  0.00    -0.550 OA
ATOM      5  O   UNL     1      46.083  26.904   2.240  1.00  0.00    -0.550 OA
ENDBRANCH   2   3
ENDBRANCH   1   2
BRANCH   1   6
ATOM      6  C   UNL     1      46.296  27.261   7.254  1.00  0.00     0.000 C 
BRANCH   6   7
ATOM      7  C   UNL     1      45.989  26.387   8.480  1.00  0.00    -0.003 C 
ATOM      8  C   UNL     1      45.263  27.189   9.556  1.00  0.00     0.004 C 
ENDBRANCH   6   7
ENDBRANCH   1   6
TORSDOF 4
ENDMDL
MODEL 4
REMARK VINA RESULT:    -3.156      2.644      4.507
REMARK INTER + INTRA:          -3.949
REMARK INTER:                  -3.867
REMARK INTRA:                  -0.081
REMARK UNBOUND:                -0.055
REMARK SMILES CCCCCC(=O)[O-]
REMARK SMILES IDX 4 1 5 2 6 3 7 4 8 5 3 6 2 7 1 8
REMARK H PARENT
REMARK Flexibility Score: inf
ROOT
ATOM      1  C   UNL     1      45.112  26.077   3.781  1.00  0.00     0.006 C 
ENDROOT
BRANCH   1   2
ATOM      2  C   UNL     1      44.803  27.417   3.101  1.00  0.00     0.053 C 
BRANCH   2   3
ATOM      3  C   UNL     1      43.629  27.278   2.184  1.00  0.00     0.041 C 
ATOM      4  O   UNL     1      43.732  26.615   1.119  1.00  0.00    -0.550 OA
ATOM      5  O   UNL     1      42.434  27.920   2.482  1.00  0.00    -0.550 OA
ENDBRANCH   2   3
ENDBRANCH   1   2
BRANCH   1   6
ATOM      6  C   UNL     1      46.374  26.134   4.656  1.00  0.00     0.000 C 
BRANCH   6   7
ATOM      7  C   UNL     1      46.323  27.265   5.694  1.00  0.00    -0.003 C 
ATOM      8  C   UNL     1      46.286  26.705   7.113  1.00  0.00     0.004 C 
ENDBRANCH   6   7
ENDBRANCH   1   6
TORSDOF 4
ENDMDL
MODEL 5
REMARK VINA RESULT:    -3.112     22.986     23.858
REMARK INTER + INTRA:          -3.894
REMARK INTER:                  -3.740
REMARK INTRA:                  -0.155
REMARK UNBOUND:                -0.055
REMARK SMILES CCCCCC(=O)[O-]
REMARK SMILES IDX 4 1 5 2 6 3 7 4 8 5 3 6 2 7 1 8
REMARK H PARENT
REMARK Flexibility Score: inf
ROOT
ATOM      1  C   UNL     1      29.081  10.766  -6.430  1.00  0.00     0.006 C 
ENDROOT
BRANCH   1   2
ATOM      2  C   UNL     1      29.181  10.244  -4.991  1.00  0.00     0.053 C 
BRANCH   2   3
ATOM      3  C   UNL     1      28.260  11.009  -4.093  1.00  0.00     0.041 C 
ATOM      4  O   UNL     1      28.338  12.264  -4.026  1.00  0.00    -0.550 OA
ATOM      5  O   UNL     1      27.346  10.332  -3.296  1.00  0.00    -0.550 OA
ENDBRANCH   2   3
ENDBRANCH   1   2
BRANCH   1   6
ATOM      6  C   UNL     1      30.446  11.166  -7.011  1.00  0.00     0.000 C 
BRANCH   6   7
ATOM      7  C   UNL     1      31.616  10.763  -6.101  1.00  0.00    -0.003 C 
ATOM      8  C   UNL     1      32.801  10.261  -6.922  1.00  0.00     0.004 C 
ENDBRANCH   6   7
ENDBRANCH   1   6
TORSDOF 4
ENDMDL
MODEL 6
REMARK VINA RESULT:    -3.073      2.791      4.350
REMARK INTER + INTRA:          -3.847
REMARK INTER:                  -3.728
REMARK INTRA:                  -0.119
REMARK UNBOUND:                -0.055
REMARK SMILES CCCCCC(=O)[O-]
REMARK SMILES IDX 4 1 5 2 6 3 7 4 8 5 3 6 2 7 1 8
REMARK H PARENT
REMARK Flexibility Score: inf
ROOT
ATOM      1  C   UNL     1      44.803  26.402   3.451  1.00  0.00     0.006 C 
ENDROOT
BRANCH   1   2
ATOM      2  C   UNL     1      43.784  27.184   2.612  1.00  0.00     0.053 C 
BRANCH   2   3
ATOM      3  C   UNL     1      44.480  27.977   1.550  1.00  0.00     0.041 C 
ATOM      4  O   UNL     1      44.373  29.231   1.524  1.00  0.00    -0.550 OA
ATOM      5  O   UNL     1      45.209  27.326   0.564  1.00  0.00    -0.550 OA
ENDBRANCH   2   3
ENDBRANCH   1   2
BRANCH   1   6
ATOM      6  C   UNL     1      45.801  27.319   4.174  1.00  0.00     0.000 C 
BRANCH   6   7
ATOM      7  C   UNL     1      46.736  26.548   5.117  1.00  0.00    -0.003 C 
ATOM      8  C   UNL     1      46.329  26.747   6.575  1.00  0.00     0.004 C 
ENDBRANCH   6   7
ENDBRANCH   1   6
TORSDOF 4
ENDMDL
MODEL 7
REMARK VINA RESULT:    -3.063      1.992      2.517
REMARK INTER + INTRA:          -3.835
REMARK INTER:                  -3.740
REMARK INTRA:                  -0.094
REMARK UNBOUND:                -0.055
REMARK SMILES CCCCCC(=O)[O-]
REMARK SMILES IDX 4 1 5 2 6 3 7 4 8 5 3 6 2 7 1 8
REMARK H PARENT
REMARK Flexibility Score: inf
ROOT
ATOM      1  C   UNL     1      44.557  26.706   3.355  1.00  0.00     0.006 C 
ENDROOT
BRANCH   1   2
ATOM      2  C   UNL     1      46.074  26.571   3.173  1.00  0.00     0.053 C 
BRANCH   2   3
ATOM      3  C   UNL     1      46.610  27.727   2.389  1.00  0.00     0.041 C 
ATOM      4  O   UNL     1      47.086  27.546   1.238  1.00  0.00    -0.550 OA
ATOM      5  O   UNL     1      46.626  28.998   2.949  1.00  0.00    -0.550 OA
ENDBRANCH   2   3
ENDBRANCH   1   2
BRANCH   1   6
ATOM      6  C   UNL     1      43.842  27.143   2.067  1.00  0.00     0.000 C 
BRANCH   6   7
ATOM      7  C   UNL     1      42.988  28.404   2.263  1.00  0.00    -0.003 C 
ATOM      8  C   UNL     1      41.534  28.042   2.554  1.00  0.00     0.004 C 
ENDBRANCH   6   7
ENDBRANCH   1   6
TORSDOF 4
ENDMDL
MODEL 8
REMARK VINA RESULT:    -2.927      7.334      7.848
REMARK INTER + INTRA:          -3.666
REMARK INTER:                  -3.492
REMARK INTRA:                  -0.175
REMARK UNBOUND:                -0.055
REMARK SMILES CCCCCC(=O)[O-]
REMARK SMILES IDX 4 1 5 2 6 3 7 4 8 5 3 6 2 7 1 8
REMARK H PARENT
REMARK Flexibility Score: inf
ROOT
ATOM      1  C   UNL     1      44.707  27.974  -5.331  1.00  0.00     0.006 C 
ENDROOT
BRANCH   1   2
ATOM      2  C   UNL     1      45.497  27.038  -4.408  1.00  0.00     0.053 C 
BRANCH   2   3
ATOM      3  C   UNL     1      46.000  27.788  -3.213  1.00  0.00     0.041 C 
ATOM      4  O   UNL     1      45.718  29.005  -3.065  1.00  0.00    -0.550 OA
ATOM      5  O   UNL     1      46.819  27.152  -2.289  1.00  0.00    -0.550 OA
ENDBRANCH   2   3
ENDBRANCH   1   2
BRANCH   1   6
ATOM      6  C   UNL     1      43.289  27.458  -5.624  1.00  0.00     0.000 C 
BRANCH   6   7
ATOM      7  C   UNL     1      42.239  28.579  -5.612  1.00  0.00    -0.003 C 
ATOM      8  C   UNL     1      42.808  29.857  -5.004  1.00  0.00     0.004 C 
ENDBRANCH   6   7
ENDBRANCH   1   6
TORSDOF 4
ENDMDL
