MODEL 1
REMARK VINA RESULT:    -6.478      0.000      0.000
REMARK INTER + INTRA:         -11.699
REMARK INTER:                  -9.697
REMARK INTRA:                  -2.002
REMARK UNBOUND:                -2.002
REMARK SMILES O=c1c(O[C@H]2O[C@H](CO)[C@H](O)[C@@H](O)[C@H]2O)c(-c2cc(O)c(O)c(O)c2)oc2cc(O)cc(O)c12
REMARK SMILES IDX 4 1 3 2 16 3 26 4 2 5 27 6 1 7 34 8 28 9 32 10 29 11 31 12
REMARK SMILES IDX 17 13 18 14 19 15 25 16 21 17 23 18 20 19 22 21 24 23 33 25
REMARK SMILES IDX 30 27 5 29 14 30 6 31 12 32 7 33 10 34 15 35 13 37 8 39 9 40
REMARK SMILES IDX 11 42
REMARK H PARENT 20 20 22 22 24 24 33 26 30 28 15 36 13 38 9 41 11 43
REMARK Flexibility Score: inf
ROOT
ATOM      1  O   UNL     1      14.625 -35.693   0.084  1.00  0.00    -0.454 OA
ENDROOT
BRANCH   1   2
ATOM      2  C   UNL     1      13.620 -35.637  -0.908  1.00  0.00     0.214 A 
ATOM      3  C   UNL     1      13.992 -35.900  -2.239  1.00  0.00     0.181 A 
ATOM      4  O   UNL     1      13.116 -35.757  -3.223  1.00  0.00    -0.452 OA
ATOM      5  C   UNL     1      12.270 -35.294  -0.652  1.00  0.00     0.239 A 
ATOM      6  C   UNL     1      11.848 -35.430  -3.029  1.00  0.00     0.146 A 
ATOM      7  O   UNL     1      11.908 -35.008   0.518  1.00  0.00    -0.285 OA
ATOM      8  C   UNL     1      11.342 -35.234  -1.720  1.00  0.00     0.111 A 
ATOM      9  C   UNL     1      11.018 -35.279  -4.144  1.00  0.00     0.094 A 
ATOM     10  C   UNL     1       9.951 -34.947  -1.567  1.00  0.00     0.134 A 
ATOM     11  C   UNL     1       9.680 -34.930  -3.986  1.00  0.00     0.123 A 
ATOM     12  C   UNL     1       9.153 -34.763  -2.703  1.00  0.00     0.093 A 
BRANCH   3  13
ATOM     13  C   UNL     1      15.363 -36.317  -2.587  1.00  0.00     0.029 A 
ATOM     14  C   UNL     1      16.305 -35.360  -2.982  1.00  0.00     0.062 A 
ATOM     15  C   UNL     1      17.606 -35.748  -3.335  1.00  0.00     0.162 A 
ATOM     16  C   UNL     1      15.715 -37.674  -2.589  1.00  0.00     0.062 A 
ATOM     17  C   UNL     1      17.963 -37.108  -3.308  1.00  0.00     0.200 A 
ATOM     18  C   UNL     1      17.009 -38.072  -2.937  1.00  0.00     0.162 A 
BRANCH  15  19
ATOM     19  O   UNL     1      18.543 -34.788  -3.712  1.00  0.00    -0.504 OA
ATOM     20  H   UNL     1      18.356 -33.796  -3.617  1.00  0.00     0.293 HD
ENDBRANCH  15  19
BRANCH  17  21
ATOM     21  O   UNL     1      19.254 -37.511  -3.650  1.00  0.00    -0.502 OA
ATOM     22  H   UNL     1      19.678 -37.271  -4.538  1.00  0.00     0.293 HD
ENDBRANCH  17  21
BRANCH  18  23
ATOM     23  O   UNL     1      17.328 -39.430  -2.913  1.00  0.00    -0.504 OA
ATOM     24  H   UNL     1      17.756 -39.868  -2.106  1.00  0.00     0.293 HD
ENDBRANCH  18  23
ENDBRANCH   3  13
BRANCH  10  25
ATOM     25  O   UNL     1       9.304 -34.862  -0.330  1.00  0.00    -0.507 OA
ATOM     26  H   UNL     1       9.515 -34.177   0.379  1.00  0.00     0.293 HD
ENDBRANCH  10  25
BRANCH  11  27
ATOM     27  O   UNL     1       8.876 -34.762  -5.112  1.00  0.00    -0.508 OA
ATOM     28  H   UNL     1       8.029 -35.301  -5.243  1.00  0.00     0.293 HD
ENDBRANCH  11  27
ENDBRANCH   1   2
BRANCH   1  29
ATOM     29  C   UNL     1      14.748 -36.663   1.133  1.00  0.00     0.339 C 
ATOM     30  C   UNL     1      14.941 -35.990   2.514  1.00  0.00     0.214 C 
ATOM     31  O   UNL     1      15.778 -37.600   0.859  1.00  0.00    -0.332 OA
ATOM     32  C   UNL     1      16.373 -35.453   2.728  1.00  0.00     0.180 C 
ATOM     33  C   UNL     1      17.047 -36.972   0.812  1.00  0.00     0.179 C 
ATOM     34  C   UNL     1      17.436 -36.445   2.215  1.00  0.00     0.177 C 
BRANCH  30  35
ATOM     35  O   UNL     1      14.010 -34.953   2.691  1.00  0.00    -0.384 OA
ATOM     36  H   UNL     1      14.522 -34.101   2.669  1.00  0.00     0.211 HD
ENDBRANCH  30  35
BRANCH  32  37
ATOM     37  O   UNL     1      16.549 -34.174   2.168  1.00  0.00    -0.387 OA
ATOM     38  H   UNL     1      15.823 -34.025   1.515  1.00  0.00     0.211 HD
ENDBRANCH  32  37
BRANCH  33  39
ATOM     39  C   UNL     1      18.069 -37.985   0.279  1.00  0.00     0.191 C 
BRANCH  39  40
ATOM     40  O   UNL     1      17.756 -39.274   0.729  1.00  0.00    -0.394 OA
ATOM     41  H   UNL     1      17.802 -39.238   1.720  1.00  0.00     0.210 HD
ENDBRANCH  39  40
ENDBRANCH  33  39
BRANCH  34  42
ATOM     42  O   UNL     1      17.531 -37.515   3.124  1.00  0.00    -0.387 OA
ATOM     43  H   UNL     1      17.128 -38.309   2.687  1.00  0.00     0.211 HD
ENDBRANCH  34  42
ENDBRANCH   1  29
TORSDOF 13
ENDMDL
MODEL 2
REMARK VINA RESULT:    -6.259      2.140      6.482
REMARK INTER + INTRA:         -11.372
REMARK INTER:                  -9.326
REMARK INTRA:                  -2.046
REMARK UNBOUND:                -2.002
REMARK SMILES O=c1c(O[C@H]2O[C@H](CO)[C@H](O)[C@@H](O)[C@H]2O)c(-c2cc(O)c(O)c(O)c2)oc2cc(O)cc(O)c12
REMARK SMILES IDX 4 1 3 2 16 3 26 4 2 5 27 6 1 7 34 8 28 9 32 10 29 11 31 12
REMARK SMILES IDX 17 13 18 14 19 15 25 16 21 17 23 18 20 19 22 21 24 23 33 25
REMARK SMILES IDX 30 27 5 29 14 30 6 31 12 32 7 33 10 34 15 35 13 37 8 39 9 40
REMARK SMILES IDX 11 42
REMARK H PARENT 20 20 22 22 24 24 33 26 30 28 15 36 13 38 9 41 11 43
REMARK Flexibility Score: inf
ROOT
ATOM      1  O   UNL     1      13.913 -37.059  -0.145  1.00  0.00    -0.454 OA
ENDROOT
BRANCH   1   2
ATOM      2  C   UNL     1      14.969 -37.254  -1.064  1.00  0.00     0.214 A 
ATOM      3  C   UNL     1      14.894 -36.595  -2.304  1.00  0.00     0.181 A 
ATOM      4  O   UNL     1      15.800 -36.824  -3.244  1.00  0.00    -0.452 OA
ATOM      5  C   UNL     1      16.080 -38.101  -0.829  1.00  0.00     0.239 A 
ATOM      6  C   UNL     1      16.848 -37.615  -3.070  1.00  0.00     0.146 A 
ATOM      7  O   UNL     1      16.161 -38.742   0.250  1.00  0.00    -0.285 OA
ATOM      8  C   UNL     1      17.074 -38.256  -1.826  1.00  0.00     0.111 A 
ATOM      9  C   UNL     1      17.726 -37.806  -4.140  1.00  0.00     0.094 A 
ATOM     10  C   UNL     1      18.255 -39.044  -1.675  1.00  0.00     0.134 A 
ATOM     11  C   UNL     1      18.838 -38.634  -4.002  1.00  0.00     0.123 A 
ATOM     12  C   UNL     1      19.096 -39.250  -2.775  1.00  0.00     0.093 A 
BRANCH   3  13
ATOM     13  C   UNL     1      13.802 -35.653  -2.611  1.00  0.00     0.029 A 
ATOM     14  C   UNL     1      13.903 -34.314  -2.218  1.00  0.00     0.062 A 
ATOM     15  C   UNL     1      12.861 -33.414  -2.486  1.00  0.00     0.162 A 
ATOM     16  C   UNL     1      12.631 -36.101  -3.239  1.00  0.00     0.062 A 
ATOM     17  C   UNL     1      11.701 -33.862  -3.142  1.00  0.00     0.200 A 
ATOM     18  C   UNL     1      11.588 -35.213  -3.514  1.00  0.00     0.162 A 
BRANCH  15  19
ATOM     19  O   UNL     1      12.977 -32.078  -2.105  1.00  0.00    -0.504 OA
ATOM     20  H   UNL     1      13.097 -31.811  -1.135  1.00  0.00     0.293 HD
ENDBRANCH  15  19
BRANCH  17  21
ATOM     21  O   UNL     1      10.657 -32.978  -3.423  1.00  0.00    -0.502 OA
ATOM     22  H   UNL     1      10.795 -31.976  -3.469  1.00  0.00     0.293 HD
ENDBRANCH  17  21
BRANCH  18  23
ATOM     23  O   UNL     1      10.444 -35.691  -4.154  1.00  0.00    -0.504 OA
ATOM     24  H   UNL     1       9.830 -36.370  -3.723  1.00  0.00     0.293 HD
ENDBRANCH  18  23
ENDBRANCH   3  13
BRANCH  10  25
ATOM     25  O   UNL     1      18.660 -39.618  -0.466  1.00  0.00    -0.507 OA
ATOM     26  H   UNL     1      18.913 -39.095   0.359  1.00  0.00     0.293 HD
ENDBRANCH  10  25
BRANCH  11  27
ATOM     27  O   UNL     1      19.687 -38.829  -5.090  1.00  0.00    -0.508 OA
ATOM     28  H   UNL     1      19.576 -38.306  -5.949  1.00  0.00     0.293 HD
ENDBRANCH  11  27
ENDBRANCH   1   2
BRANCH   1  29
ATOM     29  C   UNL     1      13.916 -36.200   1.003  1.00  0.00     0.339 C 
ATOM     30  C   UNL     1      13.650 -36.989   2.308  1.00  0.00     0.214 C 
ATOM     31  O   UNL     1      13.007 -35.121   0.849  1.00  0.00    -0.332 OA
ATOM     32  C   UNL     1      12.163 -37.369   2.490  1.00  0.00     0.180 C 
ATOM     33  C   UNL     1      11.670 -35.581   0.759  1.00  0.00     0.179 C 
ATOM     34  C   UNL     1      11.228 -36.205   2.106  1.00  0.00     0.177 C 
BRANCH  30  35
ATOM     35  O   UNL     1      14.447 -38.144   2.357  1.00  0.00    -0.384 OA
ATOM     36  H   UNL     1      14.390 -38.571   1.462  1.00  0.00     0.211 HD
ENDBRANCH  30  35
BRANCH  32  37
ATOM     37  O   UNL     1      11.830 -38.548   1.801  1.00  0.00    -0.387 OA
ATOM     38  H   UNL     1      11.828 -38.347   0.834  1.00  0.00     0.211 HD
ENDBRANCH  32  37
BRANCH  33  39
ATOM     39  C   UNL     1      10.777 -34.401   0.356  1.00  0.00     0.191 C 
BRANCH  39  40
ATOM     40  O   UNL     1      11.121 -33.259   1.091  1.00  0.00    -0.394 OA
ATOM     41  H   UNL     1      11.669 -32.697   0.485  1.00  0.00     0.210 HD
ENDBRANCH  39  40
ENDBRANCH  33  39
BRANCH  34  42
ATOM     42  O   UNL     1      11.270 -35.236   3.124  1.00  0.00    -0.387 OA
ATOM     43  H   UNL     1      10.332 -34.997   3.342  1.00  0.00     0.211 HD
ENDBRANCH  34  42
ENDBRANCH   1  29
TORSDOF 13
ENDMDL
MODEL 3
REMARK VINA RESULT:    -6.250      3.197      5.498
REMARK INTER + INTRA:         -11.358
REMARK INTER:                  -9.997
REMARK INTRA:                  -1.361
REMARK UNBOUND:                -2.002
REMARK SMILES O=c1c(O[C@H]2O[C@H](CO)[C@H](O)[C@@H](O)[C@H]2O)c(-c2cc(O)c(O)c(O)c2)oc2cc(O)cc(O)c12
REMARK SMILES IDX 4 1 3 2 16 3 26 4 2 5 27 6 1 7 34 8 28 9 32 10 29 11 31 12
REMARK SMILES IDX 17 13 18 14 19 15 25 16 21 17 23 18 20 19 22 21 24 23 33 25
REMARK SMILES IDX 30 27 5 29 14 30 6 31 12 32 7 33 10 34 15 35 13 37 8 39 9 40
REMARK SMILES IDX 11 42
REMARK H PARENT 20 20 22 22 24 24 33 26 30 28 15 36 13 38 9 41 11 43
REMARK Flexibility Score: inf
ROOT
ATOM      1  O   UNL     1      13.273 -36.381  -2.667  1.00  0.00    -0.454 OA
ENDROOT
BRANCH   1   2
ATOM      2  C   UNL     1      12.989 -37.585  -3.350  1.00  0.00     0.214 A 
ATOM      3  C   UNL     1      13.951 -38.610  -3.310  1.00  0.00     0.181 A 
ATOM      4  O   UNL     1      13.787 -39.717  -4.018  1.00  0.00    -0.452 OA
ATOM      5  C   UNL     1      11.812 -37.811  -4.106  1.00  0.00     0.239 A 
ATOM      6  C   UNL     1      12.707 -39.965  -4.745  1.00  0.00     0.146 A 
ATOM      7  O   UNL     1      10.948 -36.903  -4.204  1.00  0.00    -0.285 OA
ATOM      8  C   UNL     1      11.632 -39.042  -4.783  1.00  0.00     0.111 A 
ATOM      9  C   UNL     1      12.652 -41.154  -5.475  1.00  0.00     0.094 A 
ATOM     10  C   UNL     1      10.466 -39.391  -5.530  1.00  0.00     0.134 A 
ATOM     11  C   UNL     1      11.538 -41.452  -6.256  1.00  0.00     0.123 A 
ATOM     12  C   UNL     1      10.454 -40.571  -6.283  1.00  0.00     0.093 A 
BRANCH   3  13
ATOM     13  C   UNL     1      15.180 -38.481  -2.503  1.00  0.00     0.029 A 
ATOM     14  C   UNL     1      16.432 -38.509  -3.128  1.00  0.00     0.062 A 
ATOM     15  C   UNL     1      17.607 -38.407  -2.369  1.00  0.00     0.162 A 
ATOM     16  C   UNL     1      15.108 -38.394  -1.106  1.00  0.00     0.062 A 
ATOM     17  C   UNL     1      17.529 -38.291  -0.970  1.00  0.00     0.200 A 
ATOM     18  C   UNL     1      16.272 -38.290  -0.340  1.00  0.00     0.162 A 
BRANCH  15  19
ATOM     19  O   UNL     1      18.849 -38.421  -3.001  1.00  0.00    -0.504 OA
ATOM     20  H   UNL     1      18.965 -38.097  -3.954  1.00  0.00     0.293 HD
ENDBRANCH  15  19
BRANCH  17  21
ATOM     21  O   UNL     1      18.687 -38.183  -0.200  1.00  0.00    -0.502 OA
ATOM     22  H   UNL     1      19.368 -37.448  -0.347  1.00  0.00     0.293 HD
ENDBRANCH  17  21
BRANCH  18  23
ATOM     23  O   UNL     1      16.161 -38.189   1.048  1.00  0.00    -0.504 OA
ATOM     24  H   UNL     1      16.377 -37.333   1.544  1.00  0.00     0.293 HD
ENDBRANCH  18  23
ENDBRANCH   3  13
BRANCH  10  25
ATOM     25  O   UNL     1       9.291 -38.633  -5.541  1.00  0.00    -0.507 OA
ATOM     26  H   UNL     1       9.030 -37.994  -6.277  1.00  0.00     0.293 HD
ENDBRANCH  10  25
BRANCH  11  27
ATOM     27  O   UNL     1      11.513 -42.633  -6.996  1.00  0.00    -0.508 OA
ATOM     28  H   UNL     1      12.009 -43.461  -6.688  1.00  0.00     0.293 HD
ENDBRANCH  11  27
ENDBRANCH   1   2
BRANCH   1  29
ATOM     29  C   UNL     1      13.515 -35.095  -3.253  1.00  0.00     0.339 C 
ATOM     30  C   UNL     1      14.691 -34.364  -2.562  1.00  0.00     0.214 C 
ATOM     31  O   UNL     1      12.340 -34.299  -3.266  1.00  0.00    -0.332 OA
ATOM     32  C   UNL     1      14.306 -33.762  -1.192  1.00  0.00     0.180 C 
ATOM     33  C   UNL     1      11.898 -34.009  -1.951  1.00  0.00     0.179 C 
ATOM     34  C   UNL     1      12.919 -33.090  -1.235  1.00  0.00     0.177 C 
BRANCH  30  35
ATOM     35  O   UNL     1      15.789 -35.227  -2.412  1.00  0.00    -0.384 OA
ATOM     36  H   UNL     1      16.590 -34.654  -2.286  1.00  0.00     0.211 HD
ENDBRANCH  30  35
BRANCH  32  37
ATOM     37  O   UNL     1      14.388 -34.710  -0.155  1.00  0.00    -0.387 OA
ATOM     38  H   UNL     1      14.818 -34.277   0.621  1.00  0.00     0.211 HD
ENDBRANCH  32  37
BRANCH  33  39
ATOM     39  C   UNL     1      10.510 -33.361  -2.037  1.00  0.00     0.191 C 
BRANCH  39  40
ATOM     40  O   UNL     1      10.421 -32.555  -3.179  1.00  0.00    -0.394 OA
ATOM     41  H   UNL     1      11.009 -32.975  -3.859  1.00  0.00     0.210 HD
ENDBRANCH  39  40
ENDBRANCH  33  39
BRANCH  34  42
ATOM     42  O   UNL     1      13.032 -31.866  -1.919  1.00  0.00    -0.387 OA
ATOM     43  H   UNL     1      12.510 -31.194  -1.409  1.00  0.00     0.211 HD
ENDBRANCH  34  42
ENDBRANCH   1  29
TORSDOF 13
ENDMDL
MODEL 4
REMARK VINA RESULT:    -6.084      2.093      6.593
REMARK INTER + INTRA:         -11.109
REMARK INTER:                  -9.115
REMARK INTRA:                  -1.994
REMARK UNBOUND:                -2.002
REMARK SMILES O=c1c(O[C@H]2O[C@H](CO)[C@H](O)[C@@H](O)[C@H]2O)c(-c2cc(O)c(O)c(O)c2)oc2cc(O)cc(O)c12
REMARK SMILES IDX 4 1 3 2 16 3 26 4 2 5 27 6 1 7 34 8 28 9 32 10 29 11 31 12
REMARK SMILES IDX 17 13 18 14 19 15 25 16 21 17 23 18 20 19 22 21 24 23 33 25
REMARK SMILES IDX 30 27 5 29 14 30 6 31 12 32 7 33 10 34 15 35 13 37 8 39 9 40
REMARK SMILES IDX 11 42
REMARK H PARENT 20 20 22 22 24 24 33 26 30 28 15 36 13 38 9 41 11 43
REMARK Flexibility Score: inf
ROOT
ATOM      1  O   UNL     1      13.811 -36.936   0.010  1.00  0.00    -0.454 OA
ENDROOT
BRANCH   1   2
ATOM      2  C   UNL     1      14.847 -37.171  -0.922  1.00  0.00     0.214 A 
ATOM      3  C   UNL     1      14.723 -36.605  -2.203  1.00  0.00     0.181 A 
ATOM      4  O   UNL     1      15.610 -36.880  -3.149  1.00  0.00    -0.452 OA
ATOM      5  C   UNL     1      15.984 -37.974  -0.658  1.00  0.00     0.239 A 
ATOM      6  C   UNL     1      16.681 -37.632  -2.949  1.00  0.00     0.146 A 
ATOM      7  O   UNL     1      16.109 -38.535   0.461  1.00  0.00    -0.285 OA
ATOM      8  C   UNL     1      16.955 -38.177  -1.669  1.00  0.00     0.111 A 
ATOM      9  C   UNL     1      17.535 -37.880  -4.026  1.00  0.00     0.094 A 
ATOM     10  C   UNL     1      18.159 -38.926  -1.496  1.00  0.00     0.134 A 
ATOM     11  C   UNL     1      18.670 -38.670  -3.862  1.00  0.00     0.123 A 
ATOM     12  C   UNL     1      18.975 -39.191  -2.602  1.00  0.00     0.093 A 
BRANCH   3  13
ATOM     13  C   UNL     1      13.601 -35.712  -2.545  1.00  0.00     0.029 A 
ATOM     14  C   UNL     1      12.510 -36.207  -3.270  1.00  0.00     0.062 A 
ATOM     15  C   UNL     1      11.446 -35.362  -3.619  1.00  0.00     0.162 A 
ATOM     16  C   UNL     1      13.644 -34.353  -2.207  1.00  0.00     0.062 A 
ATOM     17  C   UNL     1      11.481 -34.005  -3.251  1.00  0.00     0.200 A 
ATOM     18  C   UNL     1      12.588 -33.502  -2.546  1.00  0.00     0.162 A 
BRANCH  15  19
ATOM     19  O   UNL     1      10.357 -35.866  -4.327  1.00  0.00    -0.504 OA
ATOM     20  H   UNL     1       9.449 -35.982  -3.894  1.00  0.00     0.293 HD
ENDBRANCH  15  19
BRANCH  17  21
ATOM     21  O   UNL     1      10.428 -33.151  -3.584  1.00  0.00    -0.502 OA
ATOM     22  H   UNL     1       9.706 -32.899  -2.921  1.00  0.00     0.293 HD
ENDBRANCH  17  21
BRANCH  18  23
ATOM     23  O   UNL     1      12.658 -32.158  -2.179  1.00  0.00    -0.504 OA
ATOM     24  H   UNL     1      12.313 -31.417  -2.778  1.00  0.00     0.293 HD
ENDBRANCH  18  23
ENDBRANCH   3  13
BRANCH  10  25
ATOM     25  O   UNL     1      18.609 -39.403  -0.261  1.00  0.00    -0.507 OA
ATOM     26  H   UNL     1      18.466 -38.932   0.620  1.00  0.00     0.293 HD
ENDBRANCH  10  25
BRANCH  11  27
ATOM     27  O   UNL     1      19.496 -38.923  -4.955  1.00  0.00    -0.508 OA
ATOM     28  H   UNL     1      19.115 -39.196  -5.853  1.00  0.00     0.293 HD
ENDBRANCH  11  27
ENDBRANCH   1   2
BRANCH   1  29
ATOM     29  C   UNL     1      13.774 -35.919   1.020  1.00  0.00     0.339 C 
ATOM     30  C   UNL     1      13.643 -36.526   2.438  1.00  0.00     0.214 C 
ATOM     31  O   UNL     1      12.755 -34.965   0.763  1.00  0.00    -0.332 OA
ATOM     32  C   UNL     1      12.211 -37.012   2.756  1.00  0.00     0.180 C 
ATOM     33  C   UNL     1      11.469 -35.557   0.815  1.00  0.00     0.179 C 
ATOM     34  C   UNL     1      11.148 -36.012   2.260  1.00  0.00     0.177 C 
BRANCH  30  35
ATOM     35  O   UNL     1      14.554 -37.581   2.609  1.00  0.00    -0.384 OA
ATOM     36  H   UNL     1      14.343 -38.259   1.914  1.00  0.00     0.211 HD
ENDBRANCH  30  35
BRANCH  32  37
ATOM     37  O   UNL     1      11.971 -38.308   2.263  1.00  0.00    -0.387 OA
ATOM     38  H   UNL     1      12.163 -38.951   2.988  1.00  0.00     0.211 HD
ENDBRANCH  32  37
BRANCH  33  39
ATOM     39  C   UNL     1      10.446 -34.539   0.296  1.00  0.00     0.191 C 
BRANCH  39  40
ATOM     40  O   UNL     1      10.946 -33.237   0.429  1.00  0.00    -0.394 OA
ATOM     41  H   UNL     1      11.873 -33.332   0.768  1.00  0.00     0.210 HD
ENDBRANCH  39  40
ENDBRANCH  33  39
BRANCH  34  42
ATOM     42  O   UNL     1      11.134 -34.902   3.125  1.00  0.00    -0.387 OA
ATOM     43  H   UNL     1      10.267 -34.438   2.994  1.00  0.00     0.211 HD
ENDBRANCH  34  42
ENDBRANCH   1  29
TORSDOF 13
ENDMDL
MODEL 5
REMARK VINA RESULT:    -5.981      2.922      4.528
REMARK INTER + INTRA:         -10.955
REMARK INTER:                  -9.021
REMARK INTRA:                  -1.935
REMARK UNBOUND:                -2.002
REMARK SMILES O=c1c(O[C@H]2O[C@H](CO)[C@H](O)[C@@H](O)[C@H]2O)c(-c2cc(O)c(O)c(O)c2)oc2cc(O)cc(O)c12
REMARK SMILES IDX 4 1 3 2 16 3 26 4 2 5 27 6 1 7 34 8 28 9 32 10 29 11 31 12
REMARK SMILES IDX 17 13 18 14 19 15 25 16 21 17 23 18 20 19 22 21 24 23 33 25
REMARK SMILES IDX 30 27 5 29 14 30 6 31 12 32 7 33 10 34 15 35 13 37 8 39 9 40
REMARK SMILES IDX 11 42
REMARK H PARENT 20 20 22 22 24 24 33 26 30 28 15 36 13 38 9 41 11 43
REMARK Flexibility Score: inf
ROOT
ATOM      1  O   UNL     1      13.297 -36.017  -2.323  1.00  0.00    -0.454 OA
ENDROOT
BRANCH   1   2
ATOM      2  C   UNL     1      13.006 -37.178  -3.074  1.00  0.00     0.214 A 
ATOM      3  C   UNL     1      13.962 -38.210  -3.087  1.00  0.00     0.181 A 
ATOM      4  O   UNL     1      13.792 -39.275  -3.858  1.00  0.00    -0.452 OA
ATOM      5  C   UNL     1      11.831 -37.352  -3.846  1.00  0.00     0.239 A 
ATOM      6  C   UNL     1      12.714 -39.473  -4.602  1.00  0.00     0.146 A 
ATOM      7  O   UNL     1      10.974 -36.433  -3.896  1.00  0.00    -0.285 OA
ATOM      8  C   UNL     1      11.646 -38.541  -4.592  1.00  0.00     0.111 A 
ATOM      9  C   UNL     1      12.653 -40.619  -5.399  1.00  0.00     0.094 A 
ATOM     10  C   UNL     1      10.481 -38.839  -5.362  1.00  0.00     0.134 A 
ATOM     11  C   UNL     1      11.541 -40.863  -6.200  1.00  0.00     0.123 A 
ATOM     12  C   UNL     1      10.463 -39.974  -6.181  1.00  0.00     0.093 A 
BRANCH   3  13
ATOM     13  C   UNL     1      15.187 -38.136  -2.270  1.00  0.00     0.029 A 
ATOM     14  C   UNL     1      16.429 -37.954  -2.889  1.00  0.00     0.062 A 
ATOM     15  C   UNL     1      17.604 -37.903  -2.123  1.00  0.00     0.162 A 
ATOM     16  C   UNL     1      15.127 -38.311  -0.881  1.00  0.00     0.062 A 
ATOM     17  C   UNL     1      17.535 -38.050  -0.726  1.00  0.00     0.200 A 
ATOM     18  C   UNL     1      16.290 -38.259  -0.107  1.00  0.00     0.162 A 
BRANCH  15  19
ATOM     19  O   UNL     1      18.835 -37.706  -2.745  1.00  0.00    -0.504 OA
ATOM     20  H   UNL     1      19.694 -37.632  -2.212  1.00  0.00     0.293 HD
ENDBRANCH  15  19
BRANCH  17  21
ATOM     21  O   UNL     1      18.693 -37.995   0.052  1.00  0.00    -0.502 OA
ATOM     22  H   UNL     1      18.700 -37.595   0.983  1.00  0.00     0.293 HD
ENDBRANCH  17  21
BRANCH  18  23
ATOM     23  O   UNL     1      16.191 -38.421   1.275  1.00  0.00    -0.504 OA
ATOM     24  H   UNL     1      17.005 -38.418   1.878  1.00  0.00     0.293 HD
ENDBRANCH  18  23
ENDBRANCH   3  13
BRANCH  10  25
ATOM     25  O   UNL     1       9.311 -38.072  -5.335  1.00  0.00    -0.507 OA
ATOM     26  H   UNL     1       8.505 -38.240  -5.918  1.00  0.00     0.293 HD
ENDBRANCH  10  25
BRANCH  11  27
ATOM     27  O   UNL     1      11.511 -42.001  -7.005  1.00  0.00    -0.508 OA
ATOM     28  H   UNL     1      11.626 -42.928  -6.615  1.00  0.00     0.293 HD
ENDBRANCH  11  27
ENDBRANCH   1   2
BRANCH   1  29
ATOM     29  C   UNL     1      12.695 -35.619  -1.083  1.00  0.00     0.339 C 
ATOM     30  C   UNL     1      11.982 -34.251  -1.207  1.00  0.00     0.214 C 
ATOM     31  O   UNL     1      13.637 -35.624  -0.022  1.00  0.00    -0.332 OA
ATOM     32  C   UNL     1      12.963 -33.057  -1.212  1.00  0.00     0.180 C 
ATOM     33  C   UNL     1      14.662 -34.669  -0.236  1.00  0.00     0.179 C 
ATOM     34  C   UNL     1      14.080 -33.235  -0.164  1.00  0.00     0.177 C 
BRANCH  30  35
ATOM     35  O   UNL     1      11.181 -34.214  -2.361  1.00  0.00    -0.384 OA
ATOM     36  H   UNL     1      11.639 -33.617  -3.010  1.00  0.00     0.211 HD
ENDBRANCH  30  35
BRANCH  32  37
ATOM     37  O   UNL     1      13.491 -32.810  -2.492  1.00  0.00    -0.387 OA
ATOM     38  H   UNL     1      13.529 -33.670  -2.978  1.00  0.00     0.211 HD
ENDBRANCH  32  37
BRANCH  33  39
ATOM     39  C   UNL     1      15.760 -34.893   0.811  1.00  0.00     0.191 C 
BRANCH  39  40
ATOM     40  O   UNL     1      15.232 -35.539   1.938  1.00  0.00    -0.394 OA
ATOM     41  H   UNL     1      16.012 -35.811   2.488  1.00  0.00     0.210 HD
ENDBRANCH  39  40
ENDBRANCH  33  39
BRANCH  34  42
ATOM     42  O   UNL     1      13.544 -32.995   1.114  1.00  0.00    -0.387 OA
ATOM     43  H   UNL     1      13.979 -33.629   1.740  1.00  0.00     0.211 HD
ENDBRANCH  34  42
ENDBRANCH   1  29
TORSDOF 13
ENDMDL
MODEL 6
REMARK VINA RESULT:    -5.886      2.244      3.137
REMARK INTER + INTRA:         -10.812
REMARK INTER:                  -8.907
REMARK INTRA:                  -1.906
REMARK UNBOUND:                -2.002
REMARK SMILES O=c1c(O[C@H]2O[C@H](CO)[C@H](O)[C@@H](O)[C@H]2O)c(-c2cc(O)c(O)c(O)c2)oc2cc(O)cc(O)c12
REMARK SMILES IDX 4 1 3 2 16 3 26 4 2 5 27 6 1 7 34 8 28 9 32 10 29 11 31 12
REMARK SMILES IDX 17 13 18 14 19 15 25 16 21 17 23 18 20 19 22 21 24 23 33 25
REMARK SMILES IDX 30 27 5 29 14 30 6 31 12 32 7 33 10 34 15 35 13 37 8 39 9 40
REMARK SMILES IDX 11 42
REMARK H PARENT 20 20 22 22 24 24 33 26 30 28 15 36 13 38 9 41 11 43
REMARK Flexibility Score: inf
ROOT
ATOM      1  O   UNL     1      13.809 -35.864  -1.281  1.00  0.00    -0.454 OA
ENDROOT
BRANCH   1   2
ATOM      2  C   UNL     1      13.194 -36.659  -2.275  1.00  0.00     0.214 A 
ATOM      3  C   UNL     1      13.993 -37.591  -2.961  1.00  0.00     0.181 A 
ATOM      4  O   UNL     1      13.497 -38.286  -3.975  1.00  0.00    -0.452 OA
ATOM      5  C   UNL     1      11.833 -36.548  -2.650  1.00  0.00     0.239 A 
ATOM      6  C   UNL     1      12.234 -38.206  -4.364  1.00  0.00     0.146 A 
ATOM      7  O   UNL     1      11.097 -35.695  -2.091  1.00  0.00    -0.285 OA
ATOM      8  C   UNL     1      11.316 -37.368  -3.683  1.00  0.00     0.111 A 
ATOM      9  C   UNL     1      11.824 -38.965  -5.464  1.00  0.00     0.094 A 
ATOM     10  C   UNL     1       9.952 -37.372  -4.105  1.00  0.00     0.134 A 
ATOM     11  C   UNL     1      10.507 -38.908  -5.911  1.00  0.00     0.123 A 
ATOM     12  C   UNL     1       9.579 -38.112  -5.234  1.00  0.00     0.093 A 
BRANCH   3  13
ATOM     13  C   UNL     1      15.406 -37.810  -2.598  1.00  0.00     0.029 A 
ATOM     14  C   UNL     1      15.726 -38.514  -1.431  1.00  0.00     0.062 A 
ATOM     15  C   UNL     1      17.065 -38.711  -1.066  1.00  0.00     0.162 A 
ATOM     16  C   UNL     1      16.434 -37.264  -3.378  1.00  0.00     0.062 A 
ATOM     17  C   UNL     1      18.095 -38.185  -1.868  1.00  0.00     0.200 A 
ATOM     18  C   UNL     1      17.773 -37.456  -3.025  1.00  0.00     0.162 A 
BRANCH  15  19
ATOM     19  O   UNL     1      17.376 -39.426   0.089  1.00  0.00    -0.504 OA
ATOM     20  H   UNL     1      18.335 -39.624   0.350  1.00  0.00     0.293 HD
ENDBRANCH  15  19
BRANCH  17  21
ATOM     21  O   UNL     1      19.433 -38.377  -1.522  1.00  0.00    -0.502 OA
ATOM     22  H   UNL     1      19.713 -38.982  -0.760  1.00  0.00     0.293 HD
ENDBRANCH  17  21
BRANCH  18  23
ATOM     23  O   UNL     1      18.770 -36.911  -3.835  1.00  0.00    -0.504 OA
ATOM     24  H   UNL     1      19.738 -36.864  -3.538  1.00  0.00     0.293 HD
ENDBRANCH  18  23
ENDBRANCH   3  13
BRANCH  10  25
ATOM     25  O   UNL     1       8.927 -36.695  -3.438  1.00  0.00    -0.507 OA
ATOM     26  H   UNL     1       8.641 -36.884  -2.488  1.00  0.00     0.293 HD
ENDBRANCH  10  25
BRANCH  11  27
ATOM     27  O   UNL     1      10.126 -39.654  -7.024  1.00  0.00    -0.508 OA
ATOM     28  H   UNL     1      10.807 -40.000  -7.688  1.00  0.00     0.293 HD
ENDBRANCH  11  27
ENDBRANCH   1   2
BRANCH   1  29
ATOM     29  C   UNL     1      13.727 -36.044   0.139  1.00  0.00     0.339 C 
ATOM     30  C   UNL     1      13.077 -34.822   0.833  1.00  0.00     0.214 C 
ATOM     31  O   UNL     1      14.994 -36.351   0.700  1.00  0.00    -0.332 OA
ATOM     32  C   UNL     1      14.036 -33.617   0.956  1.00  0.00     0.180 C 
ATOM     33  C   UNL     1      15.906 -35.280   0.535  1.00  0.00     0.179 C 
ATOM     34  C   UNL     1      15.453 -34.059   1.373  1.00  0.00     0.177 C 
BRANCH  30  35
ATOM     35  O   UNL     1      11.908 -34.435   0.157  1.00  0.00    -0.384 OA
ATOM     36  H   UNL     1      11.812 -35.043  -0.622  1.00  0.00     0.211 HD
ENDBRANCH  30  35
BRANCH  32  37
ATOM     37  O   UNL     1      14.062 -32.839  -0.216  1.00  0.00    -0.387 OA
ATOM     38  H   UNL     1      13.312 -33.128  -0.790  1.00  0.00     0.211 HD
ENDBRANCH  32  37
BRANCH  33  39
ATOM     39  C   UNL     1      17.303 -35.765   0.940  1.00  0.00     0.191 C 
BRANCH  39  40
ATOM     40  O   UNL     1      17.204 -36.811   1.866  1.00  0.00    -0.394 OA
ATOM     41  H   UNL     1      17.964 -37.420   1.675  1.00  0.00     0.210 HD
ENDBRANCH  39  40
ENDBRANCH  33  39
BRANCH  34  42
ATOM     42  O   UNL     1      15.439 -34.390   2.740  1.00  0.00    -0.387 OA
ATOM     43  H   UNL     1      14.604 -34.896   2.912  1.00  0.00     0.211 HD
ENDBRANCH  34  42
ENDBRANCH   1  29
TORSDOF 13
ENDMDL
MODEL 7
REMARK VINA RESULT:    -5.700      2.423      7.122
REMARK INTER + INTRA:         -10.535
REMARK INTER:                  -8.586
REMARK INTRA:                  -1.948
REMARK UNBOUND:                -2.002
REMARK SMILES O=c1c(O[C@H]2O[C@H](CO)[C@H](O)[C@@H](O)[C@H]2O)c(-c2cc(O)c(O)c(O)c2)oc2cc(O)cc(O)c12
REMARK SMILES IDX 4 1 3 2 16 3 26 4 2 5 27 6 1 7 34 8 28 9 32 10 29 11 31 12
REMARK SMILES IDX 17 13 18 14 19 15 25 16 21 17 23 18 20 19 22 21 24 23 33 25
REMARK SMILES IDX 30 27 5 29 14 30 6 31 12 32 7 33 10 34 15 35 13 37 8 39 9 40
REMARK SMILES IDX 11 42
REMARK H PARENT 20 20 22 22 24 24 33 26 30 28 15 36 13 38 9 41 11 43
REMARK Flexibility Score: inf
ROOT
ATOM      1  O   UNL     1      13.195 -35.600  -1.445  1.00  0.00    -0.454 OA
ENDROOT
BRANCH   1   2
ATOM      2  C   UNL     1      14.336 -36.223  -0.891  1.00  0.00     0.214 A 
ATOM      3  C   UNL     1      14.612 -37.550  -1.270  1.00  0.00     0.181 A 
ATOM      4  O   UNL     1      15.605 -38.220  -0.702  1.00  0.00    -0.452 OA
ATOM      5  C   UNL     1      15.198 -35.610   0.052  1.00  0.00     0.239 A 
ATOM      6  C   UNL     1      16.428 -37.688   0.189  1.00  0.00     0.146 A 
ATOM      7  O   UNL     1      14.959 -34.441   0.449  1.00  0.00    -0.285 OA
ATOM      8  C   UNL     1      16.300 -36.329   0.574  1.00  0.00     0.111 A 
ATOM      9  C   UNL     1      17.424 -38.495   0.744  1.00  0.00     0.094 A 
ATOM     10  C   UNL     1      17.256 -35.792   1.489  1.00  0.00     0.134 A 
ATOM     11  C   UNL     1      18.307 -37.978   1.688  1.00  0.00     0.123 A 
ATOM     12  C   UNL     1      18.219 -36.634   2.059  1.00  0.00     0.093 A 
BRANCH   3  13
ATOM     13  C   UNL     1      13.800 -38.245  -2.285  1.00  0.00     0.029 A 
ATOM     14  C   UNL     1      12.726 -39.051  -1.889  1.00  0.00     0.062 A 
ATOM     15  C   UNL     1      11.960 -39.734  -2.845  1.00  0.00     0.162 A 
ATOM     16  C   UNL     1      14.132 -38.159  -3.644  1.00  0.00     0.062 A 
ATOM     17  C   UNL     1      12.280 -39.621  -4.210  1.00  0.00     0.200 A 
ATOM     18  C   UNL     1      13.374 -38.832  -4.606  1.00  0.00     0.162 A 
BRANCH  15  19
ATOM     19  O   UNL     1      10.883 -40.522  -2.443  1.00  0.00    -0.504 OA
ATOM     20  H   UNL     1      10.885 -41.528  -2.567  1.00  0.00     0.293 HD
ENDBRANCH  15  19
BRANCH  17  21
ATOM     21  O   UNL     1      11.524 -40.288  -5.175  1.00  0.00    -0.502 OA
ATOM     22  H   UNL     1      11.121 -39.809  -5.971  1.00  0.00     0.293 HD
ENDBRANCH  17  21
BRANCH  18  23
ATOM     23  O   UNL     1      13.725 -38.710  -5.951  1.00  0.00    -0.504 OA
ATOM     24  H   UNL     1      13.272 -39.252  -6.676  1.00  0.00     0.293 HD
ENDBRANCH  18  23
ENDBRANCH   3  13
BRANCH  10  25
ATOM     25  O   UNL     1      17.320 -34.441   1.846  1.00  0.00    -0.507 OA
ATOM     26  H   UNL     1      16.689 -33.730   1.507  1.00  0.00     0.293 HD
ENDBRANCH  10  25
BRANCH  11  27
ATOM     27  O   UNL     1      19.279 -38.807   2.247  1.00  0.00    -0.508 OA
ATOM     28  H   UNL     1      20.012 -39.218   1.682  1.00  0.00     0.293 HD
ENDBRANCH  11  27
ENDBRANCH   1   2
BRANCH   1  29
ATOM     29  C   UNL     1      13.146 -34.778  -2.619  1.00  0.00     0.339 C 
ATOM     30  C   UNL     1      12.569 -33.376  -2.311  1.00  0.00     0.214 C 
ATOM     31  O   UNL     1      12.439 -35.415  -3.672  1.00  0.00    -0.332 OA
ATOM     32  C   UNL     1      11.033 -33.378  -2.145  1.00  0.00     0.180 C 
ATOM     33  C   UNL     1      11.079 -35.621  -3.331  1.00  0.00     0.179 C 
ATOM     34  C   UNL     1      10.348 -34.261  -3.208  1.00  0.00     0.177 C 
BRANCH  30  35
ATOM     35  O   UNL     1      13.171 -32.835  -1.163  1.00  0.00    -0.384 OA
ATOM     36  H   UNL     1      13.688 -32.039  -1.457  1.00  0.00     0.211 HD
ENDBRANCH  30  35
BRANCH  32  37
ATOM     37  O   UNL     1      10.641 -33.740  -0.844  1.00  0.00    -0.387 OA
ATOM     38  H   UNL     1      11.374 -34.262  -0.438  1.00  0.00     0.211 HD
ENDBRANCH  32  37
BRANCH  33  39
ATOM     39  C   UNL     1      10.442 -36.518  -4.399  1.00  0.00     0.191 C 
BRANCH  39  40
ATOM     40  O   UNL     1       9.155 -36.061  -4.711  1.00  0.00    -0.394 OA
ATOM     41  H   UNL     1       9.167 -35.845  -5.680  1.00  0.00     0.210 HD
ENDBRANCH  39  40
ENDBRANCH  33  39
BRANCH  34  42
ATOM     42  O   UNL     1      10.373 -33.585  -4.441  1.00  0.00    -0.387 OA
ATOM     43  H   UNL     1      10.805 -32.706  -4.286  1.00  0.00     0.211 HD
ENDBRANCH  34  42
ENDBRANCH   1  29
TORSDOF 13
ENDMDL
MODEL 8
REMARK VINA RESULT:    -5.638      2.306      3.725
REMARK INTER + INTRA:         -10.442
REMARK INTER:                  -9.180
REMARK INTRA:                  -1.262
REMARK UNBOUND:                -2.002
REMARK SMILES O=c1c(O[C@H]2O[C@H](CO)[C@H](O)[C@@H](O)[C@H]2O)c(-c2cc(O)c(O)c(O)c2)oc2cc(O)cc(O)c12
REMARK SMILES IDX 4 1 3 2 16 3 26 4 2 5 27 6 1 7 34 8 28 9 32 10 29 11 31 12
REMARK SMILES IDX 17 13 18 14 19 15 25 16 21 17 23 18 20 19 22 21 24 23 33 25
REMARK SMILES IDX 30 27 5 29 14 30 6 31 12 32 7 33 10 34 15 35 13 37 8 39 9 40
REMARK SMILES IDX 11 42
REMARK H PARENT 20 20 22 22 24 24 33 26 30 28 15 36 13 38 9 41 11 43
REMARK Flexibility Score: inf
ROOT
ATOM      1  O   UNL     1      14.182 -36.164  -1.095  1.00  0.00    -0.454 OA
ENDROOT
BRANCH   1   2
ATOM      2  C   UNL     1      13.508 -36.860  -2.124  1.00  0.00     0.214 A 
ATOM      3  C   UNL     1      14.256 -37.743  -2.923  1.00  0.00     0.181 A 
ATOM      4  O   UNL     1      13.702 -38.340  -3.969  1.00  0.00    -0.452 OA
ATOM      5  C   UNL     1      12.134 -36.694  -2.427  1.00  0.00     0.239 A 
ATOM      6  C   UNL     1      12.425 -38.205  -4.293  1.00  0.00     0.146 A 
ATOM      7  O   UNL     1      11.441 -35.880  -1.765  1.00  0.00    -0.285 OA
ATOM      8  C   UNL     1      11.555 -37.414  -3.501  1.00  0.00     0.111 A 
ATOM      9  C   UNL     1      11.953 -38.859  -5.433  1.00  0.00     0.094 A 
ATOM     10  C   UNL     1      10.175 -37.358  -3.861  1.00  0.00     0.134 A 
ATOM     11  C   UNL     1      10.618 -38.742  -5.814  1.00  0.00     0.123 A 
ATOM     12  C   UNL     1       9.738 -37.992  -5.031  1.00  0.00     0.093 A 
BRANCH   3  13
ATOM     13  C   UNL     1      15.678 -38.017  -2.644  1.00  0.00     0.029 A 
ATOM     14  C   UNL     1      16.638 -37.813  -3.642  1.00  0.00     0.062 A 
ATOM     15  C   UNL     1      17.991 -38.090  -3.394  1.00  0.00     0.162 A 
ATOM     16  C   UNL     1      16.072 -38.541  -1.405  1.00  0.00     0.062 A 
ATOM     17  C   UNL     1      18.385 -38.588  -2.140  1.00  0.00     0.200 A 
ATOM     18  C   UNL     1      17.418 -38.817  -1.146  1.00  0.00     0.162 A 
BRANCH  15  19
ATOM     19  O   UNL     1      18.942 -37.870  -4.389  1.00  0.00    -0.504 OA
ATOM     20  H   UNL     1      18.958 -37.013  -4.929  1.00  0.00     0.293 HD
ENDBRANCH  15  19
BRANCH  17  21
ATOM     21  O   UNL     1      19.727 -38.863  -1.874  1.00  0.00    -0.502 OA
ATOM     22  H   UNL     1      20.013 -39.499  -1.140  1.00  0.00     0.293 HD
ENDBRANCH  17  21
BRANCH  18  23
ATOM     23  O   UNL     1      17.775 -39.323   0.105  1.00  0.00    -0.504 OA
ATOM     24  H   UNL     1      18.626 -39.854   0.247  1.00  0.00     0.293 HD
ENDBRANCH  18  23
ENDBRANCH   3  13
BRANCH  10  25
ATOM     25  O   UNL     1       9.194 -36.724  -3.092  1.00  0.00    -0.507 OA
ATOM     26  H   UNL     1       9.346 -35.889  -2.547  1.00  0.00     0.293 HD
ENDBRANCH  10  25
BRANCH  11  27
ATOM     27  O   UNL     1      10.174 -39.383  -6.969  1.00  0.00    -0.508 OA
ATOM     28  H   UNL     1      10.773 -39.492  -7.778  1.00  0.00     0.293 HD
ENDBRANCH  11  27
ENDBRANCH   1   2
BRANCH   1  29
ATOM     29  C   UNL     1      14.511 -34.769  -1.070  1.00  0.00     0.339 C 
ATOM     30  C   UNL     1      15.835 -34.508  -0.312  1.00  0.00     0.214 C 
ATOM     31  O   UNL     1      13.446 -33.992  -0.545  1.00  0.00    -0.332 OA
ATOM     32  C   UNL     1      15.678 -34.586   1.223  1.00  0.00     0.180 C 
ATOM     33  C   UNL     1      13.189 -34.315   0.810  1.00  0.00     0.179 C 
ATOM     34  C   UNL     1      14.386 -33.891   1.697  1.00  0.00     0.177 C 
BRANCH  30  35
ATOM     35  O   UNL     1      16.831 -35.405  -0.735  1.00  0.00    -0.384 OA
ATOM     36  H   UNL     1      16.484 -36.320  -0.566  1.00  0.00     0.211 HD
ENDBRANCH  30  35
BRANCH  32  37
ATOM     37  O   UNL     1      15.757 -35.907   1.698  1.00  0.00    -0.387 OA
ATOM     38  H   UNL     1      16.633 -36.020   2.141  1.00  0.00     0.211 HD
ENDBRANCH  32  37
BRANCH  33  39
ATOM     39  C   UNL     1      11.889 -33.623   1.236  1.00  0.00     0.191 C 
BRANCH  39  40
ATOM     40  O   UNL     1      10.965 -33.635   0.182  1.00  0.00    -0.394 OA
ATOM     41  H   UNL     1      10.170 -34.125   0.519  1.00  0.00     0.210 HD
ENDBRANCH  39  40
ENDBRANCH  33  39
BRANCH  34  42
ATOM     42  O   UNL     1      14.569 -32.498   1.627  1.00  0.00    -0.387 OA
ATOM     43  H   UNL     1      13.684 -32.076   1.776  1.00  0.00     0.211 HD
ENDBRANCH  34  42
ENDBRANCH   1  29
TORSDOF 13
ENDMDL
MODEL 9
REMARK VINA RESULT:    -5.580      3.085      7.476
REMARK INTER + INTRA:         -10.356
REMARK INTER:                  -8.651
REMARK INTRA:                  -1.705
REMARK UNBOUND:                -2.002
REMARK SMILES O=c1c(O[C@H]2O[C@H](CO)[C@H](O)[C@@H](O)[C@H]2O)c(-c2cc(O)c(O)c(O)c2)oc2cc(O)cc(O)c12
REMARK SMILES IDX 4 1 3 2 16 3 26 4 2 5 27 6 1 7 34 8 28 9 32 10 29 11 31 12
REMARK SMILES IDX 17 13 18 14 19 15 25 16 21 17 23 18 20 19 22 21 24 23 33 25
REMARK SMILES IDX 30 27 5 29 14 30 6 31 12 32 7 33 10 34 15 35 13 37 8 39 9 40
REMARK SMILES IDX 11 42
REMARK H PARENT 20 20 22 22 24 24 33 26 30 28 15 36 13 38 9 41 11 43
REMARK Flexibility Score: inf
ROOT
ATOM      1  O   UNL     1      12.369 -36.061  -3.485  1.00  0.00    -0.454 OA
ENDROOT
BRANCH   1   2
ATOM      2  C   UNL     1      13.629 -36.700  -3.494  1.00  0.00     0.214 A 
ATOM      3  C   UNL     1      13.657 -38.099  -3.638  1.00  0.00     0.181 A 
ATOM      4  O   UNL     1      14.801 -38.762  -3.547  1.00  0.00    -0.452 OA
ATOM      5  C   UNL     1      14.864 -36.025  -3.327  1.00  0.00     0.239 A 
ATOM      6  C   UNL     1      15.975 -38.172  -3.382  1.00  0.00     0.146 A 
ATOM      7  O   UNL     1      14.877 -34.781  -3.149  1.00  0.00    -0.285 OA
ATOM      8  C   UNL     1      16.074 -36.760  -3.318  1.00  0.00     0.111 A 
ATOM      9  C   UNL     1      17.115 -38.972  -3.270  1.00  0.00     0.094 A 
ATOM     10  C   UNL     1      17.373 -36.176  -3.206  1.00  0.00     0.134 A 
ATOM     11  C   UNL     1      18.369 -38.394  -3.091  1.00  0.00     0.123 A 
ATOM     12  C   UNL     1      18.493 -37.003  -3.057  1.00  0.00     0.093 A 
BRANCH   3  13
ATOM     13  C   UNL     1      12.425 -38.874  -3.871  1.00  0.00     0.029 A 
ATOM     14  C   UNL     1      11.800 -39.530  -2.805  1.00  0.00     0.062 A 
ATOM     15  C   UNL     1      10.638 -40.287  -3.018  1.00  0.00     0.162 A 
ATOM     16  C   UNL     1      11.907 -39.015  -5.166  1.00  0.00     0.062 A 
ATOM     17  C   UNL     1      10.106 -40.401  -4.315  1.00  0.00     0.200 A 
ATOM     18  C   UNL     1      10.748 -39.764  -5.391  1.00  0.00     0.162 A 
BRANCH  15  19
ATOM     19  O   UNL     1      10.013 -40.924  -1.948  1.00  0.00    -0.504 OA
ATOM     20  H   UNL     1      10.414 -41.746  -1.510  1.00  0.00     0.293 HD
ENDBRANCH  15  19
BRANCH  17  21
ATOM     21  O   UNL     1       8.948 -41.145  -4.545  1.00  0.00    -0.502 OA
ATOM     22  H   UNL     1       8.243 -40.856  -5.213  1.00  0.00     0.293 HD
ENDBRANCH  17  21
BRANCH  18  23
ATOM     23  O   UNL     1      10.252 -39.869  -6.691  1.00  0.00    -0.504 OA
ATOM     24  H   UNL     1       9.624 -40.613  -6.969  1.00  0.00     0.293 HD
ENDBRANCH  18  23
ENDBRANCH   3  13
BRANCH  10  25
ATOM     25  O   UNL     1      17.617 -34.800  -3.266  1.00  0.00    -0.507 OA
ATOM     26  H   UNL     1      16.916 -34.104  -3.465  1.00  0.00     0.293 HD
ENDBRANCH  10  25
BRANCH  11  27
ATOM     27  O   UNL     1      19.490 -39.211  -2.958  1.00  0.00    -0.508 OA
ATOM     28  H   UNL     1      19.463 -40.062  -2.410  1.00  0.00     0.293 HD
ENDBRANCH  11  27
ENDBRANCH   1   2
BRANCH   1  29
ATOM     29  C   UNL     1      11.548 -35.789  -2.340  1.00  0.00     0.339 C 
ATOM     30  C   UNL     1      10.060 -35.622  -2.731  1.00  0.00     0.214 C 
ATOM     31  O   UNL     1      12.027 -34.670  -1.610  1.00  0.00    -0.332 OA
ATOM     32  C   UNL     1       9.757 -34.252  -3.379  1.00  0.00     0.180 C 
ATOM     33  C   UNL     1      11.958 -33.483  -2.380  1.00  0.00     0.179 C 
ATOM     34  C   UNL     1      10.480 -33.104  -2.648  1.00  0.00     0.177 C 
BRANCH  30  35
ATOM     35  O   UNL     1       9.656 -36.657  -3.591  1.00  0.00    -0.384 OA
ATOM     36  H   UNL     1       8.876 -36.316  -4.103  1.00  0.00     0.211 HD
ENDBRANCH  30  35
BRANCH  32  37
ATOM     37  O   UNL     1      10.038 -34.245  -4.757  1.00  0.00    -0.387 OA
ATOM     38  H   UNL     1      10.749 -33.579  -4.921  1.00  0.00     0.211 HD
ENDBRANCH  32  37
BRANCH  33  39
ATOM     39  C   UNL     1      12.705 -32.374  -1.629  1.00  0.00     0.191 C 
BRANCH  39  40
ATOM     40  O   UNL     1      13.788 -32.911  -0.921  1.00  0.00    -0.394 OA
ATOM     41  H   UNL     1      14.590 -32.412  -1.225  1.00  0.00     0.210 HD
ENDBRANCH  39  40
ENDBRANCH  33  39
BRANCH  34  42
ATOM     42  O   UNL     1       9.818 -32.854  -1.432  1.00  0.00    -0.387 OA
ATOM     43  H   UNL     1      10.374 -33.242  -0.708  1.00  0.00     0.211 HD
ENDBRANCH  34  42
ENDBRANCH   1  29
TORSDOF 13
ENDMDL
