MODEL 1
REMARK VINA RESULT:    -5.437      0.000      0.000
REMARK INTER + INTRA:          -7.793
REMARK INTER:                  -7.345
REMARK INTRA:                  -0.448
REMARK UNBOUND:                -0.448
REMARK SMILES O=c1c(-c2ccc(O)cc2)coc2c([C@H]3O[C@@H](CO)[C@H](O)[C@@H](O)[C@@H]3O)c(O)ccc12
REMARK SMILES IDX 3 1 11 2 12 3 13 4 30 5 2 6 1 7 29 8 28 9 26 10 14 11 4 12
REMARK SMILES IDX 5 13 6 14 7 15 10 16 9 17 8 18 15 20 24 21 16 22 22 23 17 24
REMARK SMILES IDX 20 25 25 26 23 28 18 30 19 31 21 33 27 35
REMARK H PARENT 8 19 25 27 23 29 19 32 21 34 27 36
REMARK Flexibility Score: inf
ROOT
ATOM      1  C   UNL     1      55.638  -2.843 -50.104  1.00  0.00     0.065 A 
ATOM      2  C   UNL     1      56.999  -3.014 -50.451  1.00  0.00     0.208 A 
ATOM      3  O   UNL     1      57.945  -2.296 -49.860  1.00  0.00    -0.463 OA
ATOM      4  C   UNL     1      57.689  -1.507 -48.810  1.00  0.00     0.147 A 
ATOM      5  C   UNL     1      56.361  -1.154 -48.485  1.00  0.00     0.066 A 
ATOM      6  C   UNL     1      55.325  -1.813 -49.173  1.00  0.00     0.200 A 
ATOM      7  O   UNL     1      54.124  -1.529 -48.900  1.00  0.00    -0.288 OA
ATOM      8  C   UNL     1      56.118  -0.220 -47.465  1.00  0.00     0.020 A 
ATOM      9  C   UNL     1      57.181   0.376 -46.786  1.00  0.00     0.047 A 
ATOM     10  C   UNL     1      58.495   0.052 -47.132  1.00  0.00     0.125 A 
ATOM     11  C   UNL     1      58.737  -1.077 -47.965  1.00  0.00     0.069 A 
ENDROOT
BRANCH   1  12
ATOM     12  C   UNL     1      54.585  -3.752 -50.680  1.00  0.00    -0.011 A 
ATOM     13  C   UNL     1      54.245  -3.643 -52.041  1.00  0.00     0.013 A 
ATOM     14  C   UNL     1      53.298  -4.483 -52.620  1.00  0.00     0.047 A 
ATOM     15  C   UNL     1      52.786  -5.572 -51.886  1.00  0.00     0.115 A 
ATOM     16  C   UNL     1      53.997  -4.805 -49.930  1.00  0.00     0.013 A 
ATOM     17  C   UNL     1      53.117  -5.700 -50.533  1.00  0.00     0.047 A 
BRANCH  15  18
ATOM     18  O   UNL     1      51.932  -6.506 -52.490  1.00  0.00    -0.508 OA
ATOM     19  H   UNL     1      51.115  -6.858 -52.006  1.00  0.00     0.293 HD
ENDBRANCH  15  18
ENDBRANCH   1  12
BRANCH  11  20
ATOM     20  C   UNL     1      59.950  -1.985 -47.728  1.00  0.00     0.188 C 
ATOM     21  C   UNL     1      60.304  -2.898 -48.973  1.00  0.00     0.179 C 
ATOM     22  O   UNL     1      59.802  -2.717 -46.513  1.00  0.00    -0.362 OA
ATOM     23  C   UNL     1      61.342  -3.969 -48.539  1.00  0.00     0.177 C 
ATOM     24  C   UNL     1      59.606  -4.124 -46.629  1.00  0.00     0.176 C 
ATOM     25  C   UNL     1      60.763  -4.853 -47.382  1.00  0.00     0.177 C 
BRANCH  21  26
ATOM     26  O   UNL     1      60.780  -2.105 -50.030  1.00  0.00    -0.387 OA
ATOM     27  H   UNL     1      61.435  -2.602 -50.589  1.00  0.00     0.211 HD
ENDBRANCH  21  26
BRANCH  23  28
ATOM     28  O   UNL     1      61.793  -4.712 -49.665  1.00  0.00    -0.387 OA
ATOM     29  H   UNL     1      61.982  -4.123 -50.445  1.00  0.00     0.211 HD
ENDBRANCH  23  28
BRANCH  24  30
ATOM     30  C   UNL     1      58.144  -4.561 -47.005  1.00  0.00     0.191 C 
BRANCH  30  31
ATOM     31  O   UNL     1      58.064  -5.914 -47.373  1.00  0.00    -0.394 OA
ATOM     32  H   UNL     1      58.219  -5.945 -48.353  1.00  0.00     0.210 HD
ENDBRANCH  30  31
ENDBRANCH  24  30
BRANCH  25  33
ATOM     33  O   UNL     1      61.776  -5.184 -46.452  1.00  0.00    -0.388 OA
ATOM     34  H   UNL     1      62.632  -5.292 -46.959  1.00  0.00     0.211 HD
ENDBRANCH  25  33
ENDBRANCH  11  20
BRANCH  10  35
ATOM     35  O   UNL     1      59.535   0.814 -46.598  1.00  0.00    -0.507 OA
ATOM     36  H   UNL     1      60.520   0.626 -46.800  1.00  0.00     0.293 HD
ENDBRANCH  10  35
TORSDOF 9
ENDMDL
MODEL 2
REMARK VINA RESULT:    -5.427     11.353     14.456
REMARK INTER + INTRA:          -7.779
REMARK INTER:                  -7.504
REMARK INTRA:                  -0.275
REMARK UNBOUND:                -0.448
REMARK SMILES O=c1c(-c2ccc(O)cc2)coc2c([C@H]3O[C@@H](CO)[C@H](O)[C@@H](O)[C@@H]3O)c(O)ccc12
REMARK SMILES IDX 3 1 11 2 12 3 13 4 30 5 2 6 1 7 29 8 28 9 26 10 14 11 4 12
REMARK SMILES IDX 5 13 6 14 7 15 10 16 9 17 8 18 15 20 24 21 16 22 22 23 17 24
REMARK SMILES IDX 20 25 25 26 23 28 18 30 19 31 21 33 27 35
REMARK H PARENT 8 19 25 27 23 29 19 32 21 34 27 36
REMARK Flexibility Score: inf
ROOT
ATOM      1  C   UNL     1      46.540  -3.525 -45.421  1.00  0.00     0.065 A 
ATOM      2  C   UNL     1      47.094  -2.226 -45.507  1.00  0.00     0.208 A 
ATOM      3  O   UNL     1      46.489  -1.276 -46.209  1.00  0.00    -0.463 OA
ATOM      4  C   UNL     1      45.265  -1.441 -46.724  1.00  0.00     0.147 A 
ATOM      5  C   UNL     1      44.697  -2.730 -46.823  1.00  0.00     0.066 A 
ATOM      6  C   UNL     1      45.370  -3.789 -46.187  1.00  0.00     0.200 A 
ATOM      7  O   UNL     1      44.883  -4.954 -46.246  1.00  0.00    -0.288 OA
ATOM      8  C   UNL     1      43.471  -2.902 -47.488  1.00  0.00     0.020 A 
ATOM      9  C   UNL     1      42.824  -1.811 -48.068  1.00  0.00     0.047 A 
ATOM     10  C   UNL     1      43.405  -0.542 -48.000  1.00  0.00     0.125 A 
ATOM     11  C   UNL     1      44.493  -0.322 -47.108  1.00  0.00     0.069 A 
ENDROOT
BRANCH   1  12
ATOM     12  C   UNL     1      47.158  -4.558 -44.517  1.00  0.00    -0.011 A 
ATOM     13  C   UNL     1      46.993  -4.444 -43.123  1.00  0.00     0.013 A 
ATOM     14  C   UNL     1      47.523  -5.393 -42.253  1.00  0.00     0.047 A 
ATOM     15  C   UNL     1      48.090  -6.576 -42.767  1.00  0.00     0.115 A 
ATOM     16  C   UNL     1      47.806  -5.718 -45.017  1.00  0.00     0.013 A 
ATOM     17  C   UNL     1      48.257  -6.710 -44.150  1.00  0.00     0.047 A 
BRANCH  15  18
ATOM     18  O   UNL     1      48.510  -7.602 -41.909  1.00  0.00    -0.508 OA
ATOM     19  H   UNL     1      49.483  -7.883 -41.865  1.00  0.00     0.293 HD
ENDBRANCH  15  18
ENDBRANCH   1  12
BRANCH  11  20
ATOM     20  C   UNL     1      44.627   0.999 -46.341  1.00  0.00     0.188 C 
ATOM     21  C   UNL     1      43.237   1.704 -46.056  1.00  0.00     0.179 C 
ATOM     22  O   UNL     1      45.576   1.855 -46.974  1.00  0.00    -0.362 OA
ATOM     23  C   UNL     1      43.495   3.148 -45.546  1.00  0.00     0.177 C 
ATOM     24  C   UNL     1      45.069   3.033 -47.595  1.00  0.00     0.176 C 
ATOM     25  C   UNL     1      44.296   3.970 -46.613  1.00  0.00     0.177 C 
BRANCH  21  26
ATOM     26  O   UNL     1      42.495   0.947 -45.135  1.00  0.00    -0.387 OA
ATOM     27  H   UNL     1      42.828   0.012 -45.083  1.00  0.00     0.211 HD
ENDBRANCH  21  26
BRANCH  23  28
ATOM     28  O   UNL     1      42.277   3.760 -45.140  1.00  0.00    -0.387 OA
ATOM     29  H   UNL     1      42.359   4.751 -45.090  1.00  0.00     0.211 HD
ENDBRANCH  23  28
BRANCH  24  30
ATOM     30  C   UNL     1      44.414   2.809 -49.006  1.00  0.00     0.191 C 
BRANCH  30  31
ATOM     31  O   UNL     1      43.139   3.390 -49.105  1.00  0.00    -0.394 OA
ATOM     32  H   UNL     1      43.211   4.103 -49.793  1.00  0.00     0.210 HD
ENDBRANCH  30  31
ENDBRANCH  24  30
BRANCH  25  33
ATOM     33  O   UNL     1      45.223   4.835 -45.985  1.00  0.00    -0.388 OA
ATOM     34  H   UNL     1      45.276   5.673 -46.531  1.00  0.00     0.211 HD
ENDBRANCH  25  33
ENDBRANCH  11  20
BRANCH  10  35
ATOM     35  O   UNL     1      42.858   0.487 -48.768  1.00  0.00    -0.507 OA
ATOM     36  H   UNL     1      41.964   0.931 -48.543  1.00  0.00     0.293 HD
ENDBRANCH  10  35
TORSDOF 9
ENDMDL
MODEL 3
REMARK VINA RESULT:    -5.173      2.137      4.101
REMARK INTER + INTRA:          -7.436
REMARK INTER:                  -7.604
REMARK INTRA:                   0.168
REMARK UNBOUND:                -0.448
REMARK SMILES O=c1c(-c2ccc(O)cc2)coc2c([C@H]3O[C@@H](CO)[C@H](O)[C@@H](O)[C@@H]3O)c(O)ccc12
REMARK SMILES IDX 3 1 11 2 12 3 13 4 30 5 2 6 1 7 29 8 28 9 26 10 14 11 4 12
REMARK SMILES IDX 5 13 6 14 7 15 10 16 9 17 8 18 15 20 24 21 16 22 22 23 17 24
REMARK SMILES IDX 20 25 25 26 23 28 18 30 19 31 21 33 27 35
REMARK H PARENT 8 19 25 27 23 29 19 32 21 34 27 36
REMARK Flexibility Score: inf
ROOT
ATOM      1  C   UNL     1      53.680  -5.904 -49.234  1.00  0.00     0.065 A 
ATOM      2  C   UNL     1      54.015  -4.601 -49.670  1.00  0.00     0.208 A 
ATOM      3  O   UNL     1      54.945  -3.894 -49.040  1.00  0.00    -0.463 OA
ATOM      4  C   UNL     1      55.717  -4.423 -48.085  1.00  0.00     0.147 A 
ATOM      5  C   UNL     1      55.369  -5.651 -47.480  1.00  0.00     0.066 A 
ATOM      6  C   UNL     1      54.310  -6.381 -48.051  1.00  0.00     0.200 A 
ATOM      7  O   UNL     1      53.979  -7.489 -47.541  1.00  0.00    -0.288 OA
ATOM      8  C   UNL     1      56.114  -6.126 -46.388  1.00  0.00     0.020 A 
ATOM      9  C   UNL     1      57.182  -5.382 -45.885  1.00  0.00     0.047 A 
ATOM     10  C   UNL     1      57.503  -4.151 -46.462  1.00  0.00     0.125 A 
ATOM     11  C   UNL     1      56.932  -3.801 -47.718  1.00  0.00     0.069 A 
ENDROOT
BRANCH   1  12
ATOM     12  C   UNL     1      52.723  -6.751 -50.031  1.00  0.00    -0.011 A 
ATOM     13  C   UNL     1      52.618  -6.555 -51.421  1.00  0.00     0.013 A 
ATOM     14  C   UNL     1      51.768  -7.335 -52.199  1.00  0.00     0.047 A 
ATOM     15  C   UNL     1      51.123  -8.451 -51.629  1.00  0.00     0.115 A 
ATOM     16  C   UNL     1      52.001  -7.830 -49.455  1.00  0.00     0.013 A 
ATOM     17  C   UNL     1      51.220  -8.666 -50.250  1.00  0.00     0.047 A 
BRANCH  15  18
ATOM     18  O   UNL     1      50.367  -9.326 -52.422  1.00  0.00    -0.508 OA
ATOM     19  H   UNL     1      50.011 -10.197 -52.048  1.00  0.00     0.293 HD
ENDBRANCH  15  18
ENDBRANCH   1  12
BRANCH  11  20
ATOM     20  C   UNL     1      57.748  -3.039 -48.770  1.00  0.00     0.188 C 
ATOM     21  C   UNL     1      59.310  -3.264 -48.636  1.00  0.00     0.179 C 
ATOM     22  O   UNL     1      57.375  -1.663 -48.798  1.00  0.00    -0.362 OA
ATOM     23  C   UNL     1      60.050  -2.240 -49.540  1.00  0.00     0.177 C 
ATOM     24  C   UNL     1      58.340  -0.724 -48.331  1.00  0.00     0.176 C 
ATOM     25  C   UNL     1      59.689  -0.775 -49.116  1.00  0.00     0.177 C 
BRANCH  21  26
ATOM     26  O   UNL     1      59.635  -4.589 -48.971  1.00  0.00    -0.387 OA
ATOM     27  H   UNL     1      60.556  -4.821 -48.679  1.00  0.00     0.211 HD
ENDBRANCH  21  26
BRANCH  23  28
ATOM     28  O   UNL     1      61.447  -2.508 -49.560  1.00  0.00    -0.387 OA
ATOM     29  H   UNL     1      61.911  -1.999 -50.278  1.00  0.00     0.211 HD
ENDBRANCH  23  28
BRANCH  24  30
ATOM     30  C   UNL     1      58.447  -0.606 -46.767  1.00  0.00     0.191 C 
BRANCH  30  31
ATOM     31  O   UNL     1      59.759  -0.796 -46.302  1.00  0.00    -0.394 OA
ATOM     32  H   UNL     1      59.708  -0.770 -45.311  1.00  0.00     0.210 HD
ENDBRANCH  30  31
ENDBRANCH  24  30
BRANCH  25  33
ATOM     33  O   UNL     1      59.587   0.062 -50.251  1.00  0.00    -0.388 OA
ATOM     34  H   UNL     1      58.652   0.420 -50.284  1.00  0.00     0.211 HD
ENDBRANCH  25  33
ENDBRANCH  11  20
BRANCH  10  35
ATOM     35  O   UNL     1      58.424  -3.327 -45.814  1.00  0.00    -0.507 OA
ATOM     36  H   UNL     1      58.201  -2.811 -44.959  1.00  0.00     0.293 HD
ENDBRANCH  10  35
TORSDOF 9
ENDMDL
MODEL 4
REMARK VINA RESULT:    -5.168      9.826     13.833
REMARK INTER + INTRA:          -7.429
REMARK INTER:                  -6.981
REMARK INTRA:                  -0.447
REMARK UNBOUND:                -0.448
REMARK SMILES O=c1c(-c2ccc(O)cc2)coc2c([C@H]3O[C@@H](CO)[C@H](O)[C@@H](O)[C@@H]3O)c(O)ccc12
REMARK SMILES IDX 3 1 11 2 12 3 13 4 30 5 2 6 1 7 29 8 28 9 26 10 14 11 4 12
REMARK SMILES IDX 5 13 6 14 7 15 10 16 9 17 8 18 15 20 24 21 16 22 22 23 17 24
REMARK SMILES IDX 20 25 25 26 23 28 18 30 19 31 21 33 27 35
REMARK H PARENT 8 19 25 27 23 29 19 32 21 34 27 36
REMARK Flexibility Score: inf
ROOT
ATOM      1  C   UNL     1      54.262   7.569 -48.186  1.00  0.00     0.065 A 
ATOM      2  C   UNL     1      53.626   8.622 -48.883  1.00  0.00     0.208 A 
ATOM      3  O   UNL     1      53.516   8.591 -50.205  1.00  0.00    -0.463 OA
ATOM      4  C   UNL     1      53.844   7.511 -50.923  1.00  0.00     0.147 A 
ATOM      5  C   UNL     1      54.618   6.478 -50.349  1.00  0.00     0.066 A 
ATOM      6  C   UNL     1      54.855   6.534 -48.963  1.00  0.00     0.200 A 
ATOM      7  O   UNL     1      55.534   5.620 -48.415  1.00  0.00    -0.288 OA
ATOM      8  C   UNL     1      55.067   5.416 -51.151  1.00  0.00     0.020 A 
ATOM      9  C   UNL     1      54.771   5.387 -52.514  1.00  0.00     0.047 A 
ATOM     10  C   UNL     1      54.036   6.427 -53.088  1.00  0.00     0.125 A 
ATOM     11  C   UNL     1      53.359   7.351 -52.240  1.00  0.00     0.069 A 
ENDROOT
BRANCH   1  12
ATOM     12  C   UNL     1      54.265   7.544 -46.681  1.00  0.00    -0.011 A 
ATOM     13  C   UNL     1      55.368   8.070 -45.982  1.00  0.00     0.013 A 
ATOM     14  C   UNL     1      55.399   8.092 -44.591  1.00  0.00     0.047 A 
ATOM     15  C   UNL     1      54.246   7.742 -43.859  1.00  0.00     0.115 A 
ATOM     16  C   UNL     1      53.141   7.117 -45.925  1.00  0.00     0.013 A 
ATOM     17  C   UNL     1      53.138   7.223 -44.536  1.00  0.00     0.047 A 
BRANCH  15  18
ATOM     18  O   UNL     1      54.211   7.883 -42.464  1.00  0.00    -0.508 OA
ATOM     19  H   UNL     1      54.126   7.076 -41.858  1.00  0.00     0.293 HD
ENDBRANCH  15  18
ENDBRANCH   1  12
BRANCH  11  20
ATOM     20  C   UNL     1      51.980   7.903 -52.619  1.00  0.00     0.188 C 
ATOM     21  C   UNL     1      51.193   6.980 -53.638  1.00  0.00     0.179 C 
ATOM     22  O   UNL     1      52.080   9.260 -53.046  1.00  0.00    -0.362 OA
ATOM     23  C   UNL     1      49.959   7.755 -54.176  1.00  0.00     0.177 C 
ATOM     24  C   UNL     1      51.830   9.522 -54.424  1.00  0.00     0.176 C 
ATOM     25  C   UNL     1      50.412   9.071 -54.896  1.00  0.00     0.177 C 
BRANCH  21  26
ATOM     26  O   UNL     1      50.824   5.778 -53.012  1.00  0.00    -0.387 OA
ATOM     27  H   UNL     1      51.609   5.181 -52.884  1.00  0.00     0.211 HD
ENDBRANCH  21  26
BRANCH  23  28
ATOM     28  O   UNL     1      49.147   6.907 -54.980  1.00  0.00    -0.387 OA
ATOM     29  H   UNL     1      48.700   6.201 -54.438  1.00  0.00     0.211 HD
ENDBRANCH  23  28
BRANCH  24  30
ATOM     30  C   UNL     1      53.025   9.189 -55.389  1.00  0.00     0.191 C 
BRANCH  30  31
ATOM     31  O   UNL     1      54.272   9.520 -54.836  1.00  0.00    -0.394 OA
ATOM     32  H   UNL     1      54.625   8.687 -54.426  1.00  0.00     0.210 HD
ENDBRANCH  30  31
ENDBRANCH  24  30
BRANCH  25  33
ATOM     33  O   UNL     1      49.494  10.118 -54.646  1.00  0.00    -0.388 OA
ATOM     34  H   UNL     1      48.868   9.810 -53.927  1.00  0.00     0.211 HD
ENDBRANCH  25  33
ENDBRANCH  11  20
BRANCH  10  35
ATOM     35  O   UNL     1      53.939   6.492 -54.478  1.00  0.00    -0.507 OA
ATOM     36  H   UNL     1      54.430   7.195 -55.036  1.00  0.00     0.293 HD
ENDBRANCH  10  35
TORSDOF 9
ENDMDL
MODEL 5
REMARK VINA RESULT:    -5.116      4.175      7.169
REMARK INTER + INTRA:          -7.358
REMARK INTER:                  -6.698
REMARK INTRA:                  -0.660
REMARK UNBOUND:                -0.448
REMARK SMILES O=c1c(-c2ccc(O)cc2)coc2c([C@H]3O[C@@H](CO)[C@H](O)[C@@H](O)[C@@H]3O)c(O)ccc12
REMARK SMILES IDX 3 1 11 2 12 3 13 4 30 5 2 6 1 7 29 8 28 9 26 10 14 11 4 12
REMARK SMILES IDX 5 13 6 14 7 15 10 16 9 17 8 18 15 20 24 21 16 22 22 23 17 24
REMARK SMILES IDX 20 25 25 26 23 28 18 30 19 31 21 33 27 35
REMARK H PARENT 8 19 25 27 23 29 19 32 21 34 27 36
REMARK Flexibility Score: inf
ROOT
ATOM      1  C   UNL     1      52.247  -7.613 -50.935  1.00  0.00     0.065 A 
ATOM      2  C   UNL     1      52.696  -8.191 -49.725  1.00  0.00     0.208 A 
ATOM      3  O   UNL     1      53.493  -7.517 -48.906  1.00  0.00    -0.463 OA
ATOM      4  C   UNL     1      53.777  -6.223 -49.093  1.00  0.00     0.147 A 
ATOM      5  C   UNL     1      53.507  -5.602 -50.332  1.00  0.00     0.066 A 
ATOM      6  C   UNL     1      52.758  -6.330 -51.276  1.00  0.00     0.200 A 
ATOM      7  O   UNL     1      52.488  -5.799 -52.392  1.00  0.00    -0.288 OA
ATOM      8  C   UNL     1      53.932  -4.282 -50.558  1.00  0.00     0.020 A 
ATOM      9  C   UNL     1      54.637  -3.590 -49.574  1.00  0.00     0.047 A 
ATOM     10  C   UNL     1      54.935  -4.217 -48.361  1.00  0.00     0.125 A 
ATOM     11  C   UNL     1      54.281  -5.439 -48.031  1.00  0.00     0.069 A 
ENDROOT
BRANCH   1  12
ATOM     12  C   UNL     1      51.237  -8.329 -51.792  1.00  0.00    -0.011 A 
ATOM     13  C   UNL     1      49.864  -8.119 -51.565  1.00  0.00     0.013 A 
ATOM     14  C   UNL     1      48.898  -8.739 -52.352  1.00  0.00     0.047 A 
ATOM     15  C   UNL     1      49.285  -9.455 -53.502  1.00  0.00     0.115 A 
ATOM     16  C   UNL     1      51.613  -9.123 -52.908  1.00  0.00     0.013 A 
ATOM     17  C   UNL     1      50.646  -9.669 -53.749  1.00  0.00     0.047 A 
BRANCH  15  18
ATOM     18  O   UNL     1      48.325  -9.975 -54.382  1.00  0.00    -0.508 OA
ATOM     19  H   UNL     1      47.632 -10.643 -54.065  1.00  0.00     0.293 HD
ENDBRANCH  15  18
ENDBRANCH   1  12
BRANCH  11  20
ATOM     20  C   UNL     1      53.851  -5.737 -46.590  1.00  0.00     0.188 C 
ATOM     21  C   UNL     1      53.675  -7.283 -46.293  1.00  0.00     0.179 C 
ATOM     22  O   UNL     1      52.710  -4.959 -46.233  1.00  0.00    -0.362 OA
ATOM     23  C   UNL     1      52.968  -7.460 -44.922  1.00  0.00     0.177 C 
ATOM     24  C   UNL     1      51.485  -5.662 -46.042  1.00  0.00     0.176 C 
ATOM     25  C   UNL     1      51.565  -6.762 -44.936  1.00  0.00     0.177 C 
BRANCH  21  26
ATOM     26  O   UNL     1      54.926  -7.923 -46.325  1.00  0.00    -0.387 OA
ATOM     27  H   UNL     1      55.649  -7.320 -46.006  1.00  0.00     0.211 HD
ENDBRANCH  21  26
BRANCH  23  28
ATOM     28  O   UNL     1      52.927  -8.834 -44.555  1.00  0.00    -0.387 OA
ATOM     29  H   UNL     1      52.025  -9.103 -44.230  1.00  0.00     0.211 HD
ENDBRANCH  23  28
BRANCH  24  30
ATOM     30  C   UNL     1      50.734  -6.057 -47.365  1.00  0.00     0.191 C 
BRANCH  30  31
ATOM     31  O   UNL     1      50.250  -7.375 -47.336  1.00  0.00    -0.394 OA
ATOM     32  H   UNL     1      50.923  -7.929 -47.812  1.00  0.00     0.210 HD
ENDBRANCH  30  31
ENDBRANCH  24  30
BRANCH  25  33
ATOM     33  O   UNL     1      51.290  -6.168 -43.682  1.00  0.00    -0.388 OA
ATOM     34  H   UNL     1      50.297  -6.177 -43.552  1.00  0.00     0.211 HD
ENDBRANCH  25  33
ENDBRANCH  11  20
BRANCH  10  35
ATOM     35  O   UNL     1      55.822  -3.593 -47.484  1.00  0.00    -0.507 OA
ATOM     36  H   UNL     1      56.815  -3.832 -47.437  1.00  0.00     0.293 HD
ENDBRANCH  10  35
TORSDOF 9
ENDMDL
MODEL 6
REMARK VINA RESULT:    -5.114     10.405     13.845
REMARK INTER + INTRA:          -7.356
REMARK INTER:                  -6.933
REMARK INTRA:                  -0.424
REMARK UNBOUND:                -0.448
REMARK SMILES O=c1c(-c2ccc(O)cc2)coc2c([C@H]3O[C@@H](CO)[C@H](O)[C@@H](O)[C@@H]3O)c(O)ccc12
REMARK SMILES IDX 3 1 11 2 12 3 13 4 30 5 2 6 1 7 29 8 28 9 26 10 14 11 4 12
REMARK SMILES IDX 5 13 6 14 7 15 10 16 9 17 8 18 15 20 24 21 16 22 22 23 17 24
REMARK SMILES IDX 20 25 25 26 23 28 18 30 19 31 21 33 27 35
REMARK H PARENT 8 19 25 27 23 29 19 32 21 34 27 36
REMARK Flexibility Score: inf
ROOT
ATOM      1  C   UNL     1      47.531  -0.334 -43.856  1.00  0.00     0.065 A 
ATOM      2  C   UNL     1      46.530   0.635 -43.609  1.00  0.00     0.208 A 
ATOM      3  O   UNL     1      46.496   1.766 -44.302  1.00  0.00    -0.463 OA
ATOM      4  C   UNL     1      47.284   1.976 -45.363  1.00  0.00     0.147 A 
ATOM      5  C   UNL     1      48.404   1.148 -45.598  1.00  0.00     0.066 A 
ATOM      6  C   UNL     1      48.540  -0.006 -44.804  1.00  0.00     0.200 A 
ATOM      7  O   UNL     1      49.525  -0.775 -44.996  1.00  0.00    -0.288 OA
ATOM      8  C   UNL     1      49.297   1.463 -46.636  1.00  0.00     0.020 A 
ATOM      9  C   UNL     1      49.095   2.598 -47.421  1.00  0.00     0.047 A 
ATOM     10  C   UNL     1      48.006   3.435 -47.164  1.00  0.00     0.125 A 
ATOM     11  C   UNL     1      46.966   2.981 -46.304  1.00  0.00     0.069 A 
ENDROOT
BRANCH   1  12
ATOM     12  C   UNL     1      47.485  -1.670 -43.162  1.00  0.00    -0.011 A 
ATOM     13  C   UNL     1      47.587  -1.724 -41.759  1.00  0.00     0.013 A 
ATOM     14  C   UNL     1      47.521  -2.935 -41.076  1.00  0.00     0.047 A 
ATOM     15  C   UNL     1      47.181  -4.113 -41.770  1.00  0.00     0.115 A 
ATOM     16  C   UNL     1      47.225  -2.880 -43.858  1.00  0.00     0.013 A 
ATOM     17  C   UNL     1      47.070  -4.078 -43.165  1.00  0.00     0.047 A 
BRANCH  15  18
ATOM     18  O   UNL     1      46.980  -5.319 -41.083  1.00  0.00    -0.508 OA
ATOM     19  H   UNL     1      47.524  -6.144 -41.303  1.00  0.00     0.293 HD
ENDBRANCH  15  18
ENDBRANCH   1  12
BRANCH  11  20
ATOM     20  C   UNL     1      45.500   3.320 -46.594  1.00  0.00     0.188 C 
ATOM     21  C   UNL     1      44.554   3.147 -45.336  1.00  0.00     0.179 C 
ATOM     22  O   UNL     1      45.039   2.620 -47.749  1.00  0.00    -0.362 OA
ATOM     23  C   UNL     1      43.073   3.228 -45.798  1.00  0.00     0.177 C 
ATOM     24  C   UNL     1      44.071   1.596 -47.538  1.00  0.00     0.176 C 
ATOM     25  C   UNL     1      42.766   2.106 -46.848  1.00  0.00     0.177 C 
BRANCH  21  26
ATOM     26  O   UNL     1      44.855   4.122 -44.370  1.00  0.00    -0.387 OA
ATOM     27  H   UNL     1      45.184   4.959 -44.793  1.00  0.00     0.211 HD
ENDBRANCH  21  26
BRANCH  23  28
ATOM     28  O   UNL     1      42.198   3.224 -44.676  1.00  0.00    -0.387 OA
ATOM     29  H   UNL     1      42.357   2.438 -44.086  1.00  0.00     0.211 HD
ENDBRANCH  23  28
BRANCH  24  30
ATOM     30  C   UNL     1      44.651   0.233 -47.011  1.00  0.00     0.191 C 
BRANCH  30  31
ATOM     31  O   UNL     1      43.646  -0.653 -46.592  1.00  0.00    -0.394 OA
ATOM     32  H   UNL     1      44.084  -1.300 -45.978  1.00  0.00     0.210 HD
ENDBRANCH  30  31
ENDBRANCH  24  30
BRANCH  25  33
ATOM     33  O   UNL     1      41.881   2.582 -47.844  1.00  0.00    -0.388 OA
ATOM     34  H   UNL     1      42.360   3.295 -48.361  1.00  0.00     0.211 HD
ENDBRANCH  25  33
ENDBRANCH  11  20
BRANCH  10  35
ATOM     35  O   UNL     1      47.944   4.671 -47.810  1.00  0.00    -0.507 OA
ATOM     36  H   UNL     1      48.223   4.801 -48.785  1.00  0.00     0.293 HD
ENDBRANCH  10  35
TORSDOF 9
ENDMDL
MODEL 7
REMARK VINA RESULT:    -5.060      2.360      4.441
REMARK INTER + INTRA:          -7.283
REMARK INTER:                  -7.300
REMARK INTRA:                   0.017
REMARK UNBOUND:                -0.448
REMARK SMILES O=c1c(-c2ccc(O)cc2)coc2c([C@H]3O[C@@H](CO)[C@H](O)[C@@H](O)[C@@H]3O)c(O)ccc12
REMARK SMILES IDX 3 1 11 2 12 3 13 4 30 5 2 6 1 7 29 8 28 9 26 10 14 11 4 12
REMARK SMILES IDX 5 13 6 14 7 15 10 16 9 17 8 18 15 20 24 21 16 22 22 23 17 24
REMARK SMILES IDX 20 25 25 26 23 28 18 30 19 31 21 33 27 35
REMARK H PARENT 8 19 25 27 23 29 19 32 21 34 27 36
REMARK Flexibility Score: inf
ROOT
ATOM      1  C   UNL     1      54.299  -6.151 -47.935  1.00  0.00     0.065 A 
ATOM      2  C   UNL     1      54.427  -4.758 -47.723  1.00  0.00     0.208 A 
ATOM      3  O   UNL     1      55.537  -4.251 -47.204  1.00  0.00    -0.463 OA
ATOM      4  C   UNL     1      56.636  -4.990 -47.010  1.00  0.00     0.147 A 
ATOM      5  C   UNL     1      56.566  -6.400 -47.046  1.00  0.00     0.066 A 
ATOM      6  C   UNL     1      55.362  -6.982 -47.486  1.00  0.00     0.200 A 
ATOM      7  O   UNL     1      55.269  -8.242 -47.541  1.00  0.00    -0.288 OA
ATOM      8  C   UNL     1      57.696  -7.163 -46.709  1.00  0.00     0.020 A 
ATOM      9  C   UNL     1      58.880  -6.535 -46.318  1.00  0.00     0.047 A 
ATOM     10  C   UNL     1      58.937  -5.141 -46.248  1.00  0.00     0.125 A 
ATOM     11  C   UNL     1      57.895  -4.372 -46.841  1.00  0.00     0.069 A 
ENDROOT
BRANCH   1  12
ATOM     12  C   UNL     1      53.093  -6.705 -48.648  1.00  0.00    -0.011 A 
ATOM     13  C   UNL     1      53.060  -6.701 -50.055  1.00  0.00     0.013 A 
ATOM     14  C   UNL     1      51.978  -7.229 -50.754  1.00  0.00     0.047 A 
ATOM     15  C   UNL     1      50.972  -7.932 -50.061  1.00  0.00     0.115 A 
ATOM     16  C   UNL     1      52.029  -7.345 -47.959  1.00  0.00     0.013 A 
ATOM     17  C   UNL     1      50.992  -7.952 -48.662  1.00  0.00     0.047 A 
BRANCH  15  18
ATOM     18  O   UNL     1      49.943  -8.585 -50.756  1.00  0.00    -0.508 OA
ATOM     19  H   UNL     1      49.000  -8.217 -50.761  1.00  0.00     0.293 HD
ENDBRANCH  15  18
ENDBRANCH   1  12
BRANCH  11  20
ATOM     20  C   UNL     1      58.202  -3.053 -47.560  1.00  0.00     0.188 C 
ATOM     21  C   UNL     1      57.931  -3.110 -49.119  1.00  0.00     0.179 C 
ATOM     22  O   UNL     1      59.510  -2.591 -47.229  1.00  0.00    -0.362 OA
ATOM     23  C   UNL     1      58.538  -1.846 -49.787  1.00  0.00     0.177 C 
ATOM     24  C   UNL     1      60.484  -2.617 -48.268  1.00  0.00     0.176 C 
ATOM     25  C   UNL     1      60.081  -1.775 -49.521  1.00  0.00     0.177 C 
BRANCH  21  26
ATOM     26  O   UNL     1      56.552  -3.220 -49.363  1.00  0.00    -0.387 OA
ATOM     27  H   UNL     1      56.167  -4.017 -48.911  1.00  0.00     0.211 HD
ENDBRANCH  21  26
BRANCH  23  28
ATOM     28  O   UNL     1      58.187  -1.790 -51.164  1.00  0.00    -0.387 OA
ATOM     29  H   UNL     1      58.622  -2.517 -51.687  1.00  0.00     0.211 HD
ENDBRANCH  23  28
BRANCH  24  30
ATOM     30  C   UNL     1      61.115  -4.029 -48.551  1.00  0.00     0.191 C 
BRANCH  30  31
ATOM     31  O   UNL     1      61.139  -4.343 -49.919  1.00  0.00    -0.394 OA
ATOM     32  H   UNL     1      62.084  -4.555 -50.139  1.00  0.00     0.210 HD
ENDBRANCH  30  31
ENDBRANCH  24  30
BRANCH  25  33
ATOM     33  O   UNL     1      60.493  -0.437 -49.321  1.00  0.00    -0.388 OA
ATOM     34  H   UNL     1      59.670   0.116 -49.170  1.00  0.00     0.211 HD
ENDBRANCH  25  33
ENDBRANCH  11  20
BRANCH  10  35
ATOM     35  O   UNL     1      60.048  -4.545 -45.650  1.00  0.00    -0.507 OA
ATOM     36  H   UNL     1      60.510  -4.936 -44.826  1.00  0.00     0.293 HD
ENDBRANCH  10  35
TORSDOF 9
ENDMDL
MODEL 8
REMARK VINA RESULT:    -5.027      2.308      4.698
REMARK INTER + INTRA:          -7.238
REMARK INTER:                  -6.855
REMARK INTRA:                  -0.383
REMARK UNBOUND:                -0.448
REMARK SMILES O=c1c(-c2ccc(O)cc2)coc2c([C@H]3O[C@@H](CO)[C@H](O)[C@@H](O)[C@@H]3O)c(O)ccc12
REMARK SMILES IDX 3 1 11 2 12 3 13 4 30 5 2 6 1 7 29 8 28 9 26 10 14 11 4 12
REMARK SMILES IDX 5 13 6 14 7 15 10 16 9 17 8 18 15 20 24 21 16 22 22 23 17 24
REMARK SMILES IDX 20 25 25 26 23 28 18 30 19 31 21 33 27 35
REMARK H PARENT 8 19 25 27 23 29 19 32 21 34 27 36
REMARK Flexibility Score: inf
ROOT
ATOM      1  C   UNL     1      55.956  -5.423 -46.934  1.00  0.00     0.065 A 
ATOM      2  C   UNL     1      56.189  -4.095 -46.506  1.00  0.00     0.208 A 
ATOM      3  O   UNL     1      57.380  -3.729 -46.049  1.00  0.00    -0.463 OA
ATOM      4  C   UNL     1      58.448  -4.531 -46.122  1.00  0.00     0.147 A 
ATOM      5  C   UNL     1      58.293  -5.910 -46.389  1.00  0.00     0.066 A 
ATOM      6  C   UNL     1      57.014  -6.359 -46.768  1.00  0.00     0.200 A 
ATOM      7  O   UNL     1      56.842  -7.585 -47.025  1.00  0.00    -0.288 OA
ATOM      8  C   UNL     1      59.408  -6.761 -46.329  1.00  0.00     0.020 A 
ATOM      9  C   UNL     1      60.663  -6.257 -45.987  1.00  0.00     0.047 A 
ATOM     10  C   UNL     1      60.809  -4.900 -45.688  1.00  0.00     0.125 A 
ATOM     11  C   UNL     1      59.752  -4.000 -46.007  1.00  0.00     0.069 A 
ENDROOT
BRANCH   1  12
ATOM     12  C   UNL     1      54.646  -5.797 -47.576  1.00  0.00    -0.011 A 
ATOM     13  C   UNL     1      54.361  -5.347 -48.879  1.00  0.00     0.013 A 
ATOM     14  C   UNL     1      53.175  -5.694 -49.520  1.00  0.00     0.047 A 
ATOM     15  C   UNL     1      52.314  -6.644 -48.935  1.00  0.00     0.115 A 
ATOM     16  C   UNL     1      53.727  -6.690 -46.965  1.00  0.00     0.013 A 
ATOM     17  C   UNL     1      52.584  -7.107 -47.643  1.00  0.00     0.047 A 
BRANCH  15  18
ATOM     18  O   UNL     1      51.182  -7.106 -49.621  1.00  0.00    -0.508 OA
ATOM     19  H   UNL     1      50.669  -7.918 -49.300  1.00  0.00     0.293 HD
ENDBRANCH  15  18
ENDBRANCH   1  12
BRANCH  11  20
ATOM     20  C   UNL     1      60.051  -2.588 -46.524  1.00  0.00     0.188 C 
ATOM     21  C   UNL     1      58.863  -1.567 -46.285  1.00  0.00     0.179 C 
ATOM     22  O   UNL     1      60.497  -2.630 -47.878  1.00  0.00    -0.362 OA
ATOM     23  C   UNL     1      59.139  -0.268 -47.090  1.00  0.00     0.177 C 
ATOM     24  C   UNL     1      59.620  -2.089 -48.862  1.00  0.00     0.176 C 
ATOM     25  C   UNL     1      59.262  -0.588 -48.619  1.00  0.00     0.177 C 
BRANCH  21  26
ATOM     26  O   UNL     1      58.718  -1.312 -44.911  1.00  0.00    -0.387 OA
ATOM     27  H   UNL     1      58.453  -0.369 -44.744  1.00  0.00     0.211 HD
ENDBRANCH  21  26
BRANCH  23  28
ATOM     28  O   UNL     1      58.169   0.726 -46.783  1.00  0.00    -0.387 OA
ATOM     29  H   UNL     1      57.522   0.411 -46.094  1.00  0.00     0.211 HD
ENDBRANCH  23  28
BRANCH  24  30
ATOM     30  C   UNL     1      58.433  -3.029 -49.282  1.00  0.00     0.191 C 
BRANCH  30  31
ATOM     31  O   UNL     1      58.457  -3.349 -50.649  1.00  0.00    -0.394 OA
ATOM     32  H   UNL     1      57.512  -3.486 -50.920  1.00  0.00     0.210 HD
ENDBRANCH  30  31
ENDBRANCH  24  30
BRANCH  25  33
ATOM     33  O   UNL     1      60.255   0.220 -49.220  1.00  0.00    -0.388 OA
ATOM     34  H   UNL     1      60.940  -0.389 -49.625  1.00  0.00     0.211 HD
ENDBRANCH  25  33
ENDBRANCH  11  20
BRANCH  10  35
ATOM     35  O   UNL     1      62.014  -4.461 -45.140  1.00  0.00    -0.507 OA
ATOM     36  H   UNL     1      62.123  -4.236 -44.148  1.00  0.00     0.293 HD
ENDBRANCH  10  35
TORSDOF 9
ENDMDL
MODEL 9
REMARK VINA RESULT:    -4.979      7.677     11.156
REMARK INTER + INTRA:          -7.174
REMARK INTER:                  -6.527
REMARK INTRA:                  -0.646
REMARK UNBOUND:                -0.448
REMARK SMILES O=c1c(-c2ccc(O)cc2)coc2c([C@H]3O[C@@H](CO)[C@H](O)[C@@H](O)[C@@H]3O)c(O)ccc12
REMARK SMILES IDX 3 1 11 2 12 3 13 4 30 5 2 6 1 7 29 8 28 9 26 10 14 11 4 12
REMARK SMILES IDX 5 13 6 14 7 15 10 16 9 17 8 18 15 20 24 21 16 22 22 23 17 24
REMARK SMILES IDX 20 25 25 26 23 28 18 30 19 31 21 33 27 35
REMARK H PARENT 8 19 25 27 23 29 19 32 21 34 27 36
REMARK Flexibility Score: inf
ROOT
ATOM      1  C   UNL     1      52.591  -7.334 -44.657  1.00  0.00     0.065 A 
ATOM      2  C   UNL     1      51.374  -7.201 -45.366  1.00  0.00     0.208 A 
ATOM      3  O   UNL     1      50.211  -7.411 -44.762  1.00  0.00    -0.463 OA
ATOM      4  C   UNL     1      50.118  -7.591 -43.440  1.00  0.00     0.147 A 
ATOM      5  C   UNL     1      51.267  -7.888 -42.674  1.00  0.00     0.066 A 
ATOM      6  C   UNL     1      52.518  -7.787 -43.311  1.00  0.00     0.200 A 
ATOM      7  O   UNL     1      53.568  -8.035 -42.651  1.00  0.00    -0.288 OA
ATOM      8  C   UNL     1      51.134  -8.206 -41.312  1.00  0.00     0.020 A 
ATOM      9  C   UNL     1      49.872  -8.253 -40.719  1.00  0.00     0.047 A 
ATOM     10  C   UNL     1      48.733  -7.995 -41.486  1.00  0.00     0.125 A 
ATOM     11  C   UNL     1      48.882  -7.415 -42.778  1.00  0.00     0.069 A 
ENDROOT
BRANCH   1  12
ATOM     12  C   UNL     1      53.897  -6.965 -45.310  1.00  0.00    -0.011 A 
ATOM     13  C   UNL     1      54.382  -7.746 -46.376  1.00  0.00     0.013 A 
ATOM     14  C   UNL     1      55.570  -7.423 -47.026  1.00  0.00     0.047 A 
ATOM     15  C   UNL     1      56.220  -6.207 -46.735  1.00  0.00     0.115 A 
ATOM     16  C   UNL     1      54.610  -5.785 -44.972  1.00  0.00     0.013 A 
ATOM     17  C   UNL     1      55.750  -5.415 -45.682  1.00  0.00     0.047 A 
BRANCH  15  18
ATOM     18  O   UNL     1      57.344  -5.800 -47.469  1.00  0.00    -0.508 OA
ATOM     19  H   UNL     1      57.338  -5.805 -48.481  1.00  0.00     0.293 HD
ENDBRANCH  15  18
ENDBRANCH   1  12
BRANCH  11  20
ATOM     20  C   UNL     1      47.880  -6.376 -43.295  1.00  0.00     0.188 C 
ATOM     21  C   UNL     1      47.840  -6.273 -44.875  1.00  0.00     0.179 C 
ATOM     22  O   UNL     1      48.079  -5.120 -42.651  1.00  0.00    -0.362 OA
ATOM     23  C   UNL     1      47.027  -5.014 -45.282  1.00  0.00     0.177 C 
ATOM     24  C   UNL     1      48.585  -4.057 -43.454  1.00  0.00     0.176 C 
ATOM     25  C   UNL     1      47.683  -3.723 -44.684  1.00  0.00     0.177 C 
BRANCH  21  26
ATOM     26  O   UNL     1      47.295  -7.448 -45.420  1.00  0.00    -0.387 OA
ATOM     27  H   UNL     1      47.983  -8.159 -45.508  1.00  0.00     0.211 HD
ENDBRANCH  21  26
BRANCH  23  28
ATOM     28  O   UNL     1      46.845  -4.970 -46.692  1.00  0.00    -0.387 OA
ATOM     29  H   UNL     1      46.471  -4.097 -46.990  1.00  0.00     0.211 HD
ENDBRANCH  23  28
BRANCH  24  30
ATOM     30  C   UNL     1      50.134  -4.105 -43.717  1.00  0.00     0.191 C 
BRANCH  30  31
ATOM     31  O   UNL     1      50.872  -4.340 -42.546  1.00  0.00    -0.394 OA
ATOM     32  H   UNL     1      50.503  -5.173 -42.148  1.00  0.00     0.210 HD
ENDBRANCH  30  31
ENDBRANCH  24  30
BRANCH  25  33
ATOM     33  O   UNL     1      46.691  -2.798 -44.283  1.00  0.00    -0.388 OA
ATOM     34  H   UNL     1      46.050  -2.689 -45.046  1.00  0.00     0.211 HD
ENDBRANCH  25  33
ENDBRANCH  11  20
BRANCH  10  35
ATOM     35  O   UNL     1      47.479  -8.259 -40.934  1.00  0.00    -0.507 OA
ATOM     36  H   UNL     1      46.957  -9.116 -41.130  1.00  0.00     0.293 HD
ENDBRANCH  10  35
TORSDOF 9
ENDMDL
