MODEL 1
REMARK VINA RESULT:    -4.276      0.000      0.000
REMARK INTER + INTRA:          -5.256
REMARK INTER:                  -5.025
REMARK INTRA:                  -0.230
REMARK UNBOUND:                -0.230
REMARK SMILES [NH3+][C@@H](CO)C(=O)[O-]
REMARK SMILES IDX 3 1 2 2 1 3 5 7 6 8 7 9 4 10
REMARK H PARENT 1 4 1 5 1 6 4 11
REMARK Flexibility Score: inf
ROOT
ATOM      1  C   UNL     1      35.919  25.617  33.803  1.00  0.00     0.227 C 
ENDROOT
BRANCH   1   2
ATOM      2  C   UNL     1      37.316  26.255  33.862  1.00  0.00     0.253 C 
BRANCH   2   3
ATOM      3  N   UNL     1      37.237  27.719  33.774  1.00  0.00    -0.348 N 
ATOM      4  H   UNL     1      37.591  28.168  34.650  1.00  0.00     0.345 HD
ATOM      5  H   UNL     1      36.245  28.009  33.617  1.00  0.00     0.345 HD
ATOM      6  H   UNL     1      37.808  28.055  32.964  1.00  0.00     0.345 HD
ENDBRANCH   2   3
BRANCH   2   7
ATOM      7  C   UNL     1      38.200  25.701  32.775  1.00  0.00     0.102 C 
ATOM      8  O   UNL     1      38.090  24.497  32.425  1.00  0.00    -0.544 OA
ATOM      9  O   UNL     1      39.112  26.522  32.121  1.00  0.00    -0.544 OA
ENDBRANCH   2   7
ENDBRANCH   1   2
BRANCH   1  10
ATOM     10  O   UNL     1      35.342  25.800  32.540  1.00  0.00    -0.390 OA
ATOM     11  H   UNL     1      34.723  26.571  32.628  1.00  0.00     0.210 HD
ENDBRANCH   1  10
TORSDOF 4
ENDMDL
MODEL 2
REMARK VINA RESULT:    -4.239      3.345      3.958
REMARK INTER + INTRA:          -5.213
REMARK INTER:                  -5.006
REMARK INTRA:                  -0.207
REMARK UNBOUND:                -0.230
REMARK SMILES [NH3+][C@@H](CO)C(=O)[O-]
REMARK SMILES IDX 3 1 2 2 1 3 5 7 6 8 7 9 4 10
REMARK H PARENT 1 4 1 5 1 6 4 11
REMARK Flexibility Score: inf
ROOT
ATOM      1  C   UNL     1      37.819  26.653  34.206  1.00  0.00     0.227 C 
ENDROOT
BRANCH   1   2
ATOM      2  C   UNL     1      37.145  26.299  35.541  1.00  0.00     0.253 C 
BRANCH   2   3
ATOM      3  N   UNL     1      35.718  26.009  35.356  1.00  0.00    -0.348 N 
ATOM      4  H   UNL     1      35.447  25.126  35.846  1.00  0.00     0.345 HD
ATOM      5  H   UNL     1      35.507  25.914  34.336  1.00  0.00     0.345 HD
ATOM      6  H   UNL     1      35.145  26.798  35.735  1.00  0.00     0.345 HD
ENDBRANCH   2   3
BRANCH   2   7
ATOM      7  C   UNL     1      37.340  27.406  36.544  1.00  0.00     0.102 C 
ATOM      8  O   UNL     1      38.414  28.063  36.559  1.00  0.00    -0.544 OA
ATOM      9  O   UNL     1      36.323  27.740  37.433  1.00  0.00    -0.544 OA
ENDBRANCH   2   7
ENDBRANCH   1   2
BRANCH   1  10
ATOM     10  O   UNL     1      37.260  27.815  33.659  1.00  0.00    -0.390 OA
ATOM     11  H   UNL     1      38.021  28.421  33.461  1.00  0.00     0.210 HD
ENDBRANCH   1  10
TORSDOF 4
ENDMDL
MODEL 3
REMARK VINA RESULT:    -4.236      1.431      2.868
REMARK INTER + INTRA:          -5.210
REMARK INTER:                  -4.969
REMARK INTRA:                  -0.241
REMARK UNBOUND:                -0.230
REMARK SMILES [NH3+][C@@H](CO)C(=O)[O-]
REMARK SMILES IDX 3 1 2 2 1 3 5 7 6 8 7 9 4 10
REMARK H PARENT 1 4 1 5 1 6 4 11
REMARK Flexibility Score: inf
ROOT
ATOM      1  C   UNL     1      38.269  25.615  32.813  1.00  0.00     0.227 C 
ENDROOT
BRANCH   1   2
ATOM      2  C   UNL     1      37.005  26.371  33.253  1.00  0.00     0.253 C 
BRANCH   2   3
ATOM      3  N   UNL     1      37.333  27.716  33.742  1.00  0.00    -0.348 N 
ATOM      4  H   UNL     1      37.209  28.431  32.989  1.00  0.00     0.345 HD
ATOM      5  H   UNL     1      38.323  27.738  34.076  1.00  0.00     0.345 HD
ATOM      6  H   UNL     1      36.711  27.960  34.548  1.00  0.00     0.345 HD
ENDBRANCH   2   3
BRANCH   2   7
ATOM      7  C   UNL     1      36.255  25.589  34.300  1.00  0.00     0.102 C 
ATOM      8  O   UNL     1      36.427  25.843  35.521  1.00  0.00    -0.544 OA
ATOM      9  O   UNL     1      35.339  24.612  33.928  1.00  0.00    -0.544 OA
ENDBRANCH   2   7
ENDBRANCH   1   2
BRANCH   1  10
ATOM     10  O   UNL     1      37.963  24.292  32.469  1.00  0.00    -0.390 OA
ATOM     11  H   UNL     1      37.541  24.332  31.571  1.00  0.00     0.210 HD
ENDBRANCH   1  10
TORSDOF 4
ENDMDL
MODEL 4
REMARK VINA RESULT:    -4.115      1.620      2.061
REMARK INTER + INTRA:          -5.067
REMARK INTER:                  -4.684
REMARK INTRA:                  -0.383
REMARK UNBOUND:                -0.230
REMARK SMILES [NH3+][C@@H](CO)C(=O)[O-]
REMARK SMILES IDX 3 1 2 2 1 3 5 7 6 8 7 9 4 10
REMARK H PARENT 1 4 1 5 1 6 4 11
REMARK Flexibility Score: inf
ROOT
ATOM      1  C   UNL     1      34.537  25.383  33.504  1.00  0.00     0.227 C 
ENDROOT
BRANCH   1   2
ATOM      2  C   UNL     1      35.839  25.297  34.317  1.00  0.00     0.253 C 
BRANCH   2   3
ATOM      3  N   UNL     1      35.705  25.978  35.611  1.00  0.00    -0.348 N 
ATOM      4  H   UNL     1      36.637  26.111  36.065  1.00  0.00     0.345 HD
ATOM      5  H   UNL     1      35.092  25.415  36.243  1.00  0.00     0.345 HD
ATOM      6  H   UNL     1      35.257  26.915  35.472  1.00  0.00     0.345 HD
ENDBRANCH   2   3
BRANCH   2   7
ATOM      7  C   UNL     1      36.994  25.862  33.532  1.00  0.00     0.102 C 
ATOM      8  O   UNL     1      37.286  27.083  33.630  1.00  0.00    -0.544 OA
ATOM      9  O   UNL     1      37.773  25.036  32.729  1.00  0.00    -0.544 OA
ENDBRANCH   2   7
ENDBRANCH   1   2
BRANCH   1  10
ATOM     10  O   UNL     1      34.796  25.808  32.194  1.00  0.00    -0.390 OA
ATOM     11  H   UNL     1      35.756  26.060  32.171  1.00  0.00     0.210 HD
ENDBRANCH   1  10
TORSDOF 4
ENDMDL
MODEL 5
REMARK VINA RESULT:    -4.064      1.504      2.046
REMARK INTER + INTRA:          -5.007
REMARK INTER:                  -4.819
REMARK INTRA:                  -0.188
REMARK UNBOUND:                -0.230
REMARK SMILES [NH3+][C@@H](CO)C(=O)[O-]
REMARK SMILES IDX 3 1 2 2 1 3 5 7 6 8 7 9 4 10
REMARK H PARENT 1 4 1 5 1 6 4 11
REMARK Flexibility Score: inf
ROOT
ATOM      1  C   UNL     1      37.143  26.229  35.566  1.00  0.00     0.227 C 
ENDROOT
BRANCH   1   2
ATOM      2  C   UNL     1      37.703  26.513  34.163  1.00  0.00     0.253 C 
BRANCH   2   3
ATOM      3  N   UNL     1      37.237  27.811  33.658  1.00  0.00    -0.348 N 
ATOM      4  H   UNL     1      37.841  28.148  32.874  1.00  0.00     0.345 HD
ATOM      5  H   UNL     1      37.252  28.516  34.430  1.00  0.00     0.345 HD
ATOM      6  H   UNL     1      36.252  27.723  33.315  1.00  0.00     0.345 HD
ENDBRANCH   2   3
BRANCH   2   7
ATOM      7  C   UNL     1      37.337  25.405  33.210  1.00  0.00     0.102 C 
ATOM      8  O   UNL     1      38.195  24.956  32.405  1.00  0.00    -0.544 OA
ATOM      9  O   UNL     1      36.066  24.842  33.238  1.00  0.00    -0.544 OA
ENDBRANCH   2   7
ENDBRANCH   1   2
BRANCH   1  10
ATOM     10  O   UNL     1      35.742  26.214  35.549  1.00  0.00    -0.390 OA
ATOM     11  H   UNL     1      35.461  27.120  35.256  1.00  0.00     0.210 HD
ENDBRANCH   1  10
TORSDOF 4
ENDMDL
MODEL 6
REMARK VINA RESULT:    -3.898     20.283     21.210
REMARK INTER + INTRA:          -4.812
REMARK INTER:                  -4.429
REMARK INTRA:                  -0.383
REMARK UNBOUND:                -0.230
REMARK SMILES [NH3+][C@@H](CO)C(=O)[O-]
REMARK SMILES IDX 3 1 2 2 1 3 5 7 6 8 7 9 4 10
REMARK H PARENT 1 4 1 5 1 6 4 11
REMARK Flexibility Score: inf
ROOT
ATOM      1  C   UNL     1      20.667  12.462  38.452  1.00  0.00     0.227 C 
ENDROOT
BRANCH   1   2
ATOM      2  C   UNL     1      21.378  12.379  37.092  1.00  0.00     0.253 C 
BRANCH   2   3
ATOM      3  N   UNL     1      22.830  12.241  37.259  1.00  0.00    -0.348 N 
ATOM      4  H   UNL     1      23.072  11.972  38.240  1.00  0.00     0.345 HD
ATOM      5  H   UNL     1      23.299  13.147  37.027  1.00  0.00     0.345 HD
ATOM      6  H   UNL     1      23.193  11.508  36.605  1.00  0.00     0.345 HD
ENDBRANCH   2   3
BRANCH   2   7
ATOM      7  C   UNL     1      21.048  13.581  36.246  1.00  0.00     0.102 C 
ATOM      8  O   UNL     1      21.751  14.623  36.328  1.00  0.00    -0.544 OA
ATOM      9  O   UNL     1      19.996  13.537  35.338  1.00  0.00    -0.544 OA
ENDBRANCH   2   7
ENDBRANCH   1   2
BRANCH   1  10
ATOM     10  O   UNL     1      19.765  13.534  38.477  1.00  0.00    -0.390 OA
ATOM     11  H   UNL     1      19.424  13.585  39.408  1.00  0.00     0.210 HD
ENDBRANCH   1  10
TORSDOF 4
ENDMDL
MODEL 7
REMARK VINA RESULT:    -3.836     16.776     17.697
REMARK INTER + INTRA:          -4.739
REMARK INTER:                  -4.710
REMARK INTRA:                  -0.029
REMARK UNBOUND:                -0.230
REMARK SMILES [NH3+][C@@H](CO)C(=O)[O-]
REMARK SMILES IDX 3 1 2 2 1 3 5 7 6 8 7 9 4 10
REMARK H PARENT 1 4 1 5 1 6 4 11
REMARK Flexibility Score: inf
ROOT
ATOM      1  C   UNL     1      20.000  28.382  40.652  1.00  0.00     0.227 C 
ENDROOT
BRANCH   1   2
ATOM      2  C   UNL     1      21.441  28.541  40.141  1.00  0.00     0.253 C 
BRANCH   2   3
ATOM      3  N   UNL     1      21.861  29.949  40.164  1.00  0.00    -0.348 N 
ATOM      4  H   UNL     1      22.206  30.223  41.112  1.00  0.00     0.345 HD
ATOM      5  H   UNL     1      21.055  30.561  39.901  1.00  0.00     0.345 HD
ATOM      6  H   UNL     1      22.626  30.100  39.466  1.00  0.00     0.345 HD
ENDBRANCH   2   3
BRANCH   2   7
ATOM      7  C   UNL     1      21.582  27.964  38.757  1.00  0.00     0.102 C 
ATOM      8  O   UNL     1      21.876  28.712  37.787  1.00  0.00    -0.544 OA
ATOM      9  O   UNL     1      21.430  26.598  38.544  1.00  0.00    -0.544 OA
ENDBRANCH   2   7
ENDBRANCH   1   2
BRANCH   1  10
ATOM     10  O   UNL     1      19.961  27.549  41.777  1.00  0.00    -0.390 OA
ATOM     11  H   UNL     1      20.862  27.601  42.190  1.00  0.00     0.210 HD
ENDBRANCH   1  10
TORSDOF 4
ENDMDL
MODEL 8
REMARK VINA RESULT:    -3.803     20.469     21.599
REMARK INTER + INTRA:          -4.700
REMARK INTER:                  -4.474
REMARK INTRA:                  -0.226
REMARK UNBOUND:                -0.230
REMARK SMILES [NH3+][C@@H](CO)C(=O)[O-]
REMARK SMILES IDX 3 1 2 2 1 3 5 7 6 8 7 9 4 10
REMARK H PARENT 1 4 1 5 1 6 4 11
REMARK Flexibility Score: inf
ROOT
ATOM      1  C   UNL     1      20.987  11.678  37.520  1.00  0.00     0.227 C 
ENDROOT
BRANCH   1   2
ATOM      2  C   UNL     1      20.822  13.201  37.647  1.00  0.00     0.253 C 
BRANCH   2   3
ATOM      3  N   UNL     1      19.566  13.546  38.325  1.00  0.00    -0.348 N 
ATOM      4  H   UNL     1      18.793  13.685  37.636  1.00  0.00     0.345 HD
ATOM      5  H   UNL     1      19.694  14.423  38.879  1.00  0.00     0.345 HD
ATOM      6  H   UNL     1      19.300  12.779  38.986  1.00  0.00     0.345 HD
ENDBRANCH   2   3
BRANCH   2   7
ATOM      7  C   UNL     1      20.898  13.859  36.294  1.00  0.00     0.102 C 
ATOM      8  O   UNL     1      21.810  14.691  36.047  1.00  0.00    -0.544 OA
ATOM      9  O   UNL     1      19.990  13.524  35.295  1.00  0.00    -0.544 OA
ENDBRANCH   2   7
ENDBRANCH   1   2
BRANCH   1  10
ATOM     10  O   UNL     1      19.894  11.115  36.848  1.00  0.00    -0.390 OA
ATOM     11  H   UNL     1      19.640  11.764  36.142  1.00  0.00     0.210 HD
ENDBRANCH   1  10
TORSDOF 4
ENDMDL
MODEL 9
REMARK VINA RESULT:    -3.799      2.265      2.531
REMARK INTER + INTRA:          -4.695
REMARK INTER:                  -4.481
REMARK INTRA:                  -0.214
REMARK UNBOUND:                -0.230
REMARK SMILES [NH3+][C@@H](CO)C(=O)[O-]
REMARK SMILES IDX 3 1 2 2 1 3 5 7 6 8 7 9 4 10
REMARK H PARENT 1 4 1 5 1 6 4 11
REMARK Flexibility Score: inf
ROOT
ATOM      1  C   UNL     1      35.309  24.970  33.802  1.00  0.00     0.227 C 
ENDROOT
BRANCH   1   2
ATOM      2  C   UNL     1      36.614  25.735  33.527  1.00  0.00     0.253 C 
BRANCH   2   3
ATOM      3  N   UNL     1      37.559  24.916  32.757  1.00  0.00    -0.348 N 
ATOM      4  H   UNL     1      37.062  24.352  32.030  1.00  0.00     0.345 HD
ATOM      5  H   UNL     1      38.072  24.272  33.401  1.00  0.00     0.345 HD
ATOM      6  H   UNL     1      38.261  25.535  32.287  1.00  0.00     0.345 HD
ENDBRANCH   2   3
BRANCH   2   7
ATOM      7  C   UNL     1      37.237  26.203  34.816  1.00  0.00     0.102 C 
ATOM      8  O   UNL     1      36.573  26.174  35.885  1.00  0.00    -0.544 OA
ATOM      9  O   UNL     1      38.560  26.629  34.845  1.00  0.00    -0.544 OA
ENDBRANCH   2   7
ENDBRANCH   1   2
BRANCH   1  10
ATOM     10  O   UNL     1      34.310  25.839  34.259  1.00  0.00    -0.390 OA
ATOM     11  H   UNL     1      34.761  26.702  34.447  1.00  0.00     0.210 HD
ENDBRANCH   1  10
TORSDOF 4
ENDMDL
