MODEL 1
REMARK VINA RESULT:    -3.220      0.000      0.000
REMARK INTER + INTRA:          -4.087
REMARK INTER:                  -4.066
REMARK INTRA:                  -0.020
REMARK UNBOUND:                -0.020
REMARK SMILES O=C(C=Cc1ccc(O)cc1)c1ccc(O)cc1O
REMARK SMILES IDX 4 1 3 2 5 3 6 4 7 5 8 6 11 7 10 8 9 9 2 11 1 12 12 13 18 14
REMARK SMILES IDX 13 15 17 16 14 17 15 18 19 19 16 21
REMARK H PARENT 9 10 19 20 16 22
REMARK Flexibility Score: inf
ROOT
ATOM      1  C   UNL     1     -11.784 -11.587   0.645  1.00  0.00     0.012 C 
ATOM      2  C   UNL     1     -10.843 -12.030   1.495  1.00  0.00     0.053 C 
ENDROOT
BRANCH   1   3
ATOM      3  C   UNL     1     -11.552 -11.187  -0.758  1.00  0.00    -0.025 A 
ATOM      4  C   UNL     1     -11.081  -9.897  -1.038  1.00  0.00     0.012 A 
ATOM      5  C   UNL     1     -10.904  -9.482  -2.362  1.00  0.00     0.047 A 
ATOM      6  C   UNL     1     -11.217 -10.344  -3.417  1.00  0.00     0.115 A 
ATOM      7  C   UNL     1     -11.894 -12.041  -1.821  1.00  0.00     0.012 A 
ATOM      8  C   UNL     1     -11.716 -11.625  -3.144  1.00  0.00     0.047 A 
BRANCH   6   9
ATOM      9  O   UNL     1     -11.034  -9.919  -4.731  1.00  0.00    -0.508 OA
ATOM     10  H   UNL     1     -10.536 -10.487  -5.407  1.00  0.00     0.293 HD
ENDBRANCH   6   9
ENDBRANCH   1   3
BRANCH   2  11
ATOM     11  C   UNL     1      -9.381 -12.033   1.243  1.00  0.00     0.189 C 
ATOM     12  O   UNL     1      -8.930 -12.088   0.067  1.00  0.00    -0.289 OA
BRANCH  11  13
ATOM     13  C   UNL     1      -8.421 -11.966   2.364  1.00  0.00     0.064 A 
ATOM     14  C   UNL     1      -7.038 -11.777   2.150  1.00  0.00     0.130 A 
ATOM     15  C   UNL     1      -8.896 -12.125   3.676  1.00  0.00     0.020 A 
ATOM     16  C   UNL     1      -6.166 -11.707   3.247  1.00  0.00     0.093 A 
ATOM     17  C   UNL     1      -8.020 -12.060   4.762  1.00  0.00     0.047 A 
ATOM     18  C   UNL     1      -6.655 -11.846   4.552  1.00  0.00     0.119 A 
BRANCH  14  19
ATOM     19  O   UNL     1      -6.527 -11.689   0.855  1.00  0.00    -0.507 OA
ATOM     20  H   UNL     1      -5.530 -11.684   0.676  1.00  0.00     0.293 HD
ENDBRANCH  14  19
BRANCH  18  21
ATOM     21  O   UNL     1      -5.794 -11.778   5.645  1.00  0.00    -0.508 OA
ATOM     22  H   UNL     1      -5.242 -12.578   5.934  1.00  0.00     0.293 HD
ENDBRANCH  18  21
ENDBRANCH  11  13
ENDBRANCH   2  11
TORSDOF 6
ENDMDL
MODEL 2
REMARK VINA RESULT:    -1.265     21.998     23.957
REMARK INTER + INTRA:          -1.618
REMARK INTER:                  -2.503
REMARK INTRA:                   0.885
REMARK UNBOUND:                -0.020
REMARK SMILES O=C(C=Cc1ccc(O)cc1)c1ccc(O)cc1O
REMARK SMILES IDX 4 1 3 2 5 3 6 4 7 5 8 6 11 7 10 8 9 9 2 11 1 12 12 13 18 14
REMARK SMILES IDX 13 15 17 16 14 17 15 18 19 19 16 21
REMARK H PARENT 9 10 19 20 16 22
REMARK Flexibility Score: inf
ROOT
ATOM      1  C   UNL     1       7.008   7.584   3.588  1.00  0.00     0.012 C 
ATOM      2  C   UNL     1       7.875   7.297   2.604  1.00  0.00     0.053 C 
ENDROOT
BRANCH   1   3
ATOM      3  C   UNL     1       5.550   7.754   3.423  1.00  0.00    -0.025 A 
ATOM      4  C   UNL     1       4.703   7.544   4.521  1.00  0.00     0.012 A 
ATOM      5  C   UNL     1       3.317   7.649   4.372  1.00  0.00     0.047 A 
ATOM      6  C   UNL     1       2.763   7.943   3.122  1.00  0.00     0.115 A 
ATOM      7  C   UNL     1       4.989   8.020   2.162  1.00  0.00     0.012 A 
ATOM      8  C   UNL     1       3.602   8.125   2.016  1.00  0.00     0.047 A 
BRANCH   6   9
ATOM      9  O   UNL     1       1.380   8.047   2.990  1.00  0.00    -0.508 OA
ATOM     10  H   UNL     1       0.812   7.251   2.726  1.00  0.00     0.293 HD
ENDBRANCH   6   9
ENDBRANCH   1   3
BRANCH   2  11
ATOM     11  C   UNL     1       7.562   7.271   1.154  1.00  0.00     0.189 C 
ATOM     12  O   UNL     1       8.122   8.073   0.359  1.00  0.00    -0.289 OA
BRANCH  11  13
ATOM     13  C   UNL     1       6.590   6.300   0.609  1.00  0.00     0.064 A 
ATOM     14  C   UNL     1       5.831   6.577  -0.549  1.00  0.00     0.130 A 
ATOM     15  C   UNL     1       6.398   5.082   1.280  1.00  0.00     0.020 A 
ATOM     16  C   UNL     1       4.930   5.620  -1.037  1.00  0.00     0.093 A 
ATOM     17  C   UNL     1       5.493   4.136   0.790  1.00  0.00     0.047 A 
ATOM     18  C   UNL     1       4.761   4.399  -0.371  1.00  0.00     0.119 A 
BRANCH  14  19
ATOM     19  O   UNL     1       5.948   7.808  -1.196  1.00  0.00    -0.507 OA
ATOM     20  H   UNL     1       6.498   8.564  -0.804  1.00  0.00     0.293 HD
ENDBRANCH  14  19
BRANCH  18  21
ATOM     21  O   UNL     1       3.867   3.445  -0.851  1.00  0.00    -0.508 OA
ATOM     22  H   UNL     1       2.990   3.712  -1.282  1.00  0.00     0.293 HD
ENDBRANCH  18  21
ENDBRANCH  11  13
ENDBRANCH   2  11
TORSDOF 6
ENDMDL
MODEL 3
REMARK VINA RESULT:    -1.180      5.773      9.990
REMARK INTER + INTRA:          -1.510
REMARK INTER:                  -2.246
REMARK INTRA:                   0.735
REMARK UNBOUND:                -0.020
REMARK SMILES O=C(C=Cc1ccc(O)cc1)c1ccc(O)cc1O
REMARK SMILES IDX 4 1 3 2 5 3 6 4 7 5 8 6 11 7 10 8 9 9 2 11 1 12 12 13 18 14
REMARK SMILES IDX 13 15 17 16 14 17 15 18 19 19 16 21
REMARK H PARENT 9 10 19 20 16 22
REMARK Flexibility Score: inf
ROOT
ATOM      1  C   UNL     1     -12.083 -11.102   9.173  1.00  0.00     0.012 C 
ATOM      2  C   UNL     1     -11.279 -11.599   8.217  1.00  0.00     0.053 C 
ENDROOT
BRANCH   1   3
ATOM      3  C   UNL     1     -11.636 -10.558  10.471  1.00  0.00    -0.025 A 
ATOM      4  C   UNL     1     -11.097  -9.265  10.527  1.00  0.00     0.012 A 
ATOM      5  C   UNL     1     -10.621  -8.751  11.737  1.00  0.00     0.047 A 
ATOM      6  C   UNL     1     -10.657  -9.531  12.896  1.00  0.00     0.115 A 
ATOM      7  C   UNL     1     -11.642 -11.352  11.631  1.00  0.00     0.012 A 
ATOM      8  C   UNL     1     -11.166 -10.836  12.840  1.00  0.00     0.047 A 
BRANCH   6   9
ATOM      9  O   UNL     1     -10.181  -9.006  14.095  1.00  0.00    -0.508 OA
ATOM     10  H   UNL     1     -10.110  -9.574  14.931  1.00  0.00     0.293 HD
ENDBRANCH   6   9
ENDBRANCH   1   3
BRANCH   2  11
ATOM     11  C   UNL     1      -9.824 -11.855   8.357  1.00  0.00     0.189 C 
ATOM     12  O   UNL     1      -9.305 -12.019   9.493  1.00  0.00    -0.289 OA
BRANCH  11  13
ATOM     13  C   UNL     1      -8.954 -11.929   7.165  1.00  0.00     0.064 A 
ATOM     14  C   UNL     1      -9.484 -11.972   5.857  1.00  0.00     0.130 A 
ATOM     15  C   UNL     1      -7.562 -11.988   7.342  1.00  0.00     0.020 A 
ATOM     16  C   UNL     1      -8.618 -12.029   4.755  1.00  0.00     0.093 A 
ATOM     17  C   UNL     1      -6.707 -12.051   6.239  1.00  0.00     0.047 A 
ATOM     18  C   UNL     1      -7.231 -12.067   4.944  1.00  0.00     0.119 A 
BRANCH  14  19
ATOM     19  O   UNL     1     -10.864 -11.988   5.653  1.00  0.00    -0.507 OA
ATOM     20  H   UNL     1     -11.510 -12.202   6.403  1.00  0.00     0.293 HD
ENDBRANCH  14  19
BRANCH  18  21
ATOM     21  O   UNL     1      -6.366 -12.125   3.853  1.00  0.00    -0.508 OA
ATOM     22  H   UNL     1      -6.068 -11.286   3.369  1.00  0.00     0.293 HD
ENDBRANCH  18  21
ENDBRANCH  11  13
ENDBRANCH   2  11
TORSDOF 6
ENDMDL
MODEL 4
REMARK VINA RESULT:    -0.960     22.545     24.063
REMARK INTER + INTRA:          -1.232
REMARK INTER:                  -0.262
REMARK INTRA:                  -0.970
REMARK UNBOUND:                -0.020
REMARK SMILES O=C(C=Cc1ccc(O)cc1)c1ccc(O)cc1O
REMARK SMILES IDX 4 1 3 2 5 3 6 4 7 5 8 6 11 7 10 8 9 9 2 11 1 12 12 13 18 14
REMARK SMILES IDX 13 15 17 16 14 17 15 18 19 19 16 21
REMARK H PARENT 9 10 19 20 16 22
REMARK Flexibility Score: inf
ROOT
ATOM      1  C   UNL     1       7.032   5.320   1.362  1.00  0.00     0.012 C 
ATOM      2  C   UNL     1       6.961   5.799   2.616  1.00  0.00     0.053 C 
ENDROOT
BRANCH   1   3
ATOM      3  C   UNL     1       6.760   6.092   0.133  1.00  0.00    -0.025 A 
ATOM      4  C   UNL     1       5.532   5.932  -0.525  1.00  0.00     0.012 A 
ATOM      5  C   UNL     1       5.276   6.615  -1.717  1.00  0.00     0.047 A 
ATOM      6  C   UNL     1       6.252   7.447  -2.275  1.00  0.00     0.115 A 
ATOM      7  C   UNL     1       7.750   6.906  -0.446  1.00  0.00     0.012 A 
ATOM      8  C   UNL     1       7.492   7.588  -1.638  1.00  0.00     0.047 A 
BRANCH   6   9
ATOM      9  O   UNL     1       5.982   8.124  -3.463  1.00  0.00    -0.508 OA
ATOM     10  H   UNL     1       6.639   8.790  -3.853  1.00  0.00     0.293 HD
ENDBRANCH   6   9
ENDBRANCH   1   3
BRANCH   2  11
ATOM     11  C   UNL     1       6.431   7.128   3.006  1.00  0.00     0.189 C 
ATOM     12  O   UNL     1       7.197   8.125   3.101  1.00  0.00    -0.289 OA
BRANCH  11  13
ATOM     13  C   UNL     1       4.992   7.315   3.286  1.00  0.00     0.064 A 
ATOM     14  C   UNL     1       4.529   7.737   4.551  1.00  0.00     0.130 A 
ATOM     15  C   UNL     1       4.061   7.035   2.273  1.00  0.00     0.020 A 
ATOM     16  C   UNL     1       3.154   7.912   4.767  1.00  0.00     0.093 A 
ATOM     17  C   UNL     1       2.693   7.206   2.498  1.00  0.00     0.047 A 
ATOM     18  C   UNL     1       2.236   7.650   3.742  1.00  0.00     0.119 A 
BRANCH  14  19
ATOM     19  O   UNL     1       5.425   7.953   5.598  1.00  0.00    -0.507 OA
ATOM     20  H   UNL     1       5.847   7.183   6.103  1.00  0.00     0.293 HD
ENDBRANCH  14  19
BRANCH  18  21
ATOM     21  O   UNL     1       0.869   7.822   3.951  1.00  0.00    -0.508 OA
ATOM     22  H   UNL     1       0.283   7.060   4.272  1.00  0.00     0.293 HD
ENDBRANCH  18  21
ENDBRANCH  11  13
ENDBRANCH   2  11
TORSDOF 6
ENDMDL
MODEL 5
REMARK VINA RESULT:    -0.836      6.045      8.873
REMARK INTER + INTRA:          -1.076
REMARK INTER:                  -3.420
REMARK INTRA:                   2.344
REMARK UNBOUND:                -0.020
REMARK SMILES O=C(C=Cc1ccc(O)cc1)c1ccc(O)cc1O
REMARK SMILES IDX 4 1 3 2 5 3 6 4 7 5 8 6 11 7 10 8 9 9 2 11 1 12 12 13 18 14
REMARK SMILES IDX 13 15 17 16 14 17 15 18 19 19 16 21
REMARK H PARENT 9 10 19 20 16 22
REMARK Flexibility Score: inf
ROOT
ATOM      1  C   UNL     1     -11.932 -12.041   7.403  1.00  0.00     0.012 C 
ATOM      2  C   UNL     1     -11.921 -11.844   8.733  1.00  0.00     0.053 C 
ENDROOT
BRANCH   1   3
ATOM      3  C   UNL     1     -10.739 -12.109   6.537  1.00  0.00    -0.025 A 
ATOM      4  C   UNL     1      -9.463 -12.113   7.121  1.00  0.00     0.012 A 
ATOM      5  C   UNL     1      -8.320 -12.125   6.316  1.00  0.00     0.047 A 
ATOM      6  C   UNL     1      -8.439 -12.110   4.923  1.00  0.00     0.115 A 
ATOM      7  C   UNL     1     -10.854 -12.064   5.137  1.00  0.00     0.012 A 
ATOM      8  C   UNL     1      -9.710 -12.077   4.334  1.00  0.00     0.047 A 
BRANCH   6   9
ATOM      9  O   UNL     1      -7.291 -12.125   4.134  1.00  0.00    -0.508 OA
ATOM     10  H   UNL     1      -7.248 -12.654   3.271  1.00  0.00     0.293 HD
ENDBRANCH   6   9
ENDBRANCH   1   3
BRANCH   2  11
ATOM     11  C   UNL     1     -10.732 -11.486   9.544  1.00  0.00     0.189 C 
ATOM     12  O   UNL     1      -9.596 -11.956   9.267  1.00  0.00    -0.289 OA
BRANCH  11  13
ATOM     13  C   UNL     1     -10.853 -10.564  10.693  1.00  0.00     0.064 A 
ATOM     14  C   UNL     1     -10.466  -9.209  10.603  1.00  0.00     0.130 A 
ATOM     15  C   UNL     1     -11.337 -11.059  11.914  1.00  0.00     0.020 A 
ATOM     16  C   UNL     1     -10.610  -8.368  11.716  1.00  0.00     0.093 A 
ATOM     17  C   UNL     1     -11.472 -10.216  13.020  1.00  0.00     0.047 A 
ATOM     18  C   UNL     1     -11.114  -8.868  12.923  1.00  0.00     0.119 A 
BRANCH  14  19
ATOM     19  O   UNL     1      -9.913  -8.706   9.425  1.00  0.00    -0.507 OA
ATOM     20  H   UNL     1      -9.916  -7.715   9.217  1.00  0.00     0.293 HD
ENDBRANCH  14  19
BRANCH  18  21
ATOM     21  O   UNL     1     -11.259  -8.038  14.033  1.00  0.00    -0.508 OA
ATOM     22  H   UNL     1     -10.501  -7.895  14.689  1.00  0.00     0.293 HD
ENDBRANCH  18  21
ENDBRANCH  11  13
ENDBRANCH   2  11
TORSDOF 6
ENDMDL
MODEL 6
REMARK VINA RESULT:    -0.593     21.531     23.412
REMARK INTER + INTRA:          -0.770
REMARK INTER:                   0.494
REMARK INTRA:                  -1.264
REMARK UNBOUND:                -0.020
REMARK SMILES O=C(C=Cc1ccc(O)cc1)c1ccc(O)cc1O
REMARK SMILES IDX 4 1 3 2 5 3 6 4 7 5 8 6 11 7 10 8 9 9 2 11 1 12 12 13 18 14
REMARK SMILES IDX 13 15 17 16 14 17 15 18 19 19 16 21
REMARK H PARENT 9 10 19 20 16 22
REMARK Flexibility Score: inf
ROOT
ATOM      1  C   UNL     1       7.597   4.683   2.512  1.00  0.00     0.012 C 
ATOM      2  C   UNL     1       8.071   5.890   2.864  1.00  0.00     0.053 C 
ENDROOT
BRANCH   1   3
ATOM      3  C   UNL     1       6.473   4.441   1.585  1.00  0.00    -0.025 A 
ATOM      4  C   UNL     1       6.695   4.503   0.202  1.00  0.00     0.012 A 
ATOM      5  C   UNL     1       5.634   4.328  -0.691  1.00  0.00     0.047 A 
ATOM      6  C   UNL     1       4.338   4.113  -0.212  1.00  0.00     0.115 A 
ATOM      7  C   UNL     1       5.164   4.255   2.064  1.00  0.00     0.012 A 
ATOM      8  C   UNL     1       4.105   4.080   1.169  1.00  0.00     0.047 A 
BRANCH   6   9
ATOM      9  O   UNL     1       3.291   3.939  -1.114  1.00  0.00    -0.508 OA
ATOM     10  H   UNL     1       2.397   3.562  -0.821  1.00  0.00     0.293 HD
ENDBRANCH   6   9
ENDBRANCH   1   3
BRANCH   2  11
ATOM     11  C   UNL     1       7.449   7.195   2.532  1.00  0.00     0.189 C 
ATOM     12  O   UNL     1       8.125   8.113   1.995  1.00  0.00    -0.289 OA
BRANCH  11  13
ATOM     13  C   UNL     1       6.020   7.445   2.817  1.00  0.00     0.064 A 
ATOM     14  C   UNL     1       5.094   7.725   1.788  1.00  0.00     0.130 A 
ATOM     15  C   UNL     1       5.581   7.432   4.150  1.00  0.00     0.020 A 
ATOM     16  C   UNL     1       3.745   7.944   2.105  1.00  0.00     0.093 A 
ATOM     17  C   UNL     1       4.237   7.657   4.458  1.00  0.00     0.047 A 
ATOM     18  C   UNL     1       3.315   7.908   3.438  1.00  0.00     0.119 A 
BRANCH  14  19
ATOM     19  O   UNL     1       5.515   7.816   0.461  1.00  0.00    -0.507 OA
ATOM     20  H   UNL     1       6.244   8.460   0.178  1.00  0.00     0.293 HD
ENDBRANCH  14  19
BRANCH  18  21
ATOM     21  O   UNL     1       1.977   8.125   3.759  1.00  0.00    -0.508 OA
ATOM     22  H   UNL     1       1.677   8.969   4.232  1.00  0.00     0.293 HD
ENDBRANCH  18  21
ENDBRANCH  11  13
ENDBRANCH   2  11
TORSDOF 6
ENDMDL
MODEL 7
REMARK VINA RESULT:    -0.440      1.653      7.278
REMARK INTER + INTRA:          -0.576
REMARK INTER:                  -3.518
REMARK INTRA:                   2.942
REMARK UNBOUND:                -0.020
REMARK SMILES O=C(C=Cc1ccc(O)cc1)c1ccc(O)cc1O
REMARK SMILES IDX 4 1 3 2 5 3 6 4 7 5 8 6 11 7 10 8 9 9 2 11 1 12 12 13 18 14
REMARK SMILES IDX 13 15 17 16 14 17 15 18 19 19 16 21
REMARK H PARENT 9 10 19 20 16 22
REMARK Flexibility Score: inf
ROOT
ATOM      1  C   UNL     1      -6.911 -12.063   2.073  1.00  0.00     0.012 C 
ATOM      2  C   UNL     1      -7.693 -11.997   0.982  1.00  0.00     0.053 C 
ENDROOT
BRANCH   1   3
ATOM      3  C   UNL     1      -7.391 -12.122   3.468  1.00  0.00    -0.025 A 
ATOM      4  C   UNL     1      -8.770 -12.120   3.723  1.00  0.00     0.012 A 
ATOM      5  C   UNL     1      -9.244 -12.123   5.039  1.00  0.00     0.047 A 
ATOM      6  C   UNL     1      -8.346 -12.106   6.111  1.00  0.00     0.115 A 
ATOM      7  C   UNL     1      -6.492 -12.075   4.548  1.00  0.00     0.012 A 
ATOM      8  C   UNL     1      -6.968 -12.078   5.862  1.00  0.00     0.047 A 
BRANCH   6   9
ATOM      9  O   UNL     1      -8.833 -12.111   7.416  1.00  0.00    -0.508 OA
ATOM     10  H   UNL     1      -8.401 -12.674   8.140  1.00  0.00     0.293 HD
ENDBRANCH   6   9
ENDBRANCH   1   3
BRANCH   2  11
ATOM     11  C   UNL     1      -9.162 -11.794   0.981  1.00  0.00     0.189 C 
ATOM     12  O   UNL     1      -9.857 -12.108   1.985  1.00  0.00    -0.289 OA
BRANCH  11  13
ATOM     13  C   UNL     1      -9.843 -11.214  -0.195  1.00  0.00     0.064 A 
ATOM     14  C   UNL     1     -11.196 -10.814  -0.150  1.00  0.00     0.130 A 
ATOM     15  C   UNL     1      -9.131 -11.087  -1.398  1.00  0.00     0.020 A 
ATOM     16  C   UNL     1     -11.797 -10.256  -1.288  1.00  0.00     0.093 A 
ATOM     17  C   UNL     1      -9.739 -10.536  -2.529  1.00  0.00     0.047 A 
ATOM     18  C   UNL     1     -11.070 -10.115  -2.477  1.00  0.00     0.119 A 
BRANCH  14  19
ATOM     19  O   UNL     1     -11.950 -10.995   1.010  1.00  0.00    -0.507 OA
ATOM     20  H   UNL     1     -12.652 -10.324   1.299  1.00  0.00     0.293 HD
ENDBRANCH  14  19
BRANCH  18  21
ATOM     21  O   UNL     1     -11.662  -9.562  -3.611  1.00  0.00    -0.508 OA
ATOM     22  H   UNL     1     -11.672 -10.056  -4.495  1.00  0.00     0.293 HD
ENDBRANCH  18  21
ENDBRANCH  11  13
ENDBRANCH   2  11
TORSDOF 6
ENDMDL
