MODEL 1
REMARK VINA RESULT:    -3.015      0.000      0.000
REMARK INTER + INTRA:          -5.487
REMARK INTER:                  -4.602
REMARK INTRA:                  -0.885
REMARK UNBOUND:                -0.885
REMARK SMILES COc1cc(C=CCOC(=O)C=Cc2ccc(O)c(OC)c2)ccc1O
REMARK SMILES IDX 9 1 8 2 7 3 6 4 5 5 3 6 25 7 4 8 24 9 23 10 2 11 1 12 26 13
REMARK SMILES IDX 10 15 11 16 12 17 13 18 14 19 22 20 15 21 19 22 16 23 17 24
REMARK SMILES IDX 20 25 21 26 18 27
REMARK H PARENT 26 14 18 28
REMARK Flexibility Score: inf
ROOT
ATOM      1  O   UNL     1      -3.891  16.212  35.490  1.00  0.00    -0.458 OA
ENDROOT
BRANCH   1   2
ATOM      2  C   UNL     1      -3.042  17.125  34.797  1.00  0.00     0.261 C 
BRANCH   2   3
ATOM      3  C   UNL     1      -3.342  17.118  33.327  1.00  0.00     0.015 C 
ATOM      4  C   UNL     1      -2.359  17.006  32.426  1.00  0.00     0.007 C 
BRANCH   4   5
ATOM      5  C   UNL     1      -2.577  17.019  30.958  1.00  0.00    -0.022 A 
ATOM      6  C   UNL     1      -4.160  17.008  29.090  1.00  0.00     0.161 A 
ATOM      7  C   UNL     1      -3.083  17.065  28.188  1.00  0.00     0.157 A 
ATOM      8  C   UNL     1      -3.896  16.991  30.474  1.00  0.00     0.058 A 
ATOM      9  C   UNL     1      -1.771  17.109  28.665  1.00  0.00     0.051 A 
ATOM     10  C   UNL     1      -1.515  17.091  30.037  1.00  0.00     0.012 A 
BRANCH   6  11
ATOM     11  O   UNL     1      -5.468  16.970  28.581  1.00  0.00    -0.493 OA
ATOM     12  C   UNL     1      -6.215  15.777  28.364  1.00  0.00     0.278 C 
ENDBRANCH   6  11
BRANCH   7  13
ATOM     13  O   UNL     1      -3.298  17.084  26.809  1.00  0.00    -0.504 OA
ATOM     14  H   UNL     1      -4.179  17.376  26.404  1.00  0.00     0.293 HD
ENDBRANCH   7  13
ENDBRANCH   4   5
ENDBRANCH   2   3
ENDBRANCH   1   2
BRANCH   1  15
ATOM     15  C   UNL     1      -5.207  16.515  35.860  1.00  0.00     0.331 C 
ATOM     16  O   UNL     1      -5.474  16.866  37.041  1.00  0.00    -0.247 OA
BRANCH  15  17
ATOM     17  C   UNL     1      -6.298  16.427  34.877  1.00  0.00     0.094 C 
ATOM     18  C   UNL     1      -6.754  15.249  34.429  1.00  0.00     0.016 C 
BRANCH  18  19
ATOM     19  C   UNL     1      -7.846  15.114  33.434  1.00  0.00    -0.021 A 
ATOM     20  C   UNL     1      -8.628  13.947  33.322  1.00  0.00     0.058 A 
ATOM     21  C   UNL     1      -8.080  16.176  32.548  1.00  0.00     0.012 A 
ATOM     22  C   UNL     1      -9.649  13.856  32.354  1.00  0.00     0.161 A 
ATOM     23  C   UNL     1      -9.090  16.091  31.589  1.00  0.00     0.051 A 
ATOM     24  C   UNL     1      -9.877  14.937  31.492  1.00  0.00     0.157 A 
BRANCH  22  25
ATOM     25  O   UNL     1     -10.452  12.713  32.217  1.00  0.00    -0.493 OA
ATOM     26  C   UNL     1      -9.960  11.412  31.910  1.00  0.00     0.278 C 
ENDBRANCH  22  25
BRANCH  24  27
ATOM     27  O   UNL     1     -10.887  14.854  30.535  1.00  0.00    -0.504 OA
ATOM     28  H   UNL     1     -11.703  15.456  30.571  1.00  0.00     0.293 HD
ENDBRANCH  24  27
ENDBRANCH  18  19
ENDBRANCH  15  17
ENDBRANCH   1  15
TORSDOF 10
ENDMDL
MODEL 2
REMARK VINA RESULT:    -2.930      1.598      7.738
REMARK INTER + INTRA:          -5.357
REMARK INTER:                  -4.842
REMARK INTRA:                  -0.515
REMARK UNBOUND:                -0.885
REMARK SMILES COc1cc(C=CCOC(=O)C=Cc2ccc(O)c(OC)c2)ccc1O
REMARK SMILES IDX 9 1 8 2 7 3 6 4 5 5 3 6 25 7 4 8 24 9 23 10 2 11 1 12 26 13
REMARK SMILES IDX 10 15 11 16 12 17 13 18 14 19 22 20 15 21 19 22 16 23 17 24
REMARK SMILES IDX 20 25 21 26 18 27
REMARK H PARENT 26 14 18 28
REMARK Flexibility Score: inf
ROOT
ATOM      1  O   UNL     1     -10.285  12.968  30.836  1.00  0.00    -0.458 OA
ENDROOT
BRANCH   1   2
ATOM      2  C   UNL     1      -9.480  12.185  31.714  1.00  0.00     0.261 C 
BRANCH   2   3
ATOM      3  C   UNL     1      -9.331  12.862  33.045  1.00  0.00     0.015 C 
ATOM      4  C   UNL     1      -8.516  13.913  33.194  1.00  0.00     0.007 C 
BRANCH   4   5
ATOM      5  C   UNL     1      -8.298  14.614  34.483  1.00  0.00    -0.022 A 
ATOM      6  C   UNL     1      -6.971  16.206  35.787  1.00  0.00     0.161 A 
ATOM      7  C   UNL     1      -7.825  16.006  36.886  1.00  0.00     0.157 A 
ATOM      8  C   UNL     1      -7.220  15.509  34.588  1.00  0.00     0.058 A 
ATOM      9  C   UNL     1      -8.907  15.129  36.781  1.00  0.00     0.051 A 
ATOM     10  C   UNL     1      -9.149  14.440  35.591  1.00  0.00     0.012 A 
BRANCH   6  11
ATOM     11  O   UNL     1      -5.894  17.097  35.920  1.00  0.00    -0.493 OA
ATOM     12  C   UNL     1      -4.682  17.016  35.178  1.00  0.00     0.278 C 
ENDBRANCH   6  11
BRANCH   7  13
ATOM     13  O   UNL     1      -7.616  16.675  38.093  1.00  0.00    -0.504 OA
ATOM     14  H   UNL     1      -7.263  17.623  38.131  1.00  0.00     0.293 HD
ENDBRANCH   7  13
ENDBRANCH   4   5
ENDBRANCH   2   3
ENDBRANCH   1   2
BRANCH   1  15
ATOM     15  C   UNL     1     -10.052  14.325  30.584  1.00  0.00     0.331 C 
ATOM     16  O   UNL     1     -10.785  15.208  31.106  1.00  0.00    -0.247 OA
BRANCH  15  17
ATOM     17  C   UNL     1      -8.949  14.741  29.704  1.00  0.00     0.094 C 
ATOM     18  C   UNL     1      -7.856  15.355  30.179  1.00  0.00     0.016 C 
BRANCH  18  19
ATOM     19  C   UNL     1      -6.725  15.798  29.329  1.00  0.00    -0.021 A 
ATOM     20  C   UNL     1      -5.386  15.755  29.766  1.00  0.00     0.058 A 
ATOM     21  C   UNL     1      -7.007  16.313  28.054  1.00  0.00     0.012 A 
ATOM     22  C   UNL     1      -4.342  16.197  28.929  1.00  0.00     0.161 A 
ATOM     23  C   UNL     1      -5.976  16.751  27.222  1.00  0.00     0.051 A 
ATOM     24  C   UNL     1      -4.645  16.690  27.653  1.00  0.00     0.157 A 
BRANCH  22  25
ATOM     25  O   UNL     1      -2.997  16.163  29.328  1.00  0.00    -0.493 OA
ATOM     26  C   UNL     1      -2.383  17.125  30.181  1.00  0.00     0.278 C 
ENDBRANCH  22  25
BRANCH  24  27
ATOM     27  O   UNL     1      -3.616  17.125  26.820  1.00  0.00    -0.504 OA
ATOM     28  H   UNL     1      -3.030  17.915  27.067  1.00  0.00     0.293 HD
ENDBRANCH  24  27
ENDBRANCH  18  19
ENDBRANCH  15  17
ENDBRANCH   1  15
TORSDOF 10
ENDMDL
MODEL 3
REMARK VINA RESULT:    -2.808      1.742      6.218
REMARK INTER + INTRA:          -5.171
REMARK INTER:                  -4.734
REMARK INTRA:                  -0.437
REMARK UNBOUND:                -0.885
REMARK SMILES COc1cc(C=CCOC(=O)C=Cc2ccc(O)c(OC)c2)ccc1O
REMARK SMILES IDX 9 1 8 2 7 3 6 4 5 5 3 6 25 7 4 8 24 9 23 10 2 11 1 12 26 13
REMARK SMILES IDX 10 15 11 16 12 17 13 18 14 19 22 20 15 21 19 22 16 23 17 24
REMARK SMILES IDX 20 25 21 26 18 27
REMARK H PARENT 26 14 18 28
REMARK Flexibility Score: inf
ROOT
ATOM      1  O   UNL     1      -6.319  16.473  36.514  1.00  0.00    -0.458 OA
ENDROOT
BRANCH   1   2
ATOM      2  C   UNL     1      -7.708  16.773  36.391  1.00  0.00     0.261 C 
BRANCH   2   3
ATOM      3  C   UNL     1      -8.232  16.327  35.058  1.00  0.00     0.015 C 
ATOM      4  C   UNL     1      -9.099  15.312  34.964  1.00  0.00     0.007 C 
BRANCH   4   5
ATOM      5  C   UNL     1      -9.637  14.800  33.680  1.00  0.00    -0.022 A 
ATOM      6  C   UNL     1      -9.626  13.046  31.971  1.00  0.00     0.161 A 
ATOM      7  C   UNL     1     -10.619  13.742  31.261  1.00  0.00     0.157 A 
ATOM      8  C   UNL     1      -9.145  13.581  33.183  1.00  0.00     0.058 A 
ATOM      9  C   UNL     1     -11.122  14.947  31.759  1.00  0.00     0.051 A 
ATOM     10  C   UNL     1     -10.641  15.473  32.959  1.00  0.00     0.012 A 
BRANCH   6  11
ATOM     11  O   UNL     1      -9.143  11.836  31.449  1.00  0.00    -0.493 OA
ATOM     12  C   UNL     1      -9.839  10.594  31.509  1.00  0.00     0.278 C 
ENDBRANCH   6  11
BRANCH   7  13
ATOM     13  O   UNL     1     -11.124  13.250  30.057  1.00  0.00    -0.504 OA
ATOM     14  H   UNL     1     -11.292  12.262  29.905  1.00  0.00     0.293 HD
ENDBRANCH   7  13
ENDBRANCH   4   5
ENDBRANCH   2   3
ENDBRANCH   1   2
BRANCH   1  15
ATOM     15  C   UNL     1      -5.408  16.606  35.460  1.00  0.00     0.331 C 
ATOM     16  O   UNL     1      -4.245  17.047  35.672  1.00  0.00    -0.247 OA
BRANCH  15  17
ATOM     17  C   UNL     1      -5.793  16.236  34.089  1.00  0.00     0.094 C 
ATOM     18  C   UNL     1      -5.774  17.123  33.084  1.00  0.00     0.016 C 
BRANCH  18  19
ATOM     19  C   UNL     1      -6.160  16.795  31.690  1.00  0.00    -0.021 A 
ATOM     20  C   UNL     1      -5.346  17.111  30.584  1.00  0.00     0.058 A 
ATOM     21  C   UNL     1      -7.402  16.182  31.465  1.00  0.00     0.012 A 
ATOM     22  C   UNL     1      -5.757  16.792  29.274  1.00  0.00     0.161 A 
ATOM     23  C   UNL     1      -7.813  15.863  30.170  1.00  0.00     0.051 A 
ATOM     24  C   UNL     1      -6.993  16.163  29.076  1.00  0.00     0.157 A 
BRANCH  22  25
ATOM     25  O   UNL     1      -4.970  17.085  28.150  1.00  0.00    -0.493 OA
ATOM     26  C   UNL     1      -3.639  16.616  27.950  1.00  0.00     0.278 C 
ENDBRANCH  22  25
BRANCH  24  27
ATOM     27  O   UNL     1      -7.403  15.841  27.783  1.00  0.00    -0.504 OA
ATOM     28  H   UNL     1      -8.361  15.576  27.580  1.00  0.00     0.293 HD
ENDBRANCH  24  27
ENDBRANCH  18  19
ENDBRANCH  15  17
ENDBRANCH   1  15
TORSDOF 10
ENDMDL
MODEL 4
REMARK VINA RESULT:    -2.751      6.048     11.828
REMARK INTER + INTRA:          -5.083
REMARK INTER:                  -4.637
REMARK INTRA:                  -0.446
REMARK UNBOUND:                -0.885
REMARK SMILES COc1cc(C=CCOC(=O)C=Cc2ccc(O)c(OC)c2)ccc1O
REMARK SMILES IDX 9 1 8 2 7 3 6 4 5 5 3 6 25 7 4 8 24 9 23 10 2 11 1 12 26 13
REMARK SMILES IDX 10 15 11 16 12 17 13 18 14 19 22 20 15 21 19 22 16 23 17 24
REMARK SMILES IDX 20 25 21 26 18 27
REMARK H PARENT 26 14 18 28
REMARK Flexibility Score: inf
ROOT
ATOM      1  O   UNL     1       0.530  16.893  27.199  1.00  0.00    -0.458 OA
ENDROOT
BRANCH   1   2
ATOM      2  C   UNL     1      -0.121  17.117  28.449  1.00  0.00     0.261 C 
BRANCH   2   3
ATOM      3  C   UNL     1      -1.611  17.123  28.277  1.00  0.00     0.015 C 
ATOM      4  C   UNL     1      -2.425  17.099  29.339  1.00  0.00     0.007 C 
BRANCH   4   5
ATOM      5  C   UNL     1      -3.906  17.075  29.246  1.00  0.00    -0.022 A 
ATOM      6  C   UNL     1      -6.064  17.080  30.404  1.00  0.00     0.161 A 
ATOM      7  C   UNL     1      -6.722  17.055  29.162  1.00  0.00     0.157 A 
ATOM      8  C   UNL     1      -4.655  17.095  30.435  1.00  0.00     0.058 A 
ATOM      9  C   UNL     1      -5.981  17.050  27.977  1.00  0.00     0.051 A 
ATOM     10  C   UNL     1      -4.585  17.064  28.014  1.00  0.00     0.012 A 
BRANCH   6  11
ATOM     11  O   UNL     1      -6.834  17.089  31.578  1.00  0.00    -0.493 OA
ATOM     12  C   UNL     1      -7.152  15.932  32.344  1.00  0.00     0.278 C 
ENDBRANCH   6  11
BRANCH   7  13
ATOM     13  O   UNL     1      -8.115  17.038  29.084  1.00  0.00    -0.504 OA
ATOM     14  H   UNL     1      -8.653  16.191  29.218  1.00  0.00     0.293 HD
ENDBRANCH   7  13
ENDBRANCH   4   5
ENDBRANCH   2   3
ENDBRANCH   1   2
BRANCH   1  15
ATOM     15  C   UNL     1       1.916  16.986  27.026  1.00  0.00     0.331 C 
ATOM     16  O   UNL     1       2.682  17.049  28.027  1.00  0.00    -0.247 OA
BRANCH  15  17
ATOM     17  C   UNL     1       2.499  17.014  25.677  1.00  0.00     0.094 C 
ATOM     18  C   UNL     1       3.369  16.082  25.261  1.00  0.00     0.016 C 
BRANCH  18  19
ATOM     19  C   UNL     1       3.987  16.076  23.913  1.00  0.00    -0.021 A 
ATOM     20  C   UNL     1       3.230  16.220  22.733  1.00  0.00     0.058 A 
ATOM     21  C   UNL     1       5.372  15.879  23.811  1.00  0.00     0.012 A 
ATOM     22  C   UNL     1       3.856  16.196  21.470  1.00  0.00     0.161 A 
ATOM     23  C   UNL     1       5.996  15.856  22.563  1.00  0.00     0.051 A 
ATOM     24  C   UNL     1       5.244  16.018  21.394  1.00  0.00     0.157 A 
BRANCH  22  25
ATOM     25  O   UNL     1       3.136  16.343  20.274  1.00  0.00    -0.493 OA
ATOM     26  C   UNL     1       1.793  15.911  20.081  1.00  0.00     0.278 C 
ENDBRANCH  22  25
BRANCH  24  27
ATOM     27  O   UNL     1       5.869  15.997  20.148  1.00  0.00    -0.504 OA
ATOM     28  H   UNL     1       6.187  16.849  19.699  1.00  0.00     0.293 HD
ENDBRANCH  24  27
ENDBRANCH  18  19
ENDBRANCH  15  17
ENDBRANCH   1  15
TORSDOF 10
ENDMDL
MODEL 5
REMARK VINA RESULT:    -2.507      2.183      5.148
REMARK INTER + INTRA:          -4.711
REMARK INTER:                  -3.876
REMARK INTRA:                  -0.835
REMARK UNBOUND:                -0.885
REMARK SMILES COc1cc(C=CCOC(=O)C=Cc2ccc(O)c(OC)c2)ccc1O
REMARK SMILES IDX 9 1 8 2 7 3 6 4 5 5 3 6 25 7 4 8 24 9 23 10 2 11 1 12 26 13
REMARK SMILES IDX 10 15 11 16 12 17 13 18 14 19 22 20 15 21 19 22 16 23 17 24
REMARK SMILES IDX 20 25 21 26 18 27
REMARK H PARENT 26 14 18 28
REMARK Flexibility Score: inf
ROOT
ATOM      1  O   UNL     1      -2.104  17.120  31.159  1.00  0.00    -0.458 OA
ENDROOT
BRANCH   1   2
ATOM      2  C   UNL     1      -2.635  16.179  30.228  1.00  0.00     0.261 C 
BRANCH   2   3
ATOM      3  C   UNL     1      -4.003  16.596  29.774  1.00  0.00     0.015 C 
ATOM      4  C   UNL     1      -4.853  15.707  29.246  1.00  0.00     0.007 C 
BRANCH   4   5
ATOM      5  C   UNL     1      -6.208  16.052  28.752  1.00  0.00    -0.022 A 
ATOM      6  C   UNL     1      -8.627  16.043  29.134  1.00  0.00     0.161 A 
ATOM      7  C   UNL     1      -8.817  16.691  27.901  1.00  0.00     0.157 A 
ATOM      8  C   UNL     1      -7.318  15.733  29.553  1.00  0.00     0.058 A 
ATOM      9  C   UNL     1      -7.716  17.023  27.108  1.00  0.00     0.051 A 
ATOM     10  C   UNL     1      -6.421  16.713  27.527  1.00  0.00     0.012 A 
BRANCH   6  11
ATOM     11  O   UNL     1      -9.752  15.725  29.911  1.00  0.00    -0.493 OA
ATOM     12  C   UNL     1      -9.708  15.371  31.290  1.00  0.00     0.278 C 
ENDBRANCH   6  11
BRANCH   7  13
ATOM     13  O   UNL     1     -10.095  17.016  27.446  1.00  0.00    -0.504 OA
ATOM     14  H   UNL     1     -10.693  16.341  26.985  1.00  0.00     0.293 HD
ENDBRANCH   7  13
ENDBRANCH   4   5
ENDBRANCH   2   3
ENDBRANCH   1   2
BRANCH   1  15
ATOM     15  C   UNL     1      -2.331  17.049  32.538  1.00  0.00     0.331 C 
ATOM     16  O   UNL     1      -1.365  16.919  33.339  1.00  0.00    -0.247 OA
BRANCH  15  17
ATOM     17  C   UNL     1      -3.699  17.124  33.074  1.00  0.00     0.094 C 
ATOM     18  C   UNL     1      -4.015  16.634  34.281  1.00  0.00     0.016 C 
BRANCH  18  19
ATOM     19  C   UNL     1      -5.381  16.682  34.856  1.00  0.00    -0.021 A 
ATOM     20  C   UNL     1      -5.616  16.845  36.237  1.00  0.00     0.058 A 
ATOM     21  C   UNL     1      -6.477  16.520  33.995  1.00  0.00     0.012 A 
ATOM     22  C   UNL     1      -6.931  16.873  36.743  1.00  0.00     0.161 A 
ATOM     23  C   UNL     1      -7.781  16.548  34.493  1.00  0.00     0.051 A 
ATOM     24  C   UNL     1      -8.011  16.728  35.862  1.00  0.00     0.157 A 
BRANCH  22  25
ATOM     25  O   UNL     1      -7.204  17.040  38.110  1.00  0.00    -0.493 OA
ATOM     26  C   UNL     1      -7.075  16.015  39.090  1.00  0.00     0.278 C 
ENDBRANCH  22  25
BRANCH  24  27
ATOM     27  O   UNL     1      -9.313  16.759  36.357  1.00  0.00    -0.504 OA
ATOM     28  H   UNL     1      -9.865  17.610  36.348  1.00  0.00     0.293 HD
ENDBRANCH  24  27
ENDBRANCH  18  19
ENDBRANCH  15  17
ENDBRANCH   1  15
TORSDOF 10
ENDMDL
MODEL 6
REMARK VINA RESULT:    -2.351      1.979      2.615
REMARK INTER + INTRA:          -4.472
REMARK INTER:                  -5.030
REMARK INTRA:                   0.558
REMARK UNBOUND:                -0.885
REMARK SMILES COc1cc(C=CCOC(=O)C=Cc2ccc(O)c(OC)c2)ccc1O
REMARK SMILES IDX 9 1 8 2 7 3 6 4 5 5 3 6 25 7 4 8 24 9 23 10 2 11 1 12 26 13
REMARK SMILES IDX 10 15 11 16 12 17 13 18 14 19 22 20 15 21 19 22 16 23 17 24
REMARK SMILES IDX 20 25 21 26 18 27
REMARK H PARENT 26 14 18 28
REMARK Flexibility Score: inf
ROOT
ATOM      1  O   UNL     1      -4.992  16.396  35.219  1.00  0.00    -0.458 OA
ENDROOT
BRANCH   1   2
ATOM      2  C   UNL     1      -4.485  17.124  34.103  1.00  0.00     0.261 C 
BRANCH   2   3
ATOM      3  C   UNL     1      -5.281  16.823  32.867  1.00  0.00     0.015 C 
ATOM      4  C   UNL     1      -4.804  17.121  31.653  1.00  0.00     0.007 C 
BRANCH   4   5
ATOM      5  C   UNL     1      -5.545  16.878  30.391  1.00  0.00    -0.022 A 
ATOM      6  C   UNL     1      -7.701  16.595  29.265  1.00  0.00     0.161 A 
ATOM      7  C   UNL     1      -7.032  16.443  28.038  1.00  0.00     0.157 A 
ATOM      8  C   UNL     1      -6.948  16.818  30.435  1.00  0.00     0.058 A 
ATOM      9  C   UNL     1      -5.638  16.517  27.987  1.00  0.00     0.051 A 
ATOM     10  C   UNL     1      -4.896  16.736  29.149  1.00  0.00     0.012 A 
BRANCH   6  11
ATOM     11  O   UNL     1      -9.103  16.520  29.286  1.00  0.00    -0.493 OA
ATOM     12  C   UNL     1      -9.866  15.486  28.673  1.00  0.00     0.278 C 
ENDBRANCH   6  11
BRANCH   7  13
ATOM     13  O   UNL     1      -7.738  16.220  26.855  1.00  0.00    -0.504 OA
ATOM     14  H   UNL     1      -8.711  16.481  26.749  1.00  0.00     0.293 HD
ENDBRANCH   7  13
ENDBRANCH   4   5
ENDBRANCH   2   3
ENDBRANCH   1   2
BRANCH   1  15
ATOM     15  C   UNL     1      -6.354  16.319  35.533  1.00  0.00     0.331 C 
ATOM     16  O   UNL     1      -6.772  16.695  36.662  1.00  0.00    -0.247 OA
BRANCH  15  17
ATOM     17  C   UNL     1      -7.317  15.797  34.552  1.00  0.00     0.094 C 
ATOM     18  C   UNL     1      -7.430  14.486  34.298  1.00  0.00     0.016 C 
BRANCH  18  19
ATOM     19  C   UNL     1      -8.381  13.917  33.313  1.00  0.00    -0.021 A 
ATOM     20  C   UNL     1      -8.349  12.563  32.923  1.00  0.00     0.058 A 
ATOM     21  C   UNL     1      -9.324  14.772  32.721  1.00  0.00     0.012 A 
ATOM     22  C   UNL     1      -9.265  12.066  31.974  1.00  0.00     0.161 A 
ATOM     23  C   UNL     1     -10.234  14.284  31.782  1.00  0.00     0.051 A 
ATOM     24  C   UNL     1     -10.210  12.935  31.410  1.00  0.00     0.157 A 
BRANCH  22  25
ATOM     25  O   UNL     1      -9.268  10.724  31.566  1.00  0.00    -0.493 OA
ATOM     26  C   UNL     1     -10.433   9.993  31.196  1.00  0.00     0.278 C 
ENDBRANCH  22  25
BRANCH  24  27
ATOM     27  O   UNL     1     -11.121  12.448  30.474  1.00  0.00    -0.504 OA
ATOM     28  H   UNL     1     -10.965  11.572  29.987  1.00  0.00     0.293 HD
ENDBRANCH  24  27
ENDBRANCH  18  19
ENDBRANCH  15  17
ENDBRANCH   1  15
TORSDOF 10
ENDMDL
MODEL 7
REMARK VINA RESULT:    -2.348      6.138      8.884
REMARK INTER + INTRA:          -4.469
REMARK INTER:                  -4.008
REMARK INTRA:                  -0.460
REMARK UNBOUND:                -0.885
REMARK SMILES COc1cc(C=CCOC(=O)C=Cc2ccc(O)c(OC)c2)ccc1O
REMARK SMILES IDX 9 1 8 2 7 3 6 4 5 5 3 6 25 7 4 8 24 9 23 10 2 11 1 12 26 13
REMARK SMILES IDX 10 15 11 16 12 17 13 18 14 19 22 20 15 21 19 22 16 23 17 24
REMARK SMILES IDX 20 25 21 26 18 27
REMARK H PARENT 26 14 18 28
REMARK Flexibility Score: inf
ROOT
ATOM      1  O   UNL     1       1.010  16.796  27.029  1.00  0.00    -0.458 OA
ENDROOT
BRANCH   1   2
ATOM      2  C   UNL     1       2.419  16.994  26.928  1.00  0.00     0.261 C 
BRANCH   2   3
ATOM      3  C   UNL     1       2.855  16.973  25.492  1.00  0.00     0.015 C 
ATOM      4  C   UNL     1       3.648  15.999  25.029  1.00  0.00     0.007 C 
BRANCH   4   5
ATOM      5  C   UNL     1       4.141  15.928  23.632  1.00  0.00    -0.022 A 
ATOM      6  C   UNL     1       3.715  16.319  21.252  1.00  0.00     0.161 A 
ATOM      7  C   UNL     1       5.005  15.850  20.952  1.00  0.00     0.157 A 
ATOM      8  C   UNL     1       3.294  16.359  22.597  1.00  0.00     0.058 A 
ATOM      9  C   UNL     1       5.856  15.434  21.979  1.00  0.00     0.051 A 
ATOM     10  C   UNL     1       5.434  15.475  23.309  1.00  0.00     0.012 A 
BRANCH   6  11
ATOM     11  O   UNL     1       2.883  16.734  20.200  1.00  0.00    -0.493 OA
ATOM     12  C   UNL     1       1.661  16.099  19.837  1.00  0.00     0.278 C 
ENDBRANCH   6  11
BRANCH   7  13
ATOM     13  O   UNL     1       5.463  15.792  19.635  1.00  0.00    -0.504 OA
ATOM     14  H   UNL     1       5.615  16.626  19.079  1.00  0.00     0.293 HD
ENDBRANCH   7  13
ENDBRANCH   4   5
ENDBRANCH   2   3
ENDBRANCH   1   2
BRANCH   1  15
ATOM     15  C   UNL     1       0.291  16.978  28.217  1.00  0.00     0.331 C 
ATOM     16  O   UNL     1       0.890  17.016  29.326  1.00  0.00    -0.247 OA
BRANCH  15  17
ATOM     17  C   UNL     1      -1.172  17.125  28.188  1.00  0.00     0.094 C 
ATOM     18  C   UNL     1      -1.963  16.508  29.077  1.00  0.00     0.016 C 
BRANCH  18  19
ATOM     19  C   UNL     1      -3.442  16.623  29.081  1.00  0.00    -0.021 A 
ATOM     20  C   UNL     1      -4.183  16.825  30.262  1.00  0.00     0.058 A 
ATOM     21  C   UNL     1      -4.128  16.485  27.864  1.00  0.00     0.012 A 
ATOM     22  C   UNL     1      -5.589  16.917  30.222  1.00  0.00     0.161 A 
ATOM     23  C   UNL     1      -5.520  16.576  27.820  1.00  0.00     0.051 A 
ATOM     24  C   UNL     1      -6.251  16.795  28.993  1.00  0.00     0.157 A 
BRANCH  22  25
ATOM     25  O   UNL     1      -6.359  17.125  31.377  1.00  0.00    -0.493 OA
ATOM     26  C   UNL     1      -5.959  16.755  32.693  1.00  0.00     0.278 C 
ENDBRANCH  22  25
BRANCH  24  27
ATOM     27  O   UNL     1      -7.641  16.889  28.947  1.00  0.00    -0.504 OA
ATOM     28  H   UNL     1      -8.140  17.628  29.430  1.00  0.00     0.293 HD
ENDBRANCH  24  27
ENDBRANCH  18  19
ENDBRANCH  15  17
ENDBRANCH   1  15
TORSDOF 10
ENDMDL
MODEL 8
REMARK VINA RESULT:    -2.257      1.604      2.575
REMARK INTER + INTRA:          -4.329
REMARK INTER:                  -3.451
REMARK INTRA:                  -0.878
REMARK UNBOUND:                -0.885
REMARK SMILES COc1cc(C=CCOC(=O)C=Cc2ccc(O)c(OC)c2)ccc1O
REMARK SMILES IDX 9 1 8 2 7 3 6 4 5 5 3 6 25 7 4 8 24 9 23 10 2 11 1 12 26 13
REMARK SMILES IDX 10 15 11 16 12 17 13 18 14 19 22 20 15 21 19 22 16 23 17 24
REMARK SMILES IDX 20 25 21 26 18 27
REMARK H PARENT 26 14 18 28
REMARK Flexibility Score: inf
ROOT
ATOM      1  O   UNL     1      -3.753  16.358  34.776  1.00  0.00    -0.458 OA
ENDROOT
BRANCH   1   2
ATOM      2  C   UNL     1      -3.269  17.125  33.675  1.00  0.00     0.261 C 
BRANCH   2   3
ATOM      3  C   UNL     1      -4.256  17.113  32.545  1.00  0.00     0.015 C 
ATOM      4  C   UNL     1      -3.847  16.991  31.276  1.00  0.00     0.007 C 
BRANCH   4   5
ATOM      5  C   UNL     1      -4.761  16.999  30.108  1.00  0.00    -0.022 A 
ATOM      6  C   UNL     1      -7.061  16.985  29.265  1.00  0.00     0.161 A 
ATOM      7  C   UNL     1      -6.570  17.035  27.949  1.00  0.00     0.157 A 
ATOM      8  C   UNL     1      -6.147  16.973  30.338  1.00  0.00     0.058 A 
ATOM      9  C   UNL     1      -5.193  17.076  27.715  1.00  0.00     0.051 A 
ATOM     10  C   UNL     1      -4.293  17.063  28.782  1.00  0.00     0.012 A 
BRANCH   6  11
ATOM     11  O   UNL     1      -8.449  16.949  29.470  1.00  0.00    -0.493 OA
ATOM     12  C   UNL     1      -9.284  15.839  29.153  1.00  0.00     0.278 C 
ENDBRANCH   6  11
BRANCH   7  13
ATOM     13  O   UNL     1      -7.438  17.048  26.856  1.00  0.00    -0.504 OA
ATOM     14  H   UNL     1      -8.157  16.345  26.729  1.00  0.00     0.293 HD
ENDBRANCH   7  13
ENDBRANCH   4   5
ENDBRANCH   2   3
ENDBRANCH   1   2
BRANCH   1  15
ATOM     15  C   UNL     1      -4.997  16.580  35.379  1.00  0.00     0.331 C 
ATOM     16  O   UNL     1      -5.068  17.119  36.517  1.00  0.00    -0.247 OA
BRANCH  15  17
ATOM     17  C   UNL     1      -6.239  16.186  34.696  1.00  0.00     0.094 C 
ATOM     18  C   UNL     1      -6.446  14.931  34.272  1.00  0.00     0.016 C 
BRANCH  18  19
ATOM     19  C   UNL     1      -7.679  14.492  33.574  1.00  0.00    -0.021 A 
ATOM     20  C   UNL     1      -8.816  15.316  33.454  1.00  0.00     0.058 A 
ATOM     21  C   UNL     1      -7.724  13.192  33.047  1.00  0.00     0.012 A 
ATOM     22  C   UNL     1      -9.972  14.854  32.792  1.00  0.00     0.161 A 
ATOM     23  C   UNL     1      -8.865  12.732  32.389  1.00  0.00     0.051 A 
ATOM     24  C   UNL     1      -9.986  13.559  32.257  1.00  0.00     0.157 A 
BRANCH  22  25
ATOM     25  O   UNL     1     -11.120  15.648  32.648  1.00  0.00    -0.493 OA
ATOM     26  C   UNL     1     -11.108  17.062  32.472  1.00  0.00     0.278 C 
ENDBRANCH  22  25
BRANCH  24  27
ATOM     27  O   UNL     1     -11.125  13.099  31.598  1.00  0.00    -0.504 OA
ATOM     28  H   UNL     1     -11.644  12.294  31.933  1.00  0.00     0.293 HD
ENDBRANCH  24  27
ENDBRANCH  18  19
ENDBRANCH  15  17
ENDBRANCH   1  15
TORSDOF 10
ENDMDL
MODEL 9
REMARK VINA RESULT:    -2.037      6.595      9.847
REMARK INTER + INTRA:          -3.995
REMARK INTER:                  -4.113
REMARK INTRA:                   0.119
REMARK UNBOUND:                -0.885
REMARK SMILES COc1cc(C=CCOC(=O)C=Cc2ccc(O)c(OC)c2)ccc1O
REMARK SMILES IDX 9 1 8 2 7 3 6 4 5 5 3 6 25 7 4 8 24 9 23 10 2 11 1 12 26 13
REMARK SMILES IDX 10 15 11 16 12 17 13 18 14 19 22 20 15 21 19 22 16 23 17 24
REMARK SMILES IDX 20 25 21 26 18 27
REMARK H PARENT 26 14 18 28
REMARK Flexibility Score: inf
ROOT
ATOM      1  O   UNL     1       2.986  16.436  27.378  1.00  0.00    -0.458 OA
ENDROOT
BRANCH   1   2
ATOM      2  C   UNL     1       2.127  17.019  26.401  1.00  0.00     0.261 C 
BRANCH   2   3
ATOM      3  C   UNL     1       2.733  16.916  25.033  1.00  0.00     0.015 C 
ATOM      4  C   UNL     1       3.774  16.108  24.801  1.00  0.00     0.007 C 
BRANCH   4   5
ATOM      5  C   UNL     1       4.441  15.975  23.482  1.00  0.00    -0.022 A 
ATOM      6  C   UNL     1       4.223  15.743  21.054  1.00  0.00     0.161 A 
ATOM      7  C   UNL     1       5.624  15.744  20.936  1.00  0.00     0.157 A 
ATOM      8  C   UNL     1       3.642  15.865  22.332  1.00  0.00     0.058 A 
ATOM      9  C   UNL     1       6.423  15.868  22.075  1.00  0.00     0.051 A 
ATOM     10  C   UNL     1       5.842  15.987  23.339  1.00  0.00     0.012 A 
BRANCH   6  11
ATOM     11  O   UNL     1       3.446  15.621  19.892  1.00  0.00    -0.493 OA
ATOM     12  C   UNL     1       2.023  15.560  19.873  1.00  0.00     0.278 C 
ENDBRANCH   6  11
BRANCH   7  13
ATOM     13  O   UNL     1       6.243  15.625  19.691  1.00  0.00    -0.504 OA
ATOM     14  H   UNL     1       6.870  14.861  19.471  1.00  0.00     0.293 HD
ENDBRANCH   7  13
ENDBRANCH   4   5
ENDBRANCH   2   3
ENDBRANCH   1   2
BRANCH   1  15
ATOM     15  C   UNL     1       2.862  16.675  28.752  1.00  0.00     0.331 C 
ATOM     16  O   UNL     1       3.882  16.924  29.452  1.00  0.00    -0.247 OA
BRANCH  15  17
ATOM     17  C   UNL     1       1.542  16.638  29.400  1.00  0.00     0.094 C 
ATOM     18  C   UNL     1       0.445  17.119  28.800  1.00  0.00     0.016 C 
BRANCH  18  19
ATOM     19  C   UNL     1      -0.903  17.108  29.418  1.00  0.00    -0.021 A 
ATOM     20  C   UNL     1      -2.087  17.119  28.654  1.00  0.00     0.058 A 
ATOM     21  C   UNL     1      -0.999  17.125  30.818  1.00  0.00     0.012 A 
ATOM     22  C   UNL     1      -3.349  17.120  29.283  1.00  0.00     0.161 A 
ATOM     23  C   UNL     1      -2.245  17.124  31.445  1.00  0.00     0.051 A 
ATOM     24  C   UNL     1      -3.419  17.118  30.683  1.00  0.00     0.157 A 
BRANCH  22  25
ATOM     25  O   UNL     1      -4.549  17.125  28.555  1.00  0.00    -0.493 OA
ATOM     26  C   UNL     1      -5.355  15.974  28.319  1.00  0.00     0.278 C 
ENDBRANCH  22  25
BRANCH  24  27
ATOM     27  O   UNL     1      -4.664  17.115  31.310  1.00  0.00    -0.504 OA
ATOM     28  H   UNL     1      -5.392  17.771  31.049  1.00  0.00     0.293 HD
ENDBRANCH  24  27
ENDBRANCH  18  19
ENDBRANCH  15  17
ENDBRANCH   1  15
TORSDOF 10
ENDMDL
