MODEL 1
REMARK VINA RESULT:    -4.530      0.000      0.000
REMARK INTER + INTRA:          -6.737
REMARK INTER:                  -6.913
REMARK INTRA:                   0.175
REMARK UNBOUND:                 0.175
REMARK SMILES CC1=CCC[C@H](C)C(=O)C[C@@H](C(C)C)C(=O)C1
REMARK SMILES IDX 8 1 9 2 6 3 7 4 5 5 4 6 3 7 2 8 1 9 10 11 11 12 15 13 16 14
REMARK SMILES IDX 17 15 12 17 13 18 14 19
REMARK H PARENT
REMARK Flexibility Score: 70.00
ROOT
ATOM      1  C   UNL     1     -13.432  13.361   3.926  1.00  0.00     0.136 C 
ATOM      2  O   UNL     1     -14.370  13.987   4.400  1.00  0.00    -0.299 OA
ENDROOT
BRANCH   1   3
ATOM      3  C   UNL     1     -12.561  12.519   4.830  1.00  0.00     0.053 C 
ATOM      4  C   UNL     1     -11.824  13.410   5.838  1.00  0.00     0.016 C 
BRANCH   3   5
ATOM      5  C   UNL     1     -13.387  11.440   5.557  1.00  0.00     0.015 C 
BRANCH   5   6
ATOM      6  C   UNL     1     -13.867  10.316   4.614  1.00  0.00     0.028 C 
BRANCH   6   7
ATOM      7  C   UNL     1     -12.863  10.045   3.517  1.00  0.00    -0.028 C 
ATOM      8  C   UNL     1     -13.051  10.180   2.181  1.00  0.00    -0.070 CG0
ATOM      9  C   UNL     1     -11.872   9.892   1.284  1.00  0.00     0.039 C 
ATOM     10  G   UNL     1     -14.363  10.575   1.526  1.00  0.00     0.000 G0
ENDBRANCH   6   7
ENDBRANCH   5   6
ENDBRANCH   3   5
ENDBRANCH   1   3
BRANCH   1  11
ATOM     11  C   UNL     1     -13.098  13.480   2.457  1.00  0.00     0.087 C 
BRANCH  11  12
ATOM     12  C   UNL     1     -14.314  13.249   1.525  1.00  0.00     0.066 C 
BRANCH  12  13
ATOM     13  C   UNL     1     -14.284  11.905   0.807  1.00  0.00     0.140 C 
ATOM     14  O   UNL     1     -14.129  11.904  -0.406  1.00  0.00    -0.299 OA
BRANCH  13  15
ATOM     15  C   UNL     1     -14.363  10.576   1.524  1.00  0.00     0.106 CG0
ATOM     16  G   UNL     1     -13.030  10.215   2.158  1.00  0.00     0.000 G0
ENDBRANCH  13  15
ENDBRANCH  12  13
BRANCH  12  17
ATOM     17  C   UNL     1     -14.554  14.450   0.562  1.00  0.00    -0.006 C 
ATOM     18  C   UNL     1     -15.437  15.563   1.151  1.00  0.00     0.008 C 
ATOM     19  C   UNL     1     -13.226  15.047   0.069  1.00  0.00     0.008 C 
ENDBRANCH  12  17
ENDBRANCH  11  12
ENDBRANCH   1  11
TORSDOF 1
ENDMDL
MODEL 2
REMARK VINA RESULT:    -4.222      1.308      2.006
REMARK INTER + INTRA:          -6.268
REMARK INTER:                  -7.188
REMARK INTRA:                   0.920
REMARK UNBOUND:                 0.175
REMARK SMILES CC1=CCC[C@H](C)C(=O)C[C@@H](C(C)C)C(=O)C1
REMARK SMILES IDX 8 1 9 2 6 3 7 4 5 5 4 6 3 7 2 8 1 9 10 11 11 12 15 13 16 14
REMARK SMILES IDX 17 15 12 17 13 18 14 19
REMARK H PARENT
REMARK Flexibility Score: 70.00
ROOT
ATOM      1  C   UNL     1     -14.090  13.217   3.949  1.00  0.00     0.136 C 
ATOM      2  O   UNL     1     -15.214  12.747   4.056  1.00  0.00    -0.299 OA
ENDROOT
BRANCH   1   3
ATOM      3  C   UNL     1     -12.923  12.524   4.613  1.00  0.00     0.053 C 
ATOM      4  C   UNL     1     -12.902  12.840   6.114  1.00  0.00     0.016 C 
BRANCH   3   5
ATOM      5  C   UNL     1     -12.966  11.002   4.377  1.00  0.00     0.015 C 
BRANCH   5   6
ATOM      6  C   UNL     1     -12.349  10.589   3.022  1.00  0.00     0.028 C 
BRANCH   6   7
ATOM      7  C   UNL     1     -13.412  10.389   1.967  1.00  0.00    -0.028 C 
ATOM      8  C   UNL     1     -13.817  11.281   1.031  1.00  0.00    -0.070 CG0
ATOM      9  C   UNL     1     -14.869  10.826   0.048  1.00  0.00     0.039 C 
ATOM     10  G   UNL     1     -13.307  12.708   0.915  1.00  0.00     0.000 G0
ENDBRANCH   6   7
ENDBRANCH   5   6
ENDBRANCH   3   5
ENDBRANCH   1   3
BRANCH   1  11
ATOM     11  C   UNL     1     -13.874  14.521   3.216  1.00  0.00     0.087 C 
BRANCH  11  12
ATOM     12  C   UNL     1     -14.780  14.690   1.972  1.00  0.00     0.066 C 
BRANCH  12  13
ATOM     13  C   UNL     1     -14.467  13.704   0.852  1.00  0.00     0.140 C 
ATOM     14  O   UNL     1     -15.149  13.749  -0.161  1.00  0.00    -0.299 OA
BRANCH  13  15
ATOM     15  C   UNL     1     -13.315  12.726   0.904  1.00  0.00     0.106 CG0
ATOM     16  G   UNL     1     -13.814  11.297   1.038  1.00  0.00     0.000 G0
ENDBRANCH  13  15
ENDBRANCH  12  13
BRANCH  12  17
ATOM     17  C   UNL     1     -14.839  16.169   1.482  1.00  0.00    -0.006 C 
ATOM     18  C   UNL     1     -13.797  16.519   0.407  1.00  0.00     0.008 C 
ATOM     19  C   UNL     1     -16.245  16.537   0.982  1.00  0.00     0.008 C 
ENDBRANCH  12  17
ENDBRANCH  11  12
ENDBRANCH   1  11
TORSDOF 1
ENDMDL
MODEL 3
REMARK VINA RESULT:    -4.013      1.855      2.994
REMARK INTER + INTRA:          -5.949
REMARK INTER:                  -7.097
REMARK INTRA:                   1.149
REMARK UNBOUND:                 0.175
REMARK SMILES CC1=CCC[C@H](C)C(=O)C[C@@H](C(C)C)C(=O)C1
REMARK SMILES IDX 8 1 9 2 6 3 7 4 5 5 4 6 3 7 2 8 1 9 10 11 11 12 15 13 16 14
REMARK SMILES IDX 17 15 12 17 13 18 14 19
REMARK H PARENT
REMARK Flexibility Score: 70.00
ROOT
ATOM      1  C   UNL     1     -14.364  13.513   3.584  1.00  0.00     0.136 C 
ATOM      2  O   UNL     1     -15.349  13.030   4.124  1.00  0.00    -0.299 OA
ENDROOT
BRANCH   1   3
ATOM      3  C   UNL     1     -13.079  12.719   3.523  1.00  0.00     0.053 C 
ATOM      4  C   UNL     1     -12.355  12.775   4.874  1.00  0.00     0.016 C 
BRANCH   3   5
ATOM      5  C   UNL     1     -13.342  11.260   3.106  1.00  0.00     0.015 C 
BRANCH   5   6
ATOM      6  C   UNL     1     -13.098  11.014   1.600  1.00  0.00     0.028 C 
BRANCH   6   7
ATOM      7  C   UNL     1     -14.286  11.439   0.769  1.00  0.00    -0.028 C 
ATOM      8  C   UNL     1     -14.393  12.548  -0.002  1.00  0.00    -0.070 CG0
ATOM      9  C   UNL     1     -15.673  12.730  -0.782  1.00  0.00     0.039 C 
ATOM     10  G   UNL     1     -13.331  13.628  -0.119  1.00  0.00     0.000 G0
ENDBRANCH   6   7
ENDBRANCH   5   6
ENDBRANCH   3   5
ENDBRANCH   1   3
BRANCH   1  11
ATOM     11  C   UNL     1     -14.403  14.923   3.042  1.00  0.00     0.087 C 
BRANCH  11  12
ATOM     12  C   UNL     1     -14.859  15.005   1.564  1.00  0.00     0.066 C 
BRANCH  12  13
ATOM     13  C   UNL     1     -13.711  14.916   0.567  1.00  0.00     0.140 C 
ATOM     14  O   UNL     1     -13.039  15.918   0.371  1.00  0.00    -0.299 OA
BRANCH  13  15
ATOM     15  C   UNL     1     -13.319  13.636  -0.137  1.00  0.00     0.106 CG0
ATOM     16  G   UNL     1     -14.395  12.575   0.015  1.00  0.00     0.000 G0
ENDBRANCH  13  15
ENDBRANCH  12  13
BRANCH  12  17
ATOM     17  C   UNL     1     -15.800  16.222   1.305  1.00  0.00    -0.006 C 
ATOM     18  C   UNL     1     -15.082  17.466   0.754  1.00  0.00     0.008 C 
ATOM     19  C   UNL     1     -16.965  15.841   0.378  1.00  0.00     0.008 C 
ENDBRANCH  12  17
ENDBRANCH  11  12
ENDBRANCH   1  11
TORSDOF 1
ENDMDL
MODEL 4
REMARK VINA RESULT:    -3.977      1.538      3.789
REMARK INTER + INTRA:          -5.894
REMARK INTER:                  -5.801
REMARK INTRA:                  -0.093
REMARK UNBOUND:                 0.175
REMARK SMILES CC1=CCC[C@H](C)C(=O)C[C@@H](C(C)C)C(=O)C1
REMARK SMILES IDX 8 1 9 2 6 3 7 4 5 5 4 6 3 7 2 8 1 9 10 11 11 12 15 13 16 14
REMARK SMILES IDX 17 15 12 17 13 18 14 19
REMARK H PARENT
REMARK Flexibility Score: 70.00
ROOT
ATOM      1  C   UNL     1     -14.150  11.451   0.879  1.00  0.00     0.136 C 
ATOM      2  O   UNL     1     -14.118  11.535  -0.340  1.00  0.00    -0.299 OA
ENDROOT
BRANCH   1   3
ATOM      3  C   UNL     1     -13.638  10.200   1.557  1.00  0.00     0.053 C 
ATOM      4  C   UNL     1     -12.128  10.055   1.333  1.00  0.00     0.016 C 
BRANCH   3   5
ATOM      5  C   UNL     1     -13.968  10.205   3.062  1.00  0.00     0.015 C 
BRANCH   5   6
ATOM      6  C   UNL     1     -12.707  10.163   3.952  1.00  0.00     0.028 C 
BRANCH   6   7
ATOM      7  C   UNL     1     -12.926  10.885   5.261  1.00  0.00    -0.028 C 
ATOM      8  C   UNL     1     -12.838  12.219   5.487  1.00  0.00    -0.070 CG0
ATOM      9  C   UNL     1     -13.151  12.708   6.880  1.00  0.00     0.039 C 
ATOM     10  G   UNL     1     -12.425  13.248   4.448  1.00  0.00     0.000 G0
ENDBRANCH   6   7
ENDBRANCH   5   6
ENDBRANCH   3   5
ENDBRANCH   1   3
BRANCH   1  11
ATOM     11  C   UNL     1     -14.761  12.558   1.706  1.00  0.00     0.087 C 
BRANCH  11  12
ATOM     12  C   UNL     1     -13.741  13.639   2.144  1.00  0.00     0.066 C 
BRANCH  12  13
ATOM     13  C   UNL     1     -13.609  13.775   3.656  1.00  0.00     0.140 C 
ATOM     14  O   UNL     1     -14.539  14.277   4.272  1.00  0.00    -0.299 OA
BRANCH  13  15
ATOM     15  C   UNL     1     -12.422  13.257   4.437  1.00  0.00     0.106 CG0
ATOM     16  G   UNL     1     -12.851  12.225   5.466  1.00  0.00     0.000 G0
ENDBRANCH  13  15
ENDBRANCH  12  13
BRANCH  12  17
ATOM     17  C   UNL     1     -13.984  15.002   1.428  1.00  0.00    -0.006 C 
ATOM     18  C   UNL     1     -12.957  15.328   0.330  1.00  0.00     0.008 C 
ATOM     19  C   UNL     1     -15.406  15.086   0.851  1.00  0.00     0.008 C 
ENDBRANCH  12  17
ENDBRANCH  11  12
ENDBRANCH   1  11
TORSDOF 1
ENDMDL
MODEL 5
REMARK VINA RESULT:    -3.687      1.539      4.287
REMARK INTER + INTRA:          -5.452
REMARK INTER:                  -5.503
REMARK INTRA:                   0.051
REMARK UNBOUND:                 0.175
REMARK SMILES CC1=CCC[C@H](C)C(=O)C[C@@H](C(C)C)C(=O)C1
REMARK SMILES IDX 8 1 9 2 6 3 7 4 5 5 4 6 3 7 2 8 1 9 10 11 11 12 15 13 16 14
REMARK SMILES IDX 17 15 12 17 13 18 14 19
REMARK H PARENT
REMARK Flexibility Score: 70.00
ROOT
ATOM      1  C   UNL     1     -14.479  14.378   2.891  1.00  0.00     0.136 C 
ATOM      2  O   UNL     1     -14.054  15.284   3.593  1.00  0.00    -0.299 OA
ENDROOT
BRANCH   1   3
ATOM      3  C   UNL     1     -14.937  14.675   1.481  1.00  0.00     0.053 C 
ATOM      4  C   UNL     1     -15.884  15.882   1.474  1.00  0.00     0.016 C 
BRANCH   3   5
ATOM      5  C   UNL     1     -13.740  14.917   0.542  1.00  0.00     0.015 C 
BRANCH   5   6
ATOM      6  C   UNL     1     -13.619  13.844  -0.562  1.00  0.00     0.028 C 
BRANCH   6   7
ATOM      7  C   UNL     1     -14.576  12.698  -0.330  1.00  0.00    -0.028 C 
ATOM      8  C   UNL     1     -14.350  11.575   0.394  1.00  0.00    -0.070 CG0
ATOM      9  C   UNL     1     -15.488  10.591   0.519  1.00  0.00     0.039 C 
ATOM     10  G   UNL     1     -13.033  11.227   1.067  1.00  0.00     0.000 G0
ENDBRANCH   6   7
ENDBRANCH   5   6
ENDBRANCH   3   5
ENDBRANCH   1   3
BRANCH   1  11
ATOM     11  C   UNL     1     -14.614  12.979   3.446  1.00  0.00     0.087 C 
BRANCH  11  12
ATOM     12  C   UNL     1     -13.271  12.213   3.528  1.00  0.00     0.066 C 
BRANCH  12  13
ATOM     13  C   UNL     1     -13.175  11.045   2.554  1.00  0.00     0.140 C 
ATOM     14  O   UNL     1     -13.278   9.912   3.002  1.00  0.00    -0.299 OA
BRANCH  13  15
ATOM     15  C   UNL     1     -13.032  11.219   1.058  1.00  0.00     0.106 CG0
ATOM     16  G   UNL     1     -14.365  11.567   0.417  1.00  0.00     0.000 G0
ENDBRANCH  13  15
ENDBRANCH  12  13
BRANCH  12  17
ATOM     17  C   UNL     1     -12.906  11.818   4.991  1.00  0.00    -0.006 C 
ATOM     18  C   UNL     1     -12.038  12.854   5.726  1.00  0.00     0.008 C 
ATOM     19  C   UNL     1     -14.165  11.514   5.819  1.00  0.00     0.008 C 
ENDBRANCH  12  17
ENDBRANCH  11  12
ENDBRANCH   1  11
TORSDOF 1
ENDMDL
MODEL 6
REMARK VINA RESULT:    -3.055      1.791      4.801
REMARK INTER + INTRA:          -4.487
REMARK INTER:                  -6.883
REMARK INTRA:                   2.396
REMARK UNBOUND:                 0.175
REMARK SMILES CC1=CCC[C@H](C)C(=O)C[C@@H](C(C)C)C(=O)C1
REMARK SMILES IDX 8 1 9 2 6 3 7 4 5 5 4 6 3 7 2 8 1 9 10 11 11 12 15 13 16 14
REMARK SMILES IDX 17 15 12 17 13 18 14 19
REMARK H PARENT
REMARK Flexibility Score: 70.00
ROOT
ATOM      1  C   UNL     1     -13.132  10.562   3.281  1.00  0.00     0.136 C 
ATOM      2  O   UNL     1     -12.270   9.964   3.909  1.00  0.00    -0.299 OA
ENDROOT
BRANCH   1   3
ATOM      3  C   UNL     1     -12.904  10.890   1.823  1.00  0.00     0.053 C 
ATOM      4  C   UNL     1     -11.941   9.876   1.195  1.00  0.00     0.016 C 
BRANCH   3   5
ATOM      5  C   UNL     1     -14.234  10.934   1.045  1.00  0.00     0.015 C 
BRANCH   5   6
ATOM      6  C   UNL     1     -14.221  11.965  -0.105  1.00  0.00     0.028 C 
BRANCH   6   7
ATOM      7  C   UNL     1     -14.792  13.293   0.334  1.00  0.00    -0.028 C 
ATOM      8  C   UNL     1     -14.466  14.001   1.443  1.00  0.00    -0.070 CG0
ATOM      9  C   UNL     1     -15.145  15.334   1.639  1.00  0.00     0.039 C 
ATOM     10  G   UNL     1     -13.486  13.539   2.509  1.00  0.00     0.000 G0
ENDBRANCH   6   7
ENDBRANCH   5   6
ENDBRANCH   3   5
ENDBRANCH   1   3
BRANCH   1  11
ATOM     11  C   UNL     1     -14.390  11.037   3.971  1.00  0.00     0.087 C 
BRANCH  11  12
ATOM     12  C   UNL     1     -14.198  12.348   4.773  1.00  0.00     0.066 C 
BRANCH  12  13
ATOM     13  C   UNL     1     -14.064  13.586   3.894  1.00  0.00     0.140 C 
ATOM     14  O   UNL     1     -14.409  14.662   4.359  1.00  0.00    -0.299 OA
BRANCH  13  15
ATOM     15  C   UNL     1     -13.462  13.559   2.507  1.00  0.00     0.106 CG0
ATOM     16  G   UNL     1     -14.471  14.005   1.462  1.00  0.00     0.000 G0
ENDBRANCH  13  15
ENDBRANCH  12  13
BRANCH  12  17
ATOM     17  C   UNL     1     -13.062  12.229   5.834  1.00  0.00    -0.006 C 
ATOM     18  C   UNL     1     -11.906  13.224   5.635  1.00  0.00     0.008 C 
ATOM     19  C   UNL     1     -13.616  12.355   7.263  1.00  0.00     0.008 C 
ENDBRANCH  12  17
ENDBRANCH  11  12
ENDBRANCH   1  11
TORSDOF 1
ENDMDL
MODEL 7
REMARK VINA RESULT:    -3.042      2.216      5.423
REMARK INTER + INTRA:          -4.467
REMARK INTER:                  -4.763
REMARK INTRA:                   0.296
REMARK UNBOUND:                 0.175
REMARK SMILES CC1=CCC[C@H](C)C(=O)C[C@@H](C(C)C)C(=O)C1
REMARK SMILES IDX 8 1 9 2 6 3 7 4 5 5 4 6 3 7 2 8 1 9 10 11 11 12 15 13 16 14
REMARK SMILES IDX 17 15 12 17 13 18 14 19
REMARK H PARENT
REMARK Flexibility Score: 70.00
ROOT
ATOM      1  C   UNL     1     -13.594  11.472   1.328  1.00  0.00     0.136 C 
ATOM      2  O   UNL     1     -13.568  10.332   1.769  1.00  0.00    -0.299 OA
ENDROOT
BRANCH   1   3
ATOM      3  C   UNL     1     -14.020  11.711  -0.103  1.00  0.00     0.053 C 
ATOM      4  C   UNL     1     -15.269  10.884  -0.430  1.00  0.00     0.016 C 
BRANCH   3   5
ATOM      5  C   UNL     1     -14.273  13.208  -0.369  1.00  0.00     0.015 C 
BRANCH   5   6
ATOM      6  C   UNL     1     -15.736  13.625  -0.105  1.00  0.00     0.028 C 
BRANCH   6   7
ATOM      7  C   UNL     1     -15.864  15.120   0.071  1.00  0.00    -0.028 C 
ATOM      8  C   UNL     1     -15.133  15.916   0.890  1.00  0.00    -0.070 CG0
ATOM      9  C   UNL     1     -15.419  17.397   0.853  1.00  0.00     0.039 C 
ATOM     10  G   UNL     1     -14.067  15.421   1.854  1.00  0.00     0.000 G0
ENDBRANCH   6   7
ENDBRANCH   5   6
ENDBRANCH   3   5
ENDBRANCH   1   3
BRANCH   1  11
ATOM     11  C   UNL     1     -13.137  12.633   2.180  1.00  0.00     0.087 C 
BRANCH  11  12
ATOM     12  C   UNL     1     -14.209  13.123   3.185  1.00  0.00     0.066 C 
BRANCH  12  13
ATOM     13  C   UNL     1     -14.651  14.562   2.951  1.00  0.00     0.140 C 
ATOM     14  O   UNL     1     -15.482  15.040   3.711  1.00  0.00    -0.299 OA
BRANCH  13  15
ATOM     15  C   UNL     1     -14.064  15.448   1.876  1.00  0.00     0.106 CG0
ATOM     16  G   UNL     1     -15.131  15.897   0.892  1.00  0.00     0.000 G0
ENDBRANCH  13  15
ENDBRANCH  12  13
BRANCH  12  17
ATOM     17  C   UNL     1     -13.801  12.843   4.664  1.00  0.00    -0.006 C 
ATOM     18  C   UNL     1     -14.071  11.402   5.130  1.00  0.00     0.008 C 
ATOM     19  C   UNL     1     -12.328  13.204   4.916  1.00  0.00     0.008 C 
ENDBRANCH  12  17
ENDBRANCH  11  12
ENDBRANCH   1  11
TORSDOF 1
ENDMDL
MODEL 8
REMARK VINA RESULT:    -2.756      1.872      3.669
REMARK INTER + INTRA:          -4.031
REMARK INTER:                  -4.736
REMARK INTRA:                   0.705
REMARK UNBOUND:                 0.175
REMARK SMILES CC1=CCC[C@H](C)C(=O)C[C@@H](C(C)C)C(=O)C1
REMARK SMILES IDX 8 1 9 2 6 3 7 4 5 5 4 6 3 7 2 8 1 9 10 11 11 12 15 13 16 14
REMARK SMILES IDX 17 15 12 17 13 18 14 19
REMARK H PARENT
REMARK Flexibility Score: 70.00
ROOT
ATOM      1  C   UNL     1     -13.436  15.135   0.695  1.00  0.00     0.136 C 
ATOM      2  O   UNL     1     -13.169  15.747  -0.329  1.00  0.00    -0.299 OA
ENDROOT
BRANCH   1   3
ATOM      3  C   UNL     1     -14.285  15.791   1.759  1.00  0.00     0.053 C 
ATOM      4  C   UNL     1     -15.771  15.510   1.502  1.00  0.00     0.016 C 
BRANCH   3   5
ATOM      5  C   UNL     1     -13.878  15.320   3.169  1.00  0.00     0.015 C 
BRANCH   5   6
ATOM      6  C   UNL     1     -14.813  14.226   3.729  1.00  0.00     0.028 C 
BRANCH   6   7
ATOM      7  C   UNL     1     -14.074  13.280   4.646  1.00  0.00    -0.028 C 
ATOM      8  C   UNL     1     -13.826  11.963   4.440  1.00  0.00    -0.070 CG0
ATOM      9  C   UNL     1     -13.020  11.238   5.489  1.00  0.00     0.039 C 
ATOM     10  G   UNL     1     -14.318  11.166   3.244  1.00  0.00     0.000 G0
ENDBRANCH   6   7
ENDBRANCH   5   6
ENDBRANCH   3   5
ENDBRANCH   1   3
BRANCH   1  11
ATOM     11  C   UNL     1     -12.866  13.755   0.932  1.00  0.00     0.087 C 
BRANCH  11  12
ATOM     12  C   UNL     1     -13.946  12.653   1.061  1.00  0.00     0.066 C 
BRANCH  12  13
ATOM     13  C   UNL     1     -13.547  11.516   1.993  1.00  0.00     0.140 C 
ATOM     14  O   UNL     1     -12.519  10.902   1.746  1.00  0.00    -0.299 OA
BRANCH  13  15
ATOM     15  C   UNL     1     -14.318  11.156   3.244  1.00  0.00     0.106 CG0
ATOM     16  G   UNL     1     -13.831  11.959   4.438  1.00  0.00     0.000 G0
ENDBRANCH  13  15
ENDBRANCH  12  13
BRANCH  12  17
ATOM     17  C   UNL     1     -14.448  12.155  -0.328  1.00  0.00    -0.006 C 
ATOM     18  C   UNL     1     -14.828  10.665  -0.364  1.00  0.00     0.008 C 
ATOM     19  C   UNL     1     -15.625  13.003  -0.835  1.00  0.00     0.008 C 
ENDBRANCH  12  17
ENDBRANCH  11  12
ENDBRANCH   1  11
TORSDOF 1
ENDMDL
MODEL 9
REMARK VINA RESULT:    -2.367      1.744      4.855
REMARK INTER + INTRA:          -3.437
REMARK INTER:                  -4.297
REMARK INTRA:                   0.859
REMARK UNBOUND:                 0.175
REMARK SMILES CC1=CCC[C@H](C)C(=O)C[C@@H](C(C)C)C(=O)C1
REMARK SMILES IDX 8 1 9 2 6 3 7 4 5 5 4 6 3 7 2 8 1 9 10 11 11 12 15 13 16 14
REMARK SMILES IDX 17 15 12 17 13 18 14 19
REMARK H PARENT
REMARK Flexibility Score: 70.00
ROOT
ATOM      1  C   UNL     1     -14.360  12.666   0.198  1.00  0.00     0.136 C 
ATOM      2  O   UNL     1     -14.920  11.866  -0.537  1.00  0.00    -0.299 OA
ENDROOT
BRANCH   1   3
ATOM      3  C   UNL     1     -14.645  14.143   0.053  1.00  0.00     0.053 C 
ATOM      4  C   UNL     1     -16.093  14.447   0.456  1.00  0.00     0.016 C 
BRANCH   3   5
ATOM      5  C   UNL     1     -13.660  14.988   0.882  1.00  0.00     0.015 C 
BRANCH   5   6
ATOM      6  C   UNL     1     -14.266  15.479   2.215  1.00  0.00     0.028 C 
BRANCH   6   7
ATOM      7  C   UNL     1     -13.514  14.927   3.404  1.00  0.00    -0.028 C 
ATOM      8  C   UNL     1     -13.743  13.756   4.048  1.00  0.00    -0.070 CG0
ATOM      9  C   UNL     1     -12.819  13.400   5.187  1.00  0.00     0.039 C 
ATOM     10  G   UNL     1     -14.872  12.794   3.721  1.00  0.00     0.000 G0
ENDBRANCH   6   7
ENDBRANCH   5   6
ENDBRANCH   3   5
ENDBRANCH   1   3
BRANCH   1  11
ATOM     11  C   UNL     1     -13.334  12.194   1.203  1.00  0.00     0.087 C 
BRANCH  11  12
ATOM     12  C   UNL     1     -13.812  10.994   2.058  1.00  0.00     0.066 C 
BRANCH  12  13
ATOM     13  C   UNL     1     -14.390  11.400   3.408  1.00  0.00     0.140 C 
ATOM     14  O   UNL     1     -14.404  10.567   4.303  1.00  0.00    -0.299 OA
BRANCH  13  15
ATOM     15  C   UNL     1     -14.880  12.798   3.716  1.00  0.00     0.106 CG0
ATOM     16  G   UNL     1     -13.720  13.730   4.024  1.00  0.00     0.000 G0
ENDBRANCH  13  15
ENDBRANCH  12  13
BRANCH  12  17
ATOM     17  C   UNL     1     -12.726   9.881   2.170  1.00  0.00    -0.006 C 
ATOM     18  C   UNL     1     -11.703   9.882   1.022  1.00  0.00     0.008 C 
ATOM     19  C   UNL     1     -11.993   9.948   3.519  1.00  0.00     0.008 C 
ENDBRANCH  12  17
ENDBRANCH  11  12
ENDBRANCH   1  11
TORSDOF 1
ENDMDL
