MODEL 1
REMARK VINA RESULT:    -5.007      0.000      0.000
REMARK INTER + INTRA:         -15.670
REMARK INTER:                 -13.202
REMARK INTRA:                  -2.468
REMARK UNBOUND:                -2.468
REMARK SMILES CCCCCCCCCCCCCCCCCCCCCCCCCCCCCC(=O)[O-]
REMARK SMILES IDX 16 1 17 2 18 3 19 4 20 5 21 6 22 7 23 8 24 9 25 10 26 11
REMARK SMILES IDX 27 12 28 13 29 14 30 15 31 16 32 17 15 18 14 19 13 20 12 21
REMARK SMILES IDX 11 22 10 23 9 24 8 25 7 26 6 27 5 28 4 29 3 30 2 31 1 32
REMARK H PARENT
REMARK Flexibility Score: inf
ROOT
ATOM      1  C   UNL     1      61.779  33.964  18.835  1.00  0.00     0.000 C 
ENDROOT
BRANCH   1   2
ATOM      2  C   UNL     1      62.359  34.581  17.544  1.00  0.00     0.000 C 
BRANCH   2   3
ATOM      3  C   UNL     1      62.576  33.602  16.371  1.00  0.00     0.000 C 
BRANCH   3   4
ATOM      4  C   UNL     1      61.669  32.350  16.381  1.00  0.00     0.000 C 
BRANCH   4   5
ATOM      5  C   UNL     1      60.559  32.367  15.312  1.00  0.00     0.000 C 
BRANCH   5   6
ATOM      6  C   UNL     1      60.821  33.275  14.093  1.00  0.00     0.000 C 
BRANCH   6   7
ATOM      7  C   UNL     1      61.343  32.560  12.833  1.00  0.00     0.000 C 
BRANCH   7   8
ATOM      8  C   UNL     1      62.874  32.409  12.813  1.00  0.00     0.000 C 
BRANCH   8   9
ATOM      9  C   UNL     1      63.329  30.952  12.609  1.00  0.00     0.000 C 
BRANCH   9  10
ATOM     10  C   UNL     1      63.960  30.645  11.240  1.00  0.00     0.000 C 
BRANCH  10  11
ATOM     11  C   UNL     1      63.428  29.344  10.614  1.00  0.00     0.000 C 
BRANCH  11  12
ATOM     12  C   UNL     1      62.142  29.572   9.803  1.00  0.00     0.000 C 
BRANCH  12  13
ATOM     13  C   UNL     1      60.981  28.682  10.283  1.00  0.00     0.006 C 
BRANCH  13  14
ATOM     14  C   UNL     1      60.094  29.390  11.317  1.00  0.00     0.053 C 
BRANCH  14  15
ATOM     15  C   UNL     1      59.969  28.599  12.584  1.00  0.00     0.041 C 
ATOM     16  O   UNL     1      60.936  28.536  13.390  1.00  0.00    -0.550 OA
ATOM     17  O   UNL     1      58.773  27.964  12.890  1.00  0.00    -0.550 OA
ENDBRANCH  14  15
ENDBRANCH  13  14
ENDBRANCH  12  13
ENDBRANCH  11  12
ENDBRANCH  10  11
ENDBRANCH   9  10
ENDBRANCH   8   9
ENDBRANCH   7   8
ENDBRANCH   6   7
ENDBRANCH   5   6
ENDBRANCH   4   5
ENDBRANCH   3   4
ENDBRANCH   2   3
ENDBRANCH   1   2
BRANCH   1  18
ATOM     18  C   UNL     1      62.810  33.626  19.923  1.00  0.00     0.000 C 
BRANCH  18  19
ATOM     19  C   UNL     1      64.079  34.488  19.832  1.00  0.00     0.000 C 
BRANCH  19  20
ATOM     20  C   UNL     1      64.924  34.406  21.114  1.00  0.00     0.000 C 
BRANCH  20  21
ATOM     21  C   UNL     1      64.270  33.510  22.181  1.00  0.00     0.000 C 
BRANCH  21  22
ATOM     22  C   UNL     1      65.213  32.414  22.704  1.00  0.00     0.000 C 
BRANCH  22  23
ATOM     23  C   UNL     1      64.565  31.482  23.750  1.00  0.00     0.000 C 
BRANCH  23  24
ATOM     24  C   UNL     1      65.435  30.250  24.055  1.00  0.00    -0.000 C 
BRANCH  24  25
ATOM     25  C   UNL     1      65.140  29.653  25.447  1.00  0.00    -0.000 C 
BRANCH  25  26
ATOM     26  C   UNL     1      63.998  30.365  26.195  1.00  0.00    -0.000 C 
BRANCH  26  27
ATOM     27  C   UNL     1      64.230  30.441  27.711  1.00  0.00    -0.000 C 
BRANCH  27  28
ATOM     28  C   UNL     1      62.955  30.110  28.516  1.00  0.00    -0.000 C 
BRANCH  28  29
ATOM     29  C   UNL     1      62.558  28.625  28.446  1.00  0.00    -0.000 C 
BRANCH  29  30
ATOM     30  C   UNL     1      61.318  28.383  27.571  1.00  0.00    -0.000 C 
BRANCH  30  31
ATOM     31  C   UNL     1      61.536  27.266  26.539  1.00  0.00    -0.003 C 
ATOM     32  C   UNL     1      60.423  27.203  25.494  1.00  0.00     0.004 C 
ENDBRANCH  30  31
ENDBRANCH  29  30
ENDBRANCH  28  29
ENDBRANCH  27  28
ENDBRANCH  26  27
ENDBRANCH  25  26
ENDBRANCH  24  25
ENDBRANCH  23  24
ENDBRANCH  22  23
ENDBRANCH  21  22
ENDBRANCH  20  21
ENDBRANCH  19  20
ENDBRANCH  18  19
ENDBRANCH   1  18
TORSDOF 28
ENDMDL
MODEL 2
REMARK VINA RESULT:    -5.003      3.166     11.487
REMARK INTER + INTRA:         -15.662
REMARK INTER:                 -12.508
REMARK INTRA:                  -3.154
REMARK UNBOUND:                -2.468
REMARK SMILES CCCCCCCCCCCCCCCCCCCCCCCCCCCCCC(=O)[O-]
REMARK SMILES IDX 16 1 17 2 18 3 19 4 20 5 21 6 22 7 23 8 24 9 25 10 26 11
REMARK SMILES IDX 27 12 28 13 29 14 30 15 31 16 32 17 15 18 14 19 13 20 12 21
REMARK SMILES IDX 11 22 10 23 9 24 8 25 7 26 6 27 5 28 4 29 3 30 2 31 1 32
REMARK H PARENT
REMARK Flexibility Score: inf
ROOT
ATOM      1  C   UNL     1      65.184  30.899  23.388  1.00  0.00     0.000 C 
ENDROOT
BRANCH   1   2
ATOM      2  C   UNL     1      66.612  30.606  23.896  1.00  0.00     0.000 C 
BRANCH   2   3
ATOM      3  C   UNL     1      66.720  29.567  25.031  1.00  0.00     0.000 C 
BRANCH   3   4
ATOM      4  C   UNL     1      66.460  30.114  26.453  1.00  0.00     0.000 C 
BRANCH   4   5
ATOM      5  C   UNL     1      65.201  29.538  27.130  1.00  0.00     0.000 C 
BRANCH   5   6
ATOM      6  C   UNL     1      63.937  30.416  27.043  1.00  0.00     0.000 C 
BRANCH   6   7
ATOM      7  C   UNL     1      62.628  29.665  26.733  1.00  0.00     0.000 C 
BRANCH   7   8
ATOM      8  C   UNL     1      62.269  29.665  25.237  1.00  0.00     0.000 C 
BRANCH   8   9
ATOM      9  C   UNL     1      62.807  28.429  24.494  1.00  0.00     0.000 C 
BRANCH   9  10
ATOM     10  C   UNL     1      62.459  27.073  25.134  1.00  0.00     0.000 C 
BRANCH  10  11
ATOM     11  C   UNL     1      63.507  25.986  24.840  1.00  0.00     0.000 C 
BRANCH  11  12
ATOM     12  C   UNL     1      64.929  26.434  25.213  1.00  0.00     0.000 C 
BRANCH  12  13
ATOM     13  C   UNL     1      65.977  25.976  24.181  1.00  0.00     0.006 C 
BRANCH  13  14
ATOM     14  C   UNL     1      65.400  25.898  22.761  1.00  0.00     0.053 C 
BRANCH  14  15
ATOM     15  C   UNL     1      66.236  26.652  21.773  1.00  0.00     0.041 C 
ATOM     16  O   UNL     1      66.479  27.876  21.951  1.00  0.00    -0.550 OA
ATOM     17  O   UNL     1      66.778  25.995  20.677  1.00  0.00    -0.550 OA
ENDBRANCH  14  15
ENDBRANCH  13  14
ENDBRANCH  12  13
ENDBRANCH  11  12
ENDBRANCH  10  11
ENDBRANCH   9  10
ENDBRANCH   8   9
ENDBRANCH   7   8
ENDBRANCH   6   7
ENDBRANCH   5   6
ENDBRANCH   4   5
ENDBRANCH   3   4
ENDBRANCH   2   3
ENDBRANCH   1   2
BRANCH   1  18
ATOM     18  C   UNL     1      64.745  32.370  23.474  1.00  0.00     0.000 C 
BRANCH  18  19
ATOM     19  C   UNL     1      64.987  33.143  22.168  1.00  0.00     0.000 C 
BRANCH  19  20
ATOM     20  C   UNL     1      63.727  33.889  21.699  1.00  0.00     0.000 C 
BRANCH  20  21
ATOM     21  C   UNL     1      63.606  33.910  20.164  1.00  0.00     0.000 C 
BRANCH  21  22
ATOM     22  C   UNL     1      62.148  33.911  19.678  1.00  0.00     0.000 C 
BRANCH  22  23
ATOM     23  C   UNL     1      61.980  34.378  18.216  1.00  0.00     0.000 C 
BRANCH  23  24
ATOM     24  C   UNL     1      63.234  34.105  17.366  1.00  0.00    -0.000 C 
BRANCH  24  25
ATOM     25  C   UNL     1      62.900  33.914  15.872  1.00  0.00    -0.000 C 
BRANCH  25  26
ATOM     26  C   UNL     1      61.405  33.675  15.599  1.00  0.00    -0.000 C 
BRANCH  26  27
ATOM     27  C   UNL     1      61.111  33.322  14.133  1.00  0.00    -0.000 C 
BRANCH  27  28
ATOM     28  C   UNL     1      60.547  31.894  13.975  1.00  0.00    -0.000 C 
BRANCH  28  29
ATOM     29  C   UNL     1      61.244  30.860  14.876  1.00  0.00    -0.000 C 
BRANCH  29  30
ATOM     30  C   UNL     1      61.796  29.661  14.087  1.00  0.00    -0.000 C 
BRANCH  30  31
ATOM     31  C   UNL     1      61.118  29.496  12.719  1.00  0.00    -0.003 C 
ATOM     32  C   UNL     1      59.978  28.479  12.743  1.00  0.00     0.004 C 
ENDBRANCH  30  31
ENDBRANCH  29  30
ENDBRANCH  28  29
ENDBRANCH  27  28
ENDBRANCH  26  27
ENDBRANCH  25  26
ENDBRANCH  24  25
ENDBRANCH  23  24
ENDBRANCH  22  23
ENDBRANCH  21  22
ENDBRANCH  20  21
ENDBRANCH  19  20
ENDBRANCH  18  19
ENDBRANCH   1  18
TORSDOF 28
ENDMDL
MODEL 3
REMARK VINA RESULT:    -4.961      3.721     11.923
REMARK INTER + INTRA:         -15.550
REMARK INTER:                 -12.283
REMARK INTRA:                  -3.267
REMARK UNBOUND:                -2.468
REMARK SMILES CCCCCCCCCCCCCCCCCCCCCCCCCCCCCC(=O)[O-]
REMARK SMILES IDX 16 1 17 2 18 3 19 4 20 5 21 6 22 7 23 8 24 9 25 10 26 11
REMARK SMILES IDX 27 12 28 13 29 14 30 15 31 16 32 17 15 18 14 19 13 20 12 21
REMARK SMILES IDX 11 22 10 23 9 24 8 25 7 26 6 27 5 28 4 29 3 30 2 31 1 32
REMARK H PARENT
REMARK Flexibility Score: inf
ROOT
ATOM      1  C   UNL     1      63.845  33.453  16.161  1.00  0.00     0.000 C 
ENDROOT
BRANCH   1   2
ATOM      2  C   UNL     1      63.417  34.476  17.236  1.00  0.00     0.000 C 
BRANCH   2   3
ATOM      3  C   UNL     1      63.725  34.083  18.696  1.00  0.00     0.000 C 
BRANCH   3   4
ATOM      4  C   UNL     1      65.176  34.349  19.159  1.00  0.00     0.000 C 
BRANCH   4   5
ATOM      5  C   UNL     1      65.368  34.311  20.687  1.00  0.00     0.000 C 
BRANCH   5   6
ATOM      6  C   UNL     1      64.158  33.804  21.499  1.00  0.00     0.000 C 
BRANCH   6   7
ATOM      7  C   UNL     1      64.501  33.013  22.775  1.00  0.00     0.000 C 
BRANCH   7   8
ATOM      8  C   UNL     1      65.898  32.369  22.732  1.00  0.00     0.000 C 
BRANCH   8   9
ATOM      9  C   UNL     1      65.950  31.008  23.451  1.00  0.00     0.000 C 
BRANCH   9  10
ATOM     10  C   UNL     1      64.618  30.533  24.057  1.00  0.00     0.000 C 
BRANCH  10  11
ATOM     11  C   UNL     1      64.490  29.000  24.093  1.00  0.00     0.000 C 
BRANCH  11  12
ATOM     12  C   UNL     1      65.196  28.387  25.315  1.00  0.00     0.000 C 
BRANCH  12  13
ATOM     13  C   UNL     1      64.652  26.989  25.664  1.00  0.00     0.006 C 
BRANCH  13  14
ATOM     14  C   UNL     1      63.151  26.858  25.372  1.00  0.00     0.053 C 
BRANCH  14  15
ATOM     15  C   UNL     1      62.313  27.291  26.536  1.00  0.00     0.041 C 
ATOM     16  O   UNL     1      62.635  26.958  27.708  1.00  0.00    -0.550 OA
ATOM     17  O   UNL     1      61.198  28.092  26.329  1.00  0.00    -0.550 OA
ENDBRANCH  14  15
ENDBRANCH  13  14
ENDBRANCH  12  13
ENDBRANCH  11  12
ENDBRANCH  10  11
ENDBRANCH   9  10
ENDBRANCH   8   9
ENDBRANCH   7   8
ENDBRANCH   6   7
ENDBRANCH   5   6
ENDBRANCH   4   5
ENDBRANCH   3   4
ENDBRANCH   2   3
ENDBRANCH   1   2
BRANCH   1  18
ATOM     18  C   UNL     1      64.412  34.058  14.868  1.00  0.00     0.000 C 
BRANCH  18  19
ATOM     19  C   UNL     1      65.294  33.072  14.084  1.00  0.00     0.000 C 
BRANCH  19  20
ATOM     20  C   UNL     1      64.844  32.936  12.620  1.00  0.00     0.000 C 
BRANCH  20  21
ATOM     21  C   UNL     1      64.728  31.464  12.184  1.00  0.00     0.000 C 
BRANCH  21  22
ATOM     22  C   UNL     1      63.779  31.264  10.992  1.00  0.00     0.000 C 
BRANCH  22  23
ATOM     23  C   UNL     1      63.988  29.928  10.248  1.00  0.00     0.000 C 
BRANCH  23  24
ATOM     24  C   UNL     1      62.726  29.046  10.264  1.00  0.00    -0.000 C 
BRANCH  24  25
ATOM     25  C   UNL     1      61.552  29.714  11.008  1.00  0.00    -0.000 C 
BRANCH  25  26
ATOM     26  C   UNL     1      60.689  28.727  11.815  1.00  0.00    -0.000 C 
BRANCH  26  27
ATOM     27  C   UNL     1      60.789  28.942  13.332  1.00  0.00    -0.000 C 
BRANCH  27  28
ATOM     28  C   UNL     1      62.159  29.514  13.753  1.00  0.00    -0.000 C 
BRANCH  28  29
ATOM     29  C   UNL     1      62.063  30.569  14.869  1.00  0.00    -0.000 C 
BRANCH  29  30
ATOM     30  C   UNL     1      60.723  31.322  14.861  1.00  0.00    -0.000 C 
BRANCH  30  31
ATOM     31  C   UNL     1      60.871  32.779  14.398  1.00  0.00    -0.003 C 
ATOM     32  C   UNL     1      61.110  32.900  12.893  1.00  0.00     0.004 C 
ENDBRANCH  30  31
ENDBRANCH  29  30
ENDBRANCH  28  29
ENDBRANCH  27  28
ENDBRANCH  26  27
ENDBRANCH  25  26
ENDBRANCH  24  25
ENDBRANCH  23  24
ENDBRANCH  22  23
ENDBRANCH  21  22
ENDBRANCH  20  21
ENDBRANCH  19  20
ENDBRANCH  18  19
ENDBRANCH   1  18
TORSDOF 28
ENDMDL
MODEL 4
REMARK VINA RESULT:    -4.907      3.531     12.069
REMARK INTER + INTRA:         -15.407
REMARK INTER:                 -12.734
REMARK INTRA:                  -2.673
REMARK UNBOUND:                -2.468
REMARK SMILES CCCCCCCCCCCCCCCCCCCCCCCCCCCCCC(=O)[O-]
REMARK SMILES IDX 16 1 17 2 18 3 19 4 20 5 21 6 22 7 23 8 24 9 25 10 26 11
REMARK SMILES IDX 27 12 28 13 29 14 30 15 31 16 32 17 15 18 14 19 13 20 12 21
REMARK SMILES IDX 11 22 10 23 9 24 8 25 7 26 6 27 5 28 4 29 3 30 2 31 1 32
REMARK H PARENT
REMARK Flexibility Score: inf
ROOT
ATOM      1  C   UNL     1      61.609  34.129  18.320  1.00  0.00     0.000 C 
ENDROOT
BRANCH   1   2
ATOM      2  C   UNL     1      62.120  33.903  19.759  1.00  0.00     0.000 C 
BRANCH   2   3
ATOM      3  C   UNL     1      63.649  33.977  19.948  1.00  0.00     0.000 C 
BRANCH   3   4
ATOM      4  C   UNL     1      64.135  33.928  21.414  1.00  0.00     0.000 C 
BRANCH   4   5
ATOM      5  C   UNL     1      65.589  33.443  21.581  1.00  0.00     0.000 C 
BRANCH   5   6
ATOM      6  C   UNL     1      65.831  32.450  22.736  1.00  0.00     0.000 C 
BRANCH   6   7
ATOM      7  C   UNL     1      64.573  32.012  23.508  1.00  0.00     0.000 C 
BRANCH   7   8
ATOM      8  C   UNL     1      64.706  30.617  24.143  1.00  0.00     0.000 C 
BRANCH   8   9
ATOM      9  C   UNL     1      64.284  29.484  23.190  1.00  0.00     0.000 C 
BRANCH   9  10
ATOM     10  C   UNL     1      65.424  28.569  22.709  1.00  0.00     0.000 C 
BRANCH  10  11
ATOM     11  C   UNL     1      66.275  28.015  23.866  1.00  0.00     0.000 C 
BRANCH  11  12
ATOM     12  C   UNL     1      65.915  26.559  24.207  1.00  0.00     0.000 C 
BRANCH  12  13
ATOM     13  C   UNL     1      64.985  26.457  25.430  1.00  0.00     0.006 C 
BRANCH  13  14
ATOM     14  C   UNL     1      63.516  26.262  25.030  1.00  0.00     0.053 C 
BRANCH  14  15
ATOM     15  C   UNL     1      62.617  27.261  25.693  1.00  0.00     0.041 C 
ATOM     16  O   UNL     1      63.103  28.172  26.414  1.00  0.00    -0.550 OA
ATOM     17  O   UNL     1      61.245  27.205  25.485  1.00  0.00    -0.550 OA
ENDBRANCH  14  15
ENDBRANCH  13  14
ENDBRANCH  12  13
ENDBRANCH  11  12
ENDBRANCH  10  11
ENDBRANCH   9  10
ENDBRANCH   8   9
ENDBRANCH   7   8
ENDBRANCH   6   7
ENDBRANCH   5   6
ENDBRANCH   4   5
ENDBRANCH   3   4
ENDBRANCH   2   3
ENDBRANCH   1   2
BRANCH   1  18
ATOM     18  C   UNL     1      62.701  34.349  17.262  1.00  0.00     0.000 C 
BRANCH  18  19
ATOM     19  C   UNL     1      62.881  33.142  16.328  1.00  0.00     0.000 C 
BRANCH  19  20
ATOM     20  C   UNL     1      62.623  33.508  14.857  1.00  0.00     0.000 C 
BRANCH  20  21
ATOM     21  C   UNL     1      63.803  33.118  13.948  1.00  0.00     0.000 C 
BRANCH  21  22
ATOM     22  C   UNL     1      63.357  32.423  12.652  1.00  0.00     0.000 C 
BRANCH  22  23
ATOM     23  C   UNL     1      64.383  31.407  12.106  1.00  0.00     0.000 C 
BRANCH  23  24
ATOM     24  C   UNL     1      64.149  31.079  10.621  1.00  0.00    -0.000 C 
BRANCH  24  25
ATOM     25  C   UNL     1      63.698  29.619  10.406  1.00  0.00    -0.000 C 
BRANCH  25  26
ATOM     26  C   UNL     1      62.724  29.439   9.228  1.00  0.00    -0.000 C 
BRANCH  26  27
ATOM     27  C   UNL     1      61.364  28.866   9.655  1.00  0.00    -0.000 C 
BRANCH  27  28
ATOM     28  C   UNL     1      60.794  29.578  10.900  1.00  0.00    -0.000 C 
BRANCH  28  29
ATOM     29  C   UNL     1      59.818  28.705  11.708  1.00  0.00    -0.000 C 
BRANCH  29  30
ATOM     30  C   UNL     1      60.375  28.307  13.084  1.00  0.00    -0.000 C 
BRANCH  30  31
ATOM     31  C   UNL     1      61.692  29.026  13.415  1.00  0.00    -0.003 C 
ATOM     32  C   UNL     1      61.555  30.002  14.582  1.00  0.00     0.004 C 
ENDBRANCH  30  31
ENDBRANCH  29  30
ENDBRANCH  28  29
ENDBRANCH  27  28
ENDBRANCH  26  27
ENDBRANCH  25  26
ENDBRANCH  24  25
ENDBRANCH  23  24
ENDBRANCH  22  23
ENDBRANCH  21  22
ENDBRANCH  20  21
ENDBRANCH  19  20
ENDBRANCH  18  19
ENDBRANCH   1  18
TORSDOF 28
ENDMDL
MODEL 5
REMARK VINA RESULT:    -4.902      3.855     12.220
REMARK INTER + INTRA:         -15.395
REMARK INTER:                 -12.435
REMARK INTRA:                  -2.960
REMARK UNBOUND:                -2.468
REMARK SMILES CCCCCCCCCCCCCCCCCCCCCCCCCCCCCC(=O)[O-]
REMARK SMILES IDX 16 1 17 2 18 3 19 4 20 5 21 6 22 7 23 8 24 9 25 10 26 11
REMARK SMILES IDX 27 12 28 13 29 14 30 15 31 16 32 17 15 18 14 19 13 20 12 21
REMARK SMILES IDX 11 22 10 23 9 24 8 25 7 26 6 27 5 28 4 29 3 30 2 31 1 32
REMARK H PARENT
REMARK Flexibility Score: inf
ROOT
ATOM      1  C   UNL     1      61.851  33.687  17.229  1.00  0.00     0.000 C 
ENDROOT
BRANCH   1   2
ATOM      2  C   UNL     1      62.994  34.186  18.140  1.00  0.00     0.000 C 
BRANCH   2   3
ATOM      3  C   UNL     1      64.087  35.024  17.446  1.00  0.00     0.000 C 
BRANCH   3   4
ATOM      4  C   UNL     1      65.466  34.337  17.324  1.00  0.00     0.000 C 
BRANCH   4   5
ATOM      5  C   UNL     1      65.986  33.724  18.639  1.00  0.00     0.000 C 
BRANCH   5   6
ATOM      6  C   UNL     1      66.319  34.731  19.757  1.00  0.00     0.000 C 
BRANCH   6   7
ATOM      7  C   UNL     1      66.088  34.227  21.194  1.00  0.00     0.000 C 
BRANCH   7   8
ATOM      8  C   UNL     1      64.628  33.823  21.467  1.00  0.00     0.000 C 
BRANCH   8   9
ATOM      9  C   UNL     1      64.479  32.924  22.708  1.00  0.00     0.000 C 
BRANCH   9  10
ATOM     10  C   UNL     1      65.713  32.072  23.055  1.00  0.00     0.000 C 
BRANCH  10  11
ATOM     11  C   UNL     1      65.376  30.873  23.960  1.00  0.00     0.000 C 
BRANCH  11  12
ATOM     12  C   UNL     1      64.434  29.873  23.271  1.00  0.00     0.000 C 
BRANCH  12  13
ATOM     13  C   UNL     1      63.669  28.998  24.282  1.00  0.00     0.006 C 
BRANCH  13  14
ATOM     14  C   UNL     1      62.582  29.783  25.027  1.00  0.00     0.053 C 
BRANCH  14  15
ATOM     15  C   UNL     1      62.709  29.645  26.514  1.00  0.00     0.041 C 
ATOM     16  O   UNL     1      63.505  30.384  27.154  1.00  0.00    -0.550 OA
ATOM     17  O   UNL     1      61.922  28.726  27.195  1.00  0.00    -0.550 OA
ENDBRANCH  14  15
ENDBRANCH  13  14
ENDBRANCH  12  13
ENDBRANCH  11  12
ENDBRANCH  10  11
ENDBRANCH   9  10
ENDBRANCH   8   9
ENDBRANCH   7   8
ENDBRANCH   6   7
ENDBRANCH   5   6
ENDBRANCH   4   5
ENDBRANCH   3   4
ENDBRANCH   2   3
ENDBRANCH   1   2
BRANCH   1  18
ATOM     18  C   UNL     1      62.059  33.923  15.725  1.00  0.00     0.000 C 
BRANCH  18  19
ATOM     19  C   UNL     1      60.913  33.361  14.868  1.00  0.00     0.000 C 
BRANCH  19  20
ATOM     20  C   UNL     1      61.415  32.815  13.521  1.00  0.00     0.000 C 
BRANCH  20  21
ATOM     21  C   UNL     1      62.862  32.297  13.611  1.00  0.00     0.000 C 
BRANCH  21  22
ATOM     22  C   UNL     1      63.609  32.369  12.270  1.00  0.00     0.000 C 
BRANCH  22  23
ATOM     23  C   UNL     1      64.519  31.153  11.998  1.00  0.00     0.000 C 
BRANCH  23  24
ATOM     24  C   UNL     1      65.214  31.235  10.627  1.00  0.00    -0.000 C 
BRANCH  24  25
ATOM     25  C   UNL     1      64.279  30.827   9.470  1.00  0.00    -0.000 C 
BRANCH  25  26
ATOM     26  C   UNL     1      63.670  29.422   9.633  1.00  0.00    -0.000 C 
BRANCH  26  27
ATOM     27  C   UNL     1      62.327  29.262   8.907  1.00  0.00    -0.000 C 
BRANCH  27  28
ATOM     28  C   UNL     1      61.328  28.399   9.706  1.00  0.00    -0.000 C 
BRANCH  28  29
ATOM     29  C   UNL     1      60.129  29.198  10.248  1.00  0.00    -0.000 C 
BRANCH  29  30
ATOM     30  C   UNL     1      60.464  29.976  11.530  1.00  0.00    -0.000 C 
BRANCH  30  31
ATOM     31  C   UNL     1      60.475  29.078  12.777  1.00  0.00    -0.003 C 
ATOM     32  C   UNL     1      61.886  28.808  13.297  1.00  0.00     0.004 C 
ENDBRANCH  30  31
ENDBRANCH  29  30
ENDBRANCH  28  29
ENDBRANCH  27  28
ENDBRANCH  26  27
ENDBRANCH  25  26
ENDBRANCH  24  25
ENDBRANCH  23  24
ENDBRANCH  22  23
ENDBRANCH  21  22
ENDBRANCH  20  21
ENDBRANCH  19  20
ENDBRANCH  18  19
ENDBRANCH   1  18
TORSDOF 28
ENDMDL
MODEL 6
REMARK VINA RESULT:    -4.873      2.944     12.096
REMARK INTER + INTRA:         -15.317
REMARK INTER:                 -12.636
REMARK INTRA:                  -2.682
REMARK UNBOUND:                -2.468
REMARK SMILES CCCCCCCCCCCCCCCCCCCCCCCCCCCCCC(=O)[O-]
REMARK SMILES IDX 16 1 17 2 18 3 19 4 20 5 21 6 22 7 23 8 24 9 25 10 26 11
REMARK SMILES IDX 27 12 28 13 29 14 30 15 31 16 32 17 15 18 14 19 13 20 12 21
REMARK SMILES IDX 11 22 10 23 9 24 8 25 7 26 6 27 5 28 4 29 3 30 2 31 1 32
REMARK H PARENT
REMARK Flexibility Score: inf
ROOT
ATOM      1  C   UNL     1      64.842  31.227  23.505  1.00  0.00     0.000 C 
ENDROOT
BRANCH   1   2
ATOM      2  C   UNL     1      66.345  30.881  23.430  1.00  0.00     0.000 C 
BRANCH   2   3
ATOM      3  C   UNL     1      66.950  30.240  24.696  1.00  0.00     0.000 C 
BRANCH   3   4
ATOM      4  C   UNL     1      65.982  29.355  25.514  1.00  0.00     0.000 C 
BRANCH   4   5
ATOM      5  C   UNL     1      65.601  29.940  26.888  1.00  0.00     0.000 C 
BRANCH   5   6
ATOM      6  C   UNL     1      64.109  30.276  27.079  1.00  0.00     0.000 C 
BRANCH   6   7
ATOM      7  C   UNL     1      63.672  30.557  28.529  1.00  0.00     0.000 C 
BRANCH   7   8
ATOM      8  C   UNL     1      62.496  29.678  28.988  1.00  0.00     0.000 C 
BRANCH   8   9
ATOM      9  C   UNL     1      62.507  28.280  28.342  1.00  0.00     0.000 C 
BRANCH   9  10
ATOM     10  C   UNL     1      61.149  27.793  27.805  1.00  0.00     0.000 C 
BRANCH  10  11
ATOM     11  C   UNL     1      61.244  27.204  26.387  1.00  0.00     0.000 C 
BRANCH  11  12
ATOM     12  C   UNL     1      61.218  28.295  25.303  1.00  0.00     0.000 C 
BRANCH  12  13
ATOM     13  C   UNL     1      62.477  28.267  24.416  1.00  0.00     0.006 C 
BRANCH  13  14
ATOM     14  C   UNL     1      63.331  27.015  24.655  1.00  0.00     0.053 C 
BRANCH  14  15
ATOM     15  C   UNL     1      64.077  26.601  23.423  1.00  0.00     0.041 C 
ATOM     16  O   UNL     1      64.991  25.736  23.496  1.00  0.00    -0.550 OA
ATOM     17  O   UNL     1      63.739  27.144  22.191  1.00  0.00    -0.550 OA
ENDBRANCH  14  15
ENDBRANCH  13  14
ENDBRANCH  12  13
ENDBRANCH  11  12
ENDBRANCH  10  11
ENDBRANCH   9  10
ENDBRANCH   8   9
ENDBRANCH   7   8
ENDBRANCH   6   7
ENDBRANCH   5   6
ENDBRANCH   4   5
ENDBRANCH   3   4
ENDBRANCH   2   3
ENDBRANCH   1   2
BRANCH   1  18
ATOM     18  C   UNL     1      64.484  32.680  23.155  1.00  0.00     0.000 C 
BRANCH  18  19
ATOM     19  C   UNL     1      65.315  33.236  21.988  1.00  0.00     0.000 C 
BRANCH  19  20
ATOM     20  C   UNL     1      64.533  34.274  21.166  1.00  0.00     0.000 C 
BRANCH  20  21
ATOM     21  C   UNL     1      65.074  34.402  19.731  1.00  0.00     0.000 C 
BRANCH  21  22
ATOM     22  C   UNL     1      64.068  33.937  18.667  1.00  0.00     0.000 C 
BRANCH  22  23
ATOM     23  C   UNL     1      63.822  34.972  17.548  1.00  0.00     0.000 C 
BRANCH  23  24
ATOM     24  C   UNL     1      64.147  34.413  16.151  1.00  0.00    -0.000 C 
BRANCH  24  25
ATOM     25  C   UNL     1      63.152  33.319  15.711  1.00  0.00    -0.000 C 
BRANCH  25  26
ATOM     26  C   UNL     1      61.698  33.814  15.603  1.00  0.00    -0.000 C 
BRANCH  26  27
ATOM     27  C   UNL     1      61.040  33.457  14.261  1.00  0.00    -0.000 C 
BRANCH  27  28
ATOM     28  C   UNL     1      60.319  32.094  14.307  1.00  0.00    -0.000 C 
BRANCH  28  29
ATOM     29  C   UNL     1      60.303  31.366  12.952  1.00  0.00    -0.000 C 
BRANCH  29  30
ATOM     30  C   UNL     1      61.704  31.230  12.334  1.00  0.00    -0.000 C 
BRANCH  30  31
ATOM     31  C   UNL     1      62.512  30.081  12.956  1.00  0.00    -0.003 C 
ATOM     32  C   UNL     1      61.623  28.995  13.562  1.00  0.00     0.004 C 
ENDBRANCH  30  31
ENDBRANCH  29  30
ENDBRANCH  28  29
ENDBRANCH  27  28
ENDBRANCH  26  27
ENDBRANCH  25  26
ENDBRANCH  24  25
ENDBRANCH  23  24
ENDBRANCH  22  23
ENDBRANCH  21  22
ENDBRANCH  20  21
ENDBRANCH  19  20
ENDBRANCH  18  19
ENDBRANCH   1  18
TORSDOF 28
ENDMDL
MODEL 7
REMARK VINA RESULT:    -4.851      3.425     12.354
REMARK INTER + INTRA:         -15.261
REMARK INTER:                 -12.547
REMARK INTRA:                  -2.713
REMARK UNBOUND:                -2.468
REMARK SMILES CCCCCCCCCCCCCCCCCCCCCCCCCCCCCC(=O)[O-]
REMARK SMILES IDX 16 1 17 2 18 3 19 4 20 5 21 6 22 7 23 8 24 9 25 10 26 11
REMARK SMILES IDX 27 12 28 13 29 14 30 15 31 16 32 17 15 18 14 19 13 20 12 21
REMARK SMILES IDX 11 22 10 23 9 24 8 25 7 26 6 27 5 28 4 29 3 30 2 31 1 32
REMARK H PARENT
REMARK Flexibility Score: inf
ROOT
ATOM      1  C   UNL     1      62.529  34.023  17.724  1.00  0.00     0.000 C 
ENDROOT
BRANCH   1   2
ATOM      2  C   UNL     1      63.916  34.227  18.369  1.00  0.00     0.000 C 
BRANCH   2   3
ATOM      3  C   UNL     1      63.946  34.230  19.911  1.00  0.00     0.000 C 
BRANCH   3   4
ATOM      4  C   UNL     1      65.357  34.232  20.543  1.00  0.00     0.000 C 
BRANCH   4   5
ATOM      5  C   UNL     1      65.450  33.474  21.882  1.00  0.00     0.000 C 
BRANCH   5   6
ATOM      6  C   UNL     1      66.786  32.752  22.147  1.00  0.00     0.000 C 
BRANCH   6   7
ATOM      7  C   UNL     1      66.711  31.550  23.108  1.00  0.00     0.000 C 
BRANCH   7   8
ATOM      8  C   UNL     1      65.273  31.201  23.530  1.00  0.00     0.000 C 
BRANCH   8   9
ATOM      9  C   UNL     1      65.157  29.795  24.147  1.00  0.00     0.000 C 
BRANCH   9  10
ATOM     10  C   UNL     1      65.172  28.631  23.140  1.00  0.00     0.000 C 
BRANCH  10  11
ATOM     11  C   UNL     1      65.897  27.385  23.677  1.00  0.00     0.000 C 
BRANCH  11  12
ATOM     12  C   UNL     1      65.355  26.942  25.046  1.00  0.00     0.000 C 
BRANCH  12  13
ATOM     13  C   UNL     1      63.909  26.417  24.960  1.00  0.00     0.006 C 
BRANCH  13  14
ATOM     14  C   UNL     1      63.071  26.817  26.182  1.00  0.00     0.053 C 
BRANCH  14  15
ATOM     15  C   UNL     1      62.246  28.040  25.921  1.00  0.00     0.041 C 
ATOM     16  O   UNL     1      61.898  28.786  26.876  1.00  0.00    -0.550 OA
ATOM     17  O   UNL     1      61.892  28.374  24.621  1.00  0.00    -0.550 OA
ENDBRANCH  14  15
ENDBRANCH  13  14
ENDBRANCH  12  13
ENDBRANCH  11  12
ENDBRANCH  10  11
ENDBRANCH   9  10
ENDBRANCH   8   9
ENDBRANCH   7   8
ENDBRANCH   6   7
ENDBRANCH   5   6
ENDBRANCH   4   5
ENDBRANCH   3   4
ENDBRANCH   2   3
ENDBRANCH   1   2
BRANCH   1  18
ATOM     18  C   UNL     1      62.527  33.898  16.192  1.00  0.00     0.000 C 
BRANCH  18  19
ATOM     19  C   UNL     1      61.111  33.907  15.593  1.00  0.00     0.000 C 
BRANCH  19  20
ATOM     20  C   UNL     1      61.076  33.280  14.190  1.00  0.00     0.000 C 
BRANCH  20  21
ATOM     21  C   UNL     1      60.154  32.048  14.130  1.00  0.00     0.000 C 
BRANCH  21  22
ATOM     22  C   UNL     1      60.478  31.114  12.954  1.00  0.00     0.000 C 
BRANCH  22  23
ATOM     23  C   UNL     1      60.700  29.644  13.371  1.00  0.00     0.000 C 
BRANCH  23  24
ATOM     24  C   UNL     1      60.340  28.656  12.246  1.00  0.00    -0.000 C 
BRANCH  24  25
ATOM     25  C   UNL     1      60.421  29.302  10.848  1.00  0.00    -0.000 C 
BRANCH  25  26
ATOM     26  C   UNL     1      61.440  28.626   9.913  1.00  0.00    -0.000 C 
BRANCH  26  27
ATOM     27  C   UNL     1      62.624  29.536   9.556  1.00  0.00    -0.000 C 
BRANCH  27  28
ATOM     28  C   UNL     1      63.552  29.790  10.762  1.00  0.00    -0.000 C 
BRANCH  28  29
ATOM     29  C   UNL     1      64.204  31.184  10.748  1.00  0.00    -0.000 C 
BRANCH  29  30
ATOM     30  C   UNL     1      63.872  32.007  12.003  1.00  0.00    -0.000 C 
BRANCH  30  31
ATOM     31  C   UNL     1      64.059  31.204  13.299  1.00  0.00    -0.003 C 
ATOM     32  C   UNL     1      64.834  31.977  14.365  1.00  0.00     0.004 C 
ENDBRANCH  30  31
ENDBRANCH  29  30
ENDBRANCH  28  29
ENDBRANCH  27  28
ENDBRANCH  26  27
ENDBRANCH  25  26
ENDBRANCH  24  25
ENDBRANCH  23  24
ENDBRANCH  22  23
ENDBRANCH  21  22
ENDBRANCH  20  21
ENDBRANCH  19  20
ENDBRANCH  18  19
ENDBRANCH   1  18
TORSDOF 28
ENDMDL
MODEL 8
REMARK VINA RESULT:    -4.776      3.243     12.020
REMARK INTER + INTRA:         -15.061
REMARK INTER:                 -12.209
REMARK INTRA:                  -2.852
REMARK UNBOUND:                -2.468
REMARK SMILES CCCCCCCCCCCCCCCCCCCCCCCCCCCCCC(=O)[O-]
REMARK SMILES IDX 16 1 17 2 18 3 19 4 20 5 21 6 22 7 23 8 24 9 25 10 26 11
REMARK SMILES IDX 27 12 28 13 29 14 30 15 31 16 32 17 15 18 14 19 13 20 12 21
REMARK SMILES IDX 11 22 10 23 9 24 8 25 7 26 6 27 5 28 4 29 3 30 2 31 1 32
REMARK H PARENT
REMARK Flexibility Score: inf
ROOT
ATOM      1  C   UNL     1      63.543  33.876  15.078  1.00  0.00     0.000 C 
ENDROOT
BRANCH   1   2
ATOM      2  C   UNL     1      62.940  33.659  16.482  1.00  0.00     0.000 C 
BRANCH   2   3
ATOM      3  C   UNL     1      63.900  33.892  17.667  1.00  0.00     0.000 C 
BRANCH   3   4
ATOM      4  C   UNL     1      64.727  35.195  17.600  1.00  0.00     0.000 C 
BRANCH   4   5
ATOM      5  C   UNL     1      66.050  35.145  18.390  1.00  0.00     0.000 C 
BRANCH   5   6
ATOM      6  C   UNL     1      65.952  35.531  19.879  1.00  0.00     0.000 C 
BRANCH   6   7
ATOM      7  C   UNL     1      65.853  34.351  20.864  1.00  0.00     0.000 C 
BRANCH   7   8
ATOM      8  C   UNL     1      64.425  34.114  21.386  1.00  0.00     0.000 C 
BRANCH   8   9
ATOM      9  C   UNL     1      64.384  33.183  22.611  1.00  0.00     0.000 C 
BRANCH   9  10
ATOM     10  C   UNL     1      65.608  32.266  22.783  1.00  0.00     0.000 C 
BRANCH  10  11
ATOM     11  C   UNL     1      65.320  31.045  23.673  1.00  0.00     0.000 C 
BRANCH  11  12
ATOM     12  C   UNL     1      63.960  31.149  24.381  1.00  0.00     0.000 C 
BRANCH  12  13
ATOM     13  C   UNL     1      63.800  30.102  25.500  1.00  0.00     0.006 C 
BRANCH  13  14
ATOM     14  C   UNL     1      62.422  29.428  25.474  1.00  0.00     0.053 C 
BRANCH  14  15
ATOM     15  C   UNL     1      62.478  28.059  24.866  1.00  0.00     0.041 C 
ATOM     16  O   UNL     1      63.228  27.834  23.878  1.00  0.00    -0.550 OA
ATOM     17  O   UNL     1      61.730  27.026  25.414  1.00  0.00    -0.550 OA
ENDBRANCH  14  15
ENDBRANCH  13  14
ENDBRANCH  12  13
ENDBRANCH  11  12
ENDBRANCH  10  11
ENDBRANCH   9  10
ENDBRANCH   8   9
ENDBRANCH   7   8
ENDBRANCH   6   7
ENDBRANCH   5   6
ENDBRANCH   4   5
ENDBRANCH   3   4
ENDBRANCH   2   3
ENDBRANCH   1   2
BRANCH   1  18
ATOM     18  C   UNL     1      64.609  32.853  14.654  1.00  0.00     0.000 C 
BRANCH  18  19
ATOM     19  C   UNL     1      65.282  33.210  13.319  1.00  0.00     0.000 C 
BRANCH  19  20
ATOM     20  C   UNL     1      64.507  32.649  12.115  1.00  0.00     0.000 C 
BRANCH  20  21
ATOM     21  C   UNL     1      65.342  32.684  10.822  1.00  0.00     0.000 C 
BRANCH  21  22
ATOM     22  C   UNL     1      64.975  31.559   9.842  1.00  0.00     0.000 C 
BRANCH  22  23
ATOM     23  C   UNL     1      64.292  30.348  10.512  1.00  0.00     0.000 C 
BRANCH  23  24
ATOM     24  C   UNL     1      63.828  29.297   9.487  1.00  0.00    -0.000 C 
BRANCH  24  25
ATOM     25  C   UNL     1      62.334  29.443   9.131  1.00  0.00    -0.000 C 
BRANCH  25  26
ATOM     26  C   UNL     1      61.409  28.540   9.966  1.00  0.00    -0.000 C 
BRANCH  26  27
ATOM     27  C   UNL     1      60.522  29.327  10.942  1.00  0.00    -0.000 C 
BRANCH  27  28
ATOM     28  C   UNL     1      60.189  28.518  12.213  1.00  0.00    -0.000 C 
BRANCH  28  29
ATOM     29  C   UNL     1      60.901  29.039  13.473  1.00  0.00    -0.000 C 
BRANCH  29  30
ATOM     30  C   UNL     1      61.703  30.325  13.213  1.00  0.00    -0.000 C 
BRANCH  30  31
ATOM     31  C   UNL     1      61.077  31.555  13.887  1.00  0.00    -0.003 C 
ATOM     32  C   UNL     1      60.912  32.734  12.928  1.00  0.00     0.004 C 
ENDBRANCH  30  31
ENDBRANCH  29  30
ENDBRANCH  28  29
ENDBRANCH  27  28
ENDBRANCH  26  27
ENDBRANCH  25  26
ENDBRANCH  24  25
ENDBRANCH  23  24
ENDBRANCH  22  23
ENDBRANCH  21  22
ENDBRANCH  20  21
ENDBRANCH  19  20
ENDBRANCH  18  19
ENDBRANCH   1  18
TORSDOF 28
ENDMDL
MODEL 9
REMARK VINA RESULT:    -4.745      1.746      3.127
REMARK INTER + INTRA:         -14.980
REMARK INTER:                 -12.125
REMARK INTRA:                  -2.855
REMARK UNBOUND:                -2.468
REMARK SMILES CCCCCCCCCCCCCCCCCCCCCCCCCCCCCC(=O)[O-]
REMARK SMILES IDX 16 1 17 2 18 3 19 4 20 5 21 6 22 7 23 8 24 9 25 10 26 11
REMARK SMILES IDX 27 12 28 13 29 14 30 15 31 16 32 17 15 18 14 19 13 20 12 21
REMARK SMILES IDX 11 22 10 23 9 24 8 25 7 26 6 27 5 28 4 29 3 30 2 31 1 32
REMARK H PARENT
REMARK Flexibility Score: inf
ROOT
ATOM      1  C   UNL     1      61.878  33.663  16.880  1.00  0.00     0.000 C 
ENDROOT
BRANCH   1   2
ATOM      2  C   UNL     1      62.715  33.633  15.583  1.00  0.00     0.000 C 
BRANCH   2   3
ATOM      3  C   UNL     1      64.165  33.127  15.731  1.00  0.00     0.000 C 
BRANCH   3   4
ATOM      4  C   UNL     1      65.039  33.250  14.463  1.00  0.00     0.000 C 
BRANCH   4   5
ATOM      5  C   UNL     1      64.274  33.022  13.144  1.00  0.00     0.000 C 
BRANCH   5   6
ATOM      6  C   UNL     1      64.437  31.624  12.513  1.00  0.00     0.000 C 
BRANCH   6   7
ATOM      7  C   UNL     1      64.026  31.514  11.032  1.00  0.00     0.000 C 
BRANCH   7   8
ATOM      8  C   UNL     1      63.946  30.061  10.532  1.00  0.00     0.000 C 
BRANCH   8   9
ATOM      9  C   UNL     1      63.159  29.925   9.216  1.00  0.00     0.000 C 
BRANCH   9  10
ATOM     10  C   UNL     1      61.952  28.972   9.267  1.00  0.00     0.000 C 
BRANCH  10  11
ATOM     11  C   UNL     1      61.513  28.638  10.703  1.00  0.00     0.000 C 
BRANCH  11  12
ATOM     12  C   UNL     1      60.196  29.334  11.086  1.00  0.00     0.000 C 
BRANCH  12  13
ATOM     13  C   UNL     1      59.996  29.409  12.611  1.00  0.00     0.006 C 
BRANCH  13  14
ATOM     14  C   UNL     1      61.009  30.343  13.286  1.00  0.00     0.053 C 
BRANCH  14  15
ATOM     15  C   UNL     1      60.484  31.741  13.416  1.00  0.00     0.041 C 
ATOM     16  O   UNL     1      60.811  32.622  12.576  1.00  0.00    -0.550 OA
ATOM     17  O   UNL     1      59.606  32.060  14.443  1.00  0.00    -0.550 OA
ENDBRANCH  14  15
ENDBRANCH  13  14
ENDBRANCH  12  13
ENDBRANCH  11  12
ENDBRANCH  10  11
ENDBRANCH   9  10
ENDBRANCH   8   9
ENDBRANCH   7   8
ENDBRANCH   6   7
ENDBRANCH   5   6
ENDBRANCH   4   5
ENDBRANCH   3   4
ENDBRANCH   2   3
ENDBRANCH   1   2
BRANCH   1  18
ATOM     18  C   UNL     1      62.381  34.628  17.965  1.00  0.00     0.000 C 
BRANCH  18  19
ATOM     19  C   UNL     1      63.001  33.902  19.170  1.00  0.00     0.000 C 
BRANCH  19  20
ATOM     20  C   UNL     1      64.476  34.284  19.376  1.00  0.00     0.000 C 
BRANCH  20  21
ATOM     21  C   UNL     1      64.837  34.418  20.866  1.00  0.00     0.000 C 
BRANCH  21  22
ATOM     22  C   UNL     1      66.244  33.894  21.192  1.00  0.00     0.000 C 
BRANCH  22  23
ATOM     23  C   UNL     1      66.266  32.814  22.294  1.00  0.00     0.000 C 
BRANCH  23  24
ATOM     24  C   UNL     1      64.864  32.526  22.860  1.00  0.00    -0.000 C 
BRANCH  24  25
ATOM     25  C   UNL     1      64.852  31.311  23.811  1.00  0.00    -0.000 C 
BRANCH  25  26
ATOM     26  C   UNL     1      66.190  30.551  23.859  1.00  0.00    -0.000 C 
BRANCH  26  27
ATOM     27  C   UNL     1      66.256  29.523  24.998  1.00  0.00    -0.000 C 
BRANCH  27  28
ATOM     28  C   UNL     1      65.782  28.124  24.552  1.00  0.00    -0.000 C 
BRANCH  28  29
ATOM     29  C   UNL     1      64.573  27.606  25.351  1.00  0.00    -0.000 C 
BRANCH  29  30
ATOM     30  C   UNL     1      63.307  27.468  24.490  1.00  0.00    -0.000 C 
BRANCH  30  31
ATOM     31  C   UNL     1      62.160  28.362  24.986  1.00  0.00    -0.003 C 
ATOM     32  C   UNL     1      62.613  29.376  26.035  1.00  0.00     0.004 C 
ENDBRANCH  30  31
ENDBRANCH  29  30
ENDBRANCH  28  29
ENDBRANCH  27  28
ENDBRANCH  26  27
ENDBRANCH  25  26
ENDBRANCH  24  25
ENDBRANCH  23  24
ENDBRANCH  22  23
ENDBRANCH  21  22
ENDBRANCH  20  21
ENDBRANCH  19  20
ENDBRANCH  18  19
ENDBRANCH   1  18
TORSDOF 28
ENDMDL
