MODEL 1
REMARK VINA RESULT:    -3.007      0.000      0.000
REMARK INTER + INTRA:          -3.299
REMARK INTER:                  -3.270
REMARK INTRA:                  -0.028
REMARK UNBOUND:                -0.028
REMARK SMILES O=C([O-])c1ccc(O)cc1
REMARK SMILES IDX 7 1 6 2 9 3 5 4 10 5 4 6 8 7 2 9 1 10 3 11
REMARK H PARENT 8 8
REMARK Flexibility Score: inf
ROOT
ATOM      1  C   UNL     1      -8.734   8.417  -3.209  1.00  0.00     0.115 A 
ATOM      2  C   UNL     1      -7.616   8.748  -2.433  1.00  0.00     0.047 A 
ATOM      3  C   UNL     1      -9.983   8.275  -2.599  1.00  0.00     0.047 A 
ATOM      4  C   UNL     1      -7.748   8.936  -1.053  1.00  0.00     0.014 A 
ATOM      5  C   UNL     1     -10.120   8.463  -1.220  1.00  0.00     0.014 A 
ATOM      6  C   UNL     1      -9.002   8.796  -0.432  1.00  0.00    -0.003 A 
ENDROOT
BRANCH   1   7
ATOM      7  O   UNL     1      -8.613   8.227  -4.583  1.00  0.00    -0.508 OA
ATOM      8  H   UNL     1      -9.221   7.590  -5.085  1.00  0.00     0.293 HD
ENDBRANCH   1   7
BRANCH   6   9
ATOM      9  C   UNL     1      -9.139   8.996   1.027  1.00  0.00     0.071 C 
ATOM     10  O   UNL     1      -9.843   9.938   1.481  1.00  0.00    -0.545 OA
ATOM     11  O   UNL     1      -8.495   8.146   1.918  1.00  0.00    -0.545 OA
ENDBRANCH   6   9
TORSDOF 2
ENDMDL
MODEL 2
REMARK VINA RESULT:    -2.907     10.632     12.464
REMARK INTER + INTRA:          -3.190
REMARK INTER:                  -3.161
REMARK INTRA:                  -0.029
REMARK UNBOUND:                -0.028
REMARK SMILES O=C([O-])c1ccc(O)cc1
REMARK SMILES IDX 7 1 6 2 9 3 5 4 10 5 4 6 8 7 2 9 1 10 3 11
REMARK H PARENT 8 8
REMARK Flexibility Score: inf
ROOT
ATOM      1  C   UNL     1      -2.325   8.888  -9.420  1.00  0.00     0.115 A 
ATOM      2  C   UNL     1      -1.580   7.732  -9.680  1.00  0.00     0.047 A 
ATOM      3  C   UNL     1      -1.667  10.082  -9.111  1.00  0.00     0.047 A 
ATOM      4  C   UNL     1      -0.182   7.770  -9.631  1.00  0.00     0.014 A 
ATOM      5  C   UNL     1      -0.271  10.124  -9.061  1.00  0.00     0.014 A 
ATOM      6  C   UNL     1       0.488   8.967  -9.321  1.00  0.00    -0.003 A 
ENDROOT
BRANCH   1   7
ATOM      7  O   UNL     1      -3.717   8.862  -9.465  1.00  0.00    -0.508 OA
ATOM      8  H   UNL     1      -4.270   8.666  -8.639  1.00  0.00     0.293 HD
ENDBRANCH   1   7
BRANCH   6   9
ATOM      9  C   UNL     1       1.965   9.005  -9.270  1.00  0.00     0.071 C 
ATOM     10  O   UNL     1       2.597   8.282  -8.454  1.00  0.00    -0.545 OA
ATOM     11  O   UNL     1       2.679   9.839 -10.123  1.00  0.00    -0.545 OA
ENDBRANCH   6   9
TORSDOF 2
ENDMDL
MODEL 3
REMARK VINA RESULT:    -2.879     17.207     17.970
REMARK INTER + INTRA:          -3.160
REMARK INTER:                  -3.133
REMARK INTRA:                  -0.027
REMARK UNBOUND:                -0.028
REMARK SMILES O=C([O-])c1ccc(O)cc1
REMARK SMILES IDX 7 1 6 2 9 3 5 4 10 5 4 6 8 7 2 9 1 10 3 11
REMARK H PARENT 8 8
REMARK Flexibility Score: inf
ROOT
ATOM      1  C   UNL     1      -8.768  -8.639   2.277  1.00  0.00     0.115 A 
ATOM      2  C   UNL     1      -9.997  -8.335   1.677  1.00  0.00     0.047 A 
ATOM      3  C   UNL     1      -7.671  -8.973   1.479  1.00  0.00     0.047 A 
ATOM      4  C   UNL     1     -10.125  -8.364   0.284  1.00  0.00     0.014 A 
ATOM      5  C   UNL     1      -7.795  -9.002   0.087  1.00  0.00     0.014 A 
ATOM      6  C   UNL     1      -9.025  -8.698  -0.526  1.00  0.00    -0.003 A 
ENDROOT
BRANCH   1   7
ATOM      7  O   UNL     1      -8.629  -8.614   3.663  1.00  0.00    -0.508 OA
ATOM      8  H   UNL     1      -8.598  -9.468   4.207  1.00  0.00     0.293 HD
ENDBRANCH   1   7
BRANCH   6   9
ATOM      9  C   UNL     1      -9.164  -8.727  -1.998  1.00  0.00     0.071 C 
ATOM     10  O   UNL     1      -9.760  -9.682  -2.566  1.00  0.00    -0.545 OA
ATOM     11  O   UNL     1      -8.638  -7.703  -2.776  1.00  0.00    -0.545 OA
ENDBRANCH   6   9
TORSDOF 2
ENDMDL
MODEL 4
REMARK VINA RESULT:    -2.838     21.286     22.348
REMARK INTER + INTRA:          -3.115
REMARK INTER:                  -3.086
REMARK INTRA:                  -0.029
REMARK UNBOUND:                -0.028
REMARK SMILES O=C([O-])c1ccc(O)cc1
REMARK SMILES IDX 7 1 6 2 9 3 5 4 10 5 4 6 8 7 2 9 1 10 3 11
REMARK H PARENT 8 8
REMARK Flexibility Score: inf
ROOT
ATOM      1  C   UNL     1       9.007   2.855   8.795  1.00  0.00     0.115 A 
ATOM      2  C   UNL     1       8.681   2.240  10.010  1.00  0.00     0.047 A 
ATOM      3  C   UNL     1       9.368   2.071   7.696  1.00  0.00     0.047 A 
ATOM      4  C   UNL     1       8.716   0.847  10.125  1.00  0.00     0.014 A 
ATOM      5  C   UNL     1       9.403   0.677   7.807  1.00  0.00     0.014 A 
ATOM      6  C   UNL     1       9.077   0.050   9.024  1.00  0.00    -0.003 A 
ENDROOT
BRANCH   1   7
ATOM      7  O   UNL     1       8.977   4.242   8.670  1.00  0.00    -0.508 OA
ATOM      8  H   UNL     1       8.127   4.732   8.417  1.00  0.00     0.293 HD
ENDBRANCH   1   7
BRANCH   6   9
ATOM      9  C   UNL     1       9.113  -1.423   9.148  1.00  0.00     0.071 C 
ATOM     10  O   UNL     1       8.372  -2.145   8.428  1.00  0.00    -0.545 OA
ATOM     11  O   UNL     1       9.966  -2.034  10.060  1.00  0.00    -0.545 OA
ENDBRANCH   6   9
TORSDOF 2
ENDMDL
MODEL 5
REMARK VINA RESULT:    -2.819      2.180      4.590
REMARK INTER + INTRA:          -3.095
REMARK INTER:                  -3.067
REMARK INTRA:                  -0.028
REMARK UNBOUND:                -0.028
REMARK SMILES O=C([O-])c1ccc(O)cc1
REMARK SMILES IDX 7 1 6 2 9 3 5 4 10 5 4 6 8 7 2 9 1 10 3 11
REMARK H PARENT 8 8
REMARK Flexibility Score: inf
ROOT
ATOM      1  C   UNL     1      -9.506   8.272   2.792  1.00  0.00     0.115 A 
ATOM      2  C   UNL     1      -8.294   7.646   2.472  1.00  0.00     0.047 A 
ATOM      3  C   UNL     1     -10.099   9.142   1.873  1.00  0.00     0.047 A 
ATOM      4  C   UNL     1      -7.681   7.889   1.239  1.00  0.00     0.014 A 
ATOM      5  C   UNL     1      -9.489   9.388   0.640  1.00  0.00     0.014 A 
ATOM      6  C   UNL     1      -8.271   8.763   0.309  1.00  0.00    -0.003 A 
ENDROOT
BRANCH   1   7
ATOM      7  O   UNL     1     -10.125   8.038   4.017  1.00  0.00    -0.508 OA
ATOM      8  H   UNL     1     -10.311   8.790   4.669  1.00  0.00     0.293 HD
ENDBRANCH   1   7
BRANCH   6   9
ATOM      9  C   UNL     1      -7.620   9.018  -0.994  1.00  0.00     0.071 C 
ATOM     10  O   UNL     1      -8.162   8.636  -2.066  1.00  0.00    -0.545 OA
ATOM     11  O   UNL     1      -6.402   9.685  -1.055  1.00  0.00    -0.545 OA
ENDBRANCH   6   9
TORSDOF 2
ENDMDL
MODEL 6
REMARK VINA RESULT:    -2.810     17.027     17.480
REMARK INTER + INTRA:          -3.085
REMARK INTER:                  -3.057
REMARK INTRA:                  -0.028
REMARK UNBOUND:                -0.028
REMARK SMILES O=C([O-])c1ccc(O)cc1
REMARK SMILES IDX 7 1 6 2 9 3 5 4 10 5 4 6 8 7 2 9 1 10 3 11
REMARK H PARENT 8 8
REMARK Flexibility Score: inf
ROOT
ATOM      1  C   UNL     1      -9.525  -8.234  -3.688  1.00  0.00     0.115 A 
ATOM      2  C   UNL     1     -10.125  -9.120  -2.784  1.00  0.00     0.047 A 
ATOM      3  C   UNL     1      -8.312  -7.622  -3.358  1.00  0.00     0.047 A 
ATOM      4  C   UNL     1      -9.514  -9.393  -1.556  1.00  0.00     0.014 A 
ATOM      5  C   UNL     1      -7.698  -7.893  -2.131  1.00  0.00     0.014 A 
ATOM      6  C   UNL     1      -8.294  -8.782  -1.216  1.00  0.00    -0.003 A 
ENDROOT
BRANCH   1   7
ATOM      7  O   UNL     1     -10.124  -7.955  -4.914  1.00  0.00    -0.508 OA
ATOM      8  H   UNL     1     -10.659  -7.107  -5.060  1.00  0.00     0.293 HD
ENDBRANCH   1   7
BRANCH   6   9
ATOM      9  C   UNL     1      -7.650  -9.072   0.083  1.00  0.00     0.071 C 
ATOM     10  O   UNL     1      -8.164  -8.663   1.159  1.00  0.00    -0.545 OA
ATOM     11  O   UNL     1      -6.467  -9.800   0.137  1.00  0.00    -0.545 OA
ENDBRANCH   6   9
TORSDOF 2
ENDMDL
MODEL 7
REMARK VINA RESULT:    -2.801     21.325     22.342
REMARK INTER + INTRA:          -3.075
REMARK INTER:                  -3.048
REMARK INTRA:                  -0.027
REMARK UNBOUND:                -0.028
REMARK SMILES O=C([O-])c1ccc(O)cc1
REMARK SMILES IDX 7 1 6 2 9 3 5 4 10 5 4 6 8 7 2 9 1 10 3 11
REMARK H PARENT 8 8
REMARK Flexibility Score: inf
ROOT
ATOM      1  C   UNL     1      -2.028  -8.518   8.629  1.00  0.00     0.115 A 
ATOM      2  C   UNL     1      -1.083  -7.541   8.967  1.00  0.00     0.047 A 
ATOM      3  C   UNL     1      -1.604  -9.808   8.299  1.00  0.00     0.047 A 
ATOM      4  C   UNL     1       0.280  -7.855   8.976  1.00  0.00     0.014 A 
ATOM      5  C   UNL     1      -0.242 -10.125   8.306  1.00  0.00     0.014 A 
ATOM      6  C   UNL     1       0.715  -9.150   8.646  1.00  0.00    -0.003 A 
ENDROOT
BRANCH   1   7
ATOM      7  O   UNL     1      -3.388  -8.217   8.616  1.00  0.00    -0.508 OA
ATOM      8  H   UNL     1      -3.839  -7.770   9.406  1.00  0.00     0.293 HD
ENDBRANCH   1   7
BRANCH   6   9
ATOM      9  C   UNL     1       2.157  -9.479   8.656  1.00  0.00     0.071 C 
ATOM     10  O   UNL     1       2.886  -9.191   7.669  1.00  0.00    -0.545 OA
ATOM     11  O   UNL     1       2.729 -10.110   9.754  1.00  0.00    -0.545 OA
ENDBRANCH   6   9
TORSDOF 2
ENDMDL
MODEL 8
REMARK VINA RESULT:    -2.780     12.188     13.660
REMARK INTER + INTRA:          -3.053
REMARK INTER:                  -3.025
REMARK INTRA:                  -0.028
REMARK UNBOUND:                -0.028
REMARK SMILES O=C([O-])c1ccc(O)cc1
REMARK SMILES IDX 7 1 6 2 9 3 5 4 10 5 4 6 8 7 2 9 1 10 3 11
REMARK H PARENT 8 8
REMARK Flexibility Score: inf
ROOT
ATOM      1  C   UNL     1      -8.421  -2.236   8.753  1.00  0.00     0.115 A 
ATOM      2  C   UNL     1      -8.238  -1.634  10.005  1.00  0.00     0.047 A 
ATOM      3  C   UNL     1      -8.618  -1.438   7.623  1.00  0.00     0.047 A 
ATOM      4  C   UNL     1      -8.249  -0.241  10.124  1.00  0.00     0.014 A 
ATOM      5  C   UNL     1      -8.629  -0.044   7.738  1.00  0.00     0.014 A 
ATOM      6  C   UNL     1      -8.445   0.570   8.991  1.00  0.00    -0.003 A 
ENDROOT
BRANCH   1   7
ATOM      7  O   UNL     1      -8.413  -3.622   8.623  1.00  0.00    -0.508 OA
ATOM      8  H   UNL     1      -7.594  -4.171   8.859  1.00  0.00     0.293 HD
ENDBRANCH   1   7
BRANCH   6   9
ATOM      9  C   UNL     1      -8.457   2.043   9.120  1.00  0.00     0.071 C 
ATOM     10  O   UNL     1      -9.381   2.624   9.750  1.00  0.00    -0.545 OA
ATOM     11  O   UNL     1      -7.448   2.808   8.548  1.00  0.00    -0.545 OA
ENDBRANCH   6   9
TORSDOF 2
ENDMDL
MODEL 9
REMARK VINA RESULT:    -2.767     21.571     22.465
REMARK INTER + INTRA:          -3.039
REMARK INTER:                  -3.010
REMARK INTRA:                  -0.029
REMARK UNBOUND:                -0.028
REMARK SMILES O=C([O-])c1ccc(O)cc1
REMARK SMILES IDX 7 1 6 2 9 3 5 4 10 5 4 6 8 7 2 9 1 10 3 11
REMARK H PARENT 8 8
REMARK Flexibility Score: inf
ROOT
ATOM      1  C   UNL     1       3.451  -9.473   7.842  1.00  0.00     0.115 A 
ATOM      2  C   UNL     1       3.149  -8.199   7.347  1.00  0.00     0.047 A 
ATOM      3  C   UNL     1       2.558 -10.108   8.711  1.00  0.00     0.047 A 
ATOM      4  C   UNL     1       1.959  -7.563   7.718  1.00  0.00     0.014 A 
ATOM      5  C   UNL     1       1.368  -9.476   9.084  1.00  0.00     0.014 A 
ATOM      6  C   UNL     1       1.056  -8.195   8.590  1.00  0.00    -0.003 A 
ENDROOT
BRANCH   1   7
ATOM      7  O   UNL     1       4.632 -10.115   7.480  1.00  0.00    -0.508 OA
ATOM      8  H   UNL     1       5.483  -9.595   7.298  1.00  0.00     0.293 HD
ENDBRANCH   1   7
BRANCH   6   9
ATOM      9  C   UNL     1      -0.201  -7.522   8.981  1.00  0.00     0.071 C 
ATOM     10  O   UNL     1      -1.317  -8.043   8.715  1.00  0.00    -0.545 OA
ATOM     11  O   UNL     1      -0.170  -6.303   9.649  1.00  0.00    -0.545 OA
ENDBRANCH   6   9
TORSDOF 2
ENDMDL
