MODEL 1
REMARK VINA RESULT:    -3.377      0.000      0.000
REMARK INTER + INTRA:          -4.116
REMARK INTER:                  -3.969
REMARK INTRA:                  -0.147
REMARK UNBOUND:                -0.147
REMARK SMILES O=C([O-])CCC(=O)[O-]
REMARK SMILES IDX 4 1 2 2 1 3 3 4 5 5 6 6 7 7 8 8
REMARK H PARENT
REMARK Flexibility Score: inf
ROOT
ATOM      1  C   UNL     1      23.025  -0.655   6.378  1.00  0.00     0.059 C 
ENDROOT
BRANCH   1   2
ATOM      2  C   UNL     1      24.485  -0.455   6.634  1.00  0.00     0.042 C 
ATOM      3  O   UNL     1      25.285  -0.328   5.670  1.00  0.00    -0.550 OA
ATOM      4  O   UNL     1      24.970  -0.456   7.936  1.00  0.00    -0.550 OA
ENDBRANCH   1   2
BRANCH   1   5
ATOM      5  C   UNL     1      22.417  -1.572   7.442  1.00  0.00     0.059 C 
BRANCH   5   6
ATOM      6  C   UNL     1      22.665  -3.007   7.098  1.00  0.00     0.042 C 
ATOM      7  O   UNL     1      21.990  -3.569   6.196  1.00  0.00    -0.550 OA
ATOM      8  O   UNL     1      23.608  -3.739   7.809  1.00  0.00    -0.550 OA
ENDBRANCH   5   6
ENDBRANCH   1   5
TORSDOF 3
ENDMDL
MODEL 2
REMARK VINA RESULT:    -3.349      0.584      3.533
REMARK INTER + INTRA:          -4.083
REMARK INTER:                  -3.953
REMARK INTRA:                  -0.131
REMARK UNBOUND:                -0.147
REMARK SMILES O=C([O-])CCC(=O)[O-]
REMARK SMILES IDX 4 1 2 2 1 3 3 4 5 5 6 6 7 7 8 8
REMARK H PARENT
REMARK Flexibility Score: inf
ROOT
ATOM      1  C   UNL     1      22.326  -1.560   7.465  1.00  0.00     0.059 C 
ENDROOT
BRANCH   1   2
ATOM      2  C   UNL     1      22.651  -2.971   7.089  1.00  0.00     0.042 C 
ATOM      3  O   UNL     1      22.010  -3.545   6.170  1.00  0.00    -0.550 OA
ATOM      4  O   UNL     1      23.627  -3.670   7.788  1.00  0.00    -0.550 OA
ENDBRANCH   1   2
BRANCH   1   5
ATOM      5  C   UNL     1      23.028  -0.581   6.522  1.00  0.00     0.059 C 
BRANCH   5   6
ATOM      6  C   UNL     1      24.379  -0.219   7.054  1.00  0.00     0.042 C 
ATOM      7  O   UNL     1      24.492   0.647   7.959  1.00  0.00    -0.550 OA
ATOM      8  O   UNL     1      25.517  -0.804   6.514  1.00  0.00    -0.550 OA
ENDBRANCH   5   6
ENDBRANCH   1   5
TORSDOF 3
ENDMDL
MODEL 3
REMARK VINA RESULT:    -3.303      7.620      9.902
REMARK INTER + INTRA:          -4.030
REMARK INTER:                  -3.931
REMARK INTRA:                  -0.099
REMARK UNBOUND:                -0.147
REMARK SMILES O=C([O-])CCC(=O)[O-]
REMARK SMILES IDX 4 1 2 2 1 3 3 4 5 5 6 6 7 7 8 8
REMARK H PARENT
REMARK Flexibility Score: inf
ROOT
ATOM      1  C   UNL     1      16.879  -8.907   7.546  1.00  0.00     0.059 C 
ENDROOT
BRANCH   1   2
ATOM      2  C   UNL     1      16.793 -10.057   8.499  1.00  0.00     0.042 C 
ATOM      3  O   UNL     1      16.146 -11.091   8.187  1.00  0.00    -0.550 OA
ATOM      4  O   UNL     1      17.388  -9.968   9.751  1.00  0.00    -0.550 OA
ENDBRANCH   1   2
BRANCH   1   5
ATOM      5  C   UNL     1      17.990  -7.944   7.969  1.00  0.00     0.059 C 
BRANCH   5   6
ATOM      6  C   UNL     1      19.198  -8.126   7.104  1.00  0.00     0.042 C 
ATOM      7  O   UNL     1      19.875  -9.184   7.176  1.00  0.00    -0.550 OA
ATOM      8  O   UNL     1      19.603  -7.105   6.253  1.00  0.00    -0.550 OA
ENDBRANCH   5   6
ENDBRANCH   1   5
TORSDOF 3
ENDMDL
MODEL 4
REMARK VINA RESULT:    -3.272      7.534      8.605
REMARK INTER + INTRA:          -3.993
REMARK INTER:                  -3.878
REMARK INTRA:                  -0.115
REMARK UNBOUND:                -0.147
REMARK SMILES O=C([O-])CCC(=O)[O-]
REMARK SMILES IDX 4 1 2 2 1 3 3 4 5 5 6 6 7 7 8 8
REMARK H PARENT
REMARK Flexibility Score: inf
ROOT
ATOM      1  C   UNL     1      22.841   5.536  11.631  1.00  0.00     0.059 C 
ENDROOT
BRANCH   1   2
ATOM      2  C   UNL     1      23.211   4.279  12.353  1.00  0.00     0.042 C 
ATOM      3  O   UNL     1      23.334   3.197  11.720  1.00  0.00    -0.550 OA
ATOM      4  O   UNL     1      23.372   4.291  13.733  1.00  0.00    -0.550 OA
ENDBRANCH   1   2
BRANCH   1   5
ATOM      5  C   UNL     1      22.878   5.314  10.118  1.00  0.00     0.059 C 
BRANCH   5   6
ATOM      6  C   UNL     1      24.062   6.004   9.517  1.00  0.00     0.042 C 
ATOM      7  O   UNL     1      23.899   6.977   8.735  1.00  0.00    -0.550 OA
ATOM      8  O   UNL     1      25.344   5.541   9.782  1.00  0.00    -0.550 OA
ENDBRANCH   5   6
ENDBRANCH   1   5
TORSDOF 3
ENDMDL
MODEL 5
REMARK VINA RESULT:    -3.254      8.016      9.289
REMARK INTER + INTRA:          -3.972
REMARK INTER:                  -3.944
REMARK INTRA:                  -0.028
REMARK UNBOUND:                -0.147
REMARK SMILES O=C([O-])CCC(=O)[O-]
REMARK SMILES IDX 4 1 2 2 1 3 3 4 5 5 6 6 7 7 8 8
REMARK H PARENT
REMARK Flexibility Score: inf
ROOT
ATOM      1  C   UNL     1      22.612   7.280   8.194  1.00  0.00     0.059 C 
ENDROOT
BRANCH   1   2
ATOM      2  C   UNL     1      23.274   6.233   9.033  1.00  0.00     0.042 C 
ATOM      3  O   UNL     1      24.465   6.385   9.413  1.00  0.00    -0.550 OA
ATOM      4  O   UNL     1      22.593   5.065   9.354  1.00  0.00    -0.550 OA
ENDBRANCH   1   2
BRANCH   1   5
ATOM      5  C   UNL     1      22.316   6.736   6.795  1.00  0.00     0.059 C 
BRANCH   5   6
ATOM      6  C   UNL     1      21.346   7.624   6.082  1.00  0.00     0.042 C 
ATOM      7  O   UNL     1      21.738   8.702   5.563  1.00  0.00    -0.550 OA
ATOM      8  O   UNL     1      20.000   7.286   6.034  1.00  0.00    -0.550 OA
ENDBRANCH   5   6
ENDBRANCH   1   5
TORSDOF 3
ENDMDL
MODEL 6
REMARK VINA RESULT:    -3.226      7.358      8.065
REMARK INTER + INTRA:          -3.939
REMARK INTER:                  -3.818
REMARK INTRA:                  -0.121
REMARK UNBOUND:                -0.147
REMARK SMILES O=C([O-])CCC(=O)[O-]
REMARK SMILES IDX 4 1 2 2 1 3 3 4 5 5 6 6 7 7 8 8
REMARK H PARENT
REMARK Flexibility Score: inf
ROOT
ATOM      1  C   UNL     1      22.822   5.420   9.918  1.00  0.00     0.059 C 
ENDROOT
BRANCH   1   2
ATOM      2  C   UNL     1      23.921   6.206   9.274  1.00  0.00     0.042 C 
ATOM      3  O   UNL     1      23.648   7.156   8.495  1.00  0.00    -0.550 OA
ATOM      4  O   UNL     1      25.247   5.856   9.497  1.00  0.00    -0.550 OA
ENDBRANCH   1   2
BRANCH   1   5
ATOM      5  C   UNL     1      22.918   5.516  11.442  1.00  0.00     0.059 C 
BRANCH   5   6
ATOM      6  C   UNL     1      23.231   4.178  12.032  1.00  0.00     0.042 C 
ATOM      7  O   UNL     1      23.060   3.972  13.262  1.00  0.00    -0.550 OA
ATOM      8  O   UNL     1      23.758   3.172  11.232  1.00  0.00    -0.550 OA
ENDBRANCH   5   6
ENDBRANCH   1   5
TORSDOF 3
ENDMDL
MODEL 7
REMARK VINA RESULT:    -3.213      7.764      8.898
REMARK INTER + INTRA:          -3.923
REMARK INTER:                  -3.885
REMARK INTRA:                  -0.039
REMARK UNBOUND:                -0.147
REMARK SMILES O=C([O-])CCC(=O)[O-]
REMARK SMILES IDX 4 1 2 2 1 3 3 4 5 5 6 6 7 7 8 8
REMARK H PARENT
REMARK Flexibility Score: inf
ROOT
ATOM      1  C   UNL     1      23.226   7.093   8.422  1.00  0.00     0.059 C 
ENDROOT
BRANCH   1   2
ATOM      2  C   UNL     1      22.257   7.741   7.483  1.00  0.00     0.042 C 
ATOM      3  O   UNL     1      21.479   7.036   6.789  1.00  0.00    -0.550 OA
ATOM      4  O   UNL     1      22.248   9.123   7.339  1.00  0.00    -0.550 OA
ENDBRANCH   1   2
BRANCH   1   5
ATOM      5  C   UNL     1      22.624   5.816   9.013  1.00  0.00     0.059 C 
BRANCH   5   6
ATOM      6  C   UNL     1      23.419   5.362  10.197  1.00  0.00     0.042 C 
ATOM      7  O   UNL     1      24.486   5.953  10.507  1.00  0.00    -0.550 OA
ATOM      8  O   UNL     1      23.007   4.255  10.927  1.00  0.00    -0.550 OA
ENDBRANCH   5   6
ENDBRANCH   1   5
TORSDOF 3
ENDMDL
MODEL 8
REMARK VINA RESULT:    -3.178      8.212      8.864
REMARK INTER + INTRA:          -3.883
REMARK INTER:                  -3.768
REMARK INTRA:                  -0.115
REMARK UNBOUND:                -0.147
REMARK SMILES O=C([O-])CCC(=O)[O-]
REMARK SMILES IDX 4 1 2 2 1 3 3 4 5 5 6 6 7 7 8 8
REMARK H PARENT
REMARK Flexibility Score: inf
ROOT
ATOM      1  C   UNL     1      22.928   5.960   7.701  1.00  0.00     0.059 C 
ENDROOT
BRANCH   1   2
ATOM      2  C   UNL     1      22.186   7.211   7.348  1.00  0.00     0.042 C 
ATOM      3  O   UNL     1      22.561   8.321   7.808  1.00  0.00    -0.550 OA
ATOM      4  O   UNL     1      21.051   7.144   6.550  1.00  0.00    -0.550 OA
ENDBRANCH   1   2
BRANCH   1   5
ATOM      5  C   UNL     1      22.596   5.527   9.130  1.00  0.00     0.059 C 
BRANCH   5   6
ATOM      6  C   UNL     1      23.744   5.817  10.045  1.00  0.00     0.042 C 
ATOM      7  O   UNL     1      24.866   6.136   9.572  1.00  0.00    -0.550 OA
ATOM      8  O   UNL     1      23.587   5.686  11.419  1.00  0.00    -0.550 OA
ENDBRANCH   5   6
ENDBRANCH   1   5
TORSDOF 3
ENDMDL
MODEL 9
REMARK VINA RESULT:    -3.177      7.829      8.805
REMARK INTER + INTRA:          -3.881
REMARK INTER:                  -3.797
REMARK INTRA:                  -0.084
REMARK UNBOUND:                -0.147
REMARK SMILES O=C([O-])CCC(=O)[O-]
REMARK SMILES IDX 4 1 2 2 1 3 3 4 5 5 6 6 7 7 8 8
REMARK H PARENT
REMARK Flexibility Score: inf
ROOT
ATOM      1  C   UNL     1      22.690   5.407  11.761  1.00  0.00     0.059 C 
ENDROOT
BRANCH   1   2
ATOM      2  C   UNL     1      23.207   5.495  10.360  1.00  0.00     0.042 C 
ATOM      3  O   UNL     1      22.640   4.859   9.433  1.00  0.00    -0.550 OA
ATOM      4  O   UNL     1      24.347   6.240  10.085  1.00  0.00    -0.550 OA
ENDBRANCH   1   2
BRANCH   1   5
ATOM      5  C   UNL     1      23.790   5.766  12.761  1.00  0.00     0.059 C 
BRANCH   5   6
ATOM      6  C   UNL     1      24.275   4.539  13.468  1.00  0.00     0.042 C 
ATOM      7  O   UNL     1      25.425   4.516  13.979  1.00  0.00    -0.550 OA
ATOM      8  O   UNL     1      23.474   3.405  13.520  1.00  0.00    -0.550 OA
ENDBRANCH   5   6
ENDBRANCH   1   5
TORSDOF 3
ENDMDL
