MODEL 1
REMARK VINA RESULT:    -5.601      0.000      0.000
REMARK INTER + INTRA:          -7.299
REMARK INTER:                  -6.910
REMARK INTRA:                  -0.389
REMARK UNBOUND:                -0.389
REMARK SMILES COc1cc(-c2oc3cc(O)cc(O)c3c(=O)c2O)ccc1O
REMARK SMILES IDX 6 1 18 2 16 3 17 4 15 5 13 6 12 7 10 8 9 9 8 10 7 11 5 12
REMARK SMILES IDX 3 13 22 14 4 15 21 16 20 17 2 18 1 19 23 20 19 22 14 24
REMARK SMILES IDX 11 26
REMARK H PARENT 23 21 19 23 14 25 11 27
REMARK Flexibility Score: inf
ROOT
ATOM      1  C   UNL     1       3.250  37.949   6.286  1.00  0.00     0.180 A 
ATOM      2  C   UNL     1       3.719  38.840   5.306  1.00  0.00     0.208 A 
ATOM      3  C   UNL     1       4.956  39.477   5.501  1.00  0.00     0.238 A 
ATOM      4  O   UNL     1       5.397  40.231   4.595  1.00  0.00    -0.285 OA
ATOM      5  C   UNL     1       5.698  39.227   6.680  1.00  0.00     0.111 A 
ATOM      6  C   UNL     1       6.943  39.848   7.000  1.00  0.00     0.134 A 
ATOM      7  C   UNL     1       7.653  39.428   8.133  1.00  0.00     0.093 A 
ATOM      8  C   UNL     1       7.131  38.459   8.992  1.00  0.00     0.123 A 
ATOM      9  C   UNL     1       5.889  37.890   8.719  1.00  0.00     0.094 A 
ATOM     10  C   UNL     1       5.174  38.261   7.577  1.00  0.00     0.146 A 
ATOM     11  O   UNL     1       3.999  37.687   7.350  1.00  0.00    -0.452 OA
ENDROOT
BRANCH   1  12
ATOM     12  C   UNL     1       1.945  37.259   6.163  1.00  0.00     0.025 A 
ATOM     13  C   UNL     1      -0.475  37.264   6.513  1.00  0.00     0.161 A 
ATOM     14  C   UNL     1      -0.561  36.008   5.895  1.00  0.00     0.157 A 
ATOM     15  C   UNL     1       0.782  37.888   6.638  1.00  0.00     0.062 A 
ATOM     16  C   UNL     1       0.594  35.388   5.402  1.00  0.00     0.051 A 
ATOM     17  C   UNL     1       1.838  36.011   5.528  1.00  0.00     0.016 A 
BRANCH  13  18
ATOM     18  O   UNL     1      -1.656  37.857   6.987  1.00  0.00    -0.493 OA
ATOM     19  C   UNL     1      -1.733  39.166   7.544  1.00  0.00     0.278 C 
ENDBRANCH  13  18
BRANCH  14  20
ATOM     20  O   UNL     1      -1.801  35.385   5.769  1.00  0.00    -0.504 OA
ATOM     21  H   UNL     1      -2.042  34.567   6.316  1.00  0.00     0.293 HD
ENDBRANCH  14  20
ENDBRANCH   1  12
BRANCH   2  22
ATOM     22  O   UNL     1       2.981  39.054   4.139  1.00  0.00    -0.502 OA
ATOM     23  H   UNL     1       2.913  38.362   3.403  1.00  0.00     0.293 HD
ENDBRANCH   2  22
BRANCH   6  24
ATOM     24  O   UNL     1       7.509  40.891   6.261  1.00  0.00    -0.507 OA
ATOM     25  H   UNL     1       8.016  41.667   6.659  1.00  0.00     0.293 HD
ENDBRANCH   6  24
BRANCH   8  26
ATOM     26  O   UNL     1       7.836  38.058  10.124  1.00  0.00    -0.508 OA
ATOM     27  H   UNL     1       8.651  37.460  10.057  1.00  0.00     0.293 HD
ENDBRANCH   8  26
TORSDOF 6
ENDMDL
MODEL 2
REMARK VINA RESULT:    -5.522      0.939      1.030
REMARK INTER + INTRA:          -7.202
REMARK INTER:                  -6.840
REMARK INTRA:                  -0.362
REMARK UNBOUND:                -0.389
REMARK SMILES COc1cc(-c2oc3cc(O)cc(O)c3c(=O)c2O)ccc1O
REMARK SMILES IDX 6 1 18 2 16 3 17 4 15 5 13 6 12 7 10 8 9 9 8 10 7 11 5 12
REMARK SMILES IDX 3 13 22 14 4 15 21 16 20 17 2 18 1 19 23 20 19 22 14 24
REMARK SMILES IDX 11 26
REMARK H PARENT 23 21 19 23 14 25 11 27
REMARK Flexibility Score: inf
ROOT
ATOM      1  C   UNL     1       2.333  37.715   6.115  1.00  0.00     0.180 A 
ATOM      2  C   UNL     1       2.770  38.552   5.076  1.00  0.00     0.208 A 
ATOM      3  C   UNL     1       4.035  39.155   5.173  1.00  0.00     0.238 A 
ATOM      4  O   UNL     1       4.443  39.861   4.214  1.00  0.00    -0.285 OA
ATOM      5  C   UNL     1       4.839  38.925   6.315  1.00  0.00     0.111 A 
ATOM      6  C   UNL     1       6.119  39.516   6.537  1.00  0.00     0.134 A 
ATOM      7  C   UNL     1       6.882  39.115   7.641  1.00  0.00     0.093 A 
ATOM      8  C   UNL     1       6.383  38.195   8.566  1.00  0.00     0.123 A 
ATOM      9  C   UNL     1       5.110  37.658   8.389  1.00  0.00     0.094 A 
ATOM     10  C   UNL     1       4.340  38.010   7.278  1.00  0.00     0.146 A 
ATOM     11  O   UNL     1       3.136  37.467   7.142  1.00  0.00    -0.452 OA
ENDROOT
BRANCH   1  12
ATOM     12  C   UNL     1       1.003  37.063   6.096  1.00  0.00     0.025 A 
ATOM     13  C   UNL     1      -1.420  37.225   6.390  1.00  0.00     0.161 A 
ATOM     14  C   UNL     1      -1.548  35.880   6.013  1.00  0.00     0.157 A 
ATOM     15  C   UNL     1      -0.140  37.813   6.422  1.00  0.00     0.062 A 
ATOM     16  C   UNL     1      -0.414  35.136   5.667  1.00  0.00     0.051 A 
ATOM     17  C   UNL     1       0.853  35.724   5.701  1.00  0.00     0.016 A 
BRANCH  13  18
ATOM     18  O   UNL     1      -2.581  37.940   6.722  1.00  0.00    -0.493 OA
ATOM     19  C   UNL     1      -3.047  38.149   8.052  1.00  0.00     0.278 C 
ENDBRANCH  13  18
BRANCH  14  20
ATOM     20  O   UNL     1      -2.812  35.292   5.980  1.00  0.00    -0.504 OA
ATOM     21  H   UNL     1      -3.293  35.118   5.106  1.00  0.00     0.293 HD
ENDBRANCH  14  20
ENDBRANCH   1  12
BRANCH   2  22
ATOM     22  O   UNL     1       1.970  38.748   3.946  1.00  0.00    -0.502 OA
ATOM     23  H   UNL     1       1.415  38.006   3.537  1.00  0.00     0.293 HD
ENDBRANCH   2  22
BRANCH   6  24
ATOM     24  O   UNL     1       6.671  40.512   5.726  1.00  0.00    -0.507 OA
ATOM     25  H   UNL     1       6.148  41.076   5.074  1.00  0.00     0.293 HD
ENDBRANCH   6  24
BRANCH   8  26
ATOM     26  O   UNL     1       7.142  37.814   9.670  1.00  0.00    -0.508 OA
ATOM     27  H   UNL     1       7.949  37.208   9.574  1.00  0.00     0.293 HD
ENDBRANCH   8  26
TORSDOF 6
ENDMDL
MODEL 3
REMARK VINA RESULT:    -5.398      3.295      6.051
REMARK INTER + INTRA:          -7.048
REMARK INTER:                  -6.929
REMARK INTRA:                  -0.119
REMARK UNBOUND:                -0.389
REMARK SMILES COc1cc(-c2oc3cc(O)cc(O)c3c(=O)c2O)ccc1O
REMARK SMILES IDX 6 1 18 2 16 3 17 4 15 5 13 6 12 7 10 8 9 9 8 10 7 11 5 12
REMARK SMILES IDX 3 13 22 14 4 15 21 16 20 17 2 18 1 19 23 20 19 22 14 24
REMARK SMILES IDX 11 26
REMARK H PARENT 23 21 19 23 14 25 11 27
REMARK Flexibility Score: inf
ROOT
ATOM      1  C   UNL     1      -0.811  39.814   7.232  1.00  0.00     0.180 A 
ATOM      2  C   UNL     1       0.423  40.451   7.025  1.00  0.00     0.208 A 
ATOM      3  C   UNL     1       1.507  39.697   6.545  1.00  0.00     0.238 A 
ATOM      4  O   UNL     1       2.595  40.284   6.309  1.00  0.00    -0.285 OA
ATOM      5  C   UNL     1       1.345  38.313   6.294  1.00  0.00     0.111 A 
ATOM      6  C   UNL     1       2.385  37.444   5.845  1.00  0.00     0.134 A 
ATOM      7  C   UNL     1       2.080  36.120   5.506  1.00  0.00     0.093 A 
ATOM      8  C   UNL     1       0.787  35.616   5.662  1.00  0.00     0.123 A 
ATOM      9  C   UNL     1      -0.222  36.440   6.156  1.00  0.00     0.094 A 
ATOM     10  C   UNL     1       0.044  37.776   6.469  1.00  0.00     0.146 A 
ATOM     11  O   UNL     1      -0.949  38.530   6.926  1.00  0.00    -0.452 OA
ENDROOT
BRANCH   1  12
ATOM     12  C   UNL     1      -1.992  40.537   7.758  1.00  0.00     0.025 A 
ATOM     13  C   UNL     1      -3.713  40.776   9.480  1.00  0.00     0.161 A 
ATOM     14  C   UNL     1      -4.199  41.916   8.825  1.00  0.00     0.157 A 
ATOM     15  C   UNL     1      -2.602  40.094   8.944  1.00  0.00     0.062 A 
ATOM     16  C   UNL     1      -3.581  42.372   7.655  1.00  0.00     0.051 A 
ATOM     17  C   UNL     1      -2.481  41.692   7.128  1.00  0.00     0.016 A 
BRANCH  13  18
ATOM     18  O   UNL     1      -4.354  40.355  10.655  1.00  0.00    -0.493 OA
ATOM     19  C   UNL     1      -4.541  38.992  11.028  1.00  0.00     0.278 C 
ENDBRANCH  13  18
BRANCH  14  20
ATOM     20  O   UNL     1      -5.298  42.595   9.349  1.00  0.00    -0.504 OA
ATOM     21  H   UNL     1      -5.751  43.345   8.840  1.00  0.00     0.293 HD
ENDBRANCH  14  20
ENDBRANCH   1  12
BRANCH   2  22
ATOM     22  O   UNL     1       0.555  41.823   7.257  1.00  0.00    -0.502 OA
ATOM     23  H   UNL     1       1.341  42.217   7.759  1.00  0.00     0.293 HD
ENDBRANCH   2  22
BRANCH   6  24
ATOM     24  O   UNL     1       3.728  37.820   5.743  1.00  0.00    -0.507 OA
ATOM     25  H   UNL     1       4.066  38.597   5.194  1.00  0.00     0.293 HD
ENDBRANCH   6  24
BRANCH   8  26
ATOM     26  O   UNL     1       0.495  34.294   5.336  1.00  0.00    -0.508 OA
ATOM     27  H   UNL     1      -0.321  33.824   5.711  1.00  0.00     0.293 HD
ENDBRANCH   8  26
TORSDOF 6
ENDMDL
MODEL 4
REMARK VINA RESULT:    -5.336      2.746      6.208
REMARK INTER + INTRA:          -6.972
REMARK INTER:                  -6.688
REMARK INTRA:                  -0.285
REMARK UNBOUND:                -0.389
REMARK SMILES COc1cc(-c2oc3cc(O)cc(O)c3c(=O)c2O)ccc1O
REMARK SMILES IDX 6 1 18 2 16 3 17 4 15 5 13 6 12 7 10 8 9 9 8 10 7 11 5 12
REMARK SMILES IDX 3 13 22 14 4 15 21 16 20 17 2 18 1 19 23 20 19 22 14 24
REMARK SMILES IDX 11 26
REMARK H PARENT 23 21 19 23 14 25 11 27
REMARK Flexibility Score: inf
ROOT
ATOM      1  C   UNL     1      -1.459  38.958   7.329  1.00  0.00     0.180 A 
ATOM      2  C   UNL     1      -1.872  37.780   6.687  1.00  0.00     0.208 A 
ATOM      3  C   UNL     1      -0.903  36.949   6.100  1.00  0.00     0.238 A 
ATOM      4  O   UNL     1      -1.274  35.867   5.574  1.00  0.00    -0.285 OA
ATOM      5  C   UNL     1       0.463  37.316   6.150  1.00  0.00     0.111 A 
ATOM      6  C   UNL     1       1.524  36.570   5.555  1.00  0.00     0.134 A 
ATOM      7  C   UNL     1       2.851  36.959   5.779  1.00  0.00     0.093 A 
ATOM      8  C   UNL     1       3.152  38.104   6.521  1.00  0.00     0.123 A 
ATOM      9  C   UNL     1       2.120  38.871   7.055  1.00  0.00     0.094 A 
ATOM     10  C   UNL     1       0.787  38.488   6.881  1.00  0.00     0.146 A 
ATOM     11  O   UNL     1      -0.165  39.243   7.416  1.00  0.00    -0.452 OA
ENDROOT
BRANCH   1  12
ATOM     12  C   UNL     1      -2.423  39.897   7.949  1.00  0.00     0.025 A 
ATOM     13  C   UNL     1      -3.971  40.420   9.769  1.00  0.00     0.161 A 
ATOM     14  C   UNL     1      -4.215  41.675   9.192  1.00  0.00     0.157 A 
ATOM     15  C   UNL     1      -3.067  39.537   9.146  1.00  0.00     0.062 A 
ATOM     16  C   UNL     1      -3.559  42.044   8.011  1.00  0.00     0.051 A 
ATOM     17  C   UNL     1      -2.664  41.165   7.397  1.00  0.00     0.016 A 
BRANCH  13  18
ATOM     18  O   UNL     1      -4.641  40.090  10.957  1.00  0.00    -0.493 OA
ATOM     19  C   UNL     1      -4.779  38.765  11.463  1.00  0.00     0.278 C 
ENDBRANCH  13  18
BRANCH  14  20
ATOM     20  O   UNL     1      -5.109  42.553   9.803  1.00  0.00    -0.504 OA
ATOM     21  H   UNL     1      -5.898  42.941   9.300  1.00  0.00     0.293 HD
ENDBRANCH  14  20
ENDBRANCH   1  12
BRANCH   2  22
ATOM     22  O   UNL     1      -3.223  37.424   6.668  1.00  0.00    -0.502 OA
ATOM     23  H   UNL     1      -3.960  38.097   6.496  1.00  0.00     0.293 HD
ENDBRANCH   2  22
BRANCH   6  24
ATOM     24  O   UNL     1       1.331  35.466   4.720  1.00  0.00    -0.507 OA
ATOM     25  H   UNL     1       1.429  34.504   5.008  1.00  0.00     0.293 HD
ENDBRANCH   6  24
BRANCH   8  26
ATOM     26  O   UNL     1       4.473  38.492   6.725  1.00  0.00    -0.508 OA
ATOM     27  H   UNL     1       4.885  38.501   7.651  1.00  0.00     0.293 HD
ENDBRANCH   8  26
TORSDOF 6
ENDMDL
MODEL 5
REMARK VINA RESULT:    -5.334      1.688      7.174
REMARK INTER + INTRA:          -6.970
REMARK INTER:                  -6.568
REMARK INTRA:                  -0.402
REMARK UNBOUND:                -0.389
REMARK SMILES COc1cc(-c2oc3cc(O)cc(O)c3c(=O)c2O)ccc1O
REMARK SMILES IDX 6 1 18 2 16 3 17 4 15 5 13 6 12 7 10 8 9 9 8 10 7 11 5 12
REMARK SMILES IDX 3 13 22 14 4 15 21 16 20 17 2 18 1 19 23 20 19 22 14 24
REMARK SMILES IDX 11 26
REMARK H PARENT 23 21 19 23 14 25 11 27
REMARK Flexibility Score: inf
ROOT
ATOM      1  C   UNL     1       2.187  38.181   6.856  1.00  0.00     0.180 A 
ATOM      2  C   UNL     1       1.616  37.138   6.108  1.00  0.00     0.208 A 
ATOM      3  C   UNL     1       0.217  37.044   6.026  1.00  0.00     0.238 A 
ATOM      4  O   UNL     1      -0.287  36.141   5.310  1.00  0.00    -0.285 OA
ATOM      5  C   UNL     1      -0.592  37.986   6.707  1.00  0.00     0.111 A 
ATOM      6  C   UNL     1      -2.019  37.963   6.726  1.00  0.00     0.134 A 
ATOM      7  C   UNL     1      -2.718  39.019   7.324  1.00  0.00     0.093 A 
ATOM      8  C   UNL     1      -2.042  40.062   7.960  1.00  0.00     0.123 A 
ATOM      9  C   UNL     1      -0.650  40.062   7.998  1.00  0.00     0.094 A 
ATOM     10  C   UNL     1       0.077  39.041   7.379  1.00  0.00     0.146 A 
ATOM     11  O   UNL     1       1.402  39.085   7.430  1.00  0.00    -0.452 OA
ENDROOT
BRANCH   1  12
ATOM     12  C   UNL     1       3.652  38.330   7.009  1.00  0.00     0.025 A 
ATOM     13  C   UNL     1       5.745  39.369   6.286  1.00  0.00     0.161 A 
ATOM     14  C   UNL     1       6.427  38.690   7.305  1.00  0.00     0.157 A 
ATOM     15  C   UNL     1       4.354  39.191   6.148  1.00  0.00     0.062 A 
ATOM     16  C   UNL     1       5.728  37.848   8.178  1.00  0.00     0.051 A 
ATOM     17  C   UNL     1       4.349  37.674   8.037  1.00  0.00     0.016 A 
BRANCH  13  18
ATOM     18  O   UNL     1       6.479  40.210   5.436  1.00  0.00    -0.493 OA
ATOM     19  C   UNL     1       6.327  40.258   4.020  1.00  0.00     0.278 C 
ENDBRANCH  13  18
BRANCH  14  20
ATOM     20  O   UNL     1       7.803  38.861   7.447  1.00  0.00    -0.504 OA
ATOM     21  H   UNL     1       8.198  39.358   8.236  1.00  0.00     0.293 HD
ENDBRANCH  14  20
ENDBRANCH   1  12
BRANCH   2  22
ATOM     22  O   UNL     1       2.434  36.233   5.426  1.00  0.00    -0.502 OA
ATOM     23  H   UNL     1       2.639  35.308   5.784  1.00  0.00     0.293 HD
ENDBRANCH   2  22
BRANCH   6  24
ATOM     24  O   UNL     1      -2.791  36.922   6.201  1.00  0.00    -0.507 OA
ATOM     25  H   UNL     1      -2.593  36.439   5.338  1.00  0.00     0.293 HD
ENDBRANCH   6  24
BRANCH   8  26
ATOM     26  O   UNL     1      -2.745  41.101   8.566  1.00  0.00    -0.508 OA
ATOM     27  H   UNL     1      -2.449  41.496   9.451  1.00  0.00     0.293 HD
ENDBRANCH   8  26
TORSDOF 6
ENDMDL
MODEL 6
REMARK VINA RESULT:    -5.153      5.107      7.997
REMARK INTER + INTRA:          -6.747
REMARK INTER:                  -6.864
REMARK INTRA:                   0.117
REMARK UNBOUND:                -0.389
REMARK SMILES COc1cc(-c2oc3cc(O)cc(O)c3c(=O)c2O)ccc1O
REMARK SMILES IDX 6 1 18 2 16 3 17 4 15 5 13 6 12 7 10 8 9 9 8 10 7 11 5 12
REMARK SMILES IDX 3 13 22 14 4 15 21 16 20 17 2 18 1 19 23 20 19 22 14 24
REMARK SMILES IDX 11 26
REMARK H PARENT 23 21 19 23 14 25 11 27
REMARK Flexibility Score: inf
ROOT
ATOM      1  C   UNL     1      -2.614  39.580   7.922  1.00  0.00     0.180 A 
ATOM      2  C   UNL     1      -1.370  39.820   7.317  1.00  0.00     0.208 A 
ATOM      3  C   UNL     1      -0.659  38.740   6.768  1.00  0.00     0.238 A 
ATOM      4  O   UNL     1       0.429  38.969   6.178  1.00  0.00    -0.285 OA
ATOM      5  C   UNL     1      -1.196  37.432   6.846  1.00  0.00     0.111 A 
ATOM      6  C   UNL     1      -0.544  36.259   6.360  1.00  0.00     0.134 A 
ATOM      7  C   UNL     1      -1.225  35.035   6.374  1.00  0.00     0.093 A 
ATOM      8  C   UNL     1      -2.507  34.930   6.918  1.00  0.00     0.123 A 
ATOM      9  C   UNL     1      -3.128  36.058   7.449  1.00  0.00     0.094 A 
ATOM     10  C   UNL     1      -2.489  37.301   7.416  1.00  0.00     0.146 A 
ATOM     11  O   UNL     1      -3.120  38.352   7.923  1.00  0.00    -0.452 OA
ENDROOT
BRANCH   1  12
ATOM     12  C   UNL     1      -3.410  40.663   8.544  1.00  0.00     0.025 A 
ATOM     13  C   UNL     1      -4.279  42.947   8.456  1.00  0.00     0.161 A 
ATOM     14  C   UNL     1      -4.961  42.727   9.661  1.00  0.00     0.157 A 
ATOM     15  C   UNL     1      -3.511  41.906   7.898  1.00  0.00     0.062 A 
ATOM     16  C   UNL     1      -4.880  41.483  10.298  1.00  0.00     0.051 A 
ATOM     17  C   UNL     1      -4.115  40.455   9.741  1.00  0.00     0.016 A 
BRANCH  13  18
ATOM     18  O   UNL     1      -4.392  44.205   7.844  1.00  0.00    -0.493 OA
ATOM     19  C   UNL     1      -3.596  44.642   6.746  1.00  0.00     0.278 C 
ENDBRANCH  13  18
BRANCH  14  20
ATOM     20  O   UNL     1      -5.723  43.753  10.219  1.00  0.00    -0.504 OA
ATOM     21  H   UNL     1      -6.009  44.557   9.675  1.00  0.00     0.293 HD
ENDBRANCH  14  20
ENDBRANCH   1  12
BRANCH   2  22
ATOM     22  O   UNL     1      -0.869  41.122   7.230  1.00  0.00    -0.502 OA
ATOM     23  H   UNL     1       0.114  41.319   7.088  1.00  0.00     0.293 HD
ENDBRANCH   2  22
BRANCH   6  24
ATOM     24  O   UNL     1       0.770  36.236   5.883  1.00  0.00    -0.507 OA
ATOM     25  H   UNL     1       1.427  36.996   5.974  1.00  0.00     0.293 HD
ENDBRANCH   6  24
BRANCH   8  26
ATOM     26  O   UNL     1      -3.171  33.706   6.942  1.00  0.00    -0.508 OA
ATOM     27  H   UNL     1      -2.741  32.878   7.337  1.00  0.00     0.293 HD
ENDBRANCH   8  26
TORSDOF 6
ENDMDL
MODEL 7
REMARK VINA RESULT:    -5.132      4.431      9.330
REMARK INTER + INTRA:          -6.721
REMARK INTER:                  -6.411
REMARK INTRA:                  -0.310
REMARK UNBOUND:                -0.389
REMARK SMILES COc1cc(-c2oc3cc(O)cc(O)c3c(=O)c2O)ccc1O
REMARK SMILES IDX 6 1 18 2 16 3 17 4 15 5 13 6 12 7 10 8 9 9 8 10 7 11 5 12
REMARK SMILES IDX 3 13 22 14 4 15 21 16 20 17 2 18 1 19 23 20 19 22 14 24
REMARK SMILES IDX 11 26
REMARK H PARENT 23 21 19 23 14 25 11 27
REMARK Flexibility Score: inf
ROOT
ATOM      1  C   UNL     1      -2.630  40.731   8.226  1.00  0.00     0.180 A 
ATOM      2  C   UNL     1      -3.494  40.351   9.265  1.00  0.00     0.208 A 
ATOM      3  C   UNL     1      -4.479  41.254   9.697  1.00  0.00     0.238 A 
ATOM      4  O   UNL     1      -5.286  40.888  10.591  1.00  0.00    -0.285 OA
ATOM      5  C   UNL     1      -4.576  42.531   9.093  1.00  0.00     0.111 A 
ATOM      6  C   UNL     1      -5.509  43.540   9.478  1.00  0.00     0.134 A 
ATOM      7  C   UNL     1      -5.602  44.718   8.725  1.00  0.00     0.093 A 
ATOM      8  C   UNL     1      -4.750  44.951   7.643  1.00  0.00     0.123 A 
ATOM      9  C   UNL     1      -3.796  43.997   7.297  1.00  0.00     0.094 A 
ATOM     10  C   UNL     1      -3.704  42.796   8.006  1.00  0.00     0.146 A 
ATOM     11  O   UNL     1      -2.787  41.910   7.636  1.00  0.00    -0.452 OA
ENDROOT
BRANCH   1  12
ATOM     12  C   UNL     1      -1.551  39.843   7.733  1.00  0.00     0.025 A 
ATOM     13  C   UNL     1      -0.870  37.891   6.427  1.00  0.00     0.161 A 
ATOM     14  C   UNL     1       0.472  38.166   6.728  1.00  0.00     0.157 A 
ATOM     15  C   UNL     1      -1.878  38.739   6.927  1.00  0.00     0.062 A 
ATOM     16  C   UNL     1       0.802  39.277   7.513  1.00  0.00     0.051 A 
ATOM     17  C   UNL     1      -0.201  40.114   8.008  1.00  0.00     0.016 A 
BRANCH  13  18
ATOM     18  O   UNL     1      -1.160  36.773   5.630  1.00  0.00    -0.493 OA
ATOM     19  C   UNL     1      -1.501  35.486   6.138  1.00  0.00     0.278 C 
ENDBRANCH  13  18
BRANCH  14  20
ATOM     20  O   UNL     1       1.473  37.331   6.236  1.00  0.00    -0.504 OA
ATOM     21  H   UNL     1       1.451  36.976   5.288  1.00  0.00     0.293 HD
ENDBRANCH  14  20
ENDBRANCH   1  12
BRANCH   2  22
ATOM     22  O   UNL     1      -3.396  39.077   9.832  1.00  0.00    -0.502 OA
ATOM     23  H   UNL     1      -2.511  38.598   9.944  1.00  0.00     0.293 HD
ENDBRANCH   2  22
BRANCH   6  24
ATOM     24  O   UNL     1      -6.341  43.449  10.597  1.00  0.00    -0.507 OA
ATOM     25  H   UNL     1      -6.040  43.156  11.514  1.00  0.00     0.293 HD
ENDBRANCH   6  24
BRANCH   8  26
ATOM     26  O   UNL     1      -4.838  46.131   6.909  1.00  0.00    -0.508 OA
ATOM     27  H   UNL     1      -4.078  46.801   6.890  1.00  0.00     0.293 HD
ENDBRANCH   8  26
TORSDOF 6
ENDMDL
MODEL 8
REMARK VINA RESULT:    -5.082      2.823      6.252
REMARK INTER + INTRA:          -6.659
REMARK INTER:                  -6.427
REMARK INTRA:                  -0.232
REMARK UNBOUND:                -0.389
REMARK SMILES COc1cc(-c2oc3cc(O)cc(O)c3c(=O)c2O)ccc1O
REMARK SMILES IDX 6 1 18 2 16 3 17 4 15 5 13 6 12 7 10 8 9 9 8 10 7 11 5 12
REMARK SMILES IDX 3 13 22 14 4 15 21 16 20 17 2 18 1 19 23 20 19 22 14 24
REMARK SMILES IDX 11 26
REMARK H PARENT 23 21 19 23 14 25 11 27
REMARK Flexibility Score: inf
ROOT
ATOM      1  C   UNL     1      -1.437  39.012   7.454  1.00  0.00     0.180 A 
ATOM      2  C   UNL     1      -1.864  37.822   6.842  1.00  0.00     0.208 A 
ATOM      3  C   UNL     1      -0.910  36.987   6.238  1.00  0.00     0.238 A 
ATOM      4  O   UNL     1      -1.291  35.895   5.739  1.00  0.00    -0.285 OA
ATOM      5  C   UNL     1       0.455  37.361   6.239  1.00  0.00     0.111 A 
ATOM      6  C   UNL     1       1.501  36.611   5.622  1.00  0.00     0.134 A 
ATOM      7  C   UNL     1       2.832  37.010   5.797  1.00  0.00     0.093 A 
ATOM      8  C   UNL     1       3.150  38.167   6.512  1.00  0.00     0.123 A 
ATOM      9  C   UNL     1       2.131  38.938   7.068  1.00  0.00     0.094 A 
ATOM     10  C   UNL     1       0.796  38.546   6.941  1.00  0.00     0.146 A 
ATOM     11  O   UNL     1      -0.143  39.304   7.495  1.00  0.00    -0.452 OA
ENDROOT
BRANCH   1  12
ATOM     12  C   UNL     1      -2.386  39.955   8.090  1.00  0.00     0.025 A 
ATOM     13  C   UNL     1      -3.516  42.125   8.080  1.00  0.00     0.161 A 
ATOM     14  C   UNL     1      -4.224  41.753   9.232  1.00  0.00     0.157 A 
ATOM     15  C   UNL     1      -2.602  41.216   7.509  1.00  0.00     0.062 A 
ATOM     16  C   UNL     1      -4.026  40.489   9.802  1.00  0.00     0.051 A 
ATOM     17  C   UNL     1      -3.119  39.593   9.232  1.00  0.00     0.016 A 
BRANCH  13  18
ATOM     18  O   UNL     1      -3.747  43.396   7.534  1.00  0.00    -0.493 OA
ATOM     19  C   UNL     1      -3.125  43.892   6.353  1.00  0.00     0.278 C 
ENDBRANCH  13  18
BRANCH  14  20
ATOM     20  O   UNL     1      -5.129  42.647   9.803  1.00  0.00    -0.504 OA
ATOM     21  H   UNL     1      -4.880  43.613   9.979  1.00  0.00     0.293 HD
ENDBRANCH  14  20
ENDBRANCH   1  12
BRANCH   2  22
ATOM     22  O   UNL     1      -3.214  37.460   6.872  1.00  0.00    -0.502 OA
ATOM     23  H   UNL     1      -3.625  36.958   7.649  1.00  0.00     0.293 HD
ENDBRANCH   2  22
BRANCH   6  24
ATOM     24  O   UNL     1       1.287  35.494   4.810  1.00  0.00    -0.507 OA
ATOM     25  H   UNL     1       0.883  34.624   5.124  1.00  0.00     0.293 HD
ENDBRANCH   6  24
BRANCH   8  26
ATOM     26  O   UNL     1       4.475  38.564   6.669  1.00  0.00    -0.508 OA
ATOM     27  H   UNL     1       5.230  37.889   6.707  1.00  0.00     0.293 HD
ENDBRANCH   8  26
TORSDOF 6
ENDMDL
MODEL 9
REMARK VINA RESULT:    -5.051      3.857      8.445
REMARK INTER + INTRA:          -6.621
REMARK INTER:                  -6.230
REMARK INTRA:                  -0.391
REMARK UNBOUND:                -0.389
REMARK SMILES COc1cc(-c2oc3cc(O)cc(O)c3c(=O)c2O)ccc1O
REMARK SMILES IDX 6 1 18 2 16 3 17 4 15 5 13 6 12 7 10 8 9 9 8 10 7 11 5 12
REMARK SMILES IDX 3 13 22 14 4 15 21 16 20 17 2 18 1 19 23 20 19 22 14 24
REMARK SMILES IDX 11 26
REMARK H PARENT 23 21 19 23 14 25 11 27
REMARK Flexibility Score: inf
ROOT
ATOM      1  C   UNL     1      -1.566  35.350   7.248  1.00  0.00     0.180 A 
ATOM      2  C   UNL     1      -2.873  35.264   6.742  1.00  0.00     0.208 A 
ATOM      3  C   UNL     1      -3.881  34.708   7.546  1.00  0.00     0.238 A 
ATOM      4  O   UNL     1      -5.060  34.684   7.108  1.00  0.00    -0.285 OA
ATOM      5  C   UNL     1      -3.564  34.230   8.841  1.00  0.00     0.111 A 
ATOM      6  C   UNL     1      -4.497  33.611   9.726  1.00  0.00     0.134 A 
ATOM      7  C   UNL     1      -4.103  33.294  11.032  1.00  0.00     0.093 A 
ATOM      8  C   UNL     1      -2.793  33.513  11.463  1.00  0.00     0.123 A 
ATOM      9  C   UNL     1      -1.859  34.062  10.587  1.00  0.00     0.094 A 
ATOM     10  C   UNL     1      -2.232  34.422   9.289  1.00  0.00     0.146 A 
ATOM     11  O   UNL     1      -1.313  34.952   8.489  1.00  0.00    -0.452 OA
ENDROOT
BRANCH   1  12
ATOM     12  C   UNL     1      -0.446  35.901   6.451  1.00  0.00     0.025 A 
ATOM     13  C   UNL     1       0.855  37.837   5.714  1.00  0.00     0.161 A 
ATOM     14  C   UNL     1       1.707  36.983   4.998  1.00  0.00     0.157 A 
ATOM     15  C   UNL     1      -0.217  37.287   6.445  1.00  0.00     0.062 A 
ATOM     16  C   UNL     1       1.494  35.599   5.019  1.00  0.00     0.051 A 
ATOM     17  C   UNL     1       0.430  35.060   5.745  1.00  0.00     0.016 A 
BRANCH  13  18
ATOM     18  O   UNL     1       1.105  39.217   5.675  1.00  0.00    -0.493 OA
ATOM     19  C   UNL     1       1.747  39.949   6.715  1.00  0.00     0.278 C 
ENDBRANCH  13  18
BRANCH  14  20
ATOM     20  O   UNL     1       2.769  37.520   4.272  1.00  0.00    -0.504 OA
ATOM     21  H   UNL     1       3.703  37.134   4.335  1.00  0.00     0.293 HD
ENDBRANCH  14  20
ENDBRANCH   1  12
BRANCH   2  22
ATOM     22  O   UNL     1      -3.168  35.763   5.470  1.00  0.00    -0.502 OA
ATOM     23  H   UNL     1      -2.452  35.952   4.780  1.00  0.00     0.293 HD
ENDBRANCH   2  22
BRANCH   6  24
ATOM     24  O   UNL     1      -5.803  33.264   9.367  1.00  0.00    -0.507 OA
ATOM     25  H   UNL     1      -6.274  33.585   8.535  1.00  0.00     0.293 HD
ENDBRANCH   6  24
BRANCH   8  26
ATOM     26  O   UNL     1      -2.405  33.181  12.759  1.00  0.00    -0.508 OA
ATOM     27  H   UNL     1      -2.597  32.266  13.151  1.00  0.00     0.293 HD
ENDBRANCH   8  26
TORSDOF 6
ENDMDL
