MODEL 1
REMARK VINA RESULT:    -1.167      0.000      0.000
REMARK INTER + INTRA:          -9.017
REMARK INTER:                  -2.941
REMARK INTRA:                  -6.075
REMARK UNBOUND:                -6.075
REMARK SMILES CCCCCCCCCCCCCCCCCCCCCCCCCCCC(=O)[O-]
REMARK SMILES IDX 15 1 16 2 17 3 18 4 19 5 20 6 21 7 22 8 23 9 24 10 25 11
REMARK SMILES IDX 26 12 27 13 28 14 29 15 30 16 14 17 13 18 12 19 11 20 10 21
REMARK SMILES IDX 9 22 8 23 7 24 6 25 5 26 4 27 3 28 2 29 1 30
REMARK H PARENT
REMARK Flexibility Score: inf
ROOT
ATOM      1  C   UNL     1     -17.676 -24.140  28.232  1.00  0.00     0.000 C 
ENDROOT
BRANCH   1   2
ATOM      2  C   UNL     1     -16.305 -24.347  27.543  1.00  0.00     0.000 C 
BRANCH   2   3
ATOM      3  C   UNL     1     -15.181 -23.422  28.047  1.00  0.00     0.000 C 
BRANCH   3   4
ATOM      4  C   UNL     1     -15.664 -21.987  28.333  1.00  0.00     0.000 C 
BRANCH   4   5
ATOM      5  C   UNL     1     -15.244 -21.510  29.733  1.00  0.00     0.000 C 
BRANCH   5   6
ATOM      6  C   UNL     1     -16.383 -21.690  30.755  1.00  0.00     0.000 C 
BRANCH   6   7
ATOM      7  C   UNL     1     -15.990 -22.598  31.929  1.00  0.00     0.000 C 
BRANCH   7   8
ATOM      8  C   UNL     1     -16.470 -24.047  31.746  1.00  0.00     0.000 C 
BRANCH   8   9
ATOM      9  C   UNL     1     -15.298 -24.964  31.369  1.00  0.00     0.000 C 
BRANCH   9  10
ATOM     10  C   UNL     1     -15.739 -26.433  31.310  1.00  0.00     0.000 C 
BRANCH  10  11
ATOM     11  C   UNL     1     -15.473 -27.025  29.917  1.00  0.00     0.000 C 
BRANCH  11  12
ATOM     12  C   UNL     1     -16.623 -27.919  29.417  1.00  0.00     0.006 C 
BRANCH  12  13
ATOM     13  C   UNL     1     -16.759 -27.977  27.885  1.00  0.00     0.053 C 
BRANCH  13  14
ATOM     14  C   UNL     1     -15.450 -28.256  27.210  1.00  0.00     0.041 C 
ATOM     15  O   UNL     1     -14.877 -29.365  27.376  1.00  0.00    -0.550 OA
ATOM     16  O   UNL     1     -14.875 -27.298  26.381  1.00  0.00    -0.550 OA
ENDBRANCH  13  14
ENDBRANCH  12  13
ENDBRANCH  11  12
ENDBRANCH  10  11
ENDBRANCH   9  10
ENDBRANCH   8   9
ENDBRANCH   7   8
ENDBRANCH   6   7
ENDBRANCH   5   6
ENDBRANCH   4   5
ENDBRANCH   3   4
ENDBRANCH   2   3
ENDBRANCH   1   2
BRANCH   1  17
ATOM     17  C   UNL     1     -18.895 -24.144  27.286  1.00  0.00     0.000 C 
BRANCH  17  18
ATOM     18  C   UNL     1     -19.806 -22.918  27.473  1.00  0.00     0.000 C 
BRANCH  18  19
ATOM     19  C   UNL     1     -19.371 -22.035  28.658  1.00  0.00     0.000 C 
BRANCH  19  20
ATOM     20  C   UNL     1     -20.326 -22.047  29.866  1.00  0.00     0.000 C 
BRANCH  20  21
ATOM     21  C   UNL     1     -19.845 -22.881  31.068  1.00  0.00     0.000 C 
BRANCH  21  22
ATOM     22  C   UNL     1     -20.949 -23.672  31.795  1.00  0.00    -0.000 C 
BRANCH  22  23
ATOM     23  C   UNL     1     -20.747 -25.197  31.839  1.00  0.00    -0.000 C 
BRANCH  23  24
ATOM     24  C   UNL     1     -19.577 -25.676  30.960  1.00  0.00    -0.000 C 
BRANCH  24  25
ATOM     25  C   UNL     1     -20.029 -26.583  29.801  1.00  0.00    -0.000 C 
BRANCH  25  26
ATOM     26  C   UNL     1     -21.548 -26.639  29.561  1.00  0.00    -0.000 C 
BRANCH  26  27
ATOM     27  C   UNL     1     -21.998 -25.794  28.355  1.00  0.00    -0.000 C 
BRANCH  27  28
ATOM     28  C   UNL     1     -22.885 -24.602  28.755  1.00  0.00    -0.000 C 
BRANCH  28  29
ATOM     29  C   UNL     1     -24.073 -24.329  27.815  1.00  0.00    -0.003 C 
ATOM     30  C   UNL     1     -25.428 -24.586  28.474  1.00  0.00     0.004 C 
ENDBRANCH  28  29
ENDBRANCH  27  28
ENDBRANCH  26  27
ENDBRANCH  25  26
ENDBRANCH  24  25
ENDBRANCH  23  24
ENDBRANCH  22  23
ENDBRANCH  21  22
ENDBRANCH  20  21
ENDBRANCH  19  20
ENDBRANCH  18  19
ENDBRANCH  17  18
ENDBRANCH   1  17
TORSDOF 26
ENDMDL
MODEL 2
REMARK VINA RESULT:    -1.135      3.369      7.141
REMARK INTER + INTRA:          -8.935
REMARK INTER:                  -2.657
REMARK INTRA:                  -6.278
REMARK UNBOUND:                -6.075
REMARK SMILES CCCCCCCCCCCCCCCCCCCCCCCCCCCC(=O)[O-]
REMARK SMILES IDX 15 1 16 2 17 3 18 4 19 5 20 6 21 7 22 8 23 9 24 10 25 11
REMARK SMILES IDX 26 12 27 13 28 14 29 15 30 16 14 17 13 18 12 19 11 20 10 21
REMARK SMILES IDX 9 22 8 23 7 24 6 25 5 26 4 27 3 28 2 29 1 30
REMARK H PARENT
REMARK Flexibility Score: inf
ROOT
ATOM      1  C   UNL     1     -19.322 -23.079  27.515  1.00  0.00     0.000 C 
ENDROOT
BRANCH   1   2
ATOM      2  C   UNL     1     -18.630 -23.481  26.190  1.00  0.00     0.000 C 
BRANCH   2   3
ATOM      3  C   UNL     1     -18.051 -24.910  26.169  1.00  0.00     0.000 C 
BRANCH   3   4
ATOM      4  C   UNL     1     -18.232 -25.653  27.506  1.00  0.00     0.000 C 
BRANCH   4   5
ATOM      5  C   UNL     1     -19.056 -26.940  27.339  1.00  0.00     0.000 C 
BRANCH   5   6
ATOM      6  C   UNL     1     -19.991 -27.170  28.541  1.00  0.00     0.000 C 
BRANCH   6   7
ATOM      7  C   UNL     1     -20.927 -25.982  28.803  1.00  0.00     0.000 C 
BRANCH   7   8
ATOM      8  C   UNL     1     -21.930 -25.753  27.660  1.00  0.00     0.000 C 
BRANCH   8   9
ATOM      9  C   UNL     1     -22.704 -24.445  27.870  1.00  0.00     0.000 C 
BRANCH   9  10
ATOM     10  C   UNL     1     -22.501 -23.899  29.289  1.00  0.00     0.000 C 
BRANCH  10  11
ATOM     11  C   UNL     1     -22.443 -22.363  29.278  1.00  0.00     0.000 C 
BRANCH  11  12
ATOM     12  C   UNL     1     -23.026 -21.733  30.557  1.00  0.00     0.006 C 
BRANCH  12  13
ATOM     13  C   UNL     1     -21.979 -21.415  31.639  1.00  0.00     0.053 C 
BRANCH  13  14
ATOM     14  C   UNL     1     -21.289 -20.107  31.394  1.00  0.00     0.041 C 
ATOM     15  O   UNL     1     -20.095 -19.944  31.762  1.00  0.00    -0.550 OA
ATOM     16  O   UNL     1     -21.959 -19.077  30.742  1.00  0.00    -0.550 OA
ENDBRANCH  13  14
ENDBRANCH  12  13
ENDBRANCH  11  12
ENDBRANCH  10  11
ENDBRANCH   9  10
ENDBRANCH   8   9
ENDBRANCH   7   8
ENDBRANCH   6   7
ENDBRANCH   5   6
ENDBRANCH   4   5
ENDBRANCH   3   4
ENDBRANCH   2   3
ENDBRANCH   1   2
BRANCH   1  17
ATOM     17  C   UNL     1     -18.764 -21.809  28.189  1.00  0.00     0.000 C 
BRANCH  17  18
ATOM     18  C   UNL     1     -18.357 -22.035  29.656  1.00  0.00     0.000 C 
BRANCH  18  19
ATOM     19  C   UNL     1     -19.073 -23.243  30.288  1.00  0.00     0.000 C 
BRANCH  19  20
ATOM     20  C   UNL     1     -18.267 -23.986  31.370  1.00  0.00     0.000 C 
BRANCH  20  21
ATOM     21  C   UNL     1     -17.666 -25.332  30.925  1.00  0.00     0.000 C 
BRANCH  21  22
ATOM     22  C   UNL     1     -16.139 -25.328  30.719  1.00  0.00    -0.000 C 
BRANCH  22  23
ATOM     23  C   UNL     1     -15.408 -24.077  31.240  1.00  0.00    -0.000 C 
BRANCH  23  24
ATOM     24  C   UNL     1     -14.876 -23.175  30.111  1.00  0.00    -0.000 C 
BRANCH  24  25
ATOM     25  C   UNL     1     -15.159 -23.739  28.707  1.00  0.00    -0.000 C 
BRANCH  25  26
ATOM     26  C   UNL     1     -15.217 -22.696  27.576  1.00  0.00    -0.000 C 
BRANCH  26  27
ATOM     27  C   UNL     1     -15.046 -21.252  28.082  1.00  0.00    -0.000 C 
BRANCH  27  28
ATOM     28  C   UNL     1     -15.504 -20.198  27.057  1.00  0.00    -0.000 C 
BRANCH  28  29
ATOM     29  C   UNL     1     -16.139 -20.767  25.777  1.00  0.00    -0.003 C 
ATOM     30  C   UNL     1     -17.330 -19.946  25.284  1.00  0.00     0.004 C 
ENDBRANCH  28  29
ENDBRANCH  27  28
ENDBRANCH  26  27
ENDBRANCH  25  26
ENDBRANCH  24  25
ENDBRANCH  23  24
ENDBRANCH  22  23
ENDBRANCH  21  22
ENDBRANCH  20  21
ENDBRANCH  19  20
ENDBRANCH  18  19
ENDBRANCH  17  18
ENDBRANCH   1  17
TORSDOF 26
ENDMDL
MODEL 3
REMARK VINA RESULT:    -1.109      2.442      4.245
REMARK INTER + INTRA:          -8.870
REMARK INTER:                  -2.585
REMARK INTRA:                  -6.285
REMARK UNBOUND:                -6.075
REMARK SMILES CCCCCCCCCCCCCCCCCCCCCCCCCCCC(=O)[O-]
REMARK SMILES IDX 15 1 16 2 17 3 18 4 19 5 20 6 21 7 22 8 23 9 24 10 25 11
REMARK SMILES IDX 26 12 27 13 28 14 29 15 30 16 14 17 13 18 12 19 11 20 10 21
REMARK SMILES IDX 9 22 8 23 7 24 6 25 5 26 4 27 3 28 2 29 1 30
REMARK H PARENT
REMARK Flexibility Score: inf
ROOT
ATOM      1  C   UNL     1     -17.406 -24.992  27.831  1.00  0.00     0.000 C 
ENDROOT
BRANCH   1   2
ATOM      2  C   UNL     1     -16.360 -24.492  28.856  1.00  0.00     0.000 C 
BRANCH   2   3
ATOM      3  C   UNL     1     -16.136 -25.427  30.061  1.00  0.00     0.000 C 
BRANCH   3   4
ATOM      4  C   UNL     1     -15.945 -24.668  31.387  1.00  0.00     0.000 C 
BRANCH   4   5
ATOM      5  C   UNL     1     -15.663 -23.174  31.156  1.00  0.00     0.000 C 
BRANCH   5   6
ATOM      6  C   UNL     1     -16.655 -22.287  31.932  1.00  0.00     0.000 C 
BRANCH   6   7
ATOM      7  C   UNL     1     -17.598 -21.501  31.011  1.00  0.00     0.000 C 
BRANCH   7   8
ATOM      8  C   UNL     1     -19.075 -21.879  31.213  1.00  0.00     0.000 C 
BRANCH   8   9
ATOM      9  C   UNL     1     -19.391 -23.222  30.540  1.00  0.00     0.000 C 
BRANCH   9  10
ATOM     10  C   UNL     1     -20.151 -24.155  31.492  1.00  0.00     0.000 C 
BRANCH  10  11
ATOM     11  C   UNL     1     -19.599 -25.587  31.405  1.00  0.00     0.000 C 
BRANCH  11  12
ATOM     12  C   UNL     1     -20.056 -26.329  30.135  1.00  0.00     0.006 C 
BRANCH  12  13
ATOM     13  C   UNL     1     -19.227 -27.581  29.802  1.00  0.00     0.053 C 
BRANCH  13  14
ATOM     14  C   UNL     1     -19.919 -28.846  30.214  1.00  0.00     0.041 C 
ATOM     15  O   UNL     1     -19.301 -29.943  30.180  1.00  0.00    -0.550 OA
ATOM     16  O   UNL     1     -21.237 -28.807  30.655  1.00  0.00    -0.550 OA
ENDBRANCH  13  14
ENDBRANCH  12  13
ENDBRANCH  11  12
ENDBRANCH  10  11
ENDBRANCH   9  10
ENDBRANCH   8   9
ENDBRANCH   7   8
ENDBRANCH   6   7
ENDBRANCH   5   6
ENDBRANCH   4   5
ENDBRANCH   3   4
ENDBRANCH   2   3
ENDBRANCH   1   2
BRANCH   1  17
ATOM     17  C   UNL     1     -18.008 -23.902  26.920  1.00  0.00     0.000 C 
BRANCH  17  18
ATOM     18  C   UNL     1     -17.625 -22.476  27.355  1.00  0.00     0.000 C 
BRANCH  18  19
ATOM     19  C   UNL     1     -18.840 -21.532  27.419  1.00  0.00     0.000 C 
BRANCH  19  20
ATOM     20  C   UNL     1     -19.060 -20.666  26.164  1.00  0.00     0.000 C 
BRANCH  20  21
ATOM     21  C   UNL     1     -20.521 -20.575  25.685  1.00  0.00     0.000 C 
BRANCH  21  22
ATOM     22  C   UNL     1     -21.043 -21.820  24.943  1.00  0.00    -0.000 C 
BRANCH  22  23
ATOM     23  C   UNL     1     -22.131 -22.620  25.683  1.00  0.00    -0.000 C 
BRANCH  23  24
ATOM     24  C   UNL     1     -21.634 -23.983  26.197  1.00  0.00    -0.000 C 
BRANCH  24  25
ATOM     25  C   UNL     1     -21.587 -24.065  27.734  1.00  0.00    -0.000 C 
BRANCH  25  26
ATOM     26  C   UNL     1     -22.953 -23.986  28.440  1.00  0.00    -0.000 C 
BRANCH  26  27
ATOM     27  C   UNL     1     -23.008 -22.893  29.523  1.00  0.00    -0.000 C 
BRANCH  27  28
ATOM     28  C   UNL     1     -23.839 -21.670  29.099  1.00  0.00    -0.000 C 
BRANCH  28  29
ATOM     29  C   UNL     1     -23.030 -20.511  28.489  1.00  0.00    -0.003 C 
ATOM     30  C   UNL     1     -21.743 -20.212  29.255  1.00  0.00     0.004 C 
ENDBRANCH  28  29
ENDBRANCH  27  28
ENDBRANCH  26  27
ENDBRANCH  25  26
ENDBRANCH  24  25
ENDBRANCH  23  24
ENDBRANCH  22  23
ENDBRANCH  21  22
ENDBRANCH  20  21
ENDBRANCH  19  20
ENDBRANCH  18  19
ENDBRANCH  17  18
ENDBRANCH   1  17
TORSDOF 26
ENDMDL
MODEL 4
REMARK VINA RESULT:    -1.077      2.333      5.710
REMARK INTER + INTRA:          -8.789
REMARK INTER:                  -2.819
REMARK INTRA:                  -5.970
REMARK UNBOUND:                -6.075
REMARK SMILES CCCCCCCCCCCCCCCCCCCCCCCCCCCC(=O)[O-]
REMARK SMILES IDX 15 1 16 2 17 3 18 4 19 5 20 6 21 7 22 8 23 9 24 10 25 11
REMARK SMILES IDX 26 12 27 13 28 14 29 15 30 16 14 17 13 18 12 19 11 20 10 21
REMARK SMILES IDX 9 22 8 23 7 24 6 25 5 26 4 27 3 28 2 29 1 30
REMARK H PARENT
REMARK Flexibility Score: inf
ROOT
ATOM      1  C   UNL     1     -22.341 -24.935  30.300  1.00  0.00     0.000 C 
ENDROOT
BRANCH   1   2
ATOM      2  C   UNL     1     -22.544 -24.368  28.874  1.00  0.00     0.000 C 
BRANCH   2   3
ATOM      3  C   UNL     1     -21.252 -24.216  28.048  1.00  0.00     0.000 C 
BRANCH   3   4
ATOM      4  C   UNL     1     -21.027 -22.780  27.539  1.00  0.00     0.000 C 
BRANCH   4   5
ATOM      5  C   UNL     1     -19.931 -22.055  28.337  1.00  0.00     0.000 C 
BRANCH   5   6
ATOM      6  C   UNL     1     -18.772 -23.005  28.693  1.00  0.00     0.000 C 
BRANCH   6   7
ATOM      7  C   UNL     1     -17.507 -22.737  27.866  1.00  0.00     0.000 C 
BRANCH   7   8
ATOM      8  C   UNL     1     -16.789 -24.030  27.444  1.00  0.00     0.000 C 
BRANCH   8   9
ATOM      9  C   UNL     1     -17.794 -25.065  26.922  1.00  0.00     0.000 C 
BRANCH   9  10
ATOM     10  C   UNL     1     -17.082 -26.327  26.417  1.00  0.00     0.000 C 
BRANCH  10  11
ATOM     11  C   UNL     1     -18.102 -27.389  25.981  1.00  0.00     0.000 C 
BRANCH  11  12
ATOM     12  C   UNL     1     -19.548 -27.028  26.369  1.00  0.00     0.006 C 
BRANCH  12  13
ATOM     13  C   UNL     1     -20.567 -27.182  25.227  1.00  0.00     0.053 C 
BRANCH  13  14
ATOM     14  C   UNL     1     -20.425 -26.108  24.191  1.00  0.00     0.041 C 
ATOM     15  O   UNL     1     -20.408 -24.897  24.536  1.00  0.00    -0.550 OA
ATOM     16  O   UNL     1     -20.292 -26.447  22.849  1.00  0.00    -0.550 OA
ENDBRANCH  13  14
ENDBRANCH  12  13
ENDBRANCH  11  12
ENDBRANCH  10  11
ENDBRANCH   9  10
ENDBRANCH   8   9
ENDBRANCH   7   8
ENDBRANCH   6   7
ENDBRANCH   5   6
ENDBRANCH   4   5
ENDBRANCH   3   4
ENDBRANCH   2   3
ENDBRANCH   1   2
BRANCH   1  17
ATOM     17  C   UNL     1     -21.545 -24.028  31.261  1.00  0.00     0.000 C 
BRANCH  17  18
ATOM     18  C   UNL     1     -20.239 -24.675  31.756  1.00  0.00     0.000 C 
BRANCH  18  19
ATOM     19  C   UNL     1     -20.043 -26.101  31.210  1.00  0.00     0.000 C 
BRANCH  19  20
ATOM     20  C   UNL     1     -18.927 -26.249  30.158  1.00  0.00     0.000 C 
BRANCH  20  21
ATOM     21  C   UNL     1     -18.554 -27.701  29.806  1.00  0.00     0.000 C 
BRANCH  21  22
ATOM     22  C   UNL     1     -17.076 -28.070  30.040  1.00  0.00    -0.000 C 
BRANCH  22  23
ATOM     23  C   UNL     1     -16.081 -26.900  29.935  1.00  0.00    -0.000 C 
BRANCH  23  24
ATOM     24  C   UNL     1     -15.180 -26.760  31.176  1.00  0.00    -0.000 C 
BRANCH  24  25
ATOM     25  C   UNL     1     -15.134 -25.323  31.727  1.00  0.00    -0.000 C 
BRANCH  25  26
ATOM     26  C   UNL     1     -16.006 -24.300  30.974  1.00  0.00    -0.000 C 
BRANCH  26  27
ATOM     27  C   UNL     1     -16.510 -23.160  31.877  1.00  0.00    -0.000 C 
BRANCH  27  28
ATOM     28  C   UNL     1     -16.289 -21.766  31.264  1.00  0.00    -0.000 C 
BRANCH  28  29
ATOM     29  C   UNL     1     -17.342 -20.711  31.646  1.00  0.00    -0.003 C 
ATOM     30  C   UNL     1     -18.734 -21.306  31.859  1.00  0.00     0.004 C 
ENDBRANCH  28  29
ENDBRANCH  27  28
ENDBRANCH  26  27
ENDBRANCH  25  26
ENDBRANCH  24  25
ENDBRANCH  23  24
ENDBRANCH  22  23
ENDBRANCH  21  22
ENDBRANCH  20  21
ENDBRANCH  19  20
ENDBRANCH  18  19
ENDBRANCH  17  18
ENDBRANCH   1  17
TORSDOF 26
ENDMDL
MODEL 5
REMARK VINA RESULT:    -1.062      2.294      5.739
REMARK INTER + INTRA:          -8.752
REMARK INTER:                  -2.914
REMARK INTRA:                  -5.838
REMARK UNBOUND:                -6.075
REMARK SMILES CCCCCCCCCCCCCCCCCCCCCCCCCCCC(=O)[O-]
REMARK SMILES IDX 15 1 16 2 17 3 18 4 19 5 20 6 21 7 22 8 23 9 24 10 25 11
REMARK SMILES IDX 26 12 27 13 28 14 29 15 30 16 14 17 13 18 12 19 11 20 10 21
REMARK SMILES IDX 9 22 8 23 7 24 6 25 5 26 4 27 3 28 2 29 1 30
REMARK H PARENT
REMARK Flexibility Score: inf
ROOT
ATOM      1  C   UNL     1     -18.117 -26.242  30.875  1.00  0.00     0.000 C 
ENDROOT
BRANCH   1   2
ATOM      2  C   UNL     1     -19.639 -25.985  30.993  1.00  0.00     0.000 C 
BRANCH   2   3
ATOM      3  C   UNL     1     -20.020 -24.638  31.636  1.00  0.00     0.000 C 
BRANCH   3   4
ATOM      4  C   UNL     1     -20.115 -23.488  30.616  1.00  0.00     0.000 C 
BRANCH   4   5
ATOM      5  C   UNL     1     -21.248 -23.715  29.601  1.00  0.00     0.000 C 
BRANCH   5   6
ATOM      6  C   UNL     1     -20.702 -23.834  28.165  1.00  0.00     0.000 C 
BRANCH   6   7
ATOM      7  C   UNL     1     -21.458 -24.874  27.326  1.00  0.00     0.000 C 
BRANCH   7   8
ATOM      8  C   UNL     1     -22.044 -26.011  28.177  1.00  0.00     0.000 C 
BRANCH   8   9
ATOM      9  C   UNL     1     -21.616 -27.379  27.628  1.00  0.00     0.000 C 
BRANCH   9  10
ATOM     10  C   UNL     1     -20.094 -27.560  27.714  1.00  0.00     0.000 C 
BRANCH  10  11
ATOM     11  C   UNL     1     -19.734 -29.041  27.910  1.00  0.00     0.000 C 
BRANCH  11  12
ATOM     12  C   UNL     1     -18.370 -29.239  28.598  1.00  0.00     0.006 C 
BRANCH  12  13
ATOM     13  C   UNL     1     -18.346 -30.374  29.637  1.00  0.00     0.053 C 
BRANCH  13  14
ATOM     14  C   UNL     1     -18.338 -29.856  31.043  1.00  0.00     0.041 C 
ATOM     15  O   UNL     1     -17.245 -29.646  31.633  1.00  0.00    -0.550 OA
ATOM     16  O   UNL     1     -19.537 -29.585  31.694  1.00  0.00    -0.550 OA
ENDBRANCH  13  14
ENDBRANCH  12  13
ENDBRANCH  11  12
ENDBRANCH  10  11
ENDBRANCH   9  10
ENDBRANCH   8   9
ENDBRANCH   7   8
ENDBRANCH   6   7
ENDBRANCH   5   6
ENDBRANCH   4   5
ENDBRANCH   3   4
ENDBRANCH   2   3
ENDBRANCH   1   2
BRANCH   1  17
ATOM     17  C   UNL     1     -17.466 -25.746  29.567  1.00  0.00     0.000 C 
BRANCH  17  18
ATOM     18  C   UNL     1     -16.031 -25.225  29.769  1.00  0.00     0.000 C 
BRANCH  18  19
ATOM     19  C   UNL     1     -15.597 -25.250  31.246  1.00  0.00     0.000 C 
BRANCH  19  20
ATOM     20  C   UNL     1     -15.377 -23.866  31.885  1.00  0.00     0.000 C 
BRANCH  20  21
ATOM     21  C   UNL     1     -16.649 -23.012  32.043  1.00  0.00     0.000 C 
BRANCH  21  22
ATOM     22  C   UNL     1     -16.701 -21.751  31.159  1.00  0.00    -0.000 C 
BRANCH  22  23
ATOM     23  C   UNL     1     -15.528 -21.588  30.175  1.00  0.00    -0.000 C 
BRANCH  23  24
ATOM     24  C   UNL     1     -15.975 -21.565  28.702  1.00  0.00    -0.000 C 
BRANCH  24  25
ATOM     25  C   UNL     1     -17.453 -21.958  28.517  1.00  0.00    -0.000 C 
BRANCH  25  26
ATOM     26  C   UNL     1     -18.046 -21.655  27.129  1.00  0.00    -0.000 C 
BRANCH  26  27
ATOM     27  C   UNL     1     -17.473 -22.555  26.020  1.00  0.00    -0.000 C 
BRANCH  27  28
ATOM     28  C   UNL     1     -17.369 -24.033  26.440  1.00  0.00    -0.000 C 
BRANCH  28  29
ATOM     29  C   UNL     1     -18.175 -25.015  25.572  1.00  0.00    -0.003 C 
ATOM     30  C   UNL     1     -17.485 -26.367  25.401  1.00  0.00     0.004 C 
ENDBRANCH  28  29
ENDBRANCH  27  28
ENDBRANCH  26  27
ENDBRANCH  25  26
ENDBRANCH  24  25
ENDBRANCH  23  24
ENDBRANCH  22  23
ENDBRANCH  21  22
ENDBRANCH  20  21
ENDBRANCH  19  20
ENDBRANCH  18  19
ENDBRANCH  17  18
ENDBRANCH   1  17
TORSDOF 26
ENDMDL
MODEL 6
REMARK VINA RESULT:    -1.059      1.772      5.114
REMARK INTER + INTRA:          -8.743
REMARK INTER:                  -3.199
REMARK INTRA:                  -5.544
REMARK UNBOUND:                -6.075
REMARK SMILES CCCCCCCCCCCCCCCCCCCCCCCCCCCC(=O)[O-]
REMARK SMILES IDX 15 1 16 2 17 3 18 4 19 5 20 6 21 7 22 8 23 9 24 10 25 11
REMARK SMILES IDX 26 12 27 13 28 14 29 15 30 16 14 17 13 18 12 19 11 20 10 21
REMARK SMILES IDX 9 22 8 23 7 24 6 25 5 26 4 27 3 28 2 29 1 30
REMARK H PARENT
REMARK Flexibility Score: inf
ROOT
ATOM      1  C   UNL     1     -18.020 -25.156  26.820  1.00  0.00     0.000 C 
ENDROOT
BRANCH   1   2
ATOM      2  C   UNL     1     -19.465 -24.626  26.654  1.00  0.00     0.000 C 
BRANCH   2   3
ATOM      3  C   UNL     1     -19.626 -23.109  26.870  1.00  0.00     0.000 C 
BRANCH   3   4
ATOM      4  C   UNL     1     -20.602 -22.763  28.011  1.00  0.00     0.000 C 
BRANCH   4   5
ATOM      5  C   UNL     1     -19.872 -22.174  29.230  1.00  0.00     0.000 C 
BRANCH   5   6
ATOM      6  C   UNL     1     -20.411 -22.762  30.547  1.00  0.00     0.000 C 
BRANCH   6   7
ATOM      7  C   UNL     1     -19.564 -23.933  31.066  1.00  0.00     0.000 C 
BRANCH   7   8
ATOM      8  C   UNL     1     -20.172 -25.302  30.723  1.00  0.00     0.000 C 
BRANCH   8   9
ATOM      9  C   UNL     1     -19.216 -26.437  31.117  1.00  0.00     0.000 C 
BRANCH   9  10
ATOM     10  C   UNL     1     -19.933 -27.793  31.118  1.00  0.00     0.000 C 
BRANCH  10  11
ATOM     11  C   UNL     1     -19.957 -28.397  29.705  1.00  0.00     0.000 C 
BRANCH  11  12
ATOM     12  C   UNL     1     -18.690 -28.071  28.893  1.00  0.00     0.006 C 
BRANCH  12  13
ATOM     13  C   UNL     1     -17.963 -29.305  28.331  1.00  0.00     0.053 C 
BRANCH  13  14
ATOM     14  C   UNL     1     -16.933 -28.940  27.306  1.00  0.00     0.041 C 
ATOM     15  O   UNL     1     -15.708 -28.985  27.597  1.00  0.00    -0.550 OA
ATOM     16  O   UNL     1     -17.326 -28.572  26.024  1.00  0.00    -0.550 OA
ENDBRANCH  13  14
ENDBRANCH  12  13
ENDBRANCH  11  12
ENDBRANCH  10  11
ENDBRANCH   9  10
ENDBRANCH   8   9
ENDBRANCH   7   8
ENDBRANCH   6   7
ENDBRANCH   5   6
ENDBRANCH   4   5
ENDBRANCH   3   4
ENDBRANCH   2   3
ENDBRANCH   1   2
BRANCH   1  17
ATOM     17  C   UNL     1     -17.303 -24.719  28.114  1.00  0.00     0.000 C 
BRANCH  17  18
ATOM     18  C   UNL     1     -16.071 -23.835  27.851  1.00  0.00     0.000 C 
BRANCH  18  19
ATOM     19  C   UNL     1     -16.410 -22.333  27.853  1.00  0.00     0.000 C 
BRANCH  19  20
ATOM     20  C   UNL     1     -15.306 -21.416  28.411  1.00  0.00     0.000 C 
BRANCH  20  21
ATOM     21  C   UNL     1     -15.081 -21.520  29.932  1.00  0.00     0.000 C 
BRANCH  21  22
ATOM     22  C   UNL     1     -16.339 -21.299  30.793  1.00  0.00    -0.000 C 
BRANCH  22  23
ATOM     23  C   UNL     1     -16.588 -22.361  31.879  1.00  0.00    -0.000 C 
BRANCH  23  24
ATOM     24  C   UNL     1     -15.496 -23.446  31.924  1.00  0.00    -0.000 C 
BRANCH  24  25
ATOM     25  C   UNL     1     -16.009 -24.833  31.493  1.00  0.00    -0.000 C 
BRANCH  25  26
ATOM     26  C   UNL     1     -14.933 -25.798  30.963  1.00  0.00    -0.000 C 
BRANCH  26  27
ATOM     27  C   UNL     1     -15.495 -27.185  30.603  1.00  0.00    -0.000 C 
BRANCH  27  28
ATOM     28  C   UNL     1     -15.349 -28.207  31.744  1.00  0.00    -0.000 C 
BRANCH  28  29
ATOM     29  C   UNL     1     -16.640 -28.957  32.117  1.00  0.00    -0.003 C 
ATOM     30  C   UNL     1     -16.535 -30.467  31.914  1.00  0.00     0.004 C 
ENDBRANCH  28  29
ENDBRANCH  27  28
ENDBRANCH  26  27
ENDBRANCH  25  26
ENDBRANCH  24  25
ENDBRANCH  23  24
ENDBRANCH  22  23
ENDBRANCH  21  22
ENDBRANCH  20  21
ENDBRANCH  19  20
ENDBRANCH  18  19
ENDBRANCH  17  18
ENDBRANCH   1  17
TORSDOF 26
ENDMDL
MODEL 7
REMARK VINA RESULT:    -1.050      3.301      6.652
REMARK INTER + INTRA:          -8.721
REMARK INTER:                  -2.758
REMARK INTRA:                  -5.962
REMARK UNBOUND:                -6.075
REMARK SMILES CCCCCCCCCCCCCCCCCCCCCCCCCCCC(=O)[O-]
REMARK SMILES IDX 15 1 16 2 17 3 18 4 19 5 20 6 21 7 22 8 23 9 24 10 25 11
REMARK SMILES IDX 26 12 27 13 28 14 29 15 30 16 14 17 13 18 12 19 11 20 10 21
REMARK SMILES IDX 9 22 8 23 7 24 6 25 5 26 4 27 3 28 2 29 1 30
REMARK H PARENT
REMARK Flexibility Score: inf
ROOT
ATOM      1  C   UNL     1     -20.799 -27.365  28.517  1.00  0.00     0.000 C 
ENDROOT
BRANCH   1   2
ATOM      2  C   UNL     1     -21.168 -28.779  28.005  1.00  0.00     0.000 C 
BRANCH   2   3
ATOM      3  C   UNL     1     -20.927 -29.005  26.500  1.00  0.00     0.000 C 
BRANCH   3   4
ATOM      4  C   UNL     1     -20.182 -27.837  25.827  1.00  0.00     0.000 C 
BRANCH   4   5
ATOM      5  C   UNL     1     -19.072 -28.332  24.884  1.00  0.00     0.000 C 
BRANCH   5   6
ATOM      6  C   UNL     1     -17.718 -28.430  25.612  1.00  0.00     0.000 C 
BRANCH   6   7
ATOM      7  C   UNL     1     -17.558 -27.375  26.715  1.00  0.00     0.000 C 
BRANCH   7   8
ATOM      8  C   UNL     1     -17.069 -27.976  28.044  1.00  0.00     0.000 C 
BRANCH   8   9
ATOM      9  C   UNL     1     -16.836 -29.486  27.905  1.00  0.00     0.000 C 
BRANCH   9  10
ATOM     10  C   UNL     1     -17.802 -30.282  28.793  1.00  0.00     0.000 C 
BRANCH  10  11
ATOM     11  C   UNL     1     -18.478 -31.405  27.992  1.00  0.00     0.000 C 
BRANCH  11  12
ATOM     12  C   UNL     1     -19.686 -32.019  28.723  1.00  0.00     0.006 C 
BRANCH  12  13
ATOM     13  C   UNL     1     -19.496 -32.169  30.243  1.00  0.00     0.053 C 
BRANCH  13  14
ATOM     14  C   UNL     1     -19.120 -33.566  30.633  1.00  0.00     0.041 C 
ATOM     15  O   UNL     1     -19.789 -34.179  31.507  1.00  0.00    -0.550 OA
ATOM     16  O   UNL     1     -18.045 -34.197  30.016  1.00  0.00    -0.550 OA
ENDBRANCH  13  14
ENDBRANCH  12  13
ENDBRANCH  11  12
ENDBRANCH  10  11
ENDBRANCH   9  10
ENDBRANCH   8   9
ENDBRANCH   7   8
ENDBRANCH   6   7
ENDBRANCH   5   6
ENDBRANCH   4   5
ENDBRANCH   3   4
ENDBRANCH   2   3
ENDBRANCH   1   2
BRANCH   1  17
ATOM     17  C   UNL     1     -20.168 -27.319  29.924  1.00  0.00     0.000 C 
BRANCH  17  18
ATOM     18  C   UNL     1     -20.479 -28.571  30.764  1.00  0.00     0.000 C 
BRANCH  18  19
ATOM     19  C   UNL     1     -19.442 -28.807  31.877  1.00  0.00     0.000 C 
BRANCH  19  20
ATOM     20  C   UNL     1     -18.091 -28.096  31.672  1.00  0.00     0.000 C 
BRANCH  20  21
ATOM     21  C   UNL     1     -16.855 -28.911  32.096  1.00  0.00     0.000 C 
BRANCH  21  22
ATOM     22  C   UNL     1     -15.529 -28.472  31.445  1.00  0.00    -0.000 C 
BRANCH  22  23
ATOM     23  C   UNL     1     -14.875 -27.222  32.063  1.00  0.00    -0.000 C 
BRANCH  23  24
ATOM     24  C   UNL     1     -14.890 -26.005  31.120  1.00  0.00    -0.000 C 
BRANCH  24  25
ATOM     25  C   UNL     1     -15.444 -24.734  31.789  1.00  0.00    -0.000 C 
BRANCH  25  26
ATOM     26  C   UNL     1     -16.647 -24.085  31.079  1.00  0.00    -0.000 C 
BRANCH  26  27
ATOM     27  C   UNL     1     -17.244 -24.976  29.974  1.00  0.00    -0.000 C 
BRANCH  27  28
ATOM     28  C   UNL     1     -18.225 -24.222  29.059  1.00  0.00    -0.000 C 
BRANCH  28  29
ATOM     29  C   UNL     1     -17.570 -23.247  28.065  1.00  0.00    -0.003 C 
ATOM     30  C   UNL     1     -16.454 -23.889  27.244  1.00  0.00     0.004 C 
ENDBRANCH  28  29
ENDBRANCH  27  28
ENDBRANCH  26  27
ENDBRANCH  25  26
ENDBRANCH  24  25
ENDBRANCH  23  24
ENDBRANCH  22  23
ENDBRANCH  21  22
ENDBRANCH  20  21
ENDBRANCH  19  20
ENDBRANCH  18  19
ENDBRANCH  17  18
ENDBRANCH   1  17
TORSDOF 26
ENDMDL
MODEL 8
REMARK VINA RESULT:    -1.016      2.239      4.571
REMARK INTER + INTRA:          -8.636
REMARK INTER:                  -2.336
REMARK INTRA:                  -6.300
REMARK UNBOUND:                -6.075
REMARK SMILES CCCCCCCCCCCCCCCCCCCCCCCCCCCC(=O)[O-]
REMARK SMILES IDX 15 1 16 2 17 3 18 4 19 5 20 6 21 7 22 8 23 9 24 10 25 11
REMARK SMILES IDX 26 12 27 13 28 14 29 15 30 16 14 17 13 18 12 19 11 20 10 21
REMARK SMILES IDX 9 22 8 23 7 24 6 25 5 26 4 27 3 28 2 29 1 30
REMARK H PARENT
REMARK Flexibility Score: inf
ROOT
ATOM      1  C   UNL     1     -17.628 -22.608  26.962  1.00  0.00     0.000 C 
ENDROOT
BRANCH   1   2
ATOM      2  C   UNL     1     -17.241 -21.499  27.971  1.00  0.00     0.000 C 
BRANCH   2   3
ATOM      3  C   UNL     1     -15.726 -21.310  28.174  1.00  0.00     0.000 C 
BRANCH   3   4
ATOM      4  C   UNL     1     -15.256 -21.681  29.594  1.00  0.00     0.000 C 
BRANCH   4   5
ATOM      5  C   UNL     1     -16.427 -21.731  30.589  1.00  0.00     0.000 C 
BRANCH   5   6
ATOM      6  C   UNL     1     -16.479 -23.080  31.331  1.00  0.00     0.000 C 
BRANCH   6   7
ATOM      7  C   UNL     1     -17.855 -23.756  31.243  1.00  0.00     0.000 C 
BRANCH   7   8
ATOM      8  C   UNL     1     -18.993 -22.752  30.997  1.00  0.00     0.000 C 
BRANCH   8   9
ATOM      9  C   UNL     1     -20.337 -23.329  31.464  1.00  0.00     0.000 C 
BRANCH   9  10
ATOM     10  C   UNL     1     -20.236 -24.838  31.721  1.00  0.00     0.000 C 
BRANCH  10  11
ATOM     11  C   UNL     1     -21.179 -25.613  30.788  1.00  0.00     0.000 C 
BRANCH  11  12
ATOM     12  C   UNL     1     -20.782 -27.093  30.630  1.00  0.00     0.006 C 
BRANCH  12  13
ATOM     13  C   UNL     1     -19.282 -27.322  30.379  1.00  0.00     0.053 C 
BRANCH  13  14
ATOM     14  C   UNL     1     -19.027 -28.533  29.533  1.00  0.00     0.041 C 
ATOM     15  O   UNL     1     -18.484 -28.411  28.403  1.00  0.00    -0.550 OA
ATOM     16  O   UNL     1     -19.370 -29.797  30.003  1.00  0.00    -0.550 OA
ENDBRANCH  13  14
ENDBRANCH  12  13
ENDBRANCH  11  12
ENDBRANCH  10  11
ENDBRANCH   9  10
ENDBRANCH   8   9
ENDBRANCH   7   8
ENDBRANCH   6   7
ENDBRANCH   5   6
ENDBRANCH   4   5
ENDBRANCH   3   4
ENDBRANCH   2   3
ENDBRANCH   1   2
BRANCH   1  17
ATOM     17  C   UNL     1     -16.948 -23.973  27.192  1.00  0.00     0.000 C 
BRANCH  17  18
ATOM     18  C   UNL     1     -17.887 -25.013  27.829  1.00  0.00     0.000 C 
BRANCH  18  19
ATOM     19  C   UNL     1     -19.356 -24.552  27.844  1.00  0.00     0.000 C 
BRANCH  19  20
ATOM     20  C   UNL     1     -20.345 -25.501  27.141  1.00  0.00     0.000 C 
BRANCH  20  21
ATOM     21  C   UNL     1     -20.954 -24.956  25.835  1.00  0.00     0.000 C 
BRANCH  21  22
ATOM     22  C   UNL     1     -19.931 -24.597  24.740  1.00  0.00    -0.000 C 
BRANCH  22  23
ATOM     23  C   UNL     1     -20.327 -23.420  23.830  1.00  0.00    -0.000 C 
BRANCH  23  24
ATOM     24  C   UNL     1     -20.322 -22.065  24.559  1.00  0.00    -0.000 C 
BRANCH  24  25
ATOM     25  C   UNL     1     -21.724 -21.440  24.676  1.00  0.00    -0.000 C 
BRANCH  25  26
ATOM     26  C   UNL     1     -22.027 -20.744  26.016  1.00  0.00    -0.000 C 
BRANCH  26  27
ATOM     27  C   UNL     1     -20.935 -20.978  27.074  1.00  0.00    -0.000 C 
BRANCH  27  28
ATOM     28  C   UNL     1     -21.456 -21.708  28.325  1.00  0.00    -0.000 C 
BRANCH  28  29
ATOM     29  C   UNL     1     -22.692 -22.595  28.094  1.00  0.00    -0.003 C 
ATOM     30  C   UNL     1     -23.404 -22.979  29.390  1.00  0.00     0.004 C 
ENDBRANCH  28  29
ENDBRANCH  27  28
ENDBRANCH  26  27
ENDBRANCH  25  26
ENDBRANCH  24  25
ENDBRANCH  23  24
ENDBRANCH  22  23
ENDBRANCH  21  22
ENDBRANCH  20  21
ENDBRANCH  19  20
ENDBRANCH  18  19
ENDBRANCH  17  18
ENDBRANCH   1  17
TORSDOF 26
ENDMDL
