MODEL 1
REMARK VINA RESULT:    -3.631      0.000      0.000
REMARK INTER + INTRA:          -8.490
REMARK INTER:                  -6.178
REMARK INTRA:                  -2.312
REMARK UNBOUND:                -2.312
REMARK SMILES CCCCCCCCCCCCCC(=O)[O-]
REMARK SMILES IDX 8 1 9 2 10 3 11 4 12 5 13 6 14 7 15 8 16 9 7 10 6 11 5 12
REMARK SMILES IDX 4 13 3 14 2 15 1 16
REMARK H PARENT
REMARK Flexibility Score: inf
ROOT
ATOM      1  C   UNL     1      24.348  29.970 -15.763  1.00  0.00     0.000 C 
ENDROOT
BRANCH   1   2
ATOM      2  C   UNL     1      24.578  28.865 -14.721  1.00  0.00     0.000 C 
BRANCH   2   3
ATOM      3  C   UNL     1      26.057  28.716 -14.332  1.00  0.00     0.000 C 
BRANCH   3   4
ATOM      4  C   UNL     1      26.909  29.923 -14.766  1.00  0.00     0.000 C 
BRANCH   4   5
ATOM      5  C   UNL     1      27.802  30.454 -13.627  1.00  0.00     0.006 C 
BRANCH   5   6
ATOM      6  C   UNL     1      27.864  29.523 -12.405  1.00  0.00     0.053 C 
BRANCH   6   7
ATOM      7  C   UNL     1      28.618  30.126 -11.263  1.00  0.00     0.041 C 
ATOM      8  O   UNL     1      27.996  30.605 -10.277  1.00  0.00    -0.550 OA
ATOM      9  O   UNL     1      30.007  30.142 -11.276  1.00  0.00    -0.550 OA
ENDBRANCH   6   7
ENDBRANCH   5   6
ENDBRANCH   4   5
ENDBRANCH   3   4
ENDBRANCH   2   3
ENDBRANCH   1   2
BRANCH   1  10
ATOM     10  C   UNL     1      23.217  30.910 -15.327  1.00  0.00     0.000 C 
BRANCH  10  11
ATOM     11  C   UNL     1      23.674  32.373 -15.362  1.00  0.00    -0.000 C 
BRANCH  11  12
ATOM     12  C   UNL     1      24.649  32.675 -14.217  1.00  0.00    -0.000 C 
BRANCH  12  13
ATOM     13  C   UNL     1      23.974  32.468 -12.853  1.00  0.00    -0.000 C 
BRANCH  13  14
ATOM     14  C   UNL     1      24.910  31.814 -11.822  1.00  0.00    -0.000 C 
BRANCH  14  15
ATOM     15  C   UNL     1      24.425  30.427 -11.380  1.00  0.00    -0.003 C 
ATOM     16  C   UNL     1      22.920  30.279 -11.586  1.00  0.00     0.004 C 
ENDBRANCH  14  15
ENDBRANCH  13  14
ENDBRANCH  12  13
ENDBRANCH  11  12
ENDBRANCH  10  11
ENDBRANCH   1  10
TORSDOF 12
ENDMDL
MODEL 2
REMARK VINA RESULT:    -3.603      1.303      2.139
REMARK INTER + INTRA:          -8.443
REMARK INTER:                  -6.702
REMARK INTRA:                  -1.741
REMARK UNBOUND:                -2.312
REMARK SMILES CCCCCCCCCCCCCC(=O)[O-]
REMARK SMILES IDX 8 1 9 2 10 3 11 4 12 5 13 6 14 7 15 8 16 9 7 10 6 11 5 12
REMARK SMILES IDX 4 13 3 14 2 15 1 16
REMARK H PARENT
REMARK Flexibility Score: inf
ROOT
ATOM      1  C   UNL     1      25.905  28.863 -14.621  1.00  0.00     0.000 C 
ENDROOT
BRANCH   1   2
ATOM      2  C   UNL     1      26.831  30.086 -14.707  1.00  0.00     0.000 C 
BRANCH   2   3
ATOM      3  C   UNL     1      27.332  30.549 -13.329  1.00  0.00     0.000 C 
BRANCH   3   4
ATOM      4  C   UNL     1      28.846  30.340 -13.149  1.00  0.00     0.000 C 
BRANCH   4   5
ATOM      5  C   UNL     1      29.231  30.038 -11.686  1.00  0.00     0.006 C 
BRANCH   5   6
ATOM      6  C   UNL     1      28.139  30.415 -10.671  1.00  0.00     0.053 C 
BRANCH   6   7
ATOM      7  C   UNL     1      27.584  29.223  -9.959  1.00  0.00     0.041 C 
ATOM      8  O   UNL     1      27.526  29.208  -8.700  1.00  0.00    -0.550 OA
ATOM      9  O   UNL     1      27.111  28.136 -10.684  1.00  0.00    -0.550 OA
ENDBRANCH   6   7
ENDBRANCH   5   6
ENDBRANCH   4   5
ENDBRANCH   3   4
ENDBRANCH   2   3
ENDBRANCH   1   2
BRANCH   1  10
ATOM     10  C   UNL     1      24.464  29.239 -14.986  1.00  0.00     0.000 C 
BRANCH  10  11
ATOM     11  C   UNL     1      24.394  30.658 -15.564  1.00  0.00    -0.000 C 
BRANCH  11  12
ATOM     12  C   UNL     1      23.493  31.558 -14.709  1.00  0.00    -0.000 C 
BRANCH  12  13
ATOM     13  C   UNL     1      24.302  32.694 -14.067  1.00  0.00    -0.000 C 
BRANCH  13  14
ATOM     14  C   UNL     1      24.367  32.584 -12.534  1.00  0.00    -0.000 C 
BRANCH  14  15
ATOM     15  C   UNL     1      23.494  31.446 -11.987  1.00  0.00    -0.003 C 
ATOM     16  C   UNL     1      24.298  30.531 -11.066  1.00  0.00     0.004 C 
ENDBRANCH  14  15
ENDBRANCH  13  14
ENDBRANCH  12  13
ENDBRANCH  11  12
ENDBRANCH  10  11
ENDBRANCH   1  10
TORSDOF 12
ENDMDL
MODEL 3
REMARK VINA RESULT:    -3.347      2.979      4.721
REMARK INTER + INTRA:          -8.008
REMARK INTER:                  -6.250
REMARK INTRA:                  -1.758
REMARK UNBOUND:                -2.312
REMARK SMILES CCCCCCCCCCCCCC(=O)[O-]
REMARK SMILES IDX 8 1 9 2 10 3 11 4 12 5 13 6 14 7 15 8 16 9 7 10 6 11 5 12
REMARK SMILES IDX 4 13 3 14 2 15 1 16
REMARK H PARENT
REMARK Flexibility Score: inf
ROOT
ATOM      1  C   UNL     1      29.234  30.436 -11.633  1.00  0.00     0.000 C 
ENDROOT
BRANCH   1   2
ATOM      2  C   UNL     1      27.982  30.465 -10.744  1.00  0.00     0.000 C 
BRANCH   2   3
ATOM      3  C   UNL     1      27.620  29.079 -10.185  1.00  0.00     0.000 C 
BRANCH   3   4
ATOM      4  C   UNL     1      26.174  28.666 -10.518  1.00  0.00     0.000 C 
BRANCH   4   5
ATOM      5  C   UNL     1      26.022  27.141 -10.690  1.00  0.00     0.006 C 
BRANCH   5   6
ATOM      6  C   UNL     1      26.594  26.609 -12.014  1.00  0.00     0.053 C 
BRANCH   6   7
ATOM      7  C   UNL     1      26.759  25.122 -12.010  1.00  0.00     0.041 C 
ATOM      8  O   UNL     1      26.161  24.421 -11.151  1.00  0.00    -0.550 OA
ATOM      9  O   UNL     1      27.556  24.508 -12.968  1.00  0.00    -0.550 OA
ENDBRANCH   6   7
ENDBRANCH   5   6
ENDBRANCH   4   5
ENDBRANCH   3   4
ENDBRANCH   2   3
ENDBRANCH   1   2
BRANCH   1  10
ATOM     10  C   UNL     1      28.900  29.914 -13.037  1.00  0.00     0.000 C 
BRANCH  10  11
ATOM     11  C   UNL     1      27.679  30.637 -13.617  1.00  0.00    -0.000 C 
BRANCH  11  12
ATOM     12  C   UNL     1      26.630  29.635 -14.115  1.00  0.00    -0.000 C 
BRANCH  12  13
ATOM     13  C   UNL     1      25.208  30.172 -13.891  1.00  0.00    -0.000 C 
BRANCH  13  14
ATOM     14  C   UNL     1      25.072  31.659 -14.256  1.00  0.00    -0.000 C 
BRANCH  14  15
ATOM     15  C   UNL     1      24.381  32.477 -13.156  1.00  0.00    -0.003 C 
ATOM     16  C   UNL     1      24.644  31.875 -11.778  1.00  0.00     0.004 C 
ENDBRANCH  14  15
ENDBRANCH  13  14
ENDBRANCH  12  13
ENDBRANCH  11  12
ENDBRANCH  10  11
ENDBRANCH   1  10
TORSDOF 12
ENDMDL
MODEL 4
REMARK VINA RESULT:    -3.328      2.732      5.349
REMARK INTER + INTRA:          -7.975
REMARK INTER:                  -6.216
REMARK INTRA:                  -1.760
REMARK UNBOUND:                -2.312
REMARK SMILES CCCCCCCCCCCCCC(=O)[O-]
REMARK SMILES IDX 8 1 9 2 10 3 11 4 12 5 13 6 14 7 15 8 16 9 7 10 6 11 5 12
REMARK SMILES IDX 4 13 3 14 2 15 1 16
REMARK H PARENT
REMARK Flexibility Score: inf
ROOT
ATOM      1  C   UNL     1      29.278  30.023 -11.432  1.00  0.00     0.000 C 
ENDROOT
BRANCH   1   2
ATOM      2  C   UNL     1      28.945  30.338 -12.898  1.00  0.00     0.000 C 
BRANCH   2   3
ATOM      3  C   UNL     1      27.446  30.595 -13.123  1.00  0.00     0.000 C 
BRANCH   3   4
ATOM      4  C   UNL     1      26.953  30.067 -14.483  1.00  0.00     0.000 C 
BRANCH   4   5
ATOM      5  C   UNL     1      25.450  30.326 -14.706  1.00  0.00     0.006 C 
BRANCH   5   6
ATOM      6  C   UNL     1      24.631  30.371 -13.406  1.00  0.00     0.053 C 
BRANCH   6   7
ATOM      7  C   UNL     1      23.821  31.622 -13.282  1.00  0.00     0.041 C 
ATOM      8  O   UNL     1      22.614  31.633 -13.643  1.00  0.00    -0.550 OA
ATOM      9  O   UNL     1      24.392  32.771 -12.749  1.00  0.00    -0.550 OA
ENDBRANCH   6   7
ENDBRANCH   5   6
ENDBRANCH   4   5
ENDBRANCH   3   4
ENDBRANCH   2   3
ENDBRANCH   1   2
BRANCH   1  10
ATOM     10  C   UNL     1      28.109  30.396 -10.511  1.00  0.00     0.000 C 
BRANCH  10  11
ATOM     11  C   UNL     1      27.555  29.158  -9.795  1.00  0.00    -0.000 C 
BRANCH  11  12
ATOM     12  C   UNL     1      26.060  28.978 -10.083  1.00  0.00    -0.000 C 
BRANCH  12  13
ATOM     13  C   UNL     1      25.781  27.600 -10.701  1.00  0.00    -0.000 C 
BRANCH  13  14
ATOM     14  C   UNL     1      26.781  27.234 -11.811  1.00  0.00    -0.000 C 
BRANCH  14  15
ATOM     15  C   UNL     1      26.273  26.103 -12.714  1.00  0.00    -0.003 C 
ATOM     16  C   UNL     1      26.689  26.329 -14.165  1.00  0.00     0.004 C 
ENDBRANCH  14  15
ENDBRANCH  13  14
ENDBRANCH  12  13
ENDBRANCH  11  12
ENDBRANCH  10  11
ENDBRANCH   1  10
TORSDOF 12
ENDMDL
MODEL 5
REMARK VINA RESULT:    -3.273      3.262      5.473
REMARK INTER + INTRA:          -7.881
REMARK INTER:                  -6.383
REMARK INTRA:                  -1.498
REMARK UNBOUND:                -2.312
REMARK SMILES CCCCCCCCCCCCCC(=O)[O-]
REMARK SMILES IDX 8 1 9 2 10 3 11 4 12 5 13 6 14 7 15 8 16 9 7 10 6 11 5 12
REMARK SMILES IDX 4 13 3 14 2 15 1 16
REMARK H PARENT
REMARK Flexibility Score: inf
ROOT
ATOM      1  C   UNL     1      26.012  26.987 -14.707  1.00  0.00     0.000 C 
ENDROOT
BRANCH   1   2
ATOM      2  C   UNL     1      25.616  28.459 -14.514  1.00  0.00     0.000 C 
BRANCH   2   3
ATOM      3  C   UNL     1      26.491  29.420 -15.334  1.00  0.00     0.000 C 
BRANCH   3   4
ATOM      4  C   UNL     1      27.172  30.492 -14.463  1.00  0.00     0.000 C 
BRANCH   4   5
ATOM      5  C   UNL     1      26.991  30.227 -12.954  1.00  0.00     0.006 C 
BRANCH   5   6
ATOM      6  C   UNL     1      28.283  29.787 -12.246  1.00  0.00     0.053 C 
BRANCH   6   7
ATOM      7  C   UNL     1      28.217  29.976 -10.764  1.00  0.00     0.041 C 
ATOM      8  O   UNL     1      28.534  31.083 -10.252  1.00  0.00    -0.550 OA
ATOM      9  O   UNL     1      27.785  28.937  -9.949  1.00  0.00    -0.550 OA
ENDBRANCH   6   7
ENDBRANCH   5   6
ENDBRANCH   4   5
ENDBRANCH   3   4
ENDBRANCH   2   3
ENDBRANCH   1   2
BRANCH   1  10
ATOM     10  C   UNL     1      27.002  26.538 -13.624  1.00  0.00     0.000 C 
BRANCH  10  11
ATOM     11  C   UNL     1      26.295  26.346 -12.277  1.00  0.00    -0.000 C 
BRANCH  11  12
ATOM     12  C   UNL     1      26.536  24.936 -11.724  1.00  0.00    -0.000 C 
BRANCH  12  13
ATOM     13  C   UNL     1      27.434  24.122 -12.668  1.00  0.00    -0.000 C 
BRANCH  13  14
ATOM     14  C   UNL     1      26.726  22.881 -13.237  1.00  0.00    -0.000 C 
BRANCH  14  15
ATOM     15  C   UNL     1      26.179  23.111 -14.652  1.00  0.00    -0.003 C 
ATOM     16  C   UNL     1      24.680  23.396 -14.622  1.00  0.00     0.004 C 
ENDBRANCH  14  15
ENDBRANCH  13  14
ENDBRANCH  12  13
ENDBRANCH  11  12
ENDBRANCH  10  11
ENDBRANCH   1  10
TORSDOF 12
ENDMDL
MODEL 6
REMARK VINA RESULT:    -3.242      3.057      5.395
REMARK INTER + INTRA:          -7.828
REMARK INTER:                  -5.818
REMARK INTRA:                  -2.010
REMARK UNBOUND:                -2.312
REMARK SMILES CCCCCCCCCCCCCC(=O)[O-]
REMARK SMILES IDX 8 1 9 2 10 3 11 4 12 5 13 6 14 7 15 8 16 9 7 10 6 11 5 12
REMARK SMILES IDX 4 13 3 14 2 15 1 16
REMARK H PARENT
REMARK Flexibility Score: inf
ROOT
ATOM      1  C   UNL     1      25.920  28.593 -13.736  1.00  0.00     0.000 C 
ENDROOT
BRANCH   1   2
ATOM      2  C   UNL     1      26.639  29.604 -14.642  1.00  0.00     0.000 C 
BRANCH   2   3
ATOM      3  C   UNL     1      26.601  31.034 -14.082  1.00  0.00     0.000 C 
BRANCH   3   4
ATOM      4  C   UNL     1      25.506  31.224 -13.016  1.00  0.00     0.000 C 
BRANCH   4   5
ATOM      5  C   UNL     1      24.561  32.398 -13.344  1.00  0.00     0.006 C 
BRANCH   5   6
ATOM      6  C   UNL     1      24.094  32.424 -14.809  1.00  0.00     0.053 C 
BRANCH   6   7
ATOM      7  C   UNL     1      23.100  31.348 -15.111  1.00  0.00     0.041 C 
ATOM      8  O   UNL     1      23.394  30.422 -15.914  1.00  0.00    -0.550 OA
ATOM      9  O   UNL     1      21.857  31.355 -14.491  1.00  0.00    -0.550 OA
ENDBRANCH   6   7
ENDBRANCH   5   6
ENDBRANCH   4   5
ENDBRANCH   3   4
ENDBRANCH   2   3
ENDBRANCH   1   2
BRANCH   1  10
ATOM     10  C   UNL     1      26.918  27.613 -13.105  1.00  0.00     0.000 C 
BRANCH  10  11
ATOM     11  C   UNL     1      26.328  26.956 -11.852  1.00  0.00    -0.000 C 
BRANCH  11  12
ATOM     12  C   UNL     1      26.146  27.981 -10.725  1.00  0.00    -0.000 C 
BRANCH  12  13
ATOM     13  C   UNL     1      27.496  28.588 -10.312  1.00  0.00    -0.000 C 
BRANCH  13  14
ATOM     14  C   UNL     1      27.403  30.094 -10.018  1.00  0.00    -0.000 C 
BRANCH  14  15
ATOM     15  C   UNL     1      28.481  30.906 -10.750  1.00  0.00    -0.003 C 
ATOM     16  C   UNL     1      29.327  30.011 -11.650  1.00  0.00     0.004 C 
ENDBRANCH  14  15
ENDBRANCH  13  14
ENDBRANCH  12  13
ENDBRANCH  11  12
ENDBRANCH  10  11
ENDBRANCH   1  10
TORSDOF 12
ENDMDL
MODEL 7
REMARK VINA RESULT:    -3.236      2.482      4.802
REMARK INTER + INTRA:          -7.818
REMARK INTER:                  -5.677
REMARK INTRA:                  -2.140
REMARK UNBOUND:                -2.312
REMARK SMILES CCCCCCCCCCCCCC(=O)[O-]
REMARK SMILES IDX 8 1 9 2 10 3 11 4 12 5 13 6 14 7 15 8 16 9 7 10 6 11 5 12
REMARK SMILES IDX 4 13 3 14 2 15 1 16
REMARK H PARENT
REMARK Flexibility Score: inf
ROOT
ATOM      1  C   UNL     1      27.959  29.289 -12.191  1.00  0.00     0.000 C 
ENDROOT
BRANCH   1   2
ATOM      2  C   UNL     1      27.241  29.949 -11.004  1.00  0.00     0.000 C 
BRANCH   2   3
ATOM      3  C   UNL     1      25.817  29.410 -10.799  1.00  0.00     0.000 C 
BRANCH   3   4
ATOM      4  C   UNL     1      24.757  30.232 -11.555  1.00  0.00     0.000 C 
BRANCH   4   5
ATOM      5  C   UNL     1      25.167  31.709 -11.724  1.00  0.00     0.006 C 
BRANCH   5   6
ATOM      6  C   UNL     1      24.047  32.600 -12.285  1.00  0.00     0.053 C 
BRANCH   6   7
ATOM      7  C   UNL     1      23.900  32.470 -13.768  1.00  0.00     0.041 C 
ATOM      8  O   UNL     1      22.871  31.932 -14.257  1.00  0.00    -0.550 OA
ATOM      9  O   UNL     1      24.890  32.960 -14.611  1.00  0.00    -0.550 OA
ENDBRANCH   6   7
ENDBRANCH   5   6
ENDBRANCH   4   5
ENDBRANCH   3   4
ENDBRANCH   2   3
ENDBRANCH   1   2
BRANCH   1  10
ATOM     10  C   UNL     1      28.417  30.341 -13.210  1.00  0.00     0.000 C 
BRANCH  10  11
ATOM     11  C   UNL     1      27.380  30.517 -14.324  1.00  0.00    -0.000 C 
BRANCH  11  12
ATOM     12  C   UNL     1      26.630  29.206 -14.593  1.00  0.00    -0.000 C 
BRANCH  12  13
ATOM     13  C   UNL     1      25.290  29.473 -15.294  1.00  0.00    -0.000 C 
BRANCH  13  14
ATOM     14  C   UNL     1      24.162  28.562 -14.782  1.00  0.00    -0.000 C 
BRANCH  14  15
ATOM     15  C   UNL     1      24.690  27.322 -14.049  1.00  0.00    -0.003 C 
ATOM     16  C   UNL     1      23.769  26.928 -12.898  1.00  0.00     0.004 C 
ENDBRANCH  14  15
ENDBRANCH  13  14
ENDBRANCH  12  13
ENDBRANCH  11  12
ENDBRANCH  10  11
ENDBRANCH   1  10
TORSDOF 12
ENDMDL
MODEL 8
REMARK VINA RESULT:    -3.232      3.391      4.507
REMARK INTER + INTRA:          -7.811
REMARK INTER:                  -5.995
REMARK INTRA:                  -1.816
REMARK UNBOUND:                -2.312
REMARK SMILES CCCCCCCCCCCCCC(=O)[O-]
REMARK SMILES IDX 8 1 9 2 10 3 11 4 12 5 13 6 14 7 15 8 16 9 7 10 6 11 5 12
REMARK SMILES IDX 4 13 3 14 2 15 1 16
REMARK H PARENT
REMARK Flexibility Score: inf
ROOT
ATOM      1  C   UNL     1      24.920  30.282 -14.026  1.00  0.00     0.000 C 
ENDROOT
BRANCH   1   2
ATOM      2  C   UNL     1      25.060  29.020 -14.890  1.00  0.00     0.000 C 
BRANCH   2   3
ATOM      3  C   UNL     1      25.056  27.728 -14.057  1.00  0.00     0.000 C 
BRANCH   3   4
ATOM      4  C   UNL     1      26.036  26.671 -14.598  1.00  0.00     0.000 C 
BRANCH   4   5
ATOM      5  C   UNL     1      27.074  26.235 -13.545  1.00  0.00     0.006 C 
BRANCH   5   6
ATOM      6  C   UNL     1      26.514  25.268 -12.489  1.00  0.00     0.053 C 
BRANCH   6   7
ATOM      7  C   UNL     1      27.261  23.973 -12.444  1.00  0.00     0.041 C 
ATOM      8  O   UNL     1      28.163  23.733 -13.291  1.00  0.00    -0.550 OA
ATOM      9  O   UNL     1      26.978  23.040 -11.454  1.00  0.00    -0.550 OA
ENDBRANCH   6   7
ENDBRANCH   5   6
ENDBRANCH   4   5
ENDBRANCH   3   4
ENDBRANCH   2   3
ENDBRANCH   1   2
BRANCH   1  10
ATOM     10  C   UNL     1      26.173  31.162 -14.132  1.00  0.00     0.000 C 
BRANCH  10  11
ATOM     11  C   UNL     1      27.407  30.323 -14.484  1.00  0.00    -0.000 C 
BRANCH  11  12
ATOM     12  C   UNL     1      28.526  30.532 -13.456  1.00  0.00    -0.000 C 
BRANCH  12  13
ATOM     13  C   UNL     1      28.442  29.489 -12.332  1.00  0.00    -0.000 C 
BRANCH  13  14
ATOM     14  C   UNL     1      28.064  30.107 -10.976  1.00  0.00    -0.000 C 
BRANCH  14  15
ATOM     15  C   UNL     1      26.579  29.923 -10.635  1.00  0.00    -0.003 C 
ATOM     16  C   UNL     1      26.196  28.446 -10.632  1.00  0.00     0.004 C 
ENDBRANCH  14  15
ENDBRANCH  13  14
ENDBRANCH  12  13
ENDBRANCH  11  12
ENDBRANCH  10  11
ENDBRANCH   1  10
TORSDOF 12
ENDMDL
MODEL 9
REMARK VINA RESULT:    -3.226      2.732      4.767
REMARK INTER + INTRA:          -7.802
REMARK INTER:                  -6.514
REMARK INTRA:                  -1.287
REMARK UNBOUND:                -2.312
REMARK SMILES CCCCCCCCCCCCCC(=O)[O-]
REMARK SMILES IDX 8 1 9 2 10 3 11 4 12 5 13 6 14 7 15 8 16 9 7 10 6 11 5 12
REMARK SMILES IDX 4 13 3 14 2 15 1 16
REMARK H PARENT
REMARK Flexibility Score: inf
ROOT
ATOM      1  C   UNL     1      25.332  29.838 -14.549  1.00  0.00     0.000 C 
ENDROOT
BRANCH   1   2
ATOM      2  C   UNL     1      26.318  30.785 -13.850  1.00  0.00     0.000 C 
BRANCH   2   3
ATOM      3  C   UNL     1      27.782  30.491 -14.215  1.00  0.00     0.000 C 
BRANCH   3   4
ATOM      4  C   UNL     1      28.708  30.479 -12.985  1.00  0.00     0.000 C 
BRANCH   4   5
ATOM      5  C   UNL     1      28.320  29.388 -11.966  1.00  0.00     0.006 C 
BRANCH   5   6
ATOM      6  C   UNL     1      27.944  29.942 -10.582  1.00  0.00     0.053 C 
BRANCH   6   7
ATOM      7  C   UNL     1      27.287  28.916  -9.714  1.00  0.00     0.041 C 
ATOM      8  O   UNL     1      27.417  28.969  -8.462  1.00  0.00    -0.550 OA
ATOM      9  O   UNL     1      26.513  27.914 -10.286  1.00  0.00    -0.550 OA
ENDBRANCH   6   7
ENDBRANCH   5   6
ENDBRANCH   4   5
ENDBRANCH   3   4
ENDBRANCH   2   3
ENDBRANCH   1   2
BRANCH   1  10
ATOM     10  C   UNL     1      26.046  28.978 -15.600  1.00  0.00     0.000 C 
BRANCH  10  11
ATOM     11  C   UNL     1      25.752  27.489 -15.385  1.00  0.00    -0.000 C 
BRANCH  11  12
ATOM     12  C   UNL     1      25.825  27.121 -13.898  1.00  0.00    -0.000 C 
BRANCH  12  13
ATOM     13  C   UNL     1      27.097  26.317 -13.593  1.00  0.00    -0.000 C 
BRANCH  13  14
ATOM     14  C   UNL     1      26.795  24.878 -13.141  1.00  0.00    -0.000 C 
BRANCH  14  15
ATOM     15  C   UNL     1      26.180  24.025 -14.258  1.00  0.00    -0.003 C 
ATOM     16  C   UNL     1      26.297  22.537 -13.940  1.00  0.00     0.004 C 
ENDBRANCH  14  15
ENDBRANCH  13  14
ENDBRANCH  12  13
ENDBRANCH  11  12
ENDBRANCH  10  11
ENDBRANCH   1  10
TORSDOF 12
ENDMDL
