MODEL 1
REMARK VINA RESULT:    -4.492      0.000      0.000
REMARK INTER + INTRA:         -10.089
REMARK INTER:                  -8.169
REMARK INTRA:                  -1.920
REMARK UNBOUND:                -1.920
REMARK SMILES CCCCCCCCCCCCCCCC(=O)[O-]
REMARK SMILES IDX 9 1 10 2 11 3 12 4 13 5 14 6 15 7 16 8 17 9 18 10 8 11 7 12
REMARK SMILES IDX 6 13 5 14 4 15 3 16 2 17 1 18
REMARK H PARENT
REMARK Flexibility Score: inf
ROOT
ATOM      1  C   UNL     1      15.315  51.629 159.686  1.00  0.00     0.000 C 
ENDROOT
BRANCH   1   2
ATOM      2  C   UNL     1      16.528  51.544 158.744  1.00  0.00     0.000 C 
BRANCH   2   3
ATOM      3  C   UNL     1      17.602  52.630 158.960  1.00  0.00     0.000 C 
BRANCH   3   4
ATOM      4  C   UNL     1      17.445  53.455 160.250  1.00  0.00     0.000 C 
BRANCH   4   5
ATOM      5  C   UNL     1      18.567  54.485 160.441  1.00  0.00     0.000 C 
BRANCH   5   6
ATOM      6  C   UNL     1      19.772  54.156 159.552  1.00  0.00     0.006 C 
BRANCH   6   7
ATOM      7  C   UNL     1      20.942  53.626 160.387  1.00  0.00     0.053 C 
BRANCH   7   8
ATOM      8  C   UNL     1      22.007  54.668 160.516  1.00  0.00     0.041 C 
ATOM      9  O   UNL     1      21.698  55.886 160.577  1.00  0.00    -0.550 OA
ATOM     10  O   UNL     1      23.340  54.290 160.620  1.00  0.00    -0.550 OA
ENDBRANCH   7   8
ENDBRANCH   6   7
ENDBRANCH   5   6
ENDBRANCH   4   5
ENDBRANCH   3   4
ENDBRANCH   2   3
ENDBRANCH   1   2
BRANCH   1  11
ATOM     11  C   UNL     1      14.105  52.323 159.041  1.00  0.00     0.000 C 
BRANCH  11  12
ATOM     12  C   UNL     1      14.342  52.557 157.543  1.00  0.00    -0.000 C 
BRANCH  12  13
ATOM     13  C   UNL     1      13.530  53.741 156.994  1.00  0.00    -0.000 C 
BRANCH  13  14
ATOM     14  C   UNL     1      14.396  54.734 156.198  1.00  0.00    -0.000 C 
BRANCH  14  15
ATOM     15  C   UNL     1      15.844  54.248 156.030  1.00  0.00    -0.000 C 
BRANCH  15  16
ATOM     16  C   UNL     1      16.874  55.292 156.495  1.00  0.00    -0.000 C 
BRANCH  16  17
ATOM     17  C   UNL     1      16.454  55.993 157.795  1.00  0.00    -0.003 C 
ATOM     18  C   UNL     1      16.530  57.517 157.697  1.00  0.00     0.004 C 
ENDBRANCH  16  17
ENDBRANCH  15  16
ENDBRANCH  14  15
ENDBRANCH  13  14
ENDBRANCH  12  13
ENDBRANCH  11  12
ENDBRANCH   1  11
TORSDOF 14
ENDMDL
MODEL 2
REMARK VINA RESULT:    -4.443      2.494      4.602
REMARK INTER + INTRA:          -9.999
REMARK INTER:                  -7.673
REMARK INTRA:                  -2.326
REMARK UNBOUND:                -1.920
REMARK SMILES CCCCCCCCCCCCCCCC(=O)[O-]
REMARK SMILES IDX 9 1 10 2 11 3 12 4 13 5 14 6 15 7 16 8 17 9 18 10 8 11 7 12
REMARK SMILES IDX 6 13 5 14 4 15 3 16 2 17 1 18
REMARK H PARENT
REMARK Flexibility Score: inf
ROOT
ATOM      1  C   UNL     1      19.003  53.779 157.698  1.00  0.00     0.000 C 
ENDROOT
BRANCH   1   2
ATOM      2  C   UNL     1      19.490  53.839 159.156  1.00  0.00     0.000 C 
BRANCH   2   3
ATOM      3  C   UNL     1      18.374  53.810 160.221  1.00  0.00     0.000 C 
BRANCH   3   4
ATOM      4  C   UNL     1      17.887  55.192 160.692  1.00  0.00     0.000 C 
BRANCH   4   5
ATOM      5  C   UNL     1      19.037  56.118 161.117  1.00  0.00     0.000 C 
BRANCH   5   6
ATOM      6  C   UNL     1      19.223  57.259 160.111  1.00  0.00     0.006 C 
BRANCH   6   7
ATOM      7  C   UNL     1      17.871  57.812 159.650  1.00  0.00     0.053 C 
BRANCH   7   8
ATOM      8  C   UNL     1      17.803  59.289 159.877  1.00  0.00     0.041 C 
ATOM      9  O   UNL     1      18.855  59.945 160.094  1.00  0.00    -0.550 OA
ATOM     10  O   UNL     1      16.583  59.948 159.801  1.00  0.00    -0.550 OA
ENDBRANCH   7   8
ENDBRANCH   6   7
ENDBRANCH   5   6
ENDBRANCH   4   5
ENDBRANCH   3   4
ENDBRANCH   2   3
ENDBRANCH   1   2
BRANCH   1  11
ATOM     11  C   UNL     1      18.667  55.162 157.121  1.00  0.00     0.000 C 
BRANCH  11  12
ATOM     12  C   UNL     1      17.273  55.165 156.478  1.00  0.00    -0.000 C 
BRANCH  12  13
ATOM     13  C   UNL     1      16.143  55.230 157.516  1.00  0.00    -0.000 C 
BRANCH  13  14
ATOM     14  C   UNL     1      15.015  54.224 157.228  1.00  0.00    -0.000 C 
BRANCH  14  15
ATOM     15  C   UNL     1      15.076  52.992 158.145  1.00  0.00    -0.000 C 
BRANCH  15  16
ATOM     16  C   UNL     1      16.065  51.928 157.637  1.00  0.00    -0.000 C 
BRANCH  16  17
ATOM     17  C   UNL     1      16.447  50.914 158.725  1.00  0.00    -0.003 C 
ATOM     18  C   UNL     1      15.630  51.085 160.006  1.00  0.00     0.004 C 
ENDBRANCH  16  17
ENDBRANCH  15  16
ENDBRANCH  14  15
ENDBRANCH  13  14
ENDBRANCH  12  13
ENDBRANCH  11  12
ENDBRANCH   1  11
TORSDOF 14
ENDMDL
MODEL 3
REMARK VINA RESULT:    -4.344      1.244      3.492
REMARK INTER + INTRA:          -9.819
REMARK INTER:                  -7.790
REMARK INTRA:                  -2.030
REMARK UNBOUND:                -1.920
REMARK SMILES CCCCCCCCCCCCCCCC(=O)[O-]
REMARK SMILES IDX 9 1 10 2 11 3 12 4 13 5 14 6 15 7 16 8 17 9 18 10 8 11 7 12
REMARK SMILES IDX 6 13 5 14 4 15 3 16 2 17 1 18
REMARK H PARENT
REMARK Flexibility Score: inf
ROOT
ATOM      1  C   UNL     1      18.016  56.421 157.679  1.00  0.00     0.000 C 
ENDROOT
BRANCH   1   2
ATOM      2  C   UNL     1      18.854  55.300 157.039  1.00  0.00     0.000 C 
BRANCH   2   3
ATOM      3  C   UNL     1      18.773  53.934 157.750  1.00  0.00     0.000 C 
BRANCH   3   4
ATOM      4  C   UNL     1      19.788  53.732 158.890  1.00  0.00     0.000 C 
BRANCH   4   5
ATOM      5  C   UNL     1      19.149  53.825 160.283  1.00  0.00     0.000 C 
BRANCH   5   6
ATOM      6  C   UNL     1      19.494  55.157 160.958  1.00  0.00     0.006 C 
BRANCH   6   7
ATOM      7  C   UNL     1      20.789  55.743 160.387  1.00  0.00     0.053 C 
BRANCH   7   8
ATOM      8  C   UNL     1      21.968  55.290 161.189  1.00  0.00     0.041 C 
ATOM      9  O   UNL     1      21.945  55.364 162.445  1.00  0.00    -0.550 OA
ATOM     10  O   UNL     1      23.073  54.740 160.550  1.00  0.00    -0.550 OA
ENDBRANCH   7   8
ENDBRANCH   6   7
ENDBRANCH   5   6
ENDBRANCH   4   5
ENDBRANCH   3   4
ENDBRANCH   2   3
ENDBRANCH   1   2
BRANCH   1  11
ATOM     11  C   UNL     1      16.614  55.954 158.097  1.00  0.00     0.000 C 
BRANCH  11  12
ATOM     12  C   UNL     1      15.577  56.297 157.018  1.00  0.00    -0.000 C 
BRANCH  12  13
ATOM     13  C   UNL     1      14.811  55.062 156.519  1.00  0.00    -0.000 C 
BRANCH  13  14
ATOM     14  C   UNL     1      15.216  53.776 157.260  1.00  0.00    -0.000 C 
BRANCH  14  15
ATOM     15  C   UNL     1      14.008  53.032 157.852  1.00  0.00    -0.000 C 
BRANCH  15  16
ATOM     16  C   UNL     1      14.354  52.290 159.155  1.00  0.00    -0.000 C 
BRANCH  16  17
ATOM     17  C   UNL     1      15.867  52.219 159.407  1.00  0.00    -0.003 C 
ATOM     18  C   UNL     1      16.432  50.811 159.219  1.00  0.00     0.004 C 
ENDBRANCH  16  17
ENDBRANCH  15  16
ENDBRANCH  14  15
ENDBRANCH  13  14
ENDBRANCH  12  13
ENDBRANCH  11  12
ENDBRANCH   1  11
TORSDOF 14
ENDMDL
MODEL 4
REMARK VINA RESULT:    -4.332      2.220      4.632
REMARK INTER + INTRA:          -9.797
REMARK INTER:                  -7.714
REMARK INTRA:                  -2.083
REMARK UNBOUND:                -1.920
REMARK SMILES CCCCCCCCCCCCCCCC(=O)[O-]
REMARK SMILES IDX 9 1 10 2 11 3 12 4 13 5 14 6 15 7 16 8 17 9 18 10 8 11 7 12
REMARK SMILES IDX 6 13 5 14 4 15 3 16 2 17 1 18
REMARK H PARENT
REMARK Flexibility Score: inf
ROOT
ATOM      1  C   UNL     1      14.214  53.685 156.988  1.00  0.00     0.000 C 
ENDROOT
BRANCH   1   2
ATOM      2  C   UNL     1      15.385  53.922 156.017  1.00  0.00     0.000 C 
BRANCH   2   3
ATOM      3  C   UNL     1      16.018  55.327 156.085  1.00  0.00     0.000 C 
BRANCH   3   4
ATOM      4  C   UNL     1      16.061  55.955 157.489  1.00  0.00     0.000 C 
BRANCH   4   5
ATOM      5  C   UNL     1      16.647  57.374 157.491  1.00  0.00     0.000 C 
BRANCH   5   6
ATOM      6  C   UNL     1      17.955  57.427 158.291  1.00  0.00     0.006 C 
BRANCH   6   7
ATOM      7  C   UNL     1      17.678  57.622 159.784  1.00  0.00     0.053 C 
BRANCH   7   8
ATOM      8  C   UNL     1      17.841  59.060 160.164  1.00  0.00     0.041 C 
ATOM      9  O   UNL     1      18.868  59.439 160.784  1.00  0.00    -0.550 OA
ATOM     10  O   UNL     1      16.880  59.990 159.789  1.00  0.00    -0.550 OA
ENDBRANCH   7   8
ENDBRANCH   6   7
ENDBRANCH   5   6
ENDBRANCH   4   5
ENDBRANCH   3   4
ENDBRANCH   2   3
ENDBRANCH   1   2
BRANCH   1  11
ATOM     11  C   UNL     1      14.559  52.695 158.110  1.00  0.00     0.000 C 
BRANCH  11  12
ATOM     12  C   UNL     1      15.710  51.770 157.691  1.00  0.00    -0.000 C 
BRANCH  12  13
ATOM     13  C   UNL     1      16.827  51.701 158.744  1.00  0.00    -0.000 C 
BRANCH  13  14
ATOM     14  C   UNL     1      16.573  52.637 159.938  1.00  0.00    -0.000 C 
BRANCH  14  15
ATOM     15  C   UNL     1      17.604  53.774 160.025  1.00  0.00    -0.000 C 
BRANCH  15  16
ATOM     16  C   UNL     1      18.648  53.710 158.897  1.00  0.00    -0.000 C 
BRANCH  16  17
ATOM     17  C   UNL     1      20.045  54.142 159.365  1.00  0.00    -0.003 C 
ATOM     18  C   UNL     1      20.194  54.116 160.886  1.00  0.00     0.004 C 
ENDBRANCH  16  17
ENDBRANCH  15  16
ENDBRANCH  14  15
ENDBRANCH  13  14
ENDBRANCH  12  13
ENDBRANCH  11  12
ENDBRANCH   1  11
TORSDOF 14
ENDMDL
MODEL 5
REMARK VINA RESULT:    -4.286      2.118      4.955
REMARK INTER + INTRA:          -9.713
REMARK INTER:                  -8.007
REMARK INTRA:                  -1.706
REMARK UNBOUND:                -1.920
REMARK SMILES CCCCCCCCCCCCCCCC(=O)[O-]
REMARK SMILES IDX 9 1 10 2 11 3 12 4 13 5 14 6 15 7 16 8 17 9 18 10 8 11 7 12
REMARK SMILES IDX 6 13 5 14 4 15 3 16 2 17 1 18
REMARK H PARENT
REMARK Flexibility Score: inf
ROOT
ATOM      1  C   UNL     1      14.168  52.523 158.819  1.00  0.00     0.000 C 
ENDROOT
BRANCH   1   2
ATOM      2  C   UNL     1      14.338  52.663 157.296  1.00  0.00     0.000 C 
BRANCH   2   3
ATOM      3  C   UNL     1      13.433  53.720 156.631  1.00  0.00     0.000 C 
BRANCH   3   4
ATOM      4  C   UNL     1      14.181  54.843 155.888  1.00  0.00     0.000 C 
BRANCH   4   5
ATOM      5  C   UNL     1      15.706  54.736 156.025  1.00  0.00     0.000 C 
BRANCH   5   6
ATOM      6  C   UNL     1      16.340  56.121 156.203  1.00  0.00     0.006 C 
BRANCH   6   7
ATOM      7  C   UNL     1      16.258  56.579 157.662  1.00  0.00     0.053 C 
BRANCH   7   8
ATOM      8  C   UNL     1      17.297  57.618 157.944  1.00  0.00     0.041 C 
ATOM      9  O   UNL     1      18.433  57.539 157.409  1.00  0.00    -0.550 OA
ATOM     10  O   UNL     1      16.993  58.701 158.760  1.00  0.00    -0.550 OA
ENDBRANCH   7   8
ENDBRANCH   6   7
ENDBRANCH   5   6
ENDBRANCH   4   5
ENDBRANCH   3   4
ENDBRANCH   2   3
ENDBRANCH   1   2
BRANCH   1  11
ATOM     11  C   UNL     1      15.181  51.554 159.447  1.00  0.00     0.000 C 
BRANCH  11  12
ATOM     12  C   UNL     1      16.555  51.683 158.773  1.00  0.00    -0.000 C 
BRANCH  12  13
ATOM     13  C   UNL     1      17.357  52.887 159.289  1.00  0.00    -0.000 C 
BRANCH  13  14
ATOM     14  C   UNL     1      18.329  53.446 158.236  1.00  0.00    -0.000 C 
BRANCH  14  15
ATOM     15  C   UNL     1      19.699  53.808 158.832  1.00  0.00    -0.000 C 
BRANCH  15  16
ATOM     16  C   UNL     1      19.623  54.997 159.805  1.00  0.00    -0.000 C 
BRANCH  16  17
ATOM     17  C   UNL     1      20.293  54.697 161.153  1.00  0.00    -0.003 C 
ATOM     18  C   UNL     1      19.284  54.377 162.256  1.00  0.00     0.004 C 
ENDBRANCH  16  17
ENDBRANCH  15  16
ENDBRANCH  14  15
ENDBRANCH  13  14
ENDBRANCH  12  13
ENDBRANCH  11  12
ENDBRANCH   1  11
TORSDOF 14
ENDMDL
MODEL 6
REMARK VINA RESULT:    -4.258      1.909      4.533
REMARK INTER + INTRA:          -9.662
REMARK INTER:                  -7.497
REMARK INTRA:                  -2.165
REMARK UNBOUND:                -1.920
REMARK SMILES CCCCCCCCCCCCCCCC(=O)[O-]
REMARK SMILES IDX 9 1 10 2 11 3 12 4 13 5 14 6 15 7 16 8 17 9 18 10 8 11 7 12
REMARK SMILES IDX 6 13 5 14 4 15 3 16 2 17 1 18
REMARK H PARENT
REMARK Flexibility Score: inf
ROOT
ATOM      1  C   UNL     1      18.483  55.049 156.684  1.00  0.00     0.000 C 
ENDROOT
BRANCH   1   2
ATOM      2  C   UNL     1      17.084  55.663 156.502  1.00  0.00     0.000 C 
BRANCH   2   3
ATOM      3  C   UNL     1      16.452  56.245 157.783  1.00  0.00     0.000 C 
BRANCH   3   4
ATOM      4  C   UNL     1      16.683  57.752 157.997  1.00  0.00     0.000 C 
BRANCH   4   5
ATOM      5  C   UNL     1      17.736  58.048 159.075  1.00  0.00     0.000 C 
BRANCH   5   6
ATOM      6  C   UNL     1      17.710  56.980 160.175  1.00  0.00     0.006 C 
BRANCH   6   7
ATOM      7  C   UNL     1      19.076  56.862 160.859  1.00  0.00     0.053 C 
BRANCH   7   8
ATOM      8  C   UNL     1      18.935  56.220 162.203  1.00  0.00     0.041 C 
ATOM      9  O   UNL     1      19.091  54.977 162.330  1.00  0.00    -0.550 OA
ATOM     10  O   UNL     1      18.681  57.001 163.323  1.00  0.00    -0.550 OA
ENDBRANCH   7   8
ENDBRANCH   6   7
ENDBRANCH   5   6
ENDBRANCH   4   5
ENDBRANCH   3   4
ENDBRANCH   2   3
ENDBRANCH   1   2
BRANCH   1  11
ATOM     11  C   UNL     1      18.443  53.646 157.307  1.00  0.00     0.000 C 
BRANCH  11  12
ATOM     12  C   UNL     1      18.844  53.692 158.788  1.00  0.00    -0.000 C 
BRANCH  12  13
ATOM     13  C   UNL     1      17.752  53.134 159.714  1.00  0.00    -0.000 C 
BRANCH  13  14
ATOM     14  C   UNL     1      16.875  52.075 159.023  1.00  0.00    -0.000 C 
BRANCH  14  15
ATOM     15  C   UNL     1      15.566  51.807 159.784  1.00  0.00    -0.000 C 
BRANCH  15  16
ATOM     16  C   UNL     1      14.323  52.248 158.991  1.00  0.00    -0.000 C 
BRANCH  16  17
ATOM     17  C   UNL     1      14.643  52.563 157.523  1.00  0.00    -0.003 C 
ATOM     18  C   UNL     1      13.803  53.714 156.969  1.00  0.00     0.004 C 
ENDBRANCH  16  17
ENDBRANCH  15  16
ENDBRANCH  14  15
ENDBRANCH  13  14
ENDBRANCH  12  13
ENDBRANCH  11  12
ENDBRANCH   1  11
TORSDOF 14
ENDMDL
MODEL 7
REMARK VINA RESULT:    -4.247      2.291      4.224
REMARK INTER + INTRA:          -9.643
REMARK INTER:                  -7.438
REMARK INTRA:                  -2.205
REMARK UNBOUND:                -1.920
REMARK SMILES CCCCCCCCCCCCCCCC(=O)[O-]
REMARK SMILES IDX 9 1 10 2 11 3 12 4 13 5 14 6 15 7 16 8 17 9 18 10 8 11 7 12
REMARK SMILES IDX 6 13 5 14 4 15 3 16 2 17 1 18
REMARK H PARENT
REMARK Flexibility Score: inf
ROOT
ATOM      1  C   UNL     1      15.437  55.055 157.193  1.00  0.00     0.000 C 
ENDROOT
BRANCH   1   2
ATOM      2  C   UNL     1      15.966  56.410 156.689  1.00  0.00     0.000 C 
BRANCH   2   3
ATOM      3  C   UNL     1      16.662  57.279 157.756  1.00  0.00     0.000 C 
BRANCH   3   4
ATOM      4  C   UNL     1      18.200  57.265 157.707  1.00  0.00     0.000 C 
BRANCH   4   5
ATOM      5  C   UNL     1      18.842  57.185 159.100  1.00  0.00     0.000 C 
BRANCH   5   6
ATOM      6  C   UNL     1      17.771  57.087 160.193  1.00  0.00     0.006 C 
BRANCH   6   7
ATOM      7  C   UNL     1      18.366  56.551 161.498  1.00  0.00     0.053 C 
BRANCH   7   8
ATOM      8  C   UNL     1      18.511  57.653 162.500  1.00  0.00     0.041 C 
ATOM      9  O   UNL     1      18.011  57.535 163.648  1.00  0.00    -0.550 OA
ATOM     10  O   UNL     1      19.241  58.791 162.180  1.00  0.00    -0.550 OA
ENDBRANCH   7   8
ENDBRANCH   6   7
ENDBRANCH   5   6
ENDBRANCH   4   5
ENDBRANCH   3   4
ENDBRANCH   2   3
ENDBRANCH   1   2
BRANCH   1  11
ATOM     11  C   UNL     1      15.542  53.942 156.140  1.00  0.00     0.000 C 
BRANCH  11  12
ATOM     12  C   UNL     1      15.060  52.601 156.710  1.00  0.00    -0.000 C 
BRANCH  12  13
ATOM     13  C   UNL     1      14.358  52.752 158.068  1.00  0.00    -0.000 C 
BRANCH  13  14
ATOM     14  C   UNL     1      15.016  51.906 159.172  1.00  0.00    -0.000 C 
BRANCH  14  15
ATOM     15  C   UNL     1      16.551  51.943 159.107  1.00  0.00    -0.000 C 
BRANCH  15  16
ATOM     16  C   UNL     1      17.150  53.078 159.956  1.00  0.00    -0.000 C 
BRANCH  16  17
ATOM     17  C   UNL     1      18.508  53.557 159.423  1.00  0.00    -0.003 C 
ATOM     18  C   UNL     1      18.629  53.421 157.905  1.00  0.00     0.004 C 
ENDBRANCH  16  17
ENDBRANCH  15  16
ENDBRANCH  14  15
ENDBRANCH  13  14
ENDBRANCH  12  13
ENDBRANCH  11  12
ENDBRANCH   1  11
TORSDOF 14
ENDMDL
MODEL 8
REMARK VINA RESULT:    -4.244      1.393      2.336
REMARK INTER + INTRA:          -9.638
REMARK INTER:                  -7.592
REMARK INTRA:                  -2.045
REMARK UNBOUND:                -1.920
REMARK SMILES CCCCCCCCCCCCCCCC(=O)[O-]
REMARK SMILES IDX 9 1 10 2 11 3 12 4 13 5 14 6 15 7 16 8 17 9 18 10 8 11 7 12
REMARK SMILES IDX 6 13 5 14 4 15 3 16 2 17 1 18
REMARK H PARENT
REMARK Flexibility Score: inf
ROOT
ATOM      1  C   UNL     1      13.869  52.995 158.122  1.00  0.00     0.000 C 
ENDROOT
BRANCH   1   2
ATOM      2  C   UNL     1      14.805  52.034 158.876  1.00  0.00     0.000 C 
BRANCH   2   3
ATOM      3  C   UNL     1      16.144  51.736 158.170  1.00  0.00     0.000 C 
BRANCH   3   4
ATOM      4  C   UNL     1      17.377  52.404 158.803  1.00  0.00     0.000 C 
BRANCH   4   5
ATOM      5  C   UNL     1      17.010  53.517 159.795  1.00  0.00     0.000 C 
BRANCH   5   6
ATOM      6  C   UNL     1      18.240  53.974 160.587  1.00  0.00     0.006 C 
BRANCH   6   7
ATOM      7  C   UNL     1      19.532  53.659 159.827  1.00  0.00     0.053 C 
BRANCH   7   8
ATOM      8  C   UNL     1      20.725  53.910 160.693  1.00  0.00     0.041 C 
ATOM      9  O   UNL     1      21.884  53.689 160.255  1.00  0.00    -0.550 OA
ATOM     10  O   UNL     1      20.560  54.435 161.969  1.00  0.00    -0.550 OA
ENDBRANCH   7   8
ENDBRANCH   6   7
ENDBRANCH   5   6
ENDBRANCH   4   5
ENDBRANCH   3   4
ENDBRANCH   2   3
ENDBRANCH   1   2
BRANCH   1  11
ATOM     11  C   UNL     1      14.118  53.007 156.607  1.00  0.00     0.000 C 
BRANCH  11  12
ATOM     12  C   UNL     1      14.346  54.438 156.099  1.00  0.00    -0.000 C 
BRANCH  12  13
ATOM     13  C   UNL     1      15.788  54.921 156.319  1.00  0.00    -0.000 C 
BRANCH  13  14
ATOM     14  C   UNL     1      15.883  56.046 157.364  1.00  0.00    -0.000 C 
BRANCH  14  15
ATOM     15  C   UNL     1      17.114  56.942 157.154  1.00  0.00    -0.000 C 
BRANCH  15  16
ATOM     16  C   UNL     1      18.434  56.155 157.218  1.00  0.00    -0.000 C 
BRANCH  16  17
ATOM     17  C   UNL     1      19.490  56.848 158.092  1.00  0.00    -0.003 C 
ATOM     18  C   UNL     1      18.911  57.995 158.920  1.00  0.00     0.004 C 
ENDBRANCH  16  17
ENDBRANCH  15  16
ENDBRANCH  14  15
ENDBRANCH  13  14
ENDBRANCH  12  13
ENDBRANCH  11  12
ENDBRANCH   1  11
TORSDOF 14
ENDMDL
MODEL 9
REMARK VINA RESULT:    -4.239      1.540      3.637
REMARK INTER + INTRA:          -9.628
REMARK INTER:                  -7.707
REMARK INTRA:                  -1.921
REMARK UNBOUND:                -1.920
REMARK SMILES CCCCCCCCCCCCCCCC(=O)[O-]
REMARK SMILES IDX 9 1 10 2 11 3 12 4 13 5 14 6 15 7 16 8 17 9 18 10 8 11 7 12
REMARK SMILES IDX 6 13 5 14 4 15 3 16 2 17 1 18
REMARK H PARENT
REMARK Flexibility Score: inf
ROOT
ATOM      1  C   UNL     1      15.350  56.128 156.736  1.00  0.00     0.000 C 
ENDROOT
BRANCH   1   2
ATOM      2  C   UNL     1      16.578  56.319 157.643  1.00  0.00     0.000 C 
BRANCH   2   3
ATOM      3  C   UNL     1      16.838  57.770 158.096  1.00  0.00     0.000 C 
BRANCH   3   4
ATOM      4  C   UNL     1      17.636  57.910 159.405  1.00  0.00     0.000 C 
BRANCH   4   5
ATOM      5  C   UNL     1      17.803  56.577 160.149  1.00  0.00     0.000 C 
BRANCH   5   6
ATOM      6  C   UNL     1      19.038  56.606 161.057  1.00  0.00     0.006 C 
BRANCH   6   7
ATOM      7  C   UNL     1      20.190  55.803 160.443  1.00  0.00     0.053 C 
BRANCH   7   8
ATOM      8  C   UNL     1      20.315  54.472 161.113  1.00  0.00     0.041 C 
ATOM      9  O   UNL     1      19.735  54.257 162.209  1.00  0.00    -0.550 OA
ATOM     10  O   UNL     1      21.032  53.451 160.501  1.00  0.00    -0.550 OA
ENDBRANCH   7   8
ENDBRANCH   6   7
ENDBRANCH   5   6
ENDBRANCH   4   5
ENDBRANCH   3   4
ENDBRANCH   2   3
ENDBRANCH   1   2
BRANCH   1  11
ATOM     11  C   UNL     1      15.365  54.791 155.981  1.00  0.00     0.000 C 
BRANCH  11  12
ATOM     12  C   UNL     1      14.136  53.944 156.340  1.00  0.00    -0.000 C 
BRANCH  12  13
ATOM     13  C   UNL     1      14.510  52.609 157.002  1.00  0.00    -0.000 C 
BRANCH  13  14
ATOM     14  C   UNL     1      14.231  52.601 158.516  1.00  0.00    -0.000 C 
BRANCH  14  15
ATOM     15  C   UNL     1      15.295  51.822 159.306  1.00  0.00    -0.000 C 
BRANCH  15  16
ATOM     16  C   UNL     1      16.662  51.808 158.600  1.00  0.00    -0.000 C 
BRANCH  16  17
ATOM     17  C   UNL     1      17.555  52.982 159.026  1.00  0.00    -0.003 C 
ATOM     18  C   UNL     1      18.554  53.389 157.942  1.00  0.00     0.004 C 
ENDBRANCH  16  17
ENDBRANCH  15  16
ENDBRANCH  14  15
ENDBRANCH  13  14
ENDBRANCH  12  13
ENDBRANCH  11  12
ENDBRANCH   1  11
TORSDOF 14
ENDMDL
