MODEL 1
REMARK VINA RESULT:    -4.737      0.000      0.000
REMARK INTER + INTRA:          -4.985
REMARK INTER:                  -5.845
REMARK INTRA:                   0.859
REMARK UNBOUND:                 0.859
REMARK SMILES CC1=CC=CC(C)(C)CC1=O
REMARK SMILES IDX 1 1 2 2 3 3 10 4 11 5 9 6 4 8 5 9 6 10 7 11 8 12
REMARK H PARENT
REMARK Flexibility Score: 80.00
ROOT
ATOM      1  C   UNL     1      -7.289  33.386  19.847  1.00  0.00     0.048 C 
ATOM      2  C   UNL     1      -7.943  33.364  21.210  1.00  0.00    -0.008 C 
ATOM      3  C   UNL     1      -7.516  34.258  22.128  1.00  0.00     0.007 C 
ENDROOT
BRANCH   2   4
ATOM      4  C   UNL     1      -9.047  32.387  21.407  1.00  0.00     0.159 C 
ATOM      5  O   UNL     1      -9.327  31.596  20.463  1.00  0.00    -0.295 OA
BRANCH   4   6
ATOM      6  C   UNL     1      -9.884  32.302  22.647  1.00  0.00     0.091 CG0
ATOM      7  G   UNL     1      -9.062  32.223  23.955  1.00  0.00     0.000 G0
ENDBRANCH   4   6
ENDBRANCH   2   4
BRANCH   3   8
ATOM      8  C   UNL     1      -7.954  34.459  23.528  1.00  0.00    -0.003 C 
ATOM      9  C   UNL     1      -8.588  33.602  24.335  1.00  0.00    -0.020 C 
BRANCH   9  10
ATOM     10  C   UNL     1      -9.070  32.219  23.966  1.00  0.00    -0.010 CG0
ATOM     11  C   UNL     1     -10.015  31.722  25.083  1.00  0.00     0.016 C 
ATOM     12  C   UNL     1      -7.877  31.240  23.881  1.00  0.00     0.016 C 
ATOM     13  G   UNL     1      -9.878  32.292  22.650  1.00  0.00     0.000 G0
ENDBRANCH   9  10
ENDBRANCH   3   8
TORSDOF 0
ENDMDL
MODEL 2
REMARK VINA RESULT:    -4.539      1.519      2.404
REMARK INTER + INTRA:          -4.740
REMARK INTER:                  -5.587
REMARK INTRA:                   0.846
REMARK UNBOUND:                 0.859
REMARK SMILES CC1=CC=CC(C)(C)CC1=O
REMARK SMILES IDX 1 1 2 2 3 3 10 4 11 5 9 6 4 8 5 9 6 10 7 11 8 12
REMARK H PARENT
REMARK Flexibility Score: 80.00
ROOT
ATOM      1  C   UNL     1      -7.590  32.905  19.845  1.00  0.00     0.048 C 
ATOM      2  C   UNL     1      -7.671  32.568  21.317  1.00  0.00    -0.008 C 
ATOM      3  C   UNL     1      -7.559  31.271  21.674  1.00  0.00     0.007 C 
ENDROOT
BRANCH   2   4
ATOM      4  C   UNL     1      -7.813  33.712  22.257  1.00  0.00     0.159 C 
ATOM      5  O   UNL     1      -7.963  34.871  21.779  1.00  0.00    -0.295 OA
BRANCH   4   6
ATOM      6  C   UNL     1      -7.752  33.586  23.750  1.00  0.00     0.091 CG0
ATOM      7  G   UNL     1      -8.722  32.532  24.331  1.00  0.00     0.000 G0
ENDBRANCH   4   6
ENDBRANCH   2   4
BRANCH   3   8
ATOM      8  C   UNL     1      -7.611  30.651  23.017  1.00  0.00    -0.003 C 
ATOM      9  C   UNL     1      -8.118  31.153  24.149  1.00  0.00    -0.020 C 
BRANCH   9  10
ATOM     10  C   UNL     1      -8.709  32.532  24.326  1.00  0.00    -0.010 CG0
ATOM     11  C   UNL     1      -8.850  32.806  25.841  1.00  0.00     0.016 C 
ATOM     12  C   UNL     1     -10.119  32.596  23.697  1.00  0.00     0.016 C 
ATOM     13  G   UNL     1      -7.743  33.584  23.735  1.00  0.00     0.000 G0
ENDBRANCH   9  10
ENDBRANCH   3   8
TORSDOF 0
ENDMDL
MODEL 3
REMARK VINA RESULT:    -4.329      1.602      2.485
REMARK INTER + INTRA:          -4.481
REMARK INTER:                  -5.332
REMARK INTRA:                   0.850
REMARK UNBOUND:                 0.859
REMARK SMILES CC1=CC=CC(C)(C)CC1=O
REMARK SMILES IDX 1 1 2 2 3 3 10 4 11 5 9 6 4 8 5 9 6 10 7 11 8 12
REMARK H PARENT
REMARK Flexibility Score: 80.00
ROOT
ATOM      1  C   UNL     1      -7.456  34.849  22.805  1.00  0.00     0.048 C 
ATOM      2  C   UNL     1      -8.047  33.472  23.006  1.00  0.00    -0.008 C 
ATOM      3  C   UNL     1      -8.479  33.146  24.244  1.00  0.00     0.007 C 
ENDROOT
BRANCH   2   4
ATOM      4  C   UNL     1      -8.151  32.607  21.801  1.00  0.00     0.159 C 
ATOM      5  O   UNL     1      -7.666  33.027  20.713  1.00  0.00    -0.295 OA
BRANCH   4   6
ATOM      6  C   UNL     1      -8.834  31.273  21.780  1.00  0.00     0.091 CG0
ATOM      7  G   UNL     1      -8.361  30.308  22.891  1.00  0.00     0.000 G0
ENDBRANCH   4   6
ENDBRANCH   2   4
BRANCH   3   8
ATOM      8  C   UNL     1      -9.081  31.886  24.734  1.00  0.00    -0.003 C 
ATOM      9  C   UNL     1      -9.018  30.665  24.192  1.00  0.00    -0.020 C 
BRANCH   9  10
ATOM     10  C   UNL     1      -8.354  30.303  22.885  1.00  0.00    -0.010 CG0
ATOM     11  C   UNL     1      -8.804  28.877  22.492  1.00  0.00     0.016 C 
ATOM     12  C   UNL     1      -6.817  30.287  23.050  1.00  0.00     0.016 C 
ATOM     13  G   UNL     1      -8.826  31.278  21.782  1.00  0.00     0.000 G0
ENDBRANCH   9  10
ENDBRANCH   3   8
TORSDOF 0
ENDMDL
MODEL 4
REMARK VINA RESULT:    -4.321      1.699      3.201
REMARK INTER + INTRA:          -4.472
REMARK INTER:                  -5.567
REMARK INTRA:                   1.095
REMARK UNBOUND:                 0.859
REMARK SMILES CC1=CC=CC(C)(C)CC1=O
REMARK SMILES IDX 1 1 2 2 3 3 10 4 11 5 9 6 4 8 5 9 6 10 7 11 8 12
REMARK H PARENT
REMARK Flexibility Score: 80.00
ROOT
ATOM      1  C   UNL     1      -8.254  34.458  26.183  1.00  0.00     0.048 C 
ATOM      2  C   UNL     1      -8.469  34.120  24.725  1.00  0.00    -0.008 C 
ATOM      3  C   UNL     1      -7.820  34.864  23.804  1.00  0.00     0.007 C 
ENDROOT
BRANCH   2   4
ATOM      4  C   UNL     1      -9.343  32.953  24.431  1.00  0.00     0.159 C 
ATOM      5  O   UNL     1      -9.677  32.194  25.384  1.00  0.00    -0.295 OA
BRANCH   4   6
ATOM      6  C   UNL     1      -9.828  32.589  23.060  1.00  0.00     0.091 CG0
ATOM      7  G   UNL     1      -8.694  32.378  22.030  1.00  0.00     0.000 G0
ENDBRANCH   4   6
ENDBRANCH   2   4
BRANCH   3   8
ATOM      8  C   UNL     1      -7.847  34.774  22.326  1.00  0.00    -0.003 C 
ATOM      9  C   UNL     1      -8.240  33.751  21.559  1.00  0.00    -0.020 C 
BRANCH   9  10
ATOM     10  C   UNL     1      -8.694  32.396  22.045  1.00  0.00    -0.010 CG0
ATOM     11  C   UNL     1      -7.501  31.708  22.746  1.00  0.00     0.016 C 
ATOM     12  C   UNL     1      -9.118  31.511  20.850  1.00  0.00     0.016 C 
ATOM     13  G   UNL     1      -9.825  32.575  23.085  1.00  0.00     0.000 G0
ENDBRANCH   9  10
ENDBRANCH   3   8
TORSDOF 0
ENDMDL
MODEL 5
REMARK VINA RESULT:    -4.206      1.837      3.134
REMARK INTER + INTRA:          -4.330
REMARK INTER:                  -5.190
REMARK INTRA:                   0.860
REMARK UNBOUND:                 0.859
REMARK SMILES CC1=CC=CC(C)(C)CC1=O
REMARK SMILES IDX 1 1 2 2 3 3 10 4 11 5 9 6 4 8 5 9 6 10 7 11 8 12
REMARK H PARENT
REMARK Flexibility Score: 80.00
ROOT
ATOM      1  C   UNL     1      -8.298  35.646  24.145  1.00  0.00     0.048 C 
ATOM      2  C   UNL     1      -8.122  34.384  23.332  1.00  0.00    -0.008 C 
ATOM      3  C   UNL     1      -7.922  34.512  22.003  1.00  0.00     0.007 C 
ENDROOT
BRANCH   2   4
ATOM      4  C   UNL     1      -8.129  33.099  24.082  1.00  0.00     0.159 C 
ATOM      5  O   UNL     1      -8.408  33.122  25.314  1.00  0.00    -0.295 OA
BRANCH   4   6
ATOM      6  C   UNL     1      -7.784  31.771  23.479  1.00  0.00     0.091 CG0
ATOM      7  G   UNL     1      -8.606  31.424  22.216  1.00  0.00     0.000 G0
ENDBRANCH   4   6
ENDBRANCH   2   4
BRANCH   3   8
ATOM      8  C   UNL     1      -7.733  33.469  20.969  1.00  0.00    -0.003 C 
ATOM      9  C   UNL     1      -8.050  32.171  21.026  1.00  0.00    -0.020 C 
BRANCH   9  10
ATOM     10  C   UNL     1      -8.628  31.446  22.217  1.00  0.00    -0.010 CG0
ATOM     11  C   UNL     1      -8.531  29.926  21.952  1.00  0.00     0.016 C 
ATOM     12  C   UNL     1     -10.121  31.804  22.392  1.00  0.00     0.016 C 
ATOM     13  G   UNL     1      -7.786  31.769  23.473  1.00  0.00     0.000 G0
ENDBRANCH   9  10
ENDBRANCH   3   8
TORSDOF 0
ENDMDL
MODEL 6
REMARK VINA RESULT:    -3.887      2.120      4.032
REMARK INTER + INTRA:          -3.936
REMARK INTER:                  -4.792
REMARK INTRA:                   0.856
REMARK UNBOUND:                 0.859
REMARK SMILES CC1=CC=CC(C)(C)CC1=O
REMARK SMILES IDX 1 1 2 2 3 3 10 4 11 5 9 6 4 8 5 9 6 10 7 11 8 12
REMARK H PARENT
REMARK Flexibility Score: 80.00
ROOT
ATOM      1  C   UNL     1      -7.866  31.560  27.034  1.00  0.00     0.048 C 
ATOM      2  C   UNL     1      -8.323  31.305  25.615  1.00  0.00    -0.008 C 
ATOM      3  C   UNL     1      -8.018  30.113  25.059  1.00  0.00     0.007 C 
ENDROOT
BRANCH   2   4
ATOM      4  C   UNL     1      -9.123  32.379  24.968  1.00  0.00     0.159 C 
ATOM      5  O   UNL     1      -9.270  33.474  25.579  1.00  0.00    -0.295 OA
BRANCH   4   6
ATOM      6  C   UNL     1      -9.807  32.235  23.641  1.00  0.00     0.091 CG0
ATOM      7  G   UNL     1      -8.874  31.761  22.503  1.00  0.00     0.000 G0
ENDBRANCH   4   6
ENDBRANCH   2   4
BRANCH   3   8
ATOM      8  C   UNL     1      -8.319  29.595  23.705  1.00  0.00    -0.003 C 
ATOM      9  C   UNL     1      -8.649  30.281  22.605  1.00  0.00    -0.020 C 
BRANCH   9  10
ATOM     10  C   UNL     1      -8.861  31.773  22.514  1.00  0.00    -0.010 CG0
ATOM     11  C   UNL     1      -9.548  32.083  21.164  1.00  0.00     0.016 C 
ATOM     12  C   UNL     1      -7.502  32.510  22.536  1.00  0.00     0.016 C 
ATOM     13  G   UNL     1      -9.806  32.228  23.650  1.00  0.00     0.000 G0
ENDBRANCH   9  10
ENDBRANCH   3   8
TORSDOF 0
ENDMDL
MODEL 7
REMARK VINA RESULT:    -3.839      2.463      4.114
REMARK INTER + INTRA:          -3.877
REMARK INTER:                  -4.700
REMARK INTRA:                   0.823
REMARK UNBOUND:                 0.859
REMARK SMILES CC1=CC=CC(C)(C)CC1=O
REMARK SMILES IDX 1 1 2 2 3 3 10 4 11 5 9 6 4 8 5 9 6 10 7 11 8 12
REMARK H PARENT
REMARK Flexibility Score: 80.00
ROOT
ATOM      1  C   UNL     1      -8.253  33.056  26.686  1.00  0.00     0.048 C 
ATOM      2  C   UNL     1      -8.581  31.903  25.765  1.00  0.00    -0.008 C 
ATOM      3  C   UNL     1      -8.958  30.735  26.329  1.00  0.00     0.007 C 
ENDROOT
BRANCH   2   4
ATOM      4  C   UNL     1      -8.510  32.172  24.304  1.00  0.00     0.159 C 
ATOM      5  O   UNL     1      -8.040  33.278  23.917  1.00  0.00    -0.295 OA
BRANCH   4   6
ATOM      6  C   UNL     1      -9.001  31.226  23.250  1.00  0.00     0.091 CG0
ATOM      7  G   UNL     1      -8.376  29.814  23.334  1.00  0.00     0.000 G0
ENDBRANCH   4   6
ENDBRANCH   2   4
BRANCH   3   8
ATOM      8  C   UNL     1      -9.322  29.450  25.689  1.00  0.00    -0.003 C 
ATOM      9  C   UNL     1      -9.061  29.034  24.445  1.00  0.00    -0.020 C 
BRANCH   9  10
ATOM     10  C   UNL     1      -8.375  29.833  23.363  1.00  0.00    -0.010 CG0
ATOM     11  C   UNL     1      -8.625  29.128  22.010  1.00  0.00     0.016 C 
ATOM     12  C   UNL     1      -6.849  29.867  23.607  1.00  0.00     0.016 C 
ATOM     13  G   UNL     1      -9.001  31.245  23.293  1.00  0.00     0.000 G0
ENDBRANCH   9  10
ENDBRANCH   3   8
TORSDOF 0
ENDMDL
MODEL 8
REMARK VINA RESULT:    -3.256     16.745     18.092
REMARK INTER + INTRA:          -3.158
REMARK INTER:                  -3.997
REMARK INTRA:                   0.839
REMARK UNBOUND:                 0.859
REMARK SMILES CC1=CC=CC(C)(C)CC1=O
REMARK SMILES IDX 1 1 2 2 3 3 10 4 11 5 9 6 4 8 5 9 6 10 7 11 8 12
REMARK H PARENT
REMARK Flexibility Score: 80.00
ROOT
ATOM      1  C   UNL     1      -3.840  46.392  10.981  1.00  0.00     0.048 C 
ATOM      2  C   UNL     1      -2.977  46.618  12.202  1.00  0.00    -0.008 C 
ATOM      3  C   UNL     1      -1.927  45.791  12.394  1.00  0.00     0.007 C 
ENDROOT
BRANCH   2   4
ATOM      4  C   UNL     1      -3.331  47.776  13.065  1.00  0.00     0.159 C 
ATOM      5  O   UNL     1      -4.363  48.447  12.782  1.00  0.00    -0.295 OA
BRANCH   4   6
ATOM      6  C   UNL     1      -2.517  48.230  14.239  1.00  0.00     0.091 CG0
ATOM      7  G   UNL     1      -2.182  47.103  15.244  1.00  0.00     0.000 G0
ENDBRANCH   4   6
ENDBRANCH   2   4
BRANCH   3   8
ATOM      8  C   UNL     1      -0.932  45.764  13.489  1.00  0.00    -0.003 C 
ATOM      9  C   UNL     1      -1.026  46.290  14.716  1.00  0.00    -0.020 C 
BRANCH   9  10
ATOM     10  C   UNL     1      -2.177  47.110  15.248  1.00  0.00    -0.010 CG0
ATOM     11  C   UNL     1      -1.724  47.783  16.563  1.00  0.00     0.016 C 
ATOM     12  C   UNL     1      -3.382  46.197  15.572  1.00  0.00     0.016 C 
ATOM     13  G   UNL     1      -2.527  48.223  14.233  1.00  0.00     0.000 G0
ENDBRANCH   9  10
ENDBRANCH   3   8
TORSDOF 0
ENDMDL
MODEL 9
REMARK VINA RESULT:    -3.162      1.833      3.006
REMARK INTER + INTRA:          -3.042
REMARK INTER:                  -3.899
REMARK INTRA:                   0.857
REMARK UNBOUND:                 0.859
REMARK SMILES CC1=CC=CC(C)(C)CC1=O
REMARK SMILES IDX 1 1 2 2 3 3 10 4 11 5 9 6 4 8 5 9 6 10 7 11 8 12
REMARK H PARENT
REMARK Flexibility Score: 80.00
ROOT
ATOM      1  C   UNL     1      -9.414  32.125  20.876  1.00  0.00     0.048 C 
ATOM      2  C   UNL     1      -8.980  32.550  22.261  1.00  0.00    -0.008 C 
ATOM      3  C   UNL     1      -9.560  31.940  23.317  1.00  0.00     0.007 C 
ENDROOT
BRANCH   2   4
ATOM      4  C   UNL     1      -7.905  33.575  22.340  1.00  0.00     0.159 C 
ATOM      5  O   UNL     1      -7.470  34.076  21.266  1.00  0.00    -0.295 OA
BRANCH   4   6
ATOM      6  C   UNL     1      -7.269  34.029  23.619  1.00  0.00     0.091 CG0
ATOM      7  G   UNL     1      -8.281  34.455  24.707  1.00  0.00     0.000 G0
ENDBRANCH   4   6
ENDBRANCH   2   4
BRANCH   3   8
ATOM      8  C   UNL     1      -9.348  32.154  24.767  1.00  0.00    -0.003 C 
ATOM      9  C   UNL     1      -8.828  33.220  25.385  1.00  0.00    -0.020 C 
BRANCH   9  10
ATOM     10  C   UNL     1      -8.265  34.452  24.717  1.00  0.00    -0.010 CG0
ATOM     11  C   UNL     1      -7.490  35.266  25.779  1.00  0.00     0.016 C 
ATOM     12  C   UNL     1      -9.409  35.340  24.177  1.00  0.00     0.016 C 
ATOM     13  G   UNL     1      -7.267  34.027  23.615  1.00  0.00     0.000 G0
ENDBRANCH   9  10
ENDBRANCH   3   8
TORSDOF 0
ENDMDL
