MODEL 1
REMARK VINA RESULT:    -3.438      0.000      0.000
REMARK INTER + INTRA:          -7.012
REMARK INTER:                  -6.252
REMARK INTRA:                  -0.760
REMARK UNBOUND:                -0.760
REMARK SMILES CCCCCCCCCCCCCCCC(=O)[O-]
REMARK SMILES IDX 9 1 10 2 11 3 12 4 13 5 14 6 15 7 16 8 17 9 18 10 8 11 7 12
REMARK SMILES IDX 6 13 5 14 4 15 3 16 2 17 1 18
REMARK H PARENT
REMARK Flexibility Score: inf
ROOT
ATOM      1  C   UNL     1      -3.467   8.292   3.289  1.00  0.00     0.000 C 
ENDROOT
BRANCH   1   2
ATOM      2  C   UNL     1      -2.889   7.454   2.134  1.00  0.00     0.000 C 
BRANCH   2   3
ATOM      3  C   UNL     1      -3.846   7.226   0.950  1.00  0.00     0.000 C 
BRANCH   3   4
ATOM      4  C   UNL     1      -3.997   5.739   0.580  1.00  0.00     0.000 C 
BRANCH   4   5
ATOM      5  C   UNL     1      -4.432   4.876   1.775  1.00  0.00     0.000 C 
BRANCH   5   6
ATOM      6  C   UNL     1      -3.334   3.899   2.230  1.00  0.00     0.006 C 
BRANCH   6   7
ATOM      7  C   UNL     1      -3.494   3.492   3.701  1.00  0.00     0.053 C 
BRANCH   7   8
ATOM      8  C   UNL     1      -3.256   2.027   3.904  1.00  0.00     0.041 C 
ATOM      9  O   UNL     1      -3.674   1.194   3.057  1.00  0.00    -0.550 OA
ATOM     10  O   UNL     1      -2.598   1.579   5.043  1.00  0.00    -0.550 OA
ENDBRANCH   7   8
ENDBRANCH   6   7
ENDBRANCH   5   6
ENDBRANCH   4   5
ENDBRANCH   3   4
ENDBRANCH   2   3
ENDBRANCH   1   2
BRANCH   1  11
ATOM     11  C   UNL     1      -2.469   9.318   3.845  1.00  0.00     0.000 C 
BRANCH  11  12
ATOM     12  C   UNL     1      -2.923   9.842   5.213  1.00  0.00    -0.000 C 
BRANCH  12  13
ATOM     13  C   UNL     1      -3.110   8.691   6.208  1.00  0.00    -0.000 C 
BRANCH  13  14
ATOM     14  C   UNL     1      -2.410   8.993   7.538  1.00  0.00    -0.000 C 
BRANCH  14  15
ATOM     15  C   UNL     1      -1.253   8.013   7.786  1.00  0.00    -0.000 C 
BRANCH  15  16
ATOM     16  C   UNL     1      -1.532   7.047   8.947  1.00  0.00    -0.000 C 
BRANCH  16  17
ATOM     17  C   UNL     1      -0.373   6.069   9.193  1.00  0.00    -0.003 C 
ATOM     18  C   UNL     1       0.366   6.407  10.485  1.00  0.00     0.004 C 
ENDBRANCH  16  17
ENDBRANCH  15  16
ENDBRANCH  14  15
ENDBRANCH  13  14
ENDBRANCH  12  13
ENDBRANCH  11  12
ENDBRANCH   1  11
TORSDOF 14
ENDMDL
MODEL 2
REMARK VINA RESULT:    -3.348      4.674      8.458
REMARK INTER + INTRA:          -6.848
REMARK INTER:                  -5.273
REMARK INTRA:                  -1.575
REMARK UNBOUND:                -0.760
REMARK SMILES CCCCCCCCCCCCCCCC(=O)[O-]
REMARK SMILES IDX 9 1 10 2 11 3 12 4 13 5 14 6 15 7 16 8 17 9 18 10 8 11 7 12
REMARK SMILES IDX 6 13 5 14 4 15 3 16 2 17 1 18
REMARK H PARENT
REMARK Flexibility Score: inf
ROOT
ATOM      1  C   UNL     1      -8.548   5.282   0.438  1.00  0.00     0.000 C 
ENDROOT
BRANCH   1   2
ATOM      2  C   UNL     1      -7.149   4.997   1.015  1.00  0.00     0.000 C 
BRANCH   2   3
ATOM      3  C   UNL     1      -6.051   5.988   0.589  1.00  0.00     0.000 C 
BRANCH   3   4
ATOM      4  C   UNL     1      -4.654   5.345   0.528  1.00  0.00     0.000 C 
BRANCH   4   5
ATOM      5  C   UNL     1      -3.684   5.944   1.558  1.00  0.00     0.000 C 
BRANCH   5   6
ATOM      6  C   UNL     1      -3.344   4.962   2.692  1.00  0.00     0.006 C 
BRANCH   6   7
ATOM      7  C   UNL     1      -3.798   3.531   2.374  1.00  0.00     0.053 C 
BRANCH   7   8
ATOM      8  C   UNL     1      -3.521   2.592   3.508  1.00  0.00     0.041 C 
ATOM      9  O   UNL     1      -2.826   1.560   3.320  1.00  0.00    -0.550 OA
ATOM     10  O   UNL     1      -4.056   2.842   4.766  1.00  0.00    -0.550 OA
ENDBRANCH   7   8
ENDBRANCH   6   7
ENDBRANCH   5   6
ENDBRANCH   4   5
ENDBRANCH   3   4
ENDBRANCH   2   3
ENDBRANCH   1   2
BRANCH   1  11
ATOM     11  C   UNL     1      -9.113   4.108  -0.376  1.00  0.00     0.000 C 
BRANCH  11  12
ATOM     12  C   UNL     1      -8.466   2.784   0.048  1.00  0.00    -0.000 C 
BRANCH  12  13
ATOM     13  C   UNL     1      -9.480   1.635  -0.003  1.00  0.00    -0.000 C 
BRANCH  13  14
ATOM     14  C   UNL     1     -10.267   1.536   1.309  1.00  0.00    -0.000 C 
BRANCH  14  15
ATOM     15  C   UNL     1     -11.740   1.917   1.098  1.00  0.00    -0.000 C 
BRANCH  15  16
ATOM     16  C   UNL     1     -12.098   3.271   1.730  1.00  0.00    -0.000 C 
BRANCH  16  17
ATOM     17  C   UNL     1     -11.110   3.689   2.830  1.00  0.00    -0.003 C 
ATOM     18  C   UNL     1     -11.154   5.197   3.064  1.00  0.00     0.004 C 
ENDBRANCH  16  17
ENDBRANCH  15  16
ENDBRANCH  14  15
ENDBRANCH  13  14
ENDBRANCH  12  13
ENDBRANCH  11  12
ENDBRANCH   1  11
TORSDOF 14
ENDMDL
MODEL 3
REMARK VINA RESULT:    -3.338      5.762      8.330
REMARK INTER + INTRA:          -6.830
REMARK INTER:                  -4.592
REMARK INTRA:                  -2.237
REMARK UNBOUND:                -0.760
REMARK SMILES CCCCCCCCCCCCCCCC(=O)[O-]
REMARK SMILES IDX 9 1 10 2 11 3 12 4 13 5 14 6 15 7 16 8 17 9 18 10 8 11 7 12
REMARK SMILES IDX 6 13 5 14 4 15 3 16 2 17 1 18
REMARK H PARENT
REMARK Flexibility Score: inf
ROOT
ATOM      1  C   UNL     1       0.402   3.968  11.916  1.00  0.00     0.000 C 
ENDROOT
BRANCH   1   2
ATOM      2  C   UNL     1      -0.319   2.796  11.224  1.00  0.00     0.000 C 
BRANCH   2   3
ATOM      3  C   UNL     1      -0.056   1.411  11.841  1.00  0.00     0.000 C 
BRANCH   3   4
ATOM      4  C   UNL     1       0.857   0.530  10.969  1.00  0.00     0.000 C 
BRANCH   4   5
ATOM      5  C   UNL     1       1.252   1.215   9.651  1.00  0.00     0.000 C 
BRANCH   5   6
ATOM      6  C   UNL     1       2.743   1.591   9.603  1.00  0.00     0.006 C 
BRANCH   6   7
ATOM      7  C   UNL     1       2.986   2.900   8.839  1.00  0.00     0.053 C 
BRANCH   7   8
ATOM      8  C   UNL     1       4.011   2.734   7.759  1.00  0.00     0.041 C 
ATOM      9  O   UNL     1       4.424   1.586   7.450  1.00  0.00    -0.550 OA
ATOM     10  O   UNL     1       4.533   3.850   7.117  1.00  0.00    -0.550 OA
ENDBRANCH   7   8
ENDBRANCH   6   7
ENDBRANCH   5   6
ENDBRANCH   4   5
ENDBRANCH   3   4
ENDBRANCH   2   3
ENDBRANCH   1   2
BRANCH   1  11
ATOM     11  C   UNL     1       0.566   5.194  11.005  1.00  0.00     0.000 C 
BRANCH  11  12
ATOM     12  C   UNL     1      -0.037   4.935   9.620  1.00  0.00    -0.000 C 
BRANCH  12  13
ATOM     13  C   UNL     1      -0.621   6.221   9.024  1.00  0.00    -0.000 C 
BRANCH  13  14
ATOM     14  C   UNL     1      -2.042   5.990   8.495  1.00  0.00    -0.000 C 
BRANCH  14  15
ATOM     15  C   UNL     1      -2.584   4.627   8.952  1.00  0.00    -0.000 C 
BRANCH  15  16
ATOM     16  C   UNL     1      -3.790   4.754   9.894  1.00  0.00    -0.000 C 
BRANCH  16  17
ATOM     17  C   UNL     1      -3.464   4.325  11.332  1.00  0.00    -0.003 C 
ATOM     18  C   UNL     1      -3.038   5.520  12.180  1.00  0.00     0.004 C 
ENDBRANCH  16  17
ENDBRANCH  15  16
ENDBRANCH  14  15
ENDBRANCH  13  14
ENDBRANCH  12  13
ENDBRANCH  11  12
ENDBRANCH   1  11
TORSDOF 14
ENDMDL
MODEL 4
REMARK VINA RESULT:    -3.223      5.482      8.208
REMARK INTER + INTRA:          -6.620
REMARK INTER:                  -4.391
REMARK INTRA:                  -2.229
REMARK UNBOUND:                -0.760
REMARK SMILES CCCCCCCCCCCCCCCC(=O)[O-]
REMARK SMILES IDX 9 1 10 2 11 3 12 4 13 5 14 6 15 7 16 8 17 9 18 10 8 11 7 12
REMARK SMILES IDX 6 13 5 14 4 15 3 16 2 17 1 18
REMARK H PARENT
REMARK Flexibility Score: inf
ROOT
ATOM      1  C   UNL     1       0.803   5.887  12.186  1.00  0.00     0.000 C 
ENDROOT
BRANCH   1   2
ATOM      2  C   UNL     1       1.886   5.909  11.092  1.00  0.00     0.000 C 
BRANCH   2   3
ATOM      3  C   UNL     1       1.360   6.081   9.655  1.00  0.00     0.000 C 
BRANCH   3   4
ATOM      4  C   UNL     1      -0.035   5.464   9.450  1.00  0.00     0.000 C 
BRANCH   4   5
ATOM      5  C   UNL     1      -1.039   6.464   8.852  1.00  0.00     0.000 C 
BRANCH   5   6
ATOM      6  C   UNL     1      -2.341   5.790   8.388  1.00  0.00     0.006 C 
BRANCH   6   7
ATOM      7  C   UNL     1      -2.681   4.550   9.226  1.00  0.00     0.053 C 
BRANCH   7   8
ATOM      8  C   UNL     1      -3.812   4.810  10.174  1.00  0.00     0.041 C 
ATOM      9  O   UNL     1      -3.576   5.175  11.355  1.00  0.00    -0.550 OA
ATOM     10  O   UNL     1      -5.125   4.618   9.761  1.00  0.00    -0.550 OA
ENDBRANCH   7   8
ENDBRANCH   6   7
ENDBRANCH   5   6
ENDBRANCH   4   5
ENDBRANCH   3   4
ENDBRANCH   2   3
ENDBRANCH   1   2
BRANCH   1  11
ATOM     11  C   UNL     1       0.746   4.554  12.948  1.00  0.00     0.000 C 
BRANCH  11  12
ATOM     12  C   UNL     1      -0.691   4.024  13.020  1.00  0.00    -0.000 C 
BRANCH  12  13
ATOM     13  C   UNL     1      -0.918   2.907  11.994  1.00  0.00    -0.000 C 
BRANCH  13  14
ATOM     14  C   UNL     1       0.403   2.223  11.621  1.00  0.00    -0.000 C 
BRANCH  14  15
ATOM     15  C   UNL     1       0.503   2.009  10.104  1.00  0.00    -0.000 C 
BRANCH  15  16
ATOM     16  C   UNL     1       1.896   1.534   9.663  1.00  0.00    -0.000 C 
BRANCH  16  17
ATOM     17  C   UNL     1       2.907   2.686   9.557  1.00  0.00    -0.003 C 
ATOM     18  C   UNL     1       3.561   2.719   8.178  1.00  0.00     0.004 C 
ENDBRANCH  16  17
ENDBRANCH  15  16
ENDBRANCH  14  15
ENDBRANCH  13  14
ENDBRANCH  12  13
ENDBRANCH  11  12
ENDBRANCH   1  11
TORSDOF 14
ENDMDL
MODEL 5
REMARK VINA RESULT:    -3.204      4.331      6.803
REMARK INTER + INTRA:          -6.587
REMARK INTER:                  -4.210
REMARK INTRA:                  -2.376
REMARK UNBOUND:                -0.760
REMARK SMILES CCCCCCCCCCCCCCCC(=O)[O-]
REMARK SMILES IDX 9 1 10 2 11 3 12 4 13 5 14 6 15 7 16 8 17 9 18 10 8 11 7 12
REMARK SMILES IDX 6 13 5 14 4 15 3 16 2 17 1 18
REMARK H PARENT
REMARK Flexibility Score: inf
ROOT
ATOM      1  C   UNL     1       0.362   5.054   9.624  1.00  0.00     0.000 C 
ENDROOT
BRANCH   1   2
ATOM      2  C   UNL     1       0.104   6.537   9.947  1.00  0.00     0.000 C 
BRANCH   2   3
ATOM      3  C   UNL     1       0.886   7.541   9.080  1.00  0.00     0.000 C 
BRANCH   3   4
ATOM      4  C   UNL     1      -0.031   8.465   8.259  1.00  0.00     0.000 C 
BRANCH   4   5
ATOM      5  C   UNL     1      -1.388   7.817   7.939  1.00  0.00     0.000 C 
BRANCH   5   6
ATOM      6  C   UNL     1      -2.339   8.770   7.198  1.00  0.00     0.006 C 
BRANCH   6   7
ATOM      7  C   UNL     1      -3.811   8.505   7.544  1.00  0.00     0.053 C 
BRANCH   7   8
ATOM      8  C   UNL     1      -4.584   8.016   6.358  1.00  0.00     0.041 C 
ATOM      9  O   UNL     1      -3.982   7.682   5.304  1.00  0.00    -0.550 OA
ATOM     10  O   UNL     1      -5.972   7.957   6.406  1.00  0.00    -0.550 OA
ENDBRANCH   7   8
ENDBRANCH   6   7
ENDBRANCH   5   6
ENDBRANCH   4   5
ENDBRANCH   3   4
ENDBRANCH   2   3
ENDBRANCH   1   2
BRANCH   1  11
ATOM     11  C   UNL     1      -0.852   4.157   9.909  1.00  0.00     0.000 C 
BRANCH  11  12
ATOM     12  C   UNL     1      -2.006   4.473   8.951  1.00  0.00    -0.000 C 
BRANCH  12  13
ATOM     13  C   UNL     1      -3.236   4.975   9.717  1.00  0.00    -0.000 C 
BRANCH  13  14
ATOM     14  C   UNL     1      -3.041   4.825  11.231  1.00  0.00    -0.000 C 
BRANCH  14  15
ATOM     15  C   UNL     1      -3.200   6.177  11.943  1.00  0.00    -0.000 C 
BRANCH  15  16
ATOM     16  C   UNL     1      -3.451   7.335  10.966  1.00  0.00    -0.000 C 
BRANCH  16  17
ATOM     17  C   UNL     1      -3.328   8.712  11.636  1.00  0.00    -0.003 C 
ATOM     18  C   UNL     1      -1.993   9.370  11.300  1.00  0.00     0.004 C 
ENDBRANCH  16  17
ENDBRANCH  15  16
ENDBRANCH  14  15
ENDBRANCH  13  14
ENDBRANCH  12  13
ENDBRANCH  11  12
ENDBRANCH   1  11
TORSDOF 14
ENDMDL
MODEL 6
REMARK VINA RESULT:    -3.201      3.931      6.799
REMARK INTER + INTRA:          -6.580
REMARK INTER:                  -4.079
REMARK INTRA:                  -2.500
REMARK UNBOUND:                -0.760
REMARK SMILES CCCCCCCCCCCCCCCC(=O)[O-]
REMARK SMILES IDX 9 1 10 2 11 3 12 4 13 5 14 6 15 7 16 8 17 9 18 10 8 11 7 12
REMARK SMILES IDX 6 13 5 14 4 15 3 16 2 17 1 18
REMARK H PARENT
REMARK Flexibility Score: inf
ROOT
ATOM      1  C   UNL     1      -2.087   6.034   8.373  1.00  0.00     0.000 C 
ENDROOT
BRANCH   1   2
ATOM      2  C   UNL     1      -0.697   6.638   8.645  1.00  0.00     0.000 C 
BRANCH   2   3
ATOM      3  C   UNL     1      -0.705   8.010   9.343  1.00  0.00     0.000 C 
BRANCH   3   4
ATOM      4  C   UNL     1      -2.055   8.739   9.217  1.00  0.00     0.000 C 
BRANCH   4   5
ATOM      5  C   UNL     1      -2.002   9.908   8.220  1.00  0.00     0.000 C 
BRANCH   5   6
ATOM      6  C   UNL     1      -3.095   9.817   7.142  1.00  0.00     0.006 C 
BRANCH   6   7
ATOM      7  C   UNL     1      -2.716   8.849   6.013  1.00  0.00     0.053 C 
BRANCH   7   8
ATOM      8  C   UNL     1      -3.862   7.964   5.628  1.00  0.00     0.041 C 
ATOM      9  O   UNL     1      -4.682   7.575   6.500  1.00  0.00    -0.550 OA
ATOM     10  O   UNL     1      -4.005   7.544   4.311  1.00  0.00    -0.550 OA
ENDBRANCH   7   8
ENDBRANCH   6   7
ENDBRANCH   5   6
ENDBRANCH   4   5
ENDBRANCH   3   4
ENDBRANCH   2   3
ENDBRANCH   1   2
BRANCH   1  11
ATOM     11  C   UNL     1      -2.212   4.578   8.848  1.00  0.00     0.000 C 
BRANCH  11  12
ATOM     12  C   UNL     1      -0.964   4.145   9.626  1.00  0.00    -0.000 C 
BRANCH  12  13
ATOM     13  C   UNL     1      -1.310   3.815  11.083  1.00  0.00    -0.000 C 
BRANCH  13  14
ATOM     14  C   UNL     1      -1.131   5.043  11.984  1.00  0.00    -0.000 C 
BRANCH  14  15
ATOM     15  C   UNL     1      -2.450   5.414  12.677  1.00  0.00    -0.000 C 
BRANCH  15  16
ATOM     16  C   UNL     1      -3.077   6.697  12.112  1.00  0.00    -0.000 C 
BRANCH  16  17
ATOM     17  C   UNL     1      -4.330   6.421  11.269  1.00  0.00    -0.003 C 
ATOM     18  C   UNL     1      -4.868   5.016  11.527  1.00  0.00     0.004 C 
ENDBRANCH  16  17
ENDBRANCH  15  16
ENDBRANCH  14  15
ENDBRANCH  13  14
ENDBRANCH  12  13
ENDBRANCH  11  12
ENDBRANCH   1  11
TORSDOF 14
ENDMDL
MODEL 7
REMARK VINA RESULT:    -3.191      5.513      7.738
REMARK INTER + INTRA:          -6.563
REMARK INTER:                  -4.673
REMARK INTRA:                  -1.890
REMARK UNBOUND:                -0.760
REMARK SMILES CCCCCCCCCCCCCCCC(=O)[O-]
REMARK SMILES IDX 9 1 10 2 11 3 12 4 13 5 14 6 15 7 16 8 17 9 18 10 8 11 7 12
REMARK SMILES IDX 6 13 5 14 4 15 3 16 2 17 1 18
REMARK H PARENT
REMARK Flexibility Score: inf
ROOT
ATOM      1  C   UNL     1      -1.239   3.504  11.343  1.00  0.00     0.000 C 
ENDROOT
BRANCH   1   2
ATOM      2  C   UNL     1      -0.061   3.014  10.481  1.00  0.00     0.000 C 
BRANCH   2   3
ATOM      3  C   UNL     1       1.309   3.615  10.843  1.00  0.00     0.000 C 
BRANCH   3   4
ATOM      4  C   UNL     1       2.140   4.001   9.607  1.00  0.00     0.000 C 
BRANCH   4   5
ATOM      5  C   UNL     1       2.839   2.792   8.966  1.00  0.00     0.000 C 
BRANCH   5   6
ATOM      6  C   UNL     1       4.081   3.190   8.151  1.00  0.00     0.006 C 
BRANCH   6   7
ATOM      7  C   UNL     1       4.744   1.980   7.477  1.00  0.00     0.053 C 
BRANCH   7   8
ATOM      8  C   UNL     1       4.533   1.982   5.995  1.00  0.00     0.041 C 
ATOM      9  O   UNL     1       4.232   3.049   5.399  1.00  0.00    -0.550 OA
ATOM     10  O   UNL     1       4.637   0.798   5.275  1.00  0.00    -0.550 OA
ENDBRANCH   7   8
ENDBRANCH   6   7
ENDBRANCH   5   6
ENDBRANCH   4   5
ENDBRANCH   3   4
ENDBRANCH   2   3
ENDBRANCH   1   2
BRANCH   1  11
ATOM     11  C   UNL     1      -2.328   4.214  10.525  1.00  0.00     0.000 C 
BRANCH  11  12
ATOM     12  C   UNL     1      -1.823   4.555   9.118  1.00  0.00    -0.000 C 
BRANCH  12  13
ATOM     13  C   UNL     1      -2.574   5.761   8.541  1.00  0.00    -0.000 C 
BRANCH  13  14
ATOM     14  C   UNL     1      -1.667   6.995   8.475  1.00  0.00    -0.000 C 
BRANCH  14  15
ATOM     15  C   UNL     1      -0.226   6.642   8.871  1.00  0.00    -0.000 C 
BRANCH  15  16
ATOM     16  C   UNL     1       0.320   7.542   9.990  1.00  0.00    -0.000 C 
BRANCH  16  17
ATOM     17  C   UNL     1      -0.688   7.742  11.131  1.00  0.00    -0.003 C 
ATOM     18  C   UNL     1      -0.333   6.875  12.337  1.00  0.00     0.004 C 
ENDBRANCH  16  17
ENDBRANCH  15  16
ENDBRANCH  14  15
ENDBRANCH  13  14
ENDBRANCH  12  13
ENDBRANCH  11  12
ENDBRANCH   1  11
TORSDOF 14
ENDMDL
MODEL 8
REMARK VINA RESULT:    -3.185      4.733      7.846
REMARK INTER + INTRA:          -6.551
REMARK INTER:                  -4.465
REMARK INTRA:                  -2.086
REMARK UNBOUND:                -0.760
REMARK SMILES CCCCCCCCCCCCCCCC(=O)[O-]
REMARK SMILES IDX 9 1 10 2 11 3 12 4 13 5 14 6 15 7 16 8 17 9 18 10 8 11 7 12
REMARK SMILES IDX 6 13 5 14 4 15 3 16 2 17 1 18
REMARK H PARENT
REMARK Flexibility Score: inf
ROOT
ATOM      1  C   UNL     1       1.987   2.439  10.213  1.00  0.00     0.000 C 
ENDROOT
BRANCH   1   2
ATOM      2  C   UNL     1       0.470   2.613  10.013  1.00  0.00     0.000 C 
BRANCH   2   3
ATOM      3  C   UNL     1      -0.272   3.275  11.188  1.00  0.00     0.000 C 
BRANCH   3   4
ATOM      4  C   UNL     1      -1.456   4.148  10.734  1.00  0.00     0.000 C 
BRANCH   4   5
ATOM      5  C   UNL     1      -1.549   4.264   9.203  1.00  0.00     0.000 C 
BRANCH   5   6
ATOM      6  C   UNL     1      -2.615   5.275   8.751  1.00  0.00     0.006 C 
BRANCH   6   7
ATOM      7  C   UNL     1      -1.997   6.603   8.291  1.00  0.00     0.053 C 
BRANCH   7   8
ATOM      8  C   UNL     1      -2.948   7.402   7.455  1.00  0.00     0.041 C 
ATOM      9  O   UNL     1      -3.708   6.825   6.634  1.00  0.00    -0.550 OA
ATOM     10  O   UNL     1      -2.973   8.788   7.560  1.00  0.00    -0.550 OA
ENDBRANCH   7   8
ENDBRANCH   6   7
ENDBRANCH   5   6
ENDBRANCH   4   5
ENDBRANCH   3   4
ENDBRANCH   2   3
ENDBRANCH   1   2
BRANCH   1  11
ATOM     11  C   UNL     1       2.744   2.204   8.897  1.00  0.00     0.000 C 
BRANCH  11  12
ATOM     12  C   UNL     1       3.840   3.257   8.699  1.00  0.00    -0.000 C 
BRANCH  12  13
ATOM     13  C   UNL     1       3.568   4.503   9.551  1.00  0.00    -0.000 C 
BRANCH  13  14
ATOM     14  C   UNL     1       3.896   5.784   8.776  1.00  0.00    -0.000 C 
BRANCH  14  15
ATOM     15  C   UNL     1       2.839   6.868   9.030  1.00  0.00    -0.000 C 
BRANCH  15  16
ATOM     16  C   UNL     1       1.488   6.286   9.472  1.00  0.00    -0.000 C 
BRANCH  16  17
ATOM     17  C   UNL     1       0.914   6.995  10.708  1.00  0.00    -0.003 C 
ATOM     18  C   UNL     1       1.587   6.503  11.986  1.00  0.00     0.004 C 
ENDBRANCH  16  17
ENDBRANCH  15  16
ENDBRANCH  14  15
ENDBRANCH  13  14
ENDBRANCH  12  13
ENDBRANCH  11  12
ENDBRANCH   1  11
TORSDOF 14
ENDMDL
MODEL 9
REMARK VINA RESULT:    -3.181      5.664      7.791
REMARK INTER + INTRA:          -6.545
REMARK INTER:                  -4.071
REMARK INTRA:                  -2.474
REMARK UNBOUND:                -0.760
REMARK SMILES CCCCCCCCCCCCCCCC(=O)[O-]
REMARK SMILES IDX 9 1 10 2 11 3 12 4 13 5 14 6 15 7 16 8 17 9 18 10 8 11 7 12
REMARK SMILES IDX 6 13 5 14 4 15 3 16 2 17 1 18
REMARK H PARENT
REMARK Flexibility Score: inf
ROOT
ATOM      1  C   UNL     1       0.186   5.359   9.464  1.00  0.00     0.000 C 
ENDROOT
BRANCH   1   2
ATOM      2  C   UNL     1       0.898   5.619  10.804  1.00  0.00     0.000 C 
BRANCH   2   3
ATOM      3  C   UNL     1       0.788   4.480  11.834  1.00  0.00     0.000 C 
BRANCH   3   4
ATOM      4  C   UNL     1      -0.332   3.478  11.502  1.00  0.00     0.000 C 
BRANCH   4   5
ATOM      5  C   UNL     1       0.193   2.043  11.330  1.00  0.00     0.000 C 
BRANCH   5   6
ATOM      6  C   UNL     1       0.747   1.780   9.920  1.00  0.00     0.006 C 
BRANCH   6   7
ATOM      7  C   UNL     1       2.131   1.118   9.954  1.00  0.00     0.053 C 
BRANCH   7   8
ATOM      8  C   UNL     1       3.137   1.886   9.154  1.00  0.00     0.041 C 
ATOM      9  O   UNL     1       4.180   1.318   8.737  1.00  0.00    -0.550 OA
ATOM     10  O   UNL     1       2.939   3.236   8.895  1.00  0.00    -0.550 OA
ENDBRANCH   7   8
ENDBRANCH   6   7
ENDBRANCH   5   6
ENDBRANCH   4   5
ENDBRANCH   3   4
ENDBRANCH   2   3
ENDBRANCH   1   2
BRANCH   1  11
ATOM     11  C   UNL     1      -0.540   6.598   8.919  1.00  0.00     0.000 C 
BRANCH  11  12
ATOM     12  C   UNL     1      -1.980   6.259   8.517  1.00  0.00    -0.000 C 
BRANCH  12  13
ATOM     13  C   UNL     1      -2.281   4.774   8.749  1.00  0.00    -0.000 C 
BRANCH  13  14
ATOM     14  C   UNL     1      -3.429   4.593   9.750  1.00  0.00    -0.000 C 
BRANCH  14  15
ATOM     15  C   UNL     1      -3.896   5.948  10.302  1.00  0.00    -0.000 C 
BRANCH  15  16
ATOM     16  C   UNL     1      -3.813   6.024  11.834  1.00  0.00    -0.000 C 
BRANCH  16  17
ATOM     17  C   UNL     1      -2.412   6.410  12.331  1.00  0.00    -0.003 C 
ATOM     18  C   UNL     1      -2.101   7.871  12.019  1.00  0.00     0.004 C 
ENDBRANCH  16  17
ENDBRANCH  15  16
ENDBRANCH  14  15
ENDBRANCH  13  14
ENDBRANCH  12  13
ENDBRANCH  11  12
ENDBRANCH   1  11
TORSDOF 14
ENDMDL
