MODEL 1
REMARK VINA RESULT:    -7.755      0.000      0.000
REMARK INTER + INTRA:         -11.843
REMARK INTER:                 -10.475
REMARK INTRA:                  -1.368
REMARK UNBOUND:                -1.368
REMARK SMILES CC[C@@H](CC[C@@H](C)[C@@H]1CC[C@@H]2[C@@H]3CC(=O)C4=CC(=O)CC[C@]4(C)[C@@H]3CC[C@@]21C)C(C)C
REMARK SMILES IDX 4 1 3 2 2 3 1 4 29 5 30 6 31 7 5 8 6 9 7 10 8 11 9 12 27 13
REMARK SMILES IDX 10 14 11 15 26 16 28 17 12 18 25 19 24 20 13 21 22 22 14 23
REMARK SMILES IDX 16 24 21 25 23 26 15 27 17 28 20 29 18 30 19 31
REMARK H PARENT
REMARK Flexibility Score: inf
ROOT
ATOM      1  C   UNL     1     -13.936 -21.064  22.488  1.00  0.00     0.004 C 
ENDROOT
BRANCH   1   2
ATOM      2  C   UNL     1     -15.029 -21.951  23.149  1.00  0.00    -0.009 C 
BRANCH   2   3
ATOM      3  C   UNL     1     -16.348 -21.164  23.380  1.00  0.00     0.000 C 
ATOM      4  C   UNL     1     -17.353 -21.335  22.238  1.00  0.00     0.004 C 
ENDBRANCH   2   3
BRANCH   2   5
ATOM      5  C   UNL     1     -14.467 -22.759  24.382  1.00  0.00    -0.014 C 
ATOM      6  C   UNL     1     -14.025 -24.211  24.097  1.00  0.00     0.007 C 
ATOM      7  C   UNL     1     -13.321 -21.998  25.072  1.00  0.00     0.007 C 
ENDBRANCH   2   5
ENDBRANCH   1   2
BRANCH   1   8
ATOM      8  C   UNL     1     -13.833 -21.150  20.946  1.00  0.00     0.004 C 
BRANCH   8   9
ATOM      9  C   UNL     1     -13.174 -22.472  20.434  1.00  0.00    -0.011 C 
ATOM     10  C   UNL     1     -13.617 -22.812  19.004  1.00  0.00     0.008 C 
BRANCH   9  11
ATOM     11  C   UNL     1     -11.618 -22.590  20.636  1.00  0.00    -0.002 C 
ATOM     12  C   UNL     1     -11.220 -22.943  22.071  1.00  0.00     0.005 C 
ATOM     13  C   UNL     1     -10.628 -21.469  20.155  1.00  0.00    -0.026 C 
ATOM     14  C   UNL     1      -9.764 -22.541  22.243  1.00  0.00     0.005 C 
ATOM     15  C   UNL     1      -9.334 -21.782  20.972  1.00  0.00    -0.001 C 
ATOM     16  C   UNL     1     -11.114 -20.007  20.406  1.00  0.00     0.007 C 
ATOM     17  C   UNL     1     -10.311 -21.622  18.641  1.00  0.00     0.012 C 
ATOM     18  C   UNL     1      -8.404 -20.547  21.238  1.00  0.00     0.004 C 
ATOM     19  C   UNL     1     -10.684 -19.450  21.765  1.00  0.00     0.005 C 
ATOM     20  C   UNL     1      -9.149 -19.257  21.798  1.00  0.00     0.003 C 
ATOM     21  C   UNL     1      -7.122 -20.982  22.007  1.00  0.00     0.085 C 
ATOM     22  C   UNL     1      -8.579 -18.683  23.162  1.00  0.00    -0.000 C 
ATOM     23  C   UNL     1      -7.267 -20.867  23.493  1.00  0.00     0.159 C 
ATOM     24  C   UNL     1      -8.175 -19.852  24.064  1.00  0.00     0.005 C 
ATOM     25  C   UNL     1      -9.545 -17.671  23.890  1.00  0.00     0.020 C 
ATOM     26  C   UNL     1      -7.303 -17.847  22.846  1.00  0.00     0.017 C 
ATOM     27  O   UNL     1      -6.617 -21.648  24.244  1.00  0.00    -0.295 OA
ATOM     28  C   UNL     1      -8.677 -20.031  25.300  1.00  0.00     0.055 C 
ATOM     29  C   UNL     1     -10.514 -18.305  24.892  1.00  0.00     0.081 C 
ATOM     30  C   UNL     1      -9.756 -19.191  25.821  1.00  0.00     0.156 C 
ATOM     31  O   UNL     1     -10.082 -19.263  27.038  1.00  0.00    -0.295 OA
ENDBRANCH   9  11
ENDBRANCH   8   9
ENDBRANCH   1   8
TORSDOF 6
ENDMDL
MODEL 2
REMARK VINA RESULT:    -7.706      2.890      7.529
REMARK INTER + INTRA:         -11.776
REMARK INTER:                 -10.771
REMARK INTRA:                  -1.005
REMARK UNBOUND:                -1.368
REMARK SMILES CC[C@@H](CC[C@@H](C)[C@@H]1CC[C@@H]2[C@@H]3CC(=O)C4=CC(=O)CC[C@]4(C)[C@@H]3CC[C@@]21C)C(C)C
REMARK SMILES IDX 4 1 3 2 2 3 1 4 29 5 30 6 31 7 5 8 6 9 7 10 8 11 9 12 27 13
REMARK SMILES IDX 10 14 11 15 26 16 28 17 12 18 25 19 24 20 13 21 22 22 14 23
REMARK SMILES IDX 16 24 21 25 23 26 15 27 17 28 20 29 18 30 19 31
REMARK H PARENT
REMARK Flexibility Score: inf
ROOT
ATOM      1  C   UNL     1      -7.665 -14.984  23.700  1.00  0.00     0.004 C 
ENDROOT
BRANCH   1   2
ATOM      2  C   UNL     1      -6.204 -14.455  23.647  1.00  0.00    -0.009 C 
BRANCH   2   3
ATOM      3  C   UNL     1      -5.428 -15.027  22.428  1.00  0.00     0.000 C 
ATOM      4  C   UNL     1      -5.156 -13.977  21.348  1.00  0.00     0.004 C 
ENDBRANCH   2   3
BRANCH   2   5
ATOM      5  C   UNL     1      -5.487 -14.559  25.048  1.00  0.00    -0.014 C 
ATOM      6  C   UNL     1      -5.902 -15.752  25.935  1.00  0.00     0.007 C 
ATOM      7  C   UNL     1      -3.956 -14.539  24.893  1.00  0.00     0.007 C 
ENDBRANCH   2   5
ENDBRANCH   1   2
BRANCH   1   8
ATOM      8  C   UNL     1      -8.054 -16.014  22.610  1.00  0.00     0.004 C 
BRANCH   8   9
ATOM      9  C   UNL     1      -8.492 -17.400  23.185  1.00  0.00    -0.011 C 
ATOM     10  C   UNL     1      -9.626 -17.258  24.211  1.00  0.00     0.008 C 
BRANCH   9  11
ATOM     11  C   UNL     1      -8.765 -18.532  22.126  1.00  0.00    -0.002 C 
ATOM     12  C   UNL     1     -10.150 -18.435  21.483  1.00  0.00     0.005 C 
ATOM     13  C   UNL     1      -8.521 -20.050  22.448  1.00  0.00    -0.026 C 
ATOM     14  C   UNL     1     -10.468 -19.802  20.897  1.00  0.00     0.005 C 
ATOM     15  C   UNL     1      -9.356 -20.772  21.342  1.00  0.00    -0.001 C 
ATOM     16  C   UNL     1      -8.964 -20.503  23.874  1.00  0.00     0.007 C 
ATOM     17  C   UNL     1      -7.023 -20.421  22.264  1.00  0.00     0.012 C 
ATOM     18  C   UNL     1      -9.862 -22.206  21.725  1.00  0.00     0.004 C 
ATOM     19  C   UNL     1     -10.415 -20.985  23.935  1.00  0.00     0.005 C 
ATOM     20  C   UNL     1     -10.568 -22.308  23.148  1.00  0.00     0.003 C 
ATOM     21  C   UNL     1     -10.630 -22.853  20.535  1.00  0.00     0.085 C 
ATOM     22  C   UNL     1     -12.035 -22.910  23.136  1.00  0.00    -0.000 C 
ATOM     23  C   UNL     1     -12.105 -22.598  20.587  1.00  0.00     0.159 C 
ATOM     24  C   UNL     1     -12.770 -22.406  21.891  1.00  0.00     0.005 C 
ATOM     25  C   UNL     1     -12.851 -22.648  24.461  1.00  0.00     0.020 C 
ATOM     26  C   UNL     1     -11.927 -24.461  23.044  1.00  0.00     0.017 C 
ATOM     27  O   UNL     1     -12.765 -22.542  19.511  1.00  0.00    -0.295 OA
ATOM     28  C   UNL     1     -13.932 -21.730  21.951  1.00  0.00     0.055 C 
ATOM     29  C   UNL     1     -13.685 -21.365  24.466  1.00  0.00     0.081 C 
ATOM     30  C   UNL     1     -14.511 -21.305  23.226  1.00  0.00     0.156 C 
ATOM     31  O   UNL     1     -15.681 -20.834  23.264  1.00  0.00    -0.295 OA
ENDBRANCH   9  11
ENDBRANCH   8   9
ENDBRANCH   1   8
TORSDOF 6
ENDMDL
MODEL 3
REMARK VINA RESULT:    -7.445      1.280      2.363
REMARK INTER + INTRA:         -11.424
REMARK INTER:                  -9.972
REMARK INTRA:                  -1.453
REMARK UNBOUND:                -1.368
REMARK SMILES CC[C@@H](CC[C@@H](C)[C@@H]1CC[C@@H]2[C@@H]3CC(=O)C4=CC(=O)CC[C@]4(C)[C@@H]3CC[C@@]21C)C(C)C
REMARK SMILES IDX 4 1 3 2 2 3 1 4 29 5 30 6 31 7 5 8 6 9 7 10 8 11 9 12 27 13
REMARK SMILES IDX 10 14 11 15 26 16 28 17 12 18 25 19 24 20 13 21 22 22 14 23
REMARK SMILES IDX 16 24 21 25 23 26 15 27 17 28 20 29 18 30 19 31
REMARK H PARENT
REMARK Flexibility Score: inf
ROOT
ATOM      1  C   UNL     1     -13.513 -23.084  23.051  1.00  0.00     0.004 C 
ENDROOT
BRANCH   1   2
ATOM      2  C   UNL     1     -13.788 -21.894  24.013  1.00  0.00    -0.009 C 
BRANCH   2   3
ATOM      3  C   UNL     1     -13.186 -22.141  25.423  1.00  0.00     0.000 C 
ATOM      4  C   UNL     1     -13.886 -23.273  26.182  1.00  0.00     0.004 C 
ENDBRANCH   2   3
BRANCH   2   5
ATOM      5  C   UNL     1     -15.296 -21.432  23.964  1.00  0.00    -0.014 C 
ATOM      6  C   UNL     1     -15.668 -20.237  24.867  1.00  0.00     0.007 C 
ATOM      7  C   UNL     1     -15.744 -21.146  22.519  1.00  0.00     0.007 C 
ENDBRANCH   2   5
ENDBRANCH   1   2
BRANCH   1   8
ATOM      8  C   UNL     1     -12.027 -23.481  22.870  1.00  0.00     0.004 C 
BRANCH   8   9
ATOM      9  C   UNL     1     -11.470 -23.193  21.438  1.00  0.00    -0.011 C 
ATOM     10  C   UNL     1     -12.553 -22.618  20.512  1.00  0.00     0.008 C 
BRANCH   9  11
ATOM     11  C   UNL     1     -10.119 -22.388  21.371  1.00  0.00    -0.002 C 
ATOM     12  C   UNL     1      -9.238 -22.585  22.607  1.00  0.00     0.005 C 
ATOM     13  C   UNL     1     -10.078 -20.856  21.026  1.00  0.00    -0.026 C 
ATOM     14  C   UNL     1      -8.261 -21.421  22.649  1.00  0.00     0.005 C 
ATOM     15  C   UNL     1      -8.668 -20.427  21.544  1.00  0.00    -0.001 C 
ATOM     16  C   UNL     1     -11.206 -20.000  21.685  1.00  0.00     0.007 C 
ATOM     17  C   UNL     1     -10.135 -20.633  19.489  1.00  0.00     0.012 C 
ATOM     18  C   UNL     1      -8.544 -18.917  21.952  1.00  0.00     0.004 C 
ATOM     19  C   UNL     1     -10.820 -19.442  23.058  1.00  0.00     0.005 C 
ATOM     20  C   UNL     1      -9.702 -18.385  22.906  1.00  0.00     0.003 C 
ATOM     21  C   UNL     1      -7.088 -18.588  22.396  1.00  0.00     0.085 C 
ATOM     22  C   UNL     1      -9.213 -17.732  24.266  1.00  0.00    -0.000 C 
ATOM     23  C   UNL     1      -6.882 -18.737  23.872  1.00  0.00     0.159 C 
ATOM     24  C   UNL     1      -8.014 -18.522  24.795  1.00  0.00     0.005 C 
ATOM     25  C   UNL     1     -10.350 -17.569  25.348  1.00  0.00     0.020 C 
ATOM     26  C   UNL     1      -8.745 -16.276  23.969  1.00  0.00     0.017 C 
ATOM     27  O   UNL     1      -5.742 -19.056  24.312  1.00  0.00    -0.295 OA
ATOM     28  C   UNL     1      -7.993 -19.091  26.015  1.00  0.00     0.055 C 
ATOM     29  C   UNL     1     -10.508 -18.754  26.305  1.00  0.00     0.081 C 
ATOM     30  C   UNL     1      -9.177 -19.112  26.875  1.00  0.00     0.156 C 
ATOM     31  O   UNL     1      -9.081 -19.489  28.075  1.00  0.00    -0.295 OA
ENDBRANCH   9  11
ENDBRANCH   8   9
ENDBRANCH   1   8
TORSDOF 6
ENDMDL
MODEL 4
REMARK VINA RESULT:    -7.427      2.705      7.851
REMARK INTER + INTRA:         -11.400
REMARK INTER:                  -9.460
REMARK INTRA:                  -1.940
REMARK UNBOUND:                -1.368
REMARK SMILES CC[C@@H](CC[C@@H](C)[C@@H]1CC[C@@H]2[C@@H]3CC(=O)C4=CC(=O)CC[C@]4(C)[C@@H]3CC[C@@]21C)C(C)C
REMARK SMILES IDX 4 1 3 2 2 3 1 4 29 5 30 6 31 7 5 8 6 9 7 10 8 11 9 12 27 13
REMARK SMILES IDX 10 14 11 15 26 16 28 17 12 18 25 19 24 20 13 21 22 22 14 23
REMARK SMILES IDX 16 24 21 25 23 26 15 27 17 28 20 29 18 30 19 31
REMARK H PARENT
REMARK Flexibility Score: inf
ROOT
ATOM      1  C   UNL     1      -5.217 -16.592  25.315  1.00  0.00     0.004 C 
ENDROOT
BRANCH   1   2
ATOM      2  C   UNL     1      -4.819 -16.574  23.812  1.00  0.00    -0.009 C 
BRANCH   2   3
ATOM      3  C   UNL     1      -3.934 -17.794  23.435  1.00  0.00     0.000 C 
ATOM      4  C   UNL     1      -4.128 -18.986  24.376  1.00  0.00     0.004 C 
ENDBRANCH   2   3
BRANCH   2   5
ATOM      5  C   UNL     1      -4.293 -15.157  23.357  1.00  0.00    -0.014 C 
ATOM      6  C   UNL     1      -5.332 -14.230  22.692  1.00  0.00     0.007 C 
ATOM      7  C   UNL     1      -3.612 -14.416  24.522  1.00  0.00     0.007 C 
ENDBRANCH   2   5
ENDBRANCH   1   2
BRANCH   1   8
ATOM      8  C   UNL     1      -6.732 -16.495  25.617  1.00  0.00     0.004 C 
BRANCH   8   9
ATOM      9  C   UNL     1      -7.490 -17.854  25.467  1.00  0.00    -0.011 C 
ATOM     10  C   UNL     1      -7.867 -18.448  26.832  1.00  0.00     0.008 C 
BRANCH   9  11
ATOM     11  C   UNL     1      -8.686 -17.868  24.444  1.00  0.00    -0.002 C 
ATOM     12  C   UNL     1      -9.825 -18.801  24.859  1.00  0.00     0.005 C 
ATOM     13  C   UNL     1      -8.462 -18.086  22.904  1.00  0.00    -0.026 C 
ATOM     14  C   UNL     1     -10.637 -19.101  23.609  1.00  0.00     0.005 C 
ATOM     15  C   UNL     1      -9.885 -18.498  22.407  1.00  0.00    -0.001 C 
ATOM     16  C   UNL     1      -7.401 -19.171  22.538  1.00  0.00     0.007 C 
ATOM     17  C   UNL     1      -8.056 -16.756  22.210  1.00  0.00     0.012 C 
ATOM     18  C   UNL     1      -9.903 -19.389  21.117  1.00  0.00     0.004 C 
ATOM     19  C   UNL     1      -7.994 -20.575  22.393  1.00  0.00     0.005 C 
ATOM     20  C   UNL     1      -8.915 -20.636  21.151  1.00  0.00     0.003 C 
ATOM     21  C   UNL     1     -11.367 -19.690  20.679  1.00  0.00     0.085 C 
ATOM     22  C   UNL     1      -9.593 -22.046  20.895  1.00  0.00    -0.000 C 
ATOM     23  C   UNL     1     -11.897 -20.966  21.257  1.00  0.00     0.159 C 
ATOM     24  C   UNL     1     -10.966 -22.069  21.571  1.00  0.00     0.005 C 
ATOM     25  C   UNL     1      -8.699 -23.278  21.310  1.00  0.00     0.020 C 
ATOM     26  C   UNL     1      -9.803 -22.216  19.360  1.00  0.00     0.017 C 
ATOM     27  O   UNL     1     -13.134 -21.082  21.479  1.00  0.00    -0.295 OA
ATOM     28  C   UNL     1     -11.314 -22.989  22.490  1.00  0.00     0.055 C 
ATOM     29  C   UNL     1      -8.895 -23.766  22.748  1.00  0.00     0.081 C 
ATOM     30  C   UNL     1     -10.350 -23.958  23.013  1.00  0.00     0.156 C 
ATOM     31  O   UNL     1     -10.743 -24.917  23.733  1.00  0.00    -0.295 OA
ENDBRANCH   9  11
ENDBRANCH   8   9
ENDBRANCH   1   8
TORSDOF 6
ENDMDL
MODEL 5
REMARK VINA RESULT:    -7.419      2.700      7.412
REMARK INTER + INTRA:         -11.389
REMARK INTER:                  -9.899
REMARK INTRA:                  -1.490
REMARK UNBOUND:                -1.368
REMARK SMILES CC[C@@H](CC[C@@H](C)[C@@H]1CC[C@@H]2[C@@H]3CC(=O)C4=CC(=O)CC[C@]4(C)[C@@H]3CC[C@@]21C)C(C)C
REMARK SMILES IDX 4 1 3 2 2 3 1 4 29 5 30 6 31 7 5 8 6 9 7 10 8 11 9 12 27 13
REMARK SMILES IDX 10 14 11 15 26 16 28 17 12 18 25 19 24 20 13 21 22 22 14 23
REMARK SMILES IDX 16 24 21 25 23 26 15 27 17 28 20 29 18 30 19 31
REMARK H PARENT
REMARK Flexibility Score: inf
ROOT
ATOM      1  C   UNL     1      -7.149 -15.103  24.027  1.00  0.00     0.004 C 
ENDROOT
BRANCH   1   2
ATOM      2  C   UNL     1      -6.088 -16.102  24.568  1.00  0.00    -0.009 C 
BRANCH   2   3
ATOM      3  C   UNL     1      -5.891 -15.958  26.103  1.00  0.00     0.000 C 
ATOM      4  C   UNL     1      -6.270 -17.225  26.874  1.00  0.00     0.004 C 
ENDBRANCH   2   3
BRANCH   2   5
ATOM      5  C   UNL     1      -4.778 -16.107  23.689  1.00  0.00    -0.014 C 
ATOM      6  C   UNL     1      -3.454 -15.868  24.445  1.00  0.00     0.007 C 
ATOM      7  C   UNL     1      -4.671 -17.397  22.856  1.00  0.00     0.007 C 
ENDBRANCH   2   5
ENDBRANCH   1   2
BRANCH   1   8
ATOM      8  C   UNL     1      -8.421 -15.734  23.407  1.00  0.00     0.004 C 
BRANCH   8   9
ATOM      9  C   UNL     1      -8.764 -17.147  23.981  1.00  0.00    -0.011 C 
ATOM     10  C   UNL     1     -10.134 -17.161  24.675  1.00  0.00     0.008 C 
BRANCH   9  11
ATOM     11  C   UNL     1      -8.566 -18.358  22.997  1.00  0.00    -0.002 C 
ATOM     12  C   UNL     1      -9.581 -18.379  21.852  1.00  0.00     0.005 C 
ATOM     13  C   UNL     1      -8.436 -19.838  23.512  1.00  0.00    -0.026 C 
ATOM     14  C   UNL     1      -9.607 -19.796  21.302  1.00  0.00     0.005 C 
ATOM     15  C   UNL     1      -8.743 -20.674  22.229  1.00  0.00    -0.001 C 
ATOM     16  C   UNL     1      -9.401 -20.218  24.678  1.00  0.00     0.007 C 
ATOM     17  C   UNL     1      -6.980 -20.138  23.967  1.00  0.00     0.012 C 
ATOM     18  C   UNL     1      -9.328 -22.105  22.496  1.00  0.00     0.004 C 
ATOM     19  C   UNL     1     -10.744 -20.772  24.198  1.00  0.00     0.005 C 
ATOM     20  C   UNL     1     -10.540 -22.151  23.526  1.00  0.00     0.003 C 
ATOM     21  C   UNL     1      -9.542 -22.869  21.156  1.00  0.00     0.085 C 
ATOM     22  C   UNL     1     -11.866 -22.829  22.983  1.00  0.00    -0.000 C 
ATOM     23  C   UNL     1     -10.920 -22.691  20.598  1.00  0.00     0.159 C 
ATOM     24  C   UNL     1     -12.054 -22.449  21.512  1.00  0.00     0.005 C 
ATOM     25  C   UNL     1     -13.149 -22.525  23.850  1.00  0.00     0.020 C 
ATOM     26  C   UNL     1     -11.695 -24.375  23.069  1.00  0.00     0.017 C 
ATOM     27  O   UNL     1     -11.097 -22.740  19.349  1.00  0.00    -0.295 OA
ATOM     28  C   UNL     1     -13.159 -21.833  21.051  1.00  0.00     0.055 C 
ATOM     29  C   UNL     1     -13.945 -21.290  23.419  1.00  0.00     0.081 C 
ATOM     30  C   UNL     1     -14.208 -21.356  21.953  1.00  0.00     0.156 C 
ATOM     31  O   UNL     1     -15.307 -20.948  21.486  1.00  0.00    -0.295 OA
ENDBRANCH   9  11
ENDBRANCH   8   9
ENDBRANCH   1   8
TORSDOF 6
ENDMDL
MODEL 6
REMARK VINA RESULT:    -7.398      2.702      7.559
REMARK INTER + INTRA:         -11.361
REMARK INTER:                  -9.007
REMARK INTRA:                  -2.354
REMARK UNBOUND:                -1.368
REMARK SMILES CC[C@@H](CC[C@@H](C)[C@@H]1CC[C@@H]2[C@@H]3CC(=O)C4=CC(=O)CC[C@]4(C)[C@@H]3CC[C@@]21C)C(C)C
REMARK SMILES IDX 4 1 3 2 2 3 1 4 29 5 30 6 31 7 5 8 6 9 7 10 8 11 9 12 27 13
REMARK SMILES IDX 10 14 11 15 26 16 28 17 12 18 25 19 24 20 13 21 22 22 14 23
REMARK SMILES IDX 16 24 21 25 23 26 15 27 17 28 20 29 18 30 19 31
REMARK H PARENT
REMARK Flexibility Score: inf
ROOT
ATOM      1  C   UNL     1      -6.473 -16.371  26.149  1.00  0.00     0.004 C 
ENDROOT
BRANCH   1   2
ATOM      2  C   UNL     1      -5.321 -17.037  26.953  1.00  0.00    -0.009 C 
BRANCH   2   3
ATOM      3  C   UNL     1      -4.070 -17.288  26.068  1.00  0.00     0.000 C 
ATOM      4  C   UNL     1      -3.847 -18.770  25.756  1.00  0.00     0.004 C 
ENDBRANCH   2   3
BRANCH   2   5
ATOM      5  C   UNL     1      -5.831 -18.258  27.813  1.00  0.00    -0.014 C 
ATOM      6  C   UNL     1      -5.341 -18.307  29.276  1.00  0.00     0.007 C 
ATOM      7  C   UNL     1      -7.366 -18.361  27.779  1.00  0.00     0.007 C 
ENDBRANCH   2   5
ENDBRANCH   1   2
BRANCH   1   8
ATOM      8  C   UNL     1      -6.144 -15.984  24.686  1.00  0.00     0.004 C 
BRANCH   8   9
ATOM      9  C   UNL     1      -6.728 -16.975  23.628  1.00  0.00    -0.011 C 
ATOM     10  C   UNL     1      -5.652 -17.458  22.645  1.00  0.00     0.008 C 
BRANCH   9  11
ATOM     11  C   UNL     1      -7.609 -18.149  24.194  1.00  0.00    -0.002 C 
ATOM     12  C   UNL     1      -7.029 -19.534  23.903  1.00  0.00     0.005 C 
ATOM     13  C   UNL     1      -9.154 -18.239  23.920  1.00  0.00    -0.026 C 
ATOM     14  C   UNL     1      -8.166 -20.534  24.040  1.00  0.00     0.005 C 
ATOM     15  C   UNL     1      -9.470 -19.736  24.236  1.00  0.00    -0.001 C 
ATOM     16  C   UNL     1      -9.589 -17.865  22.468  1.00  0.00     0.007 C 
ATOM     17  C   UNL     1      -9.945 -17.341  24.911  1.00  0.00     0.012 C 
ATOM     18  C   UNL     1     -10.711 -20.325  23.478  1.00  0.00     0.004 C 
ATOM     19  C   UNL     1      -9.607 -19.060  21.513  1.00  0.00     0.005 C 
ATOM     20  C   UNL     1     -10.734 -20.042  21.912  1.00  0.00     0.003 C 
ATOM     21  C   UNL     1     -10.968 -21.798  23.909  1.00  0.00     0.085 C 
ATOM     22  C   UNL     1     -10.852 -21.329  20.993  1.00  0.00    -0.000 C 
ATOM     23  C   UNL     1     -10.280 -22.793  23.025  1.00  0.00     0.159 C 
ATOM     24  C   UNL     1     -10.025 -22.460  21.610  1.00  0.00     0.005 C 
ATOM     25  C   UNL     1     -10.487 -21.076  19.479  1.00  0.00     0.020 C 
ATOM     26  C   UNL     1     -12.344 -21.775  20.965  1.00  0.00     0.017 C 
ATOM     27  O   UNL     1      -9.916 -23.903  23.504  1.00  0.00    -0.295 OA
ATOM     28  C   UNL     1      -9.035 -23.087  20.948  1.00  0.00     0.055 C 
ATOM     29  C   UNL     1      -9.017 -21.305  19.119  1.00  0.00     0.081 C 
ATOM     30  C   UNL     1      -8.582 -22.637  19.632  1.00  0.00     0.156 C 
ATOM     31  O   UNL     1      -7.782 -23.345  18.961  1.00  0.00    -0.295 OA
ENDBRANCH   9  11
ENDBRANCH   8   9
ENDBRANCH   1   8
TORSDOF 6
ENDMDL
MODEL 7
REMARK VINA RESULT:    -7.377      3.585      7.053
REMARK INTER + INTRA:         -11.332
REMARK INTER:                  -9.764
REMARK INTRA:                  -1.568
REMARK UNBOUND:                -1.368
REMARK SMILES CC[C@@H](CC[C@@H](C)[C@@H]1CC[C@@H]2[C@@H]3CC(=O)C4=CC(=O)CC[C@]4(C)[C@@H]3CC[C@@]21C)C(C)C
REMARK SMILES IDX 4 1 3 2 2 3 1 4 29 5 30 6 31 7 5 8 6 9 7 10 8 11 9 12 27 13
REMARK SMILES IDX 10 14 11 15 26 16 28 17 12 18 25 19 24 20 13 21 22 22 14 23
REMARK SMILES IDX 16 24 21 25 23 26 15 27 17 28 20 29 18 30 19 31
REMARK H PARENT
REMARK Flexibility Score: inf
ROOT
ATOM      1  C   UNL     1     -11.520 -20.493  20.738  1.00  0.00     0.004 C 
ENDROOT
BRANCH   1   2
ATOM      2  C   UNL     1     -11.123 -21.674  19.808  1.00  0.00    -0.009 C 
BRANCH   2   3
ATOM      3  C   UNL     1     -12.068 -22.894  19.992  1.00  0.00     0.000 C 
ATOM      4  C   UNL     1     -13.369 -22.767  19.195  1.00  0.00     0.004 C 
ENDBRANCH   2   3
BRANCH   2   5
ATOM      5  C   UNL     1      -9.575 -21.970  19.857  1.00  0.00    -0.014 C 
ATOM      6  C   UNL     1      -9.096 -22.890  21.000  1.00  0.00     0.007 C 
ATOM      7  C   UNL     1      -9.070 -22.518  18.510  1.00  0.00     0.007 C 
ENDBRANCH   2   5
ENDBRANCH   1   2
BRANCH   1   8
ATOM      8  C   UNL     1     -12.326 -20.868  22.006  1.00  0.00     0.004 C 
BRANCH   8   9
ATOM      9  C   UNL     1     -11.430 -21.275  23.221  1.00  0.00    -0.011 C 
ATOM     10  C   UNL     1     -10.502 -20.130  23.652  1.00  0.00     0.008 C 
BRANCH   9  11
ATOM     11  C   UNL     1     -12.176 -21.946  24.433  1.00  0.00    -0.002 C 
ATOM     12  C   UNL     1     -11.304 -22.069  25.685  1.00  0.00     0.005 C 
ATOM     13  C   UNL     1     -12.949 -23.306  24.286  1.00  0.00    -0.026 C 
ATOM     14  C   UNL     1     -11.933 -23.137  26.565  1.00  0.00     0.005 C 
ATOM     15  C   UNL     1     -13.080 -23.787  25.767  1.00  0.00    -0.001 C 
ATOM     16  C   UNL     1     -12.235 -24.380  23.406  1.00  0.00     0.007 C 
ATOM     17  C   UNL     1     -14.373 -23.073  23.708  1.00  0.00     0.012 C 
ATOM     18  C   UNL     1     -13.199 -25.340  25.951  1.00  0.00     0.004 C 
ATOM     19  C   UNL     1     -11.297 -25.291  24.202  1.00  0.00     0.005 C 
ATOM     20  C   UNL     1     -12.116 -26.193  25.155  1.00  0.00     0.003 C 
ATOM     21  C   UNL     1     -13.382 -25.701  27.454  1.00  0.00     0.085 C 
ATOM     22  C   UNL     1     -11.252 -27.185  26.039  1.00  0.00    -0.000 C 
ATOM     23  C   UNL     1     -12.084 -25.977  28.149  1.00  0.00     0.159 C 
ATOM     24  C   UNL     1     -10.944 -26.517  27.382  1.00  0.00     0.005 C 
ATOM     25  C   UNL     1      -9.952 -27.721  25.324  1.00  0.00     0.020 C 
ATOM     26  C   UNL     1     -12.101 -28.462  26.314  1.00  0.00     0.017 C 
ATOM     27  O   UNL     1     -11.976 -25.736  29.384  1.00  0.00    -0.295 OA
ATOM     28  C   UNL     1      -9.691 -26.328  27.836  1.00  0.00     0.055 C 
ATOM     29  C   UNL     1      -8.694 -26.879  25.550  1.00  0.00     0.081 C 
ATOM     30  C   UNL     1      -8.520 -26.627  27.009  1.00  0.00     0.156 C 
ATOM     31  O   UNL     1      -7.365 -26.612  27.519  1.00  0.00    -0.295 OA
ENDBRANCH   9  11
ENDBRANCH   8   9
ENDBRANCH   1   8
TORSDOF 6
ENDMDL
MODEL 8
REMARK VINA RESULT:    -7.312      2.706      7.829
REMARK INTER + INTRA:         -11.244
REMARK INTER:                  -9.428
REMARK INTRA:                  -1.816
REMARK UNBOUND:                -1.368
REMARK SMILES CC[C@@H](CC[C@@H](C)[C@@H]1CC[C@@H]2[C@@H]3CC(=O)C4=CC(=O)CC[C@]4(C)[C@@H]3CC[C@@]21C)C(C)C
REMARK SMILES IDX 4 1 3 2 2 3 1 4 29 5 30 6 31 7 5 8 6 9 7 10 8 11 9 12 27 13
REMARK SMILES IDX 10 14 11 15 26 16 28 17 12 18 25 19 24 20 13 21 22 22 14 23
REMARK SMILES IDX 16 24 21 25 23 26 15 27 17 28 20 29 18 30 19 31
REMARK H PARENT
REMARK Flexibility Score: inf
ROOT
ATOM      1  C   UNL     1      -6.464 -15.763  25.063  1.00  0.00     0.004 C 
ENDROOT
BRANCH   1   2
ATOM      2  C   UNL     1      -5.819 -14.692  24.139  1.00  0.00    -0.009 C 
BRANCH   2   3
ATOM      3  C   UNL     1      -6.689 -14.415  22.882  1.00  0.00     0.000 C 
ATOM      4  C   UNL     1      -8.125 -14.926  23.026  1.00  0.00     0.004 C 
ENDBRANCH   2   3
BRANCH   2   5
ATOM      5  C   UNL     1      -4.288 -14.977  23.884  1.00  0.00    -0.014 C 
ATOM      6  C   UNL     1      -3.876 -15.206  22.414  1.00  0.00     0.007 C 
ATOM      7  C   UNL     1      -3.407 -13.875  24.500  1.00  0.00     0.007 C 
ENDBRANCH   2   5
ENDBRANCH   1   2
BRANCH   1   8
ATOM      8  C   UNL     1      -5.821 -17.171  25.022  1.00  0.00     0.004 C 
BRANCH   8   9
ATOM      9  C   UNL     1      -6.381 -18.084  23.883  1.00  0.00    -0.011 C 
ATOM     10  C   UNL     1      -5.252 -18.747  23.080  1.00  0.00     0.008 C 
BRANCH   9  11
ATOM     11  C   UNL     1      -7.509 -19.097  24.302  1.00  0.00    -0.002 C 
ATOM     12  C   UNL     1      -7.268 -20.517  23.786  1.00  0.00     0.005 C 
ATOM     13  C   UNL     1      -9.033 -18.787  24.077  1.00  0.00    -0.026 C 
ATOM     14  C   UNL     1      -8.606 -21.238  23.816  1.00  0.00     0.005 C 
ATOM     15  C   UNL     1      -9.688 -20.202  24.179  1.00  0.00    -0.001 C 
ATOM     16  C   UNL     1      -9.374 -18.105  22.715  1.00  0.00     0.007 C 
ATOM     17  C   UNL     1      -9.591 -17.895  25.221  1.00  0.00     0.012 C 
ATOM     18  C   UNL     1     -11.034 -20.367  23.390  1.00  0.00     0.004 C 
ATOM     19  C   UNL     1      -9.672 -19.103  21.594  1.00  0.00     0.005 C 
ATOM     20  C   UNL     1     -10.995 -19.849  21.885  1.00  0.00     0.003 C 
ATOM     21  C   UNL     1     -11.626 -21.790  23.607  1.00  0.00     0.085 C 
ATOM     22  C   UNL     1     -11.412 -20.917  20.790  1.00  0.00    -0.000 C 
ATOM     23  C   UNL     1     -11.191 -22.768  22.559  1.00  0.00     0.159 C 
ATOM     24  C   UNL     1     -10.869 -22.289  21.200  1.00  0.00     0.005 C 
ATOM     25  C   UNL     1     -11.003 -20.526  19.318  1.00  0.00     0.020 C 
ATOM     26  C   UNL     1     -12.968 -20.999  20.754  1.00  0.00     0.017 C 
ATOM     27  O   UNL     1     -11.094 -23.992  22.853  1.00  0.00    -0.295 OA
ATOM     28  C   UNL     1     -10.054 -23.018  20.415  1.00  0.00     0.055 C 
ATOM     29  C   UNL     1      -9.627 -21.028  18.872  1.00  0.00     0.081 C 
ATOM     30  C   UNL     1      -9.513 -22.486  19.164  1.00  0.00     0.156 C 
ATOM     31  O   UNL     1      -8.901 -23.248  18.364  1.00  0.00    -0.295 OA
ENDBRANCH   9  11
ENDBRANCH   8   9
ENDBRANCH   1   8
TORSDOF 6
ENDMDL
MODEL 9
REMARK VINA RESULT:    -7.226      2.520      5.530
REMARK INTER + INTRA:         -11.129
REMARK INTER:                  -9.653
REMARK INTRA:                  -1.476
REMARK UNBOUND:                -1.368
REMARK SMILES CC[C@@H](CC[C@@H](C)[C@@H]1CC[C@@H]2[C@@H]3CC(=O)C4=CC(=O)CC[C@]4(C)[C@@H]3CC[C@@]21C)C(C)C
REMARK SMILES IDX 4 1 3 2 2 3 1 4 29 5 30 6 31 7 5 8 6 9 7 10 8 11 9 12 27 13
REMARK SMILES IDX 10 14 11 15 26 16 28 17 12 18 25 19 24 20 13 21 22 22 14 23
REMARK SMILES IDX 16 24 21 25 23 26 15 27 17 28 20 29 18 30 19 31
REMARK H PARENT
REMARK Flexibility Score: inf
ROOT
ATOM      1  C   UNL     1     -10.522 -22.577  21.694  1.00  0.00     0.004 C 
ENDROOT
BRANCH   1   2
ATOM      2  C   UNL     1     -10.822 -21.840  20.359  1.00  0.00    -0.009 C 
BRANCH   2   3
ATOM      3  C   UNL     1     -12.027 -22.472  19.609  1.00  0.00     0.000 C 
ATOM      4  C   UNL     1     -13.379 -22.066  20.202  1.00  0.00     0.004 C 
ENDBRANCH   2   3
BRANCH   2   5
ATOM      5  C   UNL     1      -9.514 -21.599  19.510  1.00  0.00    -0.014 C 
ATOM      6  C   UNL     1      -8.524 -22.781  19.442  1.00  0.00     0.007 C 
ATOM      7  C   UNL     1      -9.854 -21.129  18.084  1.00  0.00     0.007 C 
ENDBRANCH   2   5
ENDBRANCH   1   2
BRANCH   1   8
ATOM      8  C   UNL     1     -10.310 -21.674  22.935  1.00  0.00     0.004 C 
BRANCH   8   9
ATOM      9  C   UNL     1     -11.270 -20.442  22.986  1.00  0.00    -0.011 C 
ATOM     10  C   UNL     1     -12.378 -20.627  24.033  1.00  0.00     0.008 C 
BRANCH   9  11
ATOM     11  C   UNL     1     -10.578 -19.031  23.071  1.00  0.00    -0.002 C 
ATOM     12  C   UNL     1      -9.584 -18.776  21.936  1.00  0.00     0.005 C 
ATOM     13  C   UNL     1      -9.899 -18.515  24.391  1.00  0.00    -0.026 C 
ATOM     14  C   UNL     1      -8.658 -17.661  22.394  1.00  0.00     0.005 C 
ATOM     15  C   UNL     1      -8.976 -17.366  23.873  1.00  0.00    -0.001 C 
ATOM     16  C   UNL     1      -9.079 -19.587  25.174  1.00  0.00     0.007 C 
ATOM     17  C   UNL     1     -10.956 -17.910  25.357  1.00  0.00     0.012 C 
ATOM     18  C   UNL     1      -7.716 -17.077  24.762  1.00  0.00     0.004 C 
ATOM     19  C   UNL     1      -7.611 -19.659  24.748  1.00  0.00     0.005 C 
ATOM     20  C   UNL     1      -6.873 -18.365  25.165  1.00  0.00     0.003 C 
ATOM     21  C   UNL     1      -6.902 -15.881  24.187  1.00  0.00     0.085 C 
ATOM     22  C   UNL     1      -5.337 -18.319  24.774  1.00  0.00    -0.000 C 
ATOM     23  C   UNL     1      -5.820 -16.312  23.245  1.00  0.00     0.159 C 
ATOM     24  C   UNL     1      -5.190 -17.636  23.412  1.00  0.00     0.005 C 
ATOM     25  C   UNL     1      -4.617 -19.722  24.823  1.00  0.00     0.020 C 
ATOM     26  C   UNL     1      -4.587 -17.459  25.835  1.00  0.00     0.017 C 
ATOM     27  O   UNL     1      -5.465 -15.540  22.311  1.00  0.00    -0.295 OA
ATOM     28  C   UNL     1      -4.595 -18.226  22.358  1.00  0.00     0.055 C 
ATOM     29  C   UNL     1      -4.634 -20.506  23.508  1.00  0.00     0.081 C 
ATOM     30  C   UNL     1      -4.167 -19.625  22.399  1.00  0.00     0.156 C 
ATOM     31  O   UNL     1      -3.456 -20.097  21.469  1.00  0.00    -0.295 OA
ENDBRANCH   9  11
ENDBRANCH   8   9
ENDBRANCH   1   8
TORSDOF 6
ENDMDL
