MODEL 1
REMARK VINA RESULT:    -1.840      0.000      0.000
REMARK INTER + INTRA:           0.392
REMARK INTER:                  -2.808
REMARK INTRA:                   3.200
REMARK UNBOUND:                 3.200
REMARK SMILES CC1=CCC[C@@H](C)C(=O)C[C@H](C(C)C)C(=O)C1
REMARK SMILES IDX 8 1 9 2 6 3 7 4 5 5 4 6 3 7 2 8 1 9 10 11 11 12 15 13 16 14
REMARK SMILES IDX 17 15 12 17 13 18 14 19
REMARK H PARENT
REMARK Flexibility Score: 70.00
ROOT
ATOM      1  C   UNL     1     -26.757 -12.033  24.015  1.00  0.00     0.136 C 
ATOM      2  O   UNL     1     -25.842 -12.504  24.675  1.00  0.00    -0.299 OA
ENDROOT
BRANCH   1   3
ATOM      3  C   UNL     1     -27.969 -11.478  24.750  1.00  0.00     0.053 C 
ATOM      4  C   UNL     1     -27.771 -10.030  25.222  1.00  0.00     0.016 C 
BRANCH   3   5
ATOM      5  C   UNL     1     -28.491 -12.429  25.854  1.00  0.00     0.015 C 
BRANCH   5   6
ATOM      6  C   UNL     1     -29.953 -12.896  25.697  1.00  0.00     0.028 C 
BRANCH   6   7
ATOM      7  C   UNL     1     -30.018 -14.368  25.377  1.00  0.00    -0.028 C 
ATOM      8  C   UNL     1     -29.989 -14.882  24.123  1.00  0.00    -0.070 CG0
ATOM      9  C   UNL     1     -30.096 -16.373  23.935  1.00  0.00     0.039 C 
ATOM     10  G   UNL     1     -29.774 -14.029  22.882  1.00  0.00     0.000 G0
ENDBRANCH   6   7
ENDBRANCH   5   6
ENDBRANCH   3   5
ENDBRANCH   1   3
BRANCH   1  11
ATOM     11  C   UNL     1     -26.640 -12.050  22.505  1.00  0.00     0.087 C 
BRANCH  11  12
ATOM     12  C   UNL     1     -27.871 -12.654  21.774  1.00  0.00     0.066 C 
BRANCH  12  13
ATOM     13  C   UNL     1     -28.351 -13.908  22.491  1.00  0.00     0.140 C 
ATOM     14  O   UNL     1     -27.545 -14.767  22.818  1.00  0.00    -0.299 OA
BRANCH  13  15
ATOM     15  C   UNL     1     -29.804 -14.070  22.864  1.00  0.00     0.106 CG0
ATOM     16  G   UNL     1     -29.991 -14.892  24.130  1.00  0.00     0.000 G0
ENDBRANCH  13  15
ENDBRANCH  12  13
BRANCH  12  17
ATOM     17  C   UNL     1     -29.046 -11.648  21.524  1.00  0.00    -0.006 C 
ATOM     18  C   UNL     1     -29.831 -11.961  20.237  1.00  0.00     0.008 C 
ATOM     19  C   UNL     1     -30.024 -11.646  22.713  1.00  0.00     0.008 C 
ENDBRANCH  12  17
ENDBRANCH  11  12
ENDBRANCH   1  11
TORSDOF 1
ENDMDL
MODEL 2
REMARK VINA RESULT:    -1.560      1.725      3.227
REMARK INTER + INTRA:           0.819
REMARK INTER:                  -2.607
REMARK INTRA:                   3.427
REMARK UNBOUND:                 3.200
REMARK SMILES CC1=CCC[C@@H](C)C(=O)C[C@H](C(C)C)C(=O)C1
REMARK SMILES IDX 8 1 9 2 6 3 7 4 5 5 4 6 3 7 2 8 1 9 10 11 11 12 15 13 16 14
REMARK SMILES IDX 17 15 12 17 13 18 14 19
REMARK H PARENT
REMARK Flexibility Score: 70.00
ROOT
ATOM      1  C   UNL     1     -26.769 -12.443  23.831  1.00  0.00     0.136 C 
ATOM      2  O   UNL     1     -26.524 -13.239  22.935  1.00  0.00    -0.299 OA
ENDROOT
BRANCH   1   3
ATOM      3  C   UNL     1     -26.808 -12.956  25.264  1.00  0.00     0.053 C 
ATOM      4  C   UNL     1     -25.412 -13.250  25.832  1.00  0.00     0.016 C 
BRANCH   3   5
ATOM      5  C   UNL     1     -27.820 -14.110  25.463  1.00  0.00     0.015 C 
BRANCH   5   6
ATOM      6  C   UNL     1     -29.273 -13.804  25.043  1.00  0.00     0.028 C 
BRANCH   6   7
ATOM      7  C   UNL     1     -29.528 -14.245  23.624  1.00  0.00    -0.028 C 
ATOM      8  C   UNL     1     -29.861 -13.409  22.609  1.00  0.00    -0.070 CG0
ATOM      9  C   UNL     1     -30.125 -13.980  21.240  1.00  0.00     0.039 C 
ATOM     10  G   UNL     1     -29.907 -11.896  22.763  1.00  0.00     0.000 G0
ENDBRANCH   6   7
ENDBRANCH   5   6
ENDBRANCH   3   5
ENDBRANCH   1   3
BRANCH   1  11
ATOM     11  C   UNL     1     -27.043 -11.001  23.459  1.00  0.00     0.087 C 
BRANCH  11  12
ATOM     12  C   UNL     1     -28.288 -10.386  24.155  1.00  0.00     0.066 C 
BRANCH  12  13
ATOM     13  C   UNL     1     -29.470 -11.341  24.071  1.00  0.00     0.140 C 
ATOM     14  O   UNL     1     -30.086 -11.636  25.085  1.00  0.00    -0.299 OA
BRANCH  13  15
ATOM     15  C   UNL     1     -29.933 -11.874  22.737  1.00  0.00     0.106 CG0
ATOM     16  G   UNL     1     -29.853 -13.390  22.657  1.00  0.00     0.000 G0
ENDBRANCH  13  15
ENDBRANCH  12  13
BRANCH  12  17
ATOM     17  C   UNL     1     -28.047  -9.897  25.623  1.00  0.00    -0.006 C 
ATOM     18  C   UNL     1     -26.678  -9.216  25.804  1.00  0.00     0.008 C 
ATOM     19  C   UNL     1     -29.149  -8.915  26.060  1.00  0.00     0.008 C 
ENDBRANCH  12  17
ENDBRANCH  11  12
ENDBRANCH   1  11
TORSDOF 1
ENDMDL
MODEL 3
REMARK VINA RESULT:     0.340      1.713      3.402
REMARK INTER + INTRA:           3.719
REMARK INTER:                  -2.116
REMARK INTRA:                   5.835
REMARK UNBOUND:                 3.200
REMARK SMILES CC1=CCC[C@@H](C)C(=O)C[C@H](C(C)C)C(=O)C1
REMARK SMILES IDX 8 1 9 2 6 3 7 4 5 5 4 6 3 7 2 8 1 9 10 11 11 12 15 13 16 14
REMARK SMILES IDX 17 15 12 17 13 18 14 19
REMARK H PARENT
REMARK Flexibility Score: 70.00
ROOT
ATOM      1  C   UNL     1     -27.558 -10.691  24.533  1.00  0.00     0.136 C 
ATOM      2  O   UNL     1     -27.758  -9.496  24.369  1.00  0.00    -0.299 OA
ENDROOT
BRANCH   1   3
ATOM      3  C   UNL     1     -27.430 -11.579  23.302  1.00  0.00     0.053 C 
ATOM      4  C   UNL     1     -26.068 -11.443  22.605  1.00  0.00     0.016 C 
BRANCH   3   5
ATOM      5  C   UNL     1     -28.638 -11.454  22.342  1.00  0.00     0.015 C 
BRANCH   5   6
ATOM      6  C   UNL     1     -29.974 -12.013  22.875  1.00  0.00     0.028 C 
BRANCH   6   7
ATOM      7  C   UNL     1     -30.088 -13.491  22.601  1.00  0.00    -0.028 C 
ATOM      8  C   UNL     1     -29.986 -14.456  23.548  1.00  0.00    -0.070 CG0
ATOM      9  C   UNL     1     -30.084 -15.903  23.139  1.00  0.00     0.039 C 
ATOM     10  G   UNL     1     -29.853 -14.151  25.032  1.00  0.00     0.000 G0
ENDBRANCH   6   7
ENDBRANCH   5   6
ENDBRANCH   3   5
ENDBRANCH   1   3
BRANCH   1  11
ATOM     11  C   UNL     1     -27.473 -11.220  25.949  1.00  0.00     0.087 C 
BRANCH  11  12
ATOM     12  C   UNL     1     -27.957 -12.688  26.114  1.00  0.00     0.066 C 
BRANCH  12  13
ATOM     13  C   UNL     1     -29.343 -12.861  25.509  1.00  0.00     0.140 C 
ATOM     14  O   UNL     1     -30.048 -11.880  25.315  1.00  0.00    -0.299 OA
BRANCH  13  15
ATOM     15  C   UNL     1     -29.829 -14.223  25.081  1.00  0.00     0.106 CG0
ATOM     16  G   UNL     1     -29.938 -14.354  23.570  1.00  0.00     0.000 G0
ENDBRANCH  13  15
ENDBRANCH  12  13
BRANCH  12  17
ATOM     17  C   UNL     1     -26.959 -13.773  25.585  1.00  0.00    -0.006 C 
ATOM     18  C   UNL     1     -27.233 -14.168  24.122  1.00  0.00     0.008 C 
ATOM     19  C   UNL     1     -25.505 -13.280  25.700  1.00  0.00     0.008 C 
ENDBRANCH  12  17
ENDBRANCH  11  12
ENDBRANCH   1  11
TORSDOF 1
ENDMDL
MODEL 4
REMARK VINA RESULT:     0.615      2.158      3.806
REMARK INTER + INTRA:           4.139
REMARK INTER:                  -0.103
REMARK INTRA:                   4.242
REMARK UNBOUND:                 3.200
REMARK SMILES CC1=CCC[C@@H](C)C(=O)C[C@H](C(C)C)C(=O)C1
REMARK SMILES IDX 8 1 9 2 6 3 7 4 5 5 4 6 3 7 2 8 1 9 10 11 11 12 15 13 16 14
REMARK SMILES IDX 17 15 12 17 13 18 14 19
REMARK H PARENT
REMARK Flexibility Score: 70.00
ROOT
ATOM      1  C   UNL     1     -27.660 -13.906  23.623  1.00  0.00     0.136 C 
ATOM      2  O   UNL     1     -27.434 -14.557  22.614  1.00  0.00    -0.299 OA
ENDROOT
BRANCH   1   3
ATOM      3  C   UNL     1     -26.484 -13.267  24.351  1.00  0.00     0.053 C 
ATOM      4  C   UNL     1     -25.177 -14.055  24.180  1.00  0.00     0.016 C 
BRANCH   3   5
ATOM      5  C   UNL     1     -26.809 -12.907  25.820  1.00  0.00     0.015 C 
BRANCH   5   6
ATOM      6  C   UNL     1     -28.226 -12.350  26.073  1.00  0.00     0.028 C 
BRANCH   6   7
ATOM      7  C   UNL     1     -28.212 -10.843  26.125  1.00  0.00    -0.028 C 
ATOM      8  C   UNL     1     -29.021 -10.043  25.387  1.00  0.00    -0.070 CG0
ATOM      9  C   UNL     1     -28.885  -8.547  25.506  1.00  0.00     0.039 C 
ATOM     10  G   UNL     1     -30.126 -10.580  24.491  1.00  0.00     0.000 G0
ENDBRANCH   6   7
ENDBRANCH   5   6
ENDBRANCH   3   5
ENDBRANCH   1   3
BRANCH   1  11
ATOM     11  C   UNL     1     -29.091 -13.792  24.103  1.00  0.00     0.087 C 
BRANCH  11  12
ATOM     12  C   UNL     1     -29.994 -12.889  23.218  1.00  0.00     0.066 C 
BRANCH  12  13
ATOM     13  C   UNL     1     -29.590 -11.429  23.363  1.00  0.00     0.140 C 
ATOM     14  O   UNL     1     -28.883 -10.906  22.512  1.00  0.00    -0.299 OA
BRANCH  13  15
ATOM     15  C   UNL     1     -30.111 -10.599  24.510  1.00  0.00     0.106 CG0
ATOM     16  G   UNL     1     -28.994 -10.031  25.371  1.00  0.00     0.000 G0
ENDBRANCH  13  15
ENDBRANCH  12  13
BRANCH  12  17
ATOM     17  C   UNL     1     -30.078 -13.317  21.714  1.00  0.00    -0.006 C 
ATOM     18  C   UNL     1     -28.938 -12.725  20.864  1.00  0.00     0.008 C 
ATOM     19  C   UNL     1     -30.050 -14.850  21.579  1.00  0.00     0.008 C 
ENDBRANCH  12  17
ENDBRANCH  11  12
ENDBRANCH   1  11
TORSDOF 1
ENDMDL
