MODEL 1
REMARK VINA RESULT:    -4.409      0.000      0.000
REMARK INTER + INTRA:          -5.350
REMARK INTER:                  -5.054
REMARK INTRA:                  -0.296
REMARK UNBOUND:                -0.296
REMARK SMILES COC(=O)c1ccccc1O
REMARK SMILES IDX 5 1 6 2 7 3 8 4 9 5 10 6 3 7 4 8 2 9 1 10 11 11
REMARK H PARENT 11 12
REMARK Flexibility Score: inf
ROOT
ATOM      1  C   UNL     1     179.702 181.257 184.800  1.00  0.00     0.101 A 
ATOM      2  C   UNL     1     180.426 180.820 185.923  1.00  0.00     0.019 A 
ATOM      3  C   UNL     1     180.901 179.509 186.001  1.00  0.00     0.001 A 
ATOM      4  C   UNL     1     180.659 178.616 184.958  1.00  0.00     0.004 A 
ATOM      5  C   UNL     1     179.924 179.026 183.844  1.00  0.00     0.047 A 
ATOM      6  C   UNL     1     179.423 180.332 183.761  1.00  0.00     0.130 A 
ENDROOT
BRANCH   1   7
ATOM      7  C   UNL     1     179.290 182.677 184.740  1.00  0.00     0.341 C 
ATOM      8  O   UNL     1     178.663 183.202 185.699  1.00  0.00    -0.246 OA
BRANCH   7   9
ATOM      9  O   UNL     1     179.550 183.419 183.582  1.00  0.00    -0.465 OA
ATOM     10  C   UNL     1     178.524 184.072 182.842  1.00  0.00     0.282 C 
ENDBRANCH   7   9
ENDBRANCH   1   7
BRANCH   6  11
ATOM     11  O   UNL     1     178.630 180.653 182.657  1.00  0.00    -0.507 OA
ATOM     12  H   UNL     1     177.855 181.300 182.695  1.00  0.00     0.293 HD
ENDBRANCH   6  11
TORSDOF 3
ENDMDL
MODEL 2
REMARK VINA RESULT:    -4.403      1.374      2.339
REMARK INTER + INTRA:          -5.343
REMARK INTER:                  -5.066
REMARK INTRA:                  -0.277
REMARK UNBOUND:                -0.296
REMARK SMILES COC(=O)c1ccccc1O
REMARK SMILES IDX 5 1 6 2 7 3 8 4 9 5 10 6 3 7 4 8 2 9 1 10 11 11
REMARK H PARENT 11 12
REMARK Flexibility Score: inf
ROOT
ATOM      1  C   UNL     1     179.696 180.475 183.751  1.00  0.00     0.101 A 
ATOM      2  C   UNL     1     180.316 179.738 182.727  1.00  0.00     0.019 A 
ATOM      3  C   UNL     1     180.891 178.492 182.992  1.00  0.00     0.001 A 
ATOM      4  C   UNL     1     180.856 177.968 184.283  1.00  0.00     0.004 A 
ATOM      5  C   UNL     1     180.264 178.695 185.317  1.00  0.00     0.047 A 
ATOM      6  C   UNL     1     179.700 179.954 185.071  1.00  0.00     0.130 A 
ENDROOT
BRANCH   1   7
ATOM      7  C   UNL     1     179.037 181.751 183.396  1.00  0.00     0.341 C 
ATOM      8  O   UNL     1     178.596 181.940 182.230  1.00  0.00    -0.246 OA
BRANCH   7   9
ATOM      9  O   UNL     1     178.961 182.774 184.348  1.00  0.00    -0.465 OA
ATOM     10  C   UNL     1     178.516 184.088 184.030  1.00  0.00     0.282 C 
ENDBRANCH   7   9
ENDBRANCH   1   7
BRANCH   6  11
ATOM     11  O   UNL     1     179.194 180.663 186.163  1.00  0.00    -0.507 OA
ATOM     12  H   UNL     1     178.804 180.220 186.984  1.00  0.00     0.293 HD
ENDBRANCH   6  11
TORSDOF 3
ENDMDL
MODEL 3
REMARK VINA RESULT:    -4.272      1.743      2.731
REMARK INTER + INTRA:          -5.193
REMARK INTER:                  -4.906
REMARK INTRA:                  -0.287
REMARK UNBOUND:                -0.296
REMARK SMILES COC(=O)c1ccccc1O
REMARK SMILES IDX 5 1 6 2 7 3 8 4 9 5 10 6 3 7 4 8 2 9 1 10 11 11
REMARK H PARENT 11 12
REMARK Flexibility Score: inf
ROOT
ATOM      1  C   UNL     1     179.861 180.334 183.233  1.00  0.00     0.101 A 
ATOM      2  C   UNL     1     180.490 179.140 182.841  1.00  0.00     0.019 A 
ATOM      3  C   UNL     1     180.868 178.187 183.791  1.00  0.00     0.001 A 
ATOM      4  C   UNL     1     180.623 178.416 185.144  1.00  0.00     0.004 A 
ATOM      5  C   UNL     1     180.019 179.605 185.554  1.00  0.00     0.047 A 
ATOM      6  C   UNL     1     179.652 180.579 184.615  1.00  0.00     0.130 A 
ENDROOT
BRANCH   1   7
ATOM      7  C   UNL     1     179.414 181.270 182.178  1.00  0.00     0.341 C 
ATOM      8  O   UNL     1     178.486 182.093 182.404  1.00  0.00    -0.246 OA
BRANCH   7   9
ATOM      9  O   UNL     1     179.990 181.196 180.904  1.00  0.00    -0.465 OA
ATOM     10  C   UNL     1     180.892 182.178 180.410  1.00  0.00     0.282 C 
ENDBRANCH   7   9
ENDBRANCH   1   7
BRANCH   6  11
ATOM     11  O   UNL     1     179.124 181.779 185.097  1.00  0.00    -0.507 OA
ATOM     12  H   UNL     1     178.528 181.839 185.911  1.00  0.00     0.293 HD
ENDBRANCH   6  11
TORSDOF 3
ENDMDL
MODEL 4
REMARK VINA RESULT:    -4.231      2.787      4.159
REMARK INTER + INTRA:          -5.146
REMARK INTER:                  -4.860
REMARK INTRA:                  -0.286
REMARK UNBOUND:                -0.296
REMARK SMILES COC(=O)c1ccccc1O
REMARK SMILES IDX 5 1 6 2 7 3 8 4 9 5 10 6 3 7 4 8 2 9 1 10 11 11
REMARK H PARENT 11 12
REMARK Flexibility Score: inf
ROOT
ATOM      1  C   UNL     1     181.341 179.596 185.854  1.00  0.00     0.101 A 
ATOM      2  C   UNL     1     182.300 178.927 185.073  1.00  0.00     0.019 A 
ATOM      3  C   UNL     1     181.950 178.363 183.843  1.00  0.00     0.001 A 
ATOM      4  C   UNL     1     180.639 178.458 183.379  1.00  0.00     0.004 A 
ATOM      5  C   UNL     1     179.670 179.100 184.151  1.00  0.00     0.047 A 
ATOM      6  C   UNL     1     180.000 179.654 185.395  1.00  0.00     0.130 A 
ENDROOT
BRANCH   1   7
ATOM      7  C   UNL     1     181.786 180.240 187.110  1.00  0.00     0.341 C 
ATOM      8  O   UNL     1     181.315 181.357 187.457  1.00  0.00    -0.246 OA
BRANCH   7   9
ATOM      9  O   UNL     1     182.780 179.628 187.881  1.00  0.00    -0.465 OA
ATOM     10  C   UNL     1     183.488 180.315 188.907  1.00  0.00     0.282 C 
ENDBRANCH   7   9
ENDBRANCH   1   7
BRANCH   6  11
ATOM     11  O   UNL     1     178.967 180.212 186.151  1.00  0.00    -0.507 OA
ATOM     12  H   UNL     1     178.731 181.195 186.135  1.00  0.00     0.293 HD
ENDBRANCH   6  11
TORSDOF 3
ENDMDL
MODEL 5
REMARK VINA RESULT:    -4.204      1.462      4.560
REMARK INTER + INTRA:          -5.115
REMARK INTER:                  -4.786
REMARK INTRA:                  -0.328
REMARK UNBOUND:                -0.296
REMARK SMILES COC(=O)c1ccccc1O
REMARK SMILES IDX 5 1 6 2 7 3 8 4 9 5 10 6 3 7 4 8 2 9 1 10 11 11
REMARK H PARENT 11 12
REMARK Flexibility Score: inf
ROOT
ATOM      1  C   UNL     1     179.158 181.746 183.706  1.00  0.00     0.101 A 
ATOM      2  C   UNL     1     178.495 182.242 182.570  1.00  0.00     0.019 A 
ATOM      3  C   UNL     1     178.067 183.571 182.517  1.00  0.00     0.001 A 
ATOM      4  C   UNL     1     178.293 184.421 183.599  1.00  0.00     0.004 A 
ATOM      5  C   UNL     1     178.931 183.940 184.743  1.00  0.00     0.047 A 
ATOM      6  C   UNL     1     179.348 182.605 184.820  1.00  0.00     0.130 A 
ENDROOT
BRANCH   1   7
ATOM      7  C   UNL     1     179.656 180.353 183.674  1.00  0.00     0.341 C 
ATOM      8  O   UNL     1     180.136 179.870 182.613  1.00  0.00    -0.246 OA
BRANCH   7   9
ATOM      9  O   UNL     1     179.536 179.554 184.817  1.00  0.00    -0.465 OA
ATOM     10  C   UNL     1     180.599 178.744 185.302  1.00  0.00     0.282 C 
ENDBRANCH   7   9
ENDBRANCH   1   7
BRANCH   6  11
ATOM     11  O   UNL     1     179.909 182.168 186.022  1.00  0.00    -0.507 OA
ATOM     12  H   UNL     1     179.361 181.892 186.826  1.00  0.00     0.293 HD
ENDBRANCH   6  11
TORSDOF 3
ENDMDL
MODEL 6
REMARK VINA RESULT:    -4.179      2.497      4.111
REMARK INTER + INTRA:          -5.086
REMARK INTER:                  -4.823
REMARK INTRA:                  -0.262
REMARK UNBOUND:                -0.296
REMARK SMILES COC(=O)c1ccccc1O
REMARK SMILES IDX 5 1 6 2 7 3 8 4 9 5 10 6 3 7 4 8 2 9 1 10 11 11
REMARK H PARENT 11 12
REMARK Flexibility Score: inf
ROOT
ATOM      1  C   UNL     1     180.847 180.150 185.936  1.00  0.00     0.101 A 
ATOM      2  C   UNL     1     180.892 178.848 185.407  1.00  0.00     0.019 A 
ATOM      3  C   UNL     1     180.268 178.550 184.193  1.00  0.00     0.001 A 
ATOM      4  C   UNL     1     179.589 179.547 183.493  1.00  0.00     0.004 A 
ATOM      5  C   UNL     1     179.517 180.839 184.014  1.00  0.00     0.047 A 
ATOM      6  C   UNL     1     180.121 181.150 185.240  1.00  0.00     0.130 A 
ENDROOT
BRANCH   1   7
ATOM      7  C   UNL     1     181.591 180.424 187.185  1.00  0.00     0.341 C 
ATOM      8  O   UNL     1     181.259 181.387 187.929  1.00  0.00    -0.246 OA
BRANCH   7   9
ATOM      9  O   UNL     1     182.707 179.642 187.507  1.00  0.00    -0.465 OA
ATOM     10  C   UNL     1     183.453 179.826 188.704  1.00  0.00     0.282 C 
ENDBRANCH   7   9
ENDBRANCH   1   7
BRANCH   6  11
ATOM     11  O   UNL     1     179.944 182.441 185.742  1.00  0.00    -0.507 OA
ATOM     12  H   UNL     1     180.428 183.252 185.381  1.00  0.00     0.293 HD
ENDBRANCH   6  11
TORSDOF 3
ENDMDL
MODEL 7
REMARK VINA RESULT:    -4.076      2.825      4.978
REMARK INTER + INTRA:          -4.967
REMARK INTER:                  -4.693
REMARK INTRA:                  -0.275
REMARK UNBOUND:                -0.296
REMARK SMILES COC(=O)c1ccccc1O
REMARK SMILES IDX 5 1 6 2 7 3 8 4 9 5 10 6 3 7 4 8 2 9 1 10 11 11
REMARK H PARENT 11 12
REMARK Flexibility Score: inf
ROOT
ATOM      1  C   UNL     1     180.969 178.475 183.017  1.00  0.00     0.101 A 
ATOM      2  C   UNL     1     181.216 178.058 184.337  1.00  0.00     0.019 A 
ATOM      3  C   UNL     1     180.551 178.655 185.410  1.00  0.00     0.001 A 
ATOM      4  C   UNL     1     179.632 179.678 185.180  1.00  0.00     0.004 A 
ATOM      5  C   UNL     1     179.389 180.120 183.879  1.00  0.00     0.047 A 
ATOM      6  C   UNL     1     180.063 179.544 182.793  1.00  0.00     0.130 A 
ENDROOT
BRANCH   1   7
ATOM      7  C   UNL     1     181.644 177.754 181.916  1.00  0.00     0.341 C 
ATOM      8  O   UNL     1     181.749 178.281 180.775  1.00  0.00    -0.246 OA
BRANCH   7   9
ATOM      9  O   UNL     1     182.115 176.454 182.132  1.00  0.00    -0.465 OA
ATOM     10  C   UNL     1     181.388 175.298 181.735  1.00  0.00     0.282 C 
ENDBRANCH   7   9
ENDBRANCH   1   7
BRANCH   6  11
ATOM     11  O   UNL     1     179.833 180.085 181.526  1.00  0.00    -0.507 OA
ATOM     12  H   UNL     1     180.035 181.045 181.284  1.00  0.00     0.293 HD
ENDBRANCH   6  11
TORSDOF 3
ENDMDL
MODEL 8
REMARK VINA RESULT:    -4.073      2.560      4.750
REMARK INTER + INTRA:          -4.965
REMARK INTER:                  -4.663
REMARK INTRA:                  -0.302
REMARK UNBOUND:                -0.296
REMARK SMILES COC(=O)c1ccccc1O
REMARK SMILES IDX 5 1 6 2 7 3 8 4 9 5 10 6 3 7 4 8 2 9 1 10 11 11
REMARK H PARENT 11 12
REMARK Flexibility Score: inf
ROOT
ATOM      1  C   UNL     1     180.147 179.503 183.342  1.00  0.00     0.101 A 
ATOM      2  C   UNL     1     180.462 179.623 181.977  1.00  0.00     0.019 A 
ATOM      3  C   UNL     1     180.124 180.778 181.266  1.00  0.00     0.001 A 
ATOM      4  C   UNL     1     179.465 181.825 181.908  1.00  0.00     0.004 A 
ATOM      5  C   UNL     1     179.126 181.714 183.258  1.00  0.00     0.047 A 
ATOM      6  C   UNL     1     179.440 180.555 183.980  1.00  0.00     0.130 A 
ENDROOT
BRANCH   1   7
ATOM      7  C   UNL     1     180.598 178.291 184.061  1.00  0.00     0.341 C 
ATOM      8  O   UNL     1     180.989 178.366 185.258  1.00  0.00    -0.246 OA
BRANCH   7   9
ATOM      9  O   UNL     1     180.645 177.067 183.384  1.00  0.00    -0.465 OA
ATOM     10  C   UNL     1     181.788 176.221 183.406  1.00  0.00     0.282 C 
ENDBRANCH   7   9
ENDBRANCH   1   7
BRANCH   6  11
ATOM     11  O   UNL     1     179.003 180.477 185.304  1.00  0.00    -0.507 OA
ATOM     12  H   UNL     1     179.628 180.435 186.097  1.00  0.00     0.293 HD
ENDBRANCH   6  11
TORSDOF 3
ENDMDL
MODEL 9
REMARK VINA RESULT:    -3.979      1.955      2.681
REMARK INTER + INTRA:          -4.856
REMARK INTER:                  -4.532
REMARK INTRA:                  -0.324
REMARK UNBOUND:                -0.296
REMARK SMILES COC(=O)c1ccccc1O
REMARK SMILES IDX 5 1 6 2 7 3 8 4 9 5 10 6 3 7 4 8 2 9 1 10 11 11
REMARK H PARENT 11 12
REMARK Flexibility Score: inf
ROOT
ATOM      1  C   UNL     1     180.304 179.194 183.421  1.00  0.00     0.101 A 
ATOM      2  C   UNL     1     180.410 178.168 184.376  1.00  0.00     0.019 A 
ATOM      3  C   UNL     1     181.138 177.008 184.100  1.00  0.00     0.001 A 
ATOM      4  C   UNL     1     181.768 176.857 182.865  1.00  0.00     0.004 A 
ATOM      5  C   UNL     1     181.656 177.856 181.897  1.00  0.00     0.047 A 
ATOM      6  C   UNL     1     180.913 179.017 182.152  1.00  0.00     0.130 A 
ENDROOT
BRANCH   1   7
ATOM      7  C   UNL     1     179.585 180.432 183.798  1.00  0.00     0.341 C 
ATOM      8  O   UNL     1     179.682 180.896 184.966  1.00  0.00    -0.246 OA
BRANCH   7   9
ATOM      9  O   UNL     1     178.748 181.052 182.864  1.00  0.00    -0.465 OA
ATOM     10  C   UNL     1     178.654 182.466 182.736  1.00  0.00     0.282 C 
ENDBRANCH   7   9
ENDBRANCH   1   7
BRANCH   6  11
ATOM     11  O   UNL     1     180.776 179.940 181.113  1.00  0.00    -0.507 OA
ATOM     12  H   UNL     1     179.912 180.419 180.901  1.00  0.00     0.293 HD
ENDBRANCH   6  11
TORSDOF 3
ENDMDL
