MODEL 1
REMARK VINA RESULT:    -5.185      0.000      0.000
REMARK INTER + INTRA:         -11.873
REMARK INTER:                 -10.034
REMARK INTRA:                  -1.839
REMARK UNBOUND:                -1.839
REMARK SMILES CCCCCCCCCCCCCCCCCC(=O)[O-]
REMARK SMILES IDX 10 1 11 2 12 3 13 4 14 5 15 6 16 7 17 8 18 9 19 10 20 11
REMARK SMILES IDX 9 12 8 13 7 14 6 15 5 16 4 17 3 18 2 19 1 20
REMARK H PARENT
REMARK Flexibility Score: inf
ROOT
ATOM      1  C   UNL     1      39.983  65.403   5.747  1.00  0.00     0.000 C 
ENDROOT
BRANCH   1   2
ATOM      2  C   UNL     1      40.853  64.227   5.288  1.00  0.00     0.000 C 
BRANCH   2   3
ATOM      3  C   UNL     1      42.320  64.443   5.680  1.00  0.00     0.000 C 
BRANCH   3   4
ATOM      4  C   UNL     1      42.509  65.793   6.388  1.00  0.00     0.000 C 
BRANCH   4   5
ATOM      5  C   UNL     1      43.706  66.587   5.839  1.00  0.00     0.000 C 
BRANCH   5   6
ATOM      6  C   UNL     1      44.318  65.942   4.583  1.00  0.00     0.000 C 
BRANCH   6   7
ATOM      7  C   UNL     1      44.794  66.979   3.555  1.00  0.00     0.006 C 
BRANCH   7   8
ATOM      8  C   UNL     1      44.379  68.411   3.924  1.00  0.00     0.053 C 
BRANCH   8   9
ATOM      9  C   UNL     1      44.279  69.258   2.694  1.00  0.00     0.041 C 
ATOM     10  O   UNL     1      43.807  68.777   1.630  1.00  0.00    -0.550 OA
ATOM     11  O   UNL     1      44.668  70.591   2.734  1.00  0.00    -0.550 OA
ENDBRANCH   8   9
ENDBRANCH   7   8
ENDBRANCH   6   7
ENDBRANCH   5   6
ENDBRANCH   4   5
ENDBRANCH   3   4
ENDBRANCH   2   3
ENDBRANCH   1   2
BRANCH   1  12
ATOM     12  C   UNL     1      38.812  64.918   6.615  1.00  0.00     0.000 C 
BRANCH  12  13
ATOM     13  C   UNL     1      39.066  65.123   8.116  1.00  0.00    -0.000 C 
BRANCH  13  14
ATOM     14  C   UNL     1      39.349  63.801   8.852  1.00  0.00    -0.000 C 
BRANCH  14  15
ATOM     15  C   UNL     1      40.830  63.397   8.793  1.00  0.00    -0.000 C 
BRANCH  15  16
ATOM     16  C   UNL     1      41.025  61.910   8.445  1.00  0.00    -0.000 C 
BRANCH  16  17
ATOM     17  C   UNL     1      39.748  61.280   7.849  1.00  0.00    -0.000 C 
BRANCH  17  18
ATOM     18  C   UNL     1      39.885  59.776   7.548  1.00  0.00    -0.000 C 
BRANCH  18  19
ATOM     19  C   UNL     1      40.766  59.041   8.566  1.00  0.00    -0.003 C 
ATOM     20  C   UNL     1      41.232  57.693   8.022  1.00  0.00     0.004 C 
ENDBRANCH  18  19
ENDBRANCH  17  18
ENDBRANCH  16  17
ENDBRANCH  15  16
ENDBRANCH  14  15
ENDBRANCH  13  14
ENDBRANCH  12  13
ENDBRANCH   1  12
TORSDOF 16
ENDMDL
MODEL 2
REMARK VINA RESULT:    -5.002      3.660      8.572
REMARK INTER + INTRA:         -11.519
REMARK INTER:                 -10.003
REMARK INTRA:                  -1.516
REMARK UNBOUND:                -1.839
REMARK SMILES CCCCCCCCCCCCCCCCCC(=O)[O-]
REMARK SMILES IDX 10 1 11 2 12 3 13 4 14 5 15 6 16 7 17 8 18 9 19 10 20 11
REMARK SMILES IDX 9 12 8 13 7 14 6 15 5 16 4 17 3 18 2 19 1 20
REMARK H PARENT
REMARK Flexibility Score: inf
ROOT
ATOM      1  C   UNL     1      42.352  64.438   5.644  1.00  0.00     0.000 C 
ENDROOT
BRANCH   1   2
ATOM      2  C   UNL     1      40.885  64.188   5.276  1.00  0.00     0.000 C 
BRANCH   2   3
ATOM      3  C   UNL     1      40.002  65.366   5.706  1.00  0.00     0.000 C 
BRANCH   3   4
ATOM      4  C   UNL     1      38.969  64.928   6.755  1.00  0.00     0.000 C 
BRANCH   4   5
ATOM      5  C   UNL     1      39.574  64.796   8.162  1.00  0.00     0.000 C 
BRANCH   5   6
ATOM      6  C   UNL     1      39.438  63.374   8.735  1.00  0.00     0.000 C 
BRANCH   6   7
ATOM      7  C   UNL     1      40.691  62.518   8.502  1.00  0.00     0.006 C 
BRANCH   7   8
ATOM      8  C   UNL     1      40.372  61.020   8.397  1.00  0.00     0.053 C 
BRANCH   8   9
ATOM      9  C   UNL     1      41.385  60.330   7.537  1.00  0.00     0.041 C 
ATOM     10  O   UNL     1      41.048  59.846   6.424  1.00  0.00    -0.550 OA
ATOM     11  O   UNL     1      42.711  60.259   7.945  1.00  0.00    -0.550 OA
ENDBRANCH   8   9
ENDBRANCH   7   8
ENDBRANCH   6   7
ENDBRANCH   5   6
ENDBRANCH   4   5
ENDBRANCH   3   4
ENDBRANCH   2   3
ENDBRANCH   1   2
BRANCH   1  12
ATOM     12  C   UNL     1      42.539  65.835   6.255  1.00  0.00     0.000 C 
BRANCH  12  13
ATOM     13  C   UNL     1      43.735  66.587   5.653  1.00  0.00    -0.000 C 
BRANCH  13  14
ATOM     14  C   UNL     1      44.610  65.687   4.762  1.00  0.00    -0.000 C 
BRANCH  14  15
ATOM     15  C   UNL     1      45.296  66.464   3.629  1.00  0.00    -0.000 C 
BRANCH  15  16
ATOM     16  C   UNL     1      45.785  67.854   4.076  1.00  0.00    -0.000 C 
BRANCH  16  17
ATOM     17  C   UNL     1      45.972  68.817   2.885  1.00  0.00    -0.000 C 
BRANCH  17  18
ATOM     18  C   UNL     1      45.274  70.176   3.076  1.00  0.00    -0.000 C 
BRANCH  18  19
ATOM     19  C   UNL     1      43.899  70.242   2.398  1.00  0.00    -0.003 C 
ATOM     20  C   UNL     1      43.743  69.138   1.355  1.00  0.00     0.004 C 
ENDBRANCH  18  19
ENDBRANCH  17  18
ENDBRANCH  16  17
ENDBRANCH  15  16
ENDBRANCH  14  15
ENDBRANCH  13  14
ENDBRANCH  12  13
ENDBRANCH   1  12
TORSDOF 16
ENDMDL
MODEL 3
REMARK VINA RESULT:    -4.978      3.842      8.482
REMARK INTER + INTRA:         -11.472
REMARK INTER:                  -9.854
REMARK INTRA:                  -1.619
REMARK UNBOUND:                -1.839
REMARK SMILES CCCCCCCCCCCCCCCCCC(=O)[O-]
REMARK SMILES IDX 10 1 11 2 12 3 13 4 14 5 15 6 16 7 17 8 18 9 19 10 20 11
REMARK SMILES IDX 9 12 8 13 7 14 6 15 5 16 4 17 3 18 2 19 1 20
REMARK H PARENT
REMARK Flexibility Score: inf
ROOT
ATOM      1  C   UNL     1      39.972  65.207   5.895  1.00  0.00     0.000 C 
ENDROOT
BRANCH   1   2
ATOM      2  C   UNL     1      39.008  64.499   6.853  1.00  0.00     0.000 C 
BRANCH   2   3
ATOM      3  C   UNL     1      39.396  64.758   8.314  1.00  0.00     0.000 C 
BRANCH   3   4
ATOM      4  C   UNL     1      40.409  63.716   8.810  1.00  0.00     0.000 C 
BRANCH   4   5
ATOM      5  C   UNL     1      40.050  62.286   8.373  1.00  0.00     0.000 C 
BRANCH   5   6
ATOM      6  C   UNL     1      41.292  61.408   8.139  1.00  0.00     0.000 C 
BRANCH   6   7
ATOM      7  C   UNL     1      40.937  59.939   7.871  1.00  0.00     0.006 C 
BRANCH   7   8
ATOM      8  C   UNL     1      39.434  59.658   8.009  1.00  0.00     0.053 C 
BRANCH   8   9
ATOM      9  C   UNL     1      38.868  59.193   6.702  1.00  0.00     0.041 C 
ATOM     10  O   UNL     1      38.400  58.029   6.593  1.00  0.00    -0.550 OA
ATOM     11  O   UNL     1      38.820  60.060   5.618  1.00  0.00    -0.550 OA
ENDBRANCH   8   9
ENDBRANCH   7   8
ENDBRANCH   6   7
ENDBRANCH   5   6
ENDBRANCH   4   5
ENDBRANCH   3   4
ENDBRANCH   2   3
ENDBRANCH   1   2
BRANCH   1  12
ATOM     12  C   UNL     1      40.970  64.215   5.279  1.00  0.00     0.000 C 
BRANCH  12  13
ATOM     13  C   UNL     1      42.421  64.506   5.691  1.00  0.00    -0.000 C 
BRANCH  13  14
ATOM     14  C   UNL     1      42.593  65.913   6.293  1.00  0.00    -0.000 C 
BRANCH  14  15
ATOM     15  C   UNL     1      43.862  66.618   5.793  1.00  0.00    -0.000 C 
BRANCH  15  16
ATOM     16  C   UNL     1      44.411  66.000   4.494  1.00  0.00    -0.000 C 
BRANCH  16  17
ATOM     17  C   UNL     1      45.201  67.022   3.651  1.00  0.00    -0.000 C 
BRANCH  17  18
ATOM     18  C   UNL     1      44.582  68.431   3.649  1.00  0.00    -0.000 C 
BRANCH  18  19
ATOM     19  C   UNL     1      44.877  69.212   2.363  1.00  0.00    -0.003 C 
ATOM     20  C   UNL     1      43.670  69.216   1.428  1.00  0.00     0.004 C 
ENDBRANCH  18  19
ENDBRANCH  17  18
ENDBRANCH  16  17
ENDBRANCH  15  16
ENDBRANCH  14  15
ENDBRANCH  13  14
ENDBRANCH  12  13
ENDBRANCH   1  12
TORSDOF 16
ENDMDL
MODEL 4
REMARK VINA RESULT:    -4.954      3.416      7.278
REMARK INTER + INTRA:         -11.427
REMARK INTER:                  -8.300
REMARK INTRA:                  -3.127
REMARK UNBOUND:                -1.839
REMARK SMILES CCCCCCCCCCCCCCCCCC(=O)[O-]
REMARK SMILES IDX 10 1 11 2 12 3 13 4 14 5 15 6 16 7 17 8 18 9 19 10 20 11
REMARK SMILES IDX 9 12 8 13 7 14 6 15 5 16 4 17 3 18 2 19 1 20
REMARK H PARENT
REMARK Flexibility Score: inf
ROOT
ATOM      1  C   UNL     1      41.695  56.578   7.192  1.00  0.00     0.000 C 
ENDROOT
BRANCH   1   2
ATOM      2  C   UNL     1      42.767  57.670   7.106  1.00  0.00     0.000 C 
BRANCH   2   3
ATOM      3  C   UNL     1      42.424  58.850   8.024  1.00  0.00     0.000 C 
BRANCH   3   4
ATOM      4  C   UNL     1      40.942  58.825   8.425  1.00  0.00     0.000 C 
BRANCH   4   5
ATOM      5  C   UNL     1      40.319  60.230   8.476  1.00  0.00     0.000 C 
BRANCH   5   6
ATOM      6  C   UNL     1      41.351  61.345   8.234  1.00  0.00     0.000 C 
BRANCH   6   7
ATOM      7  C   UNL     1      40.778  62.748   8.479  1.00  0.00     0.006 C 
BRANCH   7   8
ATOM      8  C   UNL     1      39.543  63.042   7.614  1.00  0.00     0.053 C 
BRANCH   8   9
ATOM      9  C   UNL     1      39.342  64.520   7.478  1.00  0.00     0.041 C 
ATOM     10  O   UNL     1      39.650  65.105   6.407  1.00  0.00    -0.550 OA
ATOM     11  O   UNL     1      38.774  65.243   8.520  1.00  0.00    -0.550 OA
ENDBRANCH   8   9
ENDBRANCH   7   8
ENDBRANCH   6   7
ENDBRANCH   5   6
ENDBRANCH   4   5
ENDBRANCH   3   4
ENDBRANCH   2   3
ENDBRANCH   1   2
BRANCH   1  12
ATOM     12  C   UNL     1      41.342  56.037   5.799  1.00  0.00     0.000 C 
BRANCH  12  13
ATOM     13  C   UNL     1      40.087  56.699   5.210  1.00  0.00    -0.000 C 
BRANCH  13  14
ATOM     14  C   UNL     1      40.412  57.973   4.410  1.00  0.00    -0.000 C 
BRANCH  14  15
ATOM     15  C   UNL     1      39.617  59.194   4.895  1.00  0.00    -0.000 C 
BRANCH  15  16
ATOM     16  C   UNL     1      40.394  60.512   4.724  1.00  0.00    -0.000 C 
BRANCH  16  17
ATOM     17  C   UNL     1      41.914  60.279   4.595  1.00  0.00    -0.000 C 
BRANCH  17  18
ATOM     18  C   UNL     1      42.748  61.568   4.715  1.00  0.00    -0.000 C 
BRANCH  18  19
ATOM     19  C   UNL     1      41.885  62.834   4.785  1.00  0.00    -0.003 C 
ATOM     20  C   UNL     1      42.722  64.054   5.162  1.00  0.00     0.004 C 
ENDBRANCH  18  19
ENDBRANCH  17  18
ENDBRANCH  16  17
ENDBRANCH  15  16
ENDBRANCH  14  15
ENDBRANCH  13  14
ENDBRANCH  12  13
ENDBRANCH   1  12
TORSDOF 16
ENDMDL
MODEL 5
REMARK VINA RESULT:    -4.895      3.816      6.024
REMARK INTER + INTRA:         -11.311
REMARK INTER:                  -8.467
REMARK INTRA:                  -2.844
REMARK UNBOUND:                -1.839
REMARK SMILES CCCCCCCCCCCCCCCCCC(=O)[O-]
REMARK SMILES IDX 10 1 11 2 12 3 13 4 14 5 15 6 16 7 17 8 18 9 19 10 20 11
REMARK SMILES IDX 9 12 8 13 7 14 6 15 5 16 4 17 3 18 2 19 1 20
REMARK H PARENT
REMARK Flexibility Score: inf
ROOT
ATOM      1  C   UNL     1      39.954  59.367   4.461  1.00  0.00     0.000 C 
ENDROOT
BRANCH   1   2
ATOM      2  C   UNL     1      41.088  60.367   4.714  1.00  0.00     0.000 C 
BRANCH   2   3
ATOM      3  C   UNL     1      40.691  61.386   5.789  1.00  0.00     0.000 C 
BRANCH   3   4
ATOM      4  C   UNL     1      41.785  61.515   6.859  1.00  0.00     0.000 C 
BRANCH   4   5
ATOM      5  C   UNL     1      41.220  61.495   8.289  1.00  0.00     0.000 C 
BRANCH   5   6
ATOM      6  C   UNL     1      39.800  62.083   8.372  1.00  0.00     0.000 C 
BRANCH   6   7
ATOM      7  C   UNL     1      39.780  63.506   8.948  1.00  0.00     0.006 C 
BRANCH   7   8
ATOM      8  C   UNL     1      39.294  64.549   7.931  1.00  0.00     0.053 C 
BRANCH   8   9
ATOM      9  C   UNL     1      40.406  64.932   7.004  1.00  0.00     0.041 C 
ATOM     10  O   UNL     1      41.570  65.107   7.451  1.00  0.00    -0.550 OA
ATOM     11  O   UNL     1      40.165  65.056   5.642  1.00  0.00    -0.550 OA
ENDBRANCH   8   9
ENDBRANCH   7   8
ENDBRANCH   6   7
ENDBRANCH   5   6
ENDBRANCH   4   5
ENDBRANCH   3   4
ENDBRANCH   2   3
ENDBRANCH   1   2
BRANCH   1  12
ATOM     12  C   UNL     1      38.871  59.471   5.546  1.00  0.00     0.000 C 
BRANCH  12  13
ATOM     13  C   UNL     1      38.810  58.223   6.440  1.00  0.00    -0.000 C 
BRANCH  13  14
ATOM     14  C   UNL     1      39.133  58.535   7.912  1.00  0.00    -0.000 C 
BRANCH  14  15
ATOM     15  C   UNL     1      40.403  57.824   8.402  1.00  0.00    -0.000 C 
BRANCH  15  16
ATOM     16  C   UNL     1      41.407  57.555   7.266  1.00  0.00    -0.000 C 
BRANCH  16  17
ATOM     17  C   UNL     1      42.030  56.147   7.361  1.00  0.00    -0.000 C 
BRANCH  17  18
ATOM     18  C   UNL     1      42.349  55.519   5.992  1.00  0.00    -0.000 C 
BRANCH  18  19
ATOM     19  C   UNL     1      41.307  55.864   4.920  1.00  0.00    -0.003 C 
ATOM     20  C   UNL     1      41.972  56.170   3.580  1.00  0.00     0.004 C 
ENDBRANCH  18  19
ENDBRANCH  17  18
ENDBRANCH  16  17
ENDBRANCH  15  16
ENDBRANCH  14  15
ENDBRANCH  13  14
ENDBRANCH  12  13
ENDBRANCH   1  12
TORSDOF 16
ENDMDL
MODEL 6
REMARK VINA RESULT:    -4.879      4.548      7.390
REMARK INTER + INTRA:         -11.281
REMARK INTER:                  -8.402
REMARK INTRA:                  -2.879
REMARK UNBOUND:                -1.839
REMARK SMILES CCCCCCCCCCCCCCCCCC(=O)[O-]
REMARK SMILES IDX 10 1 11 2 12 3 13 4 14 5 15 6 16 7 17 8 18 9 19 10 20 11
REMARK SMILES IDX 9 12 8 13 7 14 6 15 5 16 4 17 3 18 2 19 1 20
REMARK H PARENT
REMARK Flexibility Score: inf
ROOT
ATOM      1  C   UNL     1      40.893  63.696   8.761  1.00  0.00     0.000 C 
ENDROOT
BRANCH   1   2
ATOM      2  C   UNL     1      39.752  62.756   8.355  1.00  0.00     0.000 C 
BRANCH   2   3
ATOM      3  C   UNL     1      40.197  61.290   8.426  1.00  0.00     0.000 C 
BRANCH   3   4
ATOM      4  C   UNL     1      41.714  61.163   8.227  1.00  0.00     0.000 C 
BRANCH   4   5
ATOM      5  C   UNL     1      42.118  59.817   7.602  1.00  0.00     0.000 C 
BRANCH   5   6
ATOM      6  C   UNL     1      40.943  58.827   7.517  1.00  0.00     0.000 C 
BRANCH   6   7
ATOM      7  C   UNL     1      40.587  58.451   6.072  1.00  0.00     0.006 C 
BRANCH   7   8
ATOM      8  C   UNL     1      39.144  57.947   5.930  1.00  0.00     0.053 C 
BRANCH   8   9
ATOM      9  C   UNL     1      38.182  58.965   6.461  1.00  0.00     0.041 C 
ATOM     10  O   UNL     1      37.527  58.730   7.511  1.00  0.00    -0.550 OA
ATOM     11  O   UNL     1      38.040  60.189   5.819  1.00  0.00    -0.550 OA
ENDBRANCH   8   9
ENDBRANCH   7   8
ENDBRANCH   6   7
ENDBRANCH   5   6
ENDBRANCH   4   5
ENDBRANCH   3   4
ENDBRANCH   2   3
ENDBRANCH   1   2
BRANCH   1  12
ATOM     12  C   UNL     1      41.134  64.769   7.688  1.00  0.00     0.000 C 
BRANCH  12  13
ATOM     13  C   UNL     1      40.069  64.746   6.582  1.00  0.00    -0.000 C 
BRANCH  13  14
ATOM     14  C   UNL     1      40.656  64.382   5.206  1.00  0.00    -0.000 C 
BRANCH  14  15
ATOM     15  C   UNL     1      42.102  63.873   5.297  1.00  0.00    -0.000 C 
BRANCH  15  16
ATOM     16  C   UNL     1      42.246  62.413   4.831  1.00  0.00    -0.000 C 
BRANCH  16  17
ATOM     17  C   UNL     1      40.885  61.776   4.481  1.00  0.00    -0.000 C 
BRANCH  17  18
ATOM     18  C   UNL     1      40.922  60.894   3.219  1.00  0.00    -0.000 C 
BRANCH  18  19
ATOM     19  C   UNL     1      39.524  60.538   2.698  1.00  0.00    -0.003 C 
ATOM     20  C   UNL     1      39.474  59.101   2.185  1.00  0.00     0.004 C 
ENDBRANCH  18  19
ENDBRANCH  17  18
ENDBRANCH  16  17
ENDBRANCH  15  16
ENDBRANCH  14  15
ENDBRANCH  13  14
ENDBRANCH  12  13
ENDBRANCH   1  12
TORSDOF 16
ENDMDL
MODEL 7
REMARK VINA RESULT:    -4.863      3.823      5.619
REMARK INTER + INTRA:         -11.250
REMARK INTER:                  -8.642
REMARK INTRA:                  -2.608
REMARK UNBOUND:                -1.839
REMARK SMILES CCCCCCCCCCCCCCCCCC(=O)[O-]
REMARK SMILES IDX 10 1 11 2 12 3 13 4 14 5 15 6 16 7 17 8 18 9 19 10 20 11
REMARK SMILES IDX 9 12 8 13 7 14 6 15 5 16 4 17 3 18 2 19 1 20
REMARK H PARENT
REMARK Flexibility Score: inf
ROOT
ATOM      1  C   UNL     1      39.369  61.003   6.783  1.00  0.00     0.000 C 
ENDROOT
BRANCH   1   2
ATOM      2  C   UNL     1      40.097  60.808   8.118  1.00  0.00     0.000 C 
BRANCH   2   3
ATOM      3  C   UNL     1      41.259  61.798   8.259  1.00  0.00     0.000 C 
BRANCH   3   4
ATOM      4  C   UNL     1      41.527  62.528   6.935  1.00  0.00     0.000 C 
BRANCH   4   5
ATOM      5  C   UNL     1      41.402  64.055   7.066  1.00  0.00     0.000 C 
BRANCH   5   6
ATOM      6  C   UNL     1      40.457  64.477   8.205  1.00  0.00     0.000 C 
BRANCH   6   7
ATOM      7  C   UNL     1      39.032  64.770   7.716  1.00  0.00     0.006 C 
BRANCH   7   8
ATOM      8  C   UNL     1      38.994  65.249   6.257  1.00  0.00     0.053 C 
BRANCH   8   9
ATOM      9  C   UNL     1      37.890  66.242   6.063  1.00  0.00     0.041 C 
ATOM     10  O   UNL     1      37.042  66.434   6.974  1.00  0.00    -0.550 OA
ATOM     11  O   UNL     1      37.824  66.988   4.893  1.00  0.00    -0.550 OA
ENDBRANCH   8   9
ENDBRANCH   7   8
ENDBRANCH   6   7
ENDBRANCH   5   6
ENDBRANCH   4   5
ENDBRANCH   3   4
ENDBRANCH   2   3
ENDBRANCH   1   2
BRANCH   1  12
ATOM     12  C   UNL     1      38.557  59.754   6.407  1.00  0.00     0.000 C 
BRANCH  12  13
ATOM     13  C   UNL     1      39.226  58.928   5.298  1.00  0.00    -0.000 C 
BRANCH  13  14
ATOM     14  C   UNL     1      40.226  59.754   4.469  1.00  0.00    -0.000 C 
BRANCH  14  15
ATOM     15  C   UNL     1      41.597  59.073   4.348  1.00  0.00    -0.000 C 
BRANCH  15  16
ATOM     16  C   UNL     1      42.572  59.506   5.459  1.00  0.00    -0.000 C 
BRANCH  16  17
ATOM     17  C   UNL     1      43.082  58.308   6.286  1.00  0.00    -0.000 C 
BRANCH  17  18
ATOM     18  C   UNL     1      42.352  56.988   5.975  1.00  0.00    -0.000 C 
BRANCH  18  19
ATOM     19  C   UNL     1      41.803  56.298   7.230  1.00  0.00    -0.003 C 
ATOM     20  C   UNL     1      41.290  57.319   8.242  1.00  0.00     0.004 C 
ENDBRANCH  18  19
ENDBRANCH  17  18
ENDBRANCH  16  17
ENDBRANCH  15  16
ENDBRANCH  14  15
ENDBRANCH  13  14
ENDBRANCH  12  13
ENDBRANCH   1  12
TORSDOF 16
ENDMDL
MODEL 8
REMARK VINA RESULT:    -4.822      4.372      7.577
REMARK INTER + INTRA:         -11.172
REMARK INTER:                  -8.670
REMARK INTRA:                  -2.502
REMARK UNBOUND:                -1.839
REMARK SMILES CCCCCCCCCCCCCCCCCC(=O)[O-]
REMARK SMILES IDX 10 1 11 2 12 3 13 4 14 5 15 6 16 7 17 8 18 9 19 10 20 11
REMARK SMILES IDX 9 12 8 13 7 14 6 15 5 16 4 17 3 18 2 19 1 20
REMARK H PARENT
REMARK Flexibility Score: inf
ROOT
ATOM      1  C   UNL     1      41.193  62.147   8.368  1.00  0.00     0.000 C 
ENDROOT
BRANCH   1   2
ATOM      2  C   UNL     1      41.140  60.621   8.239  1.00  0.00     0.000 C 
BRANCH   2   3
ATOM      3  C   UNL     1      39.711  60.143   7.954  1.00  0.00     0.000 C 
BRANCH   3   4
ATOM      4  C   UNL     1      39.634  58.609   7.938  1.00  0.00     0.000 C 
BRANCH   4   5
ATOM      5  C   UNL     1      40.811  57.950   8.677  1.00  0.00     0.000 C 
BRANCH   5   6
ATOM      6  C   UNL     1      41.578  56.949   7.795  1.00  0.00     0.000 C 
BRANCH   6   7
ATOM      7  C   UNL     1      42.759  57.593   7.055  1.00  0.00     0.006 C 
BRANCH   7   8
ATOM      8  C   UNL     1      43.473  56.613   6.113  1.00  0.00     0.053 C 
BRANCH   8   9
ATOM      9  C   UNL     1      43.718  57.254   4.782  1.00  0.00     0.041 C 
ATOM     10  O   UNL     1      42.861  57.155   3.864  1.00  0.00    -0.550 OA
ATOM     11  O   UNL     1      44.873  57.996   4.569  1.00  0.00    -0.550 OA
ENDBRANCH   8   9
ENDBRANCH   7   8
ENDBRANCH   6   7
ENDBRANCH   5   6
ENDBRANCH   4   5
ENDBRANCH   3   4
ENDBRANCH   2   3
ENDBRANCH   1   2
BRANCH   1  12
ATOM     12  C   UNL     1      39.780  62.750   8.390  1.00  0.00     0.000 C 
BRANCH  12  13
ATOM     13  C   UNL     1      39.755  64.211   7.915  1.00  0.00    -0.000 C 
BRANCH  13  14
ATOM     14  C   UNL     1      41.165  64.771   7.656  1.00  0.00    -0.000 C 
BRANCH  14  15
ATOM     15  C   UNL     1      41.374  65.194   6.195  1.00  0.00    -0.000 C 
BRANCH  15  16
ATOM     16  C   UNL     1      42.670  64.621   5.592  1.00  0.00    -0.000 C 
BRANCH  16  17
ATOM     17  C   UNL     1      42.481  63.183   5.065  1.00  0.00    -0.000 C 
BRANCH  17  18
ATOM     18  C   UNL     1      41.041  62.875   4.615  1.00  0.00    -0.000 C 
BRANCH  18  19
ATOM     19  C   UNL     1      40.743  61.372   4.553  1.00  0.00    -0.003 C 
ATOM     20  C   UNL     1      42.015  60.548   4.730  1.00  0.00     0.004 C 
ENDBRANCH  18  19
ENDBRANCH  17  18
ENDBRANCH  16  17
ENDBRANCH  15  16
ENDBRANCH  14  15
ENDBRANCH  13  14
ENDBRANCH  12  13
ENDBRANCH   1  12
TORSDOF 16
ENDMDL
MODEL 9
REMARK VINA RESULT:    -4.786      5.131      7.718
REMARK INTER + INTRA:         -11.100
REMARK INTER:                  -8.426
REMARK INTRA:                  -2.675
REMARK UNBOUND:                -1.839
REMARK SMILES CCCCCCCCCCCCCCCCCC(=O)[O-]
REMARK SMILES IDX 10 1 11 2 12 3 13 4 14 5 15 6 16 7 17 8 18 9 19 10 20 11
REMARK SMILES IDX 9 12 8 13 7 14 6 15 5 16 4 17 3 18 2 19 1 20
REMARK H PARENT
REMARK Flexibility Score: inf
ROOT
ATOM      1  C   UNL     1      39.951  64.700   6.746  1.00  0.00     0.000 C 
ENDROOT
BRANCH   1   2
ATOM      2  C   UNL     1      39.379  63.552   7.587  1.00  0.00     0.000 C 
BRANCH   2   3
ATOM      3  C   UNL     1      40.385  63.098   8.651  1.00  0.00     0.000 C 
BRANCH   3   4
ATOM      4  C   UNL     1      40.931  61.698   8.333  1.00  0.00     0.000 C 
BRANCH   4   5
ATOM      5  C   UNL     1      39.869  60.776   7.709  1.00  0.00     0.000 C 
BRANCH   5   6
ATOM      6  C   UNL     1      40.069  59.299   8.091  1.00  0.00     0.000 C 
BRANCH   6   7
ATOM      7  C   UNL     1      41.449  58.762   7.681  1.00  0.00     0.006 C 
BRANCH   7   8
ATOM      8  C   UNL     1      41.428  58.056   6.318  1.00  0.00     0.053 C 
BRANCH   8   9
ATOM      9  C   UNL     1      41.498  56.571   6.499  1.00  0.00     0.041 C 
ATOM     10  O   UNL     1      41.922  56.084   7.580  1.00  0.00    -0.550 OA
ATOM     11  O   UNL     1      41.056  55.726   5.489  1.00  0.00    -0.550 OA
ENDBRANCH   8   9
ENDBRANCH   7   8
ENDBRANCH   6   7
ENDBRANCH   5   6
ENDBRANCH   4   5
ENDBRANCH   3   4
ENDBRANCH   2   3
ENDBRANCH   1   2
BRANCH   1  12
ATOM     12  C   UNL     1      41.356  65.091   7.226  1.00  0.00     0.000 C 
BRANCH  12  13
ATOM     13  C   UNL     1      42.390  65.089   6.089  1.00  0.00    -0.000 C 
BRANCH  13  14
ATOM     14  C   UNL     1      42.134  63.971   5.062  1.00  0.00    -0.000 C 
BRANCH  14  15
ATOM     15  C   UNL     1      42.909  62.685   5.385  1.00  0.00    -0.000 C 
BRANCH  15  16
ATOM     16  C   UNL     1      42.211  61.423   4.847  1.00  0.00    -0.000 C 
BRANCH  16  17
ATOM     17  C   UNL     1      40.833  61.739   4.228  1.00  0.00    -0.000 C 
BRANCH  17  18
ATOM     18  C   UNL     1      40.607  61.079   2.855  1.00  0.00    -0.000 C 
BRANCH  18  19
ATOM     19  C   UNL     1      39.302  60.275   2.786  1.00  0.00    -0.003 C 
ATOM     20  C   UNL     1      38.883  59.782   4.169  1.00  0.00     0.004 C 
ENDBRANCH  18  19
ENDBRANCH  17  18
ENDBRANCH  16  17
ENDBRANCH  15  16
ENDBRANCH  14  15
ENDBRANCH  13  14
ENDBRANCH  12  13
ENDBRANCH   1  12
TORSDOF 16
ENDMDL
