MODEL 1
REMARK VINA RESULT:    -2.509      0.000      0.000
REMARK INTER + INTRA:          -2.509
REMARK INTER:                  -2.509
REMARK INTRA:                   0.000
REMARK UNBOUND:                 0.000
REMARK SMILES CC(=O)[O-]
REMARK SMILES IDX 1 1 2 2 3 3 4 4
REMARK H PARENT
REMARK Flexibility Score: inf
ROOT
ATOM      1  C   UNL     1      -2.045  36.115  15.925  1.00  0.00     0.063 C 
ATOM      2  C   UNL     1      -3.073  37.152  16.223  1.00  0.00     0.038 C 
ATOM      3  O   UNL     1      -3.599  37.810  15.287  1.00  0.00    -0.550 OA
ATOM      4  O   UNL     1      -3.414  37.435  17.540  1.00  0.00    -0.550 OA
ENDROOT
TORSDOF 0
ENDMDL
MODEL 2
REMARK VINA RESULT:    -2.442      1.478      1.712
REMARK INTER + INTRA:          -2.442
REMARK INTER:                  -2.442
REMARK INTRA:                   0.000
REMARK UNBOUND:                 0.000
REMARK SMILES CC(=O)[O-]
REMARK SMILES IDX 1 1 2 2 3 3 4 4
REMARK H PARENT
REMARK Flexibility Score: inf
ROOT
ATOM      1  C   UNL     1      -3.562  37.211  14.834  1.00  0.00     0.063 C 
ATOM      2  C   UNL     1      -2.904  36.804  16.108  1.00  0.00     0.038 C 
ATOM      3  O   UNL     1      -2.034  35.894  16.109  1.00  0.00    -0.550 OA
ATOM      4  O   UNL     1      -3.290  37.388  17.308  1.00  0.00    -0.550 OA
ENDROOT
TORSDOF 0
ENDMDL
MODEL 3
REMARK VINA RESULT:    -2.347      1.907      2.171
REMARK INTER + INTRA:          -2.347
REMARK INTER:                  -2.347
REMARK INTRA:                   0.000
REMARK UNBOUND:                 0.000
REMARK SMILES CC(=O)[O-]
REMARK SMILES IDX 1 1 2 2 3 3 4 4
REMARK H PARENT
REMARK Flexibility Score: inf
ROOT
ATOM      1  C   UNL     1      -1.834  37.666  18.714  1.00  0.00     0.063 C 
ATOM      2  C   UNL     1      -3.149  37.395  18.067  1.00  0.00     0.038 C 
ATOM      3  O   UNL     1      -3.242  37.363  16.812  1.00  0.00    -0.550 OA
ATOM      4  O   UNL     1      -4.287  37.232  18.847  1.00  0.00    -0.550 OA
ENDROOT
TORSDOF 0
ENDMDL
MODEL 4
REMARK VINA RESULT:    -2.345      1.773      2.161
REMARK INTER + INTRA:          -2.345
REMARK INTER:                  -2.345
REMARK INTRA:                   0.000
REMARK UNBOUND:                 0.000
REMARK SMILES CC(=O)[O-]
REMARK SMILES IDX 1 1 2 2 3 3 4 4
REMARK H PARENT
REMARK Flexibility Score: inf
ROOT
ATOM      1  C   UNL     1      -2.381  36.717  16.640  1.00  0.00     0.063 C 
ATOM      2  C   UNL     1      -2.694  37.310  17.972  1.00  0.00     0.038 C 
ATOM      3  O   UNL     1      -3.886  37.362  18.376  1.00  0.00    -0.550 OA
ATOM      4  O   UNL     1      -1.679  37.856  18.747  1.00  0.00    -0.550 OA
ENDROOT
TORSDOF 0
ENDMDL
MODEL 5
REMARK VINA RESULT:    -2.293      2.123      2.512
REMARK INTER + INTRA:          -2.293
REMARK INTER:                  -2.293
REMARK INTRA:                   0.000
REMARK UNBOUND:                 0.000
REMARK SMILES CC(=O)[O-]
REMARK SMILES IDX 1 1 2 2 3 3 4 4
REMARK H PARENT
REMARK Flexibility Score: inf
ROOT
ATOM      1  C   UNL     1      -3.899  36.505  19.071  1.00  0.00     0.063 C 
ATOM      2  C   UNL     1      -2.975  37.337  18.250  1.00  0.00     0.038 C 
ATOM      3  O   UNL     1      -3.153  37.442  17.008  1.00  0.00    -0.550 OA
ATOM      4  O   UNL     1      -1.881  37.955  18.843  1.00  0.00    -0.550 OA
ENDROOT
TORSDOF 0
ENDMDL
MODEL 6
REMARK VINA RESULT:    -2.289      8.395      8.997
REMARK INTER + INTRA:          -2.289
REMARK INTER:                  -2.289
REMARK INTRA:                   0.000
REMARK UNBOUND:                 0.000
REMARK SMILES CC(=O)[O-]
REMARK SMILES IDX 1 1 2 2 3 3 4 4
REMARK H PARENT
REMARK Flexibility Score: inf
ROOT
ATOM      1  C   UNL     1      -6.023  36.100  24.712  1.00  0.00     0.063 C 
ATOM      2  C   UNL     1      -5.084  37.254  24.788  1.00  0.00     0.038 C 
ATOM      3  O   UNL     1      -4.379  37.430  25.817  1.00  0.00    -0.550 OA
ATOM      4  O   UNL     1      -5.024  38.173  23.748  1.00  0.00    -0.550 OA
ENDROOT
TORSDOF 0
ENDMDL
MODEL 7
REMARK VINA RESULT:    -2.280      8.614      8.959
REMARK INTER + INTRA:          -2.280
REMARK INTER:                  -2.280
REMARK INTRA:                   0.000
REMARK UNBOUND:                 0.000
REMARK SMILES CC(=O)[O-]
REMARK SMILES IDX 1 1 2 2 3 3 4 4
REMARK H PARENT
REMARK Flexibility Score: inf
ROOT
ATOM      1  C   UNL     1      -5.217  37.302  23.353  1.00  0.00     0.063 C 
ATOM      2  C   UNL     1      -5.277  36.893  24.785  1.00  0.00     0.038 C 
ATOM      3  O   UNL     1      -4.525  37.442  25.632  1.00  0.00    -0.550 OA
ATOM      4  O   UNL     1      -6.124  35.865  25.180  1.00  0.00    -0.550 OA
ENDROOT
TORSDOF 0
ENDMDL
MODEL 8
REMARK VINA RESULT:    -2.209      3.350      3.713
REMARK INTER + INTRA:          -2.209
REMARK INTER:                  -2.209
REMARK INTRA:                   0.000
REMARK UNBOUND:                 0.000
REMARK SMILES CC(=O)[O-]
REMARK SMILES IDX 1 1 2 2 3 3 4 4
REMARK H PARENT
REMARK Flexibility Score: inf
ROOT
ATOM      1  C   UNL     1      -3.469  37.254  18.169  1.00  0.00     0.063 C 
ATOM      2  C   UNL     1      -4.197  36.850  19.405  1.00  0.00     0.038 C 
ATOM      3  O   UNL     1      -3.873  35.797  20.014  1.00  0.00    -0.550 OA
ATOM      4  O   UNL     1      -5.272  37.605  19.858  1.00  0.00    -0.550 OA
ENDROOT
TORSDOF 0
ENDMDL
MODEL 9
REMARK VINA RESULT:    -2.184      3.275      3.712
REMARK INTER + INTRA:          -2.184
REMARK INTER:                  -2.184
REMARK INTRA:                   0.000
REMARK UNBOUND:                 0.000
REMARK SMILES CC(=O)[O-]
REMARK SMILES IDX 1 1 2 2 3 3 4 4
REMARK H PARENT
REMARK Flexibility Score: inf
ROOT
ATOM      1  C   UNL     1      -4.104  35.786  20.143  1.00  0.00     0.063 C 
ATOM      2  C   UNL     1      -4.420  37.084  19.482  1.00  0.00     0.038 C 
ATOM      3  O   UNL     1      -3.778  37.447  18.461  1.00  0.00    -0.550 OA
ATOM      4  O   UNL     1      -5.385  37.924  20.023  1.00  0.00    -0.550 OA
ENDROOT
TORSDOF 0
ENDMDL
