MODEL 1
REMARK VINA RESULT:    -4.481      0.000      0.000
REMARK INTER + INTRA:         -16.427
REMARK INTER:                 -11.684
REMARK INTRA:                  -4.743
REMARK UNBOUND:                -4.743
REMARK SMILES CCCCCCCCCCCCCCCCCCCCCCCCCCCCCO
REMARK SMILES IDX 16 1 15 2 14 3 13 4 12 5 11 6 10 7 9 8 8 9 7 10 6 11 5 12
REMARK SMILES IDX 4 13 3 14 2 15 1 16 17 17 18 18 19 19 20 20 21 21 22 22
REMARK SMILES IDX 23 23 24 24 25 25 26 26 27 27 28 28 29 29 30 30
REMARK H PARENT 30 31
REMARK Flexibility Score: inf
ROOT
ATOM      1  C   UNL     1     169.373 171.119 184.539  1.00  0.00     0.000 C 
ENDROOT
BRANCH   1   2
ATOM      2  C   UNL     1     170.511 170.080 184.578  1.00  0.00     0.000 C 
BRANCH   2   3
ATOM      3  C   UNL     1     171.687 170.358 183.624  1.00  0.00     0.000 C 
BRANCH   3   4
ATOM      4  C   UNL     1     171.563 171.681 182.840  1.00  0.00     0.000 C 
BRANCH   4   5
ATOM      5  C   UNL     1     172.607 172.731 183.263  1.00  0.00     0.000 C 
BRANCH   5   6
ATOM      6  C   UNL     1     172.196 173.518 184.521  1.00  0.00     0.000 C 
BRANCH   6   7
ATOM      7  C   UNL     1     173.128 173.336 185.732  1.00  0.00     0.000 C 
BRANCH   7   8
ATOM      8  C   UNL     1     172.580 172.340 186.768  1.00  0.00    -0.000 C 
BRANCH   8   9
ATOM      9  C   UNL     1     173.658 171.366 187.270  1.00  0.00    -0.000 C 
BRANCH   9  10
ATOM     10  C   UNL     1     174.493 170.776 186.119  1.00  0.00    -0.000 C 
BRANCH  10  11
ATOM     11  C   UNL     1     175.989 171.103 186.250  1.00  0.00    -0.000 C 
BRANCH  11  12
ATOM     12  C   UNL     1     176.470 172.082 185.164  1.00  0.00    -0.000 C 
BRANCH  12  13
ATOM     13  C   UNL     1     177.602 171.504 184.297  1.00  0.00    -0.000 C 
BRANCH  13  14
ATOM     14  C   UNL     1     177.376 170.057 183.817  1.00  0.00    -0.000 C 
BRANCH  14  15
ATOM     15  C   UNL     1     178.473 169.059 184.228  1.00  0.00    -0.003 C 
ATOM     16  C   UNL     1     178.119 168.270 185.489  1.00  0.00     0.004 C 
ENDBRANCH  14  15
ENDBRANCH  13  14
ENDBRANCH  12  13
ENDBRANCH  11  12
ENDBRANCH  10  11
ENDBRANCH   9  10
ENDBRANCH   8   9
ENDBRANCH   7   8
ENDBRANCH   6   7
ENDBRANCH   5   6
ENDBRANCH   4   5
ENDBRANCH   3   4
ENDBRANCH   2   3
ENDBRANCH   1   2
BRANCH   1  17
ATOM     17  C   UNL     1     169.189 171.933 185.835  1.00  0.00     0.000 C 
BRANCH  17  18
ATOM     18  C   UNL     1     168.526 173.298 185.593  1.00  0.00     0.000 C 
BRANCH  18  19
ATOM     19  C   UNL     1     167.002 173.157 185.478  1.00  0.00     0.000 C 
BRANCH  19  20
ATOM     20  C   UNL     1     166.257 174.370 186.063  1.00  0.00     0.000 C 
BRANCH  20  21
ATOM     21  C   UNL     1     166.691 175.694 185.410  1.00  0.00     0.000 C 
BRANCH  21  22
ATOM     22  C   UNL     1     165.547 176.357 184.625  1.00  0.00     0.000 C 
BRANCH  22  23
ATOM     23  C   UNL     1     165.468 175.845 183.175  1.00  0.00     0.000 C 
BRANCH  23  24
ATOM     24  C   UNL     1     166.859 175.663 182.533  1.00  0.00     0.000 C 
BRANCH  24  25
ATOM     25  C   UNL     1     167.092 174.264 181.930  1.00  0.00     0.000 C 
BRANCH  25  26
ATOM     26  C   UNL     1     168.546 173.765 181.989  1.00  0.00     0.000 C 
BRANCH  26  27
ATOM     27  C   UNL     1     169.547 174.886 182.313  1.00  0.00     0.002 C 
BRANCH  27  28
ATOM     28  C   UNL     1     170.193 175.431 181.033  1.00  0.00     0.028 C 
BRANCH  28  29
ATOM     29  C   UNL     1     171.378 176.350 181.339  1.00  0.00     0.156 C 
BRANCH  29  30
ATOM     30  O   UNL     1     171.142 177.628 180.818  1.00  0.00    -0.396 OA
ATOM     31  H   UNL     1     171.534 177.631 179.905  1.00  0.00     0.210 HD
ENDBRANCH  29  30
ENDBRANCH  28  29
ENDBRANCH  27  28
ENDBRANCH  26  27
ENDBRANCH  25  26
ENDBRANCH  24  25
ENDBRANCH  23  24
ENDBRANCH  22  23
ENDBRANCH  21  22
ENDBRANCH  20  21
ENDBRANCH  19  20
ENDBRANCH  18  19
ENDBRANCH  17  18
ENDBRANCH   1  17
TORSDOF 28
ENDMDL
MODEL 2
REMARK VINA RESULT:    -4.438      2.335      8.853
REMARK INTER + INTRA:         -16.315
REMARK INTER:                 -11.057
REMARK INTRA:                  -5.258
REMARK UNBOUND:                -4.743
REMARK SMILES CCCCCCCCCCCCCCCCCCCCCCCCCCCCCO
REMARK SMILES IDX 16 1 15 2 14 3 13 4 12 5 11 6 10 7 9 8 8 9 7 10 6 11 5 12
REMARK SMILES IDX 4 13 3 14 2 15 1 16 17 17 18 18 19 19 20 20 21 21 22 22
REMARK SMILES IDX 23 23 24 24 25 25 26 26 27 27 28 28 29 29 30 30
REMARK H PARENT 30 31
REMARK Flexibility Score: inf
ROOT
ATOM      1  C   UNL     1     173.483 170.288 182.952  1.00  0.00     0.000 C 
ENDROOT
BRANCH   1   2
ATOM      2  C   UNL     1     171.951 170.139 182.870  1.00  0.00     0.000 C 
BRANCH   2   3
ATOM      3  C   UNL     1     171.253 169.777 184.194  1.00  0.00     0.000 C 
BRANCH   3   4
ATOM      4  C   UNL     1     170.242 170.836 184.682  1.00  0.00     0.000 C 
BRANCH   4   5
ATOM      5  C   UNL     1     170.464 171.247 186.150  1.00  0.00     0.000 C 
BRANCH   5   6
ATOM      6  C   UNL     1     171.529 172.347 186.313  1.00  0.00     0.000 C 
BRANCH   6   7
ATOM      7  C   UNL     1     171.737 173.236 185.074  1.00  0.00     0.000 C 
BRANCH   7   8
ATOM      8  C   UNL     1     170.758 174.422 185.015  1.00  0.00    -0.000 C 
BRANCH   8   9
ATOM      9  C   UNL     1     170.045 174.522 183.657  1.00  0.00    -0.000 C 
BRANCH   9  10
ATOM     10  C   UNL     1     168.524 174.706 183.808  1.00  0.00    -0.000 C 
BRANCH  10  11
ATOM     11  C   UNL     1     167.994 174.156 185.141  1.00  0.00    -0.000 C 
BRANCH  11  12
ATOM     12  C   UNL     1     167.252 172.819 184.969  1.00  0.00    -0.000 C 
BRANCH  12  13
ATOM     13  C   UNL     1     166.838 172.548 183.513  1.00  0.00    -0.000 C 
BRANCH  13  14
ATOM     14  C   UNL     1     166.831 171.061 183.107  1.00  0.00    -0.000 C 
BRANCH  14  15
ATOM     15  C   UNL     1     167.815 170.691 181.983  1.00  0.00    -0.003 C 
ATOM     16  C   UNL     1     168.569 171.900 181.429  1.00  0.00     0.004 C 
ENDBRANCH  14  15
ENDBRANCH  13  14
ENDBRANCH  12  13
ENDBRANCH  11  12
ENDBRANCH  10  11
ENDBRANCH   9  10
ENDBRANCH   8   9
ENDBRANCH   7   8
ENDBRANCH   6   7
ENDBRANCH   5   6
ENDBRANCH   4   5
ENDBRANCH   3   4
ENDBRANCH   2   3
ENDBRANCH   1   2
BRANCH   1  17
ATOM     17  C   UNL     1     174.097 169.961 184.328  1.00  0.00     0.000 C 
BRANCH  17  18
ATOM     18  C   UNL     1     174.769 171.176 184.986  1.00  0.00     0.000 C 
BRANCH  18  19
ATOM     19  C   UNL     1     175.602 170.752 186.203  1.00  0.00     0.000 C 
BRANCH  19  20
ATOM     20  C   UNL     1     177.065 171.218 186.100  1.00  0.00     0.000 C 
BRANCH  20  21
ATOM     21  C   UNL     1     178.062 170.075 186.360  1.00  0.00     0.000 C 
BRANCH  21  22
ATOM     22  C   UNL     1     177.631 168.762 185.683  1.00  0.00     0.000 C 
BRANCH  22  23
ATOM     23  C   UNL     1     178.753 168.163 184.817  1.00  0.00     0.000 C 
BRANCH  23  24
ATOM     24  C   UNL     1     178.953 168.930 183.492  1.00  0.00     0.000 C 
BRANCH  24  25
ATOM     25  C   UNL     1     177.774 168.797 182.508  1.00  0.00     0.000 C 
BRANCH  25  26
ATOM     26  C   UNL     1     177.059 170.116 182.169  1.00  0.00     0.000 C 
BRANCH  26  27
ATOM     27  C   UNL     1     177.892 171.355 182.539  1.00  0.00     0.002 C 
BRANCH  27  28
ATOM     28  C   UNL     1     177.056 172.636 182.407  1.00  0.00     0.028 C 
BRANCH  28  29
ATOM     29  C   UNL     1     177.474 173.695 183.429  1.00  0.00     0.156 C 
BRANCH  29  30
ATOM     30  O   UNL     1     178.347 174.617 182.838  1.00  0.00    -0.396 OA
ATOM     31  H   UNL     1     178.121 175.502 183.228  1.00  0.00     0.210 HD
ENDBRANCH  29  30
ENDBRANCH  28  29
ENDBRANCH  27  28
ENDBRANCH  26  27
ENDBRANCH  25  26
ENDBRANCH  24  25
ENDBRANCH  23  24
ENDBRANCH  22  23
ENDBRANCH  21  22
ENDBRANCH  20  21
ENDBRANCH  19  20
ENDBRANCH  18  19
ENDBRANCH  17  18
ENDBRANCH   1  17
TORSDOF 28
ENDMDL
MODEL 3
REMARK VINA RESULT:    -4.407      3.110      8.193
REMARK INTER + INTRA:         -16.235
REMARK INTER:                 -11.281
REMARK INTRA:                  -4.954
REMARK UNBOUND:                -4.743
REMARK SMILES CCCCCCCCCCCCCCCCCCCCCCCCCCCCCO
REMARK SMILES IDX 16 1 15 2 14 3 13 4 12 5 11 6 10 7 9 8 8 9 7 10 6 11 5 12
REMARK SMILES IDX 4 13 3 14 2 15 1 16 17 17 18 18 19 19 20 20 21 21 22 22
REMARK SMILES IDX 23 23 24 24 25 25 26 26 27 27 28 28 29 29 30 30
REMARK H PARENT 30 31
REMARK Flexibility Score: inf
ROOT
ATOM      1  C   UNL     1     170.162 172.766 186.713  1.00  0.00     0.000 C 
ENDROOT
BRANCH   1   2
ATOM      2  C   UNL     1     170.498 173.109 188.177  1.00  0.00     0.000 C 
BRANCH   2   3
ATOM      3  C   UNL     1     171.212 171.996 188.967  1.00  0.00     0.000 C 
BRANCH   3   4
ATOM      4  C   UNL     1     172.737 172.194 189.094  1.00  0.00     0.000 C 
BRANCH   4   5
ATOM      5  C   UNL     1     173.546 171.049 188.455  1.00  0.00     0.000 C 
BRANCH   5   6
ATOM      6  C   UNL     1     174.196 171.445 187.116  1.00  0.00     0.000 C 
BRANCH   6   7
ATOM      7  C   UNL     1     173.775 172.822 186.574  1.00  0.00     0.000 C 
BRANCH   7   8
ATOM      8  C   UNL     1     174.723 173.354 185.484  1.00  0.00    -0.000 C 
BRANCH   8   9
ATOM      9  C   UNL     1     174.044 174.392 184.577  1.00  0.00    -0.000 C 
BRANCH   9  10
ATOM     10  C   UNL     1     172.508 174.291 184.619  1.00  0.00    -0.000 C 
BRANCH  10  11
ATOM     11  C   UNL     1     171.846 174.862 183.356  1.00  0.00    -0.000 C 
BRANCH  11  12
ATOM     12  C   UNL     1     171.400 173.758 182.380  1.00  0.00    -0.000 C 
BRANCH  12  13
ATOM     13  C   UNL     1     169.874 173.566 182.351  1.00  0.00    -0.000 C 
BRANCH  13  14
ATOM     14  C   UNL     1     169.055 174.855 182.561  1.00  0.00    -0.000 C 
BRANCH  14  15
ATOM     15  C   UNL     1     167.869 174.718 183.532  1.00  0.00    -0.003 C 
ATOM     16  C   UNL     1     167.410 173.271 183.712  1.00  0.00     0.004 C 
ENDBRANCH  14  15
ENDBRANCH  13  14
ENDBRANCH  12  13
ENDBRANCH  11  12
ENDBRANCH  10  11
ENDBRANCH   9  10
ENDBRANCH   8   9
ENDBRANCH   7   8
ENDBRANCH   6   7
ENDBRANCH   5   6
ENDBRANCH   4   5
ENDBRANCH   3   4
ENDBRANCH   2   3
ENDBRANCH   1   2
BRANCH   1  17
ATOM     17  C   UNL     1     170.434 171.304 186.308  1.00  0.00     0.000 C 
BRANCH  17  18
ATOM     18  C   UNL     1     169.619 170.863 185.082  1.00  0.00     0.000 C 
BRANCH  18  19
ATOM     19  C   UNL     1     170.542 170.427 183.935  1.00  0.00     0.000 C 
BRANCH  19  20
ATOM     20  C   UNL     1     171.908 169.934 184.441  1.00  0.00     0.000 C 
BRANCH  20  21
ATOM     21  C   UNL     1     173.081 170.657 183.755  1.00  0.00     0.000 C 
BRANCH  21  22
ATOM     22  C   UNL     1     173.631 169.864 182.556  1.00  0.00     0.000 C 
BRANCH  22  23
ATOM     23  C   UNL     1     175.153 169.656 182.650  1.00  0.00     0.000 C 
BRANCH  23  24
ATOM     24  C   UNL     1     175.932 170.987 182.711  1.00  0.00     0.000 C 
BRANCH  24  25
ATOM     25  C   UNL     1     176.962 171.057 183.856  1.00  0.00     0.000 C 
BRANCH  25  26
ATOM     26  C   UNL     1     176.676 170.123 185.044  1.00  0.00     0.000 C 
BRANCH  26  27
ATOM     27  C   UNL     1     177.959 169.616 185.723  1.00  0.00     0.002 C 
BRANCH  27  28
ATOM     28  C   UNL     1     178.234 168.152 185.353  1.00  0.00     0.028 C 
BRANCH  28  29
ATOM     29  C   UNL     1     179.249 168.034 184.215  1.00  0.00     0.156 C 
BRANCH  29  30
ATOM     30  O   UNL     1     180.273 167.148 184.573  1.00  0.00    -0.396 OA
ATOM     31  H   UNL     1     180.540 167.393 185.498  1.00  0.00     0.210 HD
ENDBRANCH  29  30
ENDBRANCH  28  29
ENDBRANCH  27  28
ENDBRANCH  26  27
ENDBRANCH  25  26
ENDBRANCH  24  25
ENDBRANCH  23  24
ENDBRANCH  22  23
ENDBRANCH  21  22
ENDBRANCH  20  21
ENDBRANCH  19  20
ENDBRANCH  18  19
ENDBRANCH  17  18
ENDBRANCH   1  17
TORSDOF 28
ENDMDL
MODEL 4
REMARK VINA RESULT:    -4.381      2.020      4.181
REMARK INTER + INTRA:         -16.166
REMARK INTER:                 -10.898
REMARK INTRA:                  -5.268
REMARK UNBOUND:                -4.743
REMARK SMILES CCCCCCCCCCCCCCCCCCCCCCCCCCCCCO
REMARK SMILES IDX 16 1 15 2 14 3 13 4 12 5 11 6 10 7 9 8 8 9 7 10 6 11 5 12
REMARK SMILES IDX 4 13 3 14 2 15 1 16 17 17 18 18 19 19 20 20 21 21 22 22
REMARK SMILES IDX 23 23 24 24 25 25 26 26 27 27 28 28 29 29 30 30
REMARK H PARENT 30 31
REMARK Flexibility Score: inf
ROOT
ATOM      1  C   UNL     1     172.178 173.519 184.047  1.00  0.00     0.000 C 
ENDROOT
BRANCH   1   2
ATOM      2  C   UNL     1     173.517 174.245 184.280  1.00  0.00     0.000 C 
BRANCH   2   3
ATOM      3  C   UNL     1     174.658 173.843 183.326  1.00  0.00     0.000 C 
BRANCH   3   4
ATOM      4  C   UNL     1     175.947 173.391 184.043  1.00  0.00     0.000 C 
BRANCH   4   5
ATOM      5  C   UNL     1     175.745 173.155 185.551  1.00  0.00     0.000 C 
BRANCH   5   6
ATOM      6  C   UNL     1     175.732 171.664 185.932  1.00  0.00     0.000 C 
BRANCH   6   7
ATOM      7  C   UNL     1     174.338 171.010 185.939  1.00  0.00     0.000 C 
BRANCH   7   8
ATOM      8  C   UNL     1     174.258 169.758 185.049  1.00  0.00    -0.000 C 
BRANCH   8   9
ATOM      9  C   UNL     1     173.233 169.914 183.914  1.00  0.00    -0.000 C 
BRANCH   9  10
ATOM     10  C   UNL     1     173.814 169.523 182.543  1.00  0.00    -0.000 C 
BRANCH  10  11
ATOM     11  C   UNL     1     175.022 170.387 182.148  1.00  0.00    -0.000 C 
BRANCH  11  12
ATOM     12  C   UNL     1     176.328 169.574 182.088  1.00  0.00    -0.000 C 
BRANCH  12  13
ATOM     13  C   UNL     1     177.391 170.076 183.079  1.00  0.00    -0.000 C 
BRANCH  13  14
ATOM     14  C   UNL     1     178.549 169.093 183.340  1.00  0.00    -0.000 C 
BRANCH  14  15
ATOM     15  C   UNL     1     178.327 168.127 184.518  1.00  0.00    -0.003 C 
ATOM     16  C   UNL     1     178.009 168.849 185.828  1.00  0.00     0.004 C 
ENDBRANCH  14  15
ENDBRANCH  13  14
ENDBRANCH  12  13
ENDBRANCH  11  12
ENDBRANCH  10  11
ENDBRANCH   9  10
ENDBRANCH   8   9
ENDBRANCH   7   8
ENDBRANCH   6   7
ENDBRANCH   5   6
ENDBRANCH   4   5
ENDBRANCH   3   4
ENDBRANCH   2   3
ENDBRANCH   1   2
BRANCH   1  17
ATOM     17  C   UNL     1     170.932 174.269 184.556  1.00  0.00     0.000 C 
BRANCH  17  18
ATOM     18  C   UNL     1     170.183 173.505 185.659  1.00  0.00     0.000 C 
BRANCH  18  19
ATOM     19  C   UNL     1     170.811 172.124 185.895  1.00  0.00     0.000 C 
BRANCH  19  20
ATOM     20  C   UNL     1     169.781 170.987 185.780  1.00  0.00     0.000 C 
BRANCH  20  21
ATOM     21  C   UNL     1     168.939 171.088 184.495  1.00  0.00     0.000 C 
BRANCH  21  22
ATOM     22  C   UNL     1     169.778 170.840 183.230  1.00  0.00     0.000 C 
BRANCH  22  23
ATOM     23  C   UNL     1     168.951 171.016 181.944  1.00  0.00     0.000 C 
BRANCH  23  24
ATOM     24  C   UNL     1     167.859 172.098 182.084  1.00  0.00     0.000 C 
BRANCH  24  25
ATOM     25  C   UNL     1     168.395 173.542 182.011  1.00  0.00     0.000 C 
BRANCH  25  26
ATOM     26  C   UNL     1     167.667 174.552 182.914  1.00  0.00     0.000 C 
BRANCH  26  27
ATOM     27  C   UNL     1     166.493 173.923 183.684  1.00  0.00     0.002 C 
BRANCH  27  28
ATOM     28  C   UNL     1     166.550 174.297 185.171  1.00  0.00     0.028 C 
BRANCH  28  29
ATOM     29  C   UNL     1     166.863 175.782 185.372  1.00  0.00     0.156 C 
BRANCH  29  30
ATOM     30  O   UNL     1     165.687 176.537 185.281  1.00  0.00    -0.396 OA
ATOM     31  H   UNL     1     165.003 176.049 185.811  1.00  0.00     0.210 HD
ENDBRANCH  29  30
ENDBRANCH  28  29
ENDBRANCH  27  28
ENDBRANCH  26  27
ENDBRANCH  25  26
ENDBRANCH  24  25
ENDBRANCH  23  24
ENDBRANCH  22  23
ENDBRANCH  21  22
ENDBRANCH  20  21
ENDBRANCH  19  20
ENDBRANCH  18  19
ENDBRANCH  17  18
ENDBRANCH   1  17
TORSDOF 28
ENDMDL
MODEL 5
REMARK VINA RESULT:    -4.374      2.817      8.417
REMARK INTER + INTRA:         -16.150
REMARK INTER:                 -10.281
REMARK INTRA:                  -5.869
REMARK UNBOUND:                -4.743
REMARK SMILES CCCCCCCCCCCCCCCCCCCCCCCCCCCCCO
REMARK SMILES IDX 16 1 15 2 14 3 13 4 12 5 11 6 10 7 9 8 8 9 7 10 6 11 5 12
REMARK SMILES IDX 4 13 3 14 2 15 1 16 17 17 18 18 19 19 20 20 21 21 22 22
REMARK SMILES IDX 23 23 24 24 25 25 26 26 27 27 28 28 29 29 30 30
REMARK H PARENT 30 31
REMARK Flexibility Score: inf
ROOT
ATOM      1  C   UNL     1     172.636 170.758 182.500  1.00  0.00     0.000 C 
ENDROOT
BRANCH   1   2
ATOM      2  C   UNL     1     173.019 172.210 182.156  1.00  0.00     0.000 C 
BRANCH   2   3
ATOM      3  C   UNL     1     171.872 173.233 182.253  1.00  0.00     0.000 C 
BRANCH   3   4
ATOM      4  C   UNL     1     171.975 174.182 183.465  1.00  0.00     0.000 C 
BRANCH   4   5
ATOM      5  C   UNL     1     170.601 174.602 184.019  1.00  0.00     0.000 C 
BRANCH   5   6
ATOM      6  C   UNL     1     170.264 173.933 185.365  1.00  0.00     0.000 C 
BRANCH   6   7
ATOM      7  C   UNL     1     169.720 172.497 185.256  1.00  0.00     0.000 C 
BRANCH   7   8
ATOM      8  C   UNL     1     168.199 172.413 185.467  1.00  0.00    -0.000 C 
BRANCH   8   9
ATOM      9  C   UNL     1     167.685 173.484 186.442  1.00  0.00    -0.000 C 
BRANCH   9  10
ATOM     10  C   UNL     1     166.556 174.335 185.834  1.00  0.00    -0.000 C 
BRANCH  10  11
ATOM     11  C   UNL     1     166.361 174.069 184.333  1.00  0.00    -0.000 C 
BRANCH  11  12
ATOM     12  C   UNL     1     166.938 175.197 183.459  1.00  0.00    -0.000 C 
BRANCH  12  13
ATOM     13  C   UNL     1     167.350 174.716 182.057  1.00  0.00    -0.000 C 
BRANCH  13  14
ATOM     14  C   UNL     1     167.209 173.199 181.826  1.00  0.00    -0.000 C 
BRANCH  14  15
ATOM     15  C   UNL     1     168.538 172.449 181.619  1.00  0.00    -0.003 C 
ATOM     16  C   UNL     1     168.480 170.994 182.085  1.00  0.00     0.004 C 
ENDBRANCH  14  15
ENDBRANCH  13  14
ENDBRANCH  12  13
ENDBRANCH  11  12
ENDBRANCH  10  11
ENDBRANCH   9  10
ENDBRANCH   8   9
ENDBRANCH   7   8
ENDBRANCH   6   7
ENDBRANCH   5   6
ENDBRANCH   4   5
ENDBRANCH   3   4
ENDBRANCH   2   3
ENDBRANCH   1   2
BRANCH   1  17
ATOM     17  C   UNL     1     172.448 170.471 184.002  1.00  0.00     0.000 C 
BRANCH  17  18
ATOM     18  C   UNL     1     173.682 169.819 184.645  1.00  0.00     0.000 C 
BRANCH  18  19
ATOM     19  C   UNL     1     174.157 170.623 185.864  1.00  0.00     0.000 C 
BRANCH  19  20
ATOM     20  C   UNL     1     173.341 171.910 186.068  1.00  0.00     0.000 C 
BRANCH  20  21
ATOM     21  C   UNL     1     174.228 173.167 186.094  1.00  0.00     0.000 C 
BRANCH  21  22
ATOM     22  C   UNL     1     175.572 172.945 185.378  1.00  0.00     0.000 C 
BRANCH  22  23
ATOM     23  C   UNL     1     175.718 173.836 184.132  1.00  0.00     0.000 C 
BRANCH  23  24
ATOM     24  C   UNL     1     176.845 173.362 183.191  1.00  0.00     0.000 C 
BRANCH  24  25
ATOM     25  C   UNL     1     176.599 171.972 182.571  1.00  0.00     0.000 C 
BRANCH  25  26
ATOM     26  C   UNL     1     177.693 170.929 182.859  1.00  0.00     0.000 C 
BRANCH  26  27
ATOM     27  C   UNL     1     177.201 169.786 183.762  1.00  0.00     0.002 C 
BRANCH  27  28
ATOM     28  C   UNL     1     177.787 169.911 185.175  1.00  0.00     0.028 C 
BRANCH  28  29
ATOM     29  C   UNL     1     178.028 168.542 185.815  1.00  0.00     0.156 C 
BRANCH  29  30
ATOM     30  O   UNL     1     178.618 167.675 184.887  1.00  0.00    -0.396 OA
ATOM     31  H   UNL     1     177.926 167.000 184.659  1.00  0.00     0.210 HD
ENDBRANCH  29  30
ENDBRANCH  28  29
ENDBRANCH  27  28
ENDBRANCH  26  27
ENDBRANCH  25  26
ENDBRANCH  24  25
ENDBRANCH  23  24
ENDBRANCH  22  23
ENDBRANCH  21  22
ENDBRANCH  20  21
ENDBRANCH  19  20
ENDBRANCH  18  19
ENDBRANCH  17  18
ENDBRANCH   1  17
TORSDOF 28
ENDMDL
MODEL 6
REMARK VINA RESULT:    -4.349      2.165      7.778
REMARK INTER + INTRA:         -16.084
REMARK INTER:                 -10.384
REMARK INTRA:                  -5.700
REMARK UNBOUND:                -4.743
REMARK SMILES CCCCCCCCCCCCCCCCCCCCCCCCCCCCCO
REMARK SMILES IDX 16 1 15 2 14 3 13 4 12 5 11 6 10 7 9 8 8 9 7 10 6 11 5 12
REMARK SMILES IDX 4 13 3 14 2 15 1 16 17 17 18 18 19 19 20 20 21 21 22 22
REMARK SMILES IDX 23 23 24 24 25 25 26 26 27 27 28 28 29 29 30 30
REMARK H PARENT 30 31
REMARK Flexibility Score: inf
ROOT
ATOM      1  C   UNL     1     172.064 174.602 184.070  1.00  0.00     0.000 C 
ENDROOT
BRANCH   1   2
ATOM      2  C   UNL     1     171.176 173.778 185.022  1.00  0.00     0.000 C 
BRANCH   2   3
ATOM      3  C   UNL     1     169.836 174.434 185.405  1.00  0.00     0.000 C 
BRANCH   3   4
ATOM      4  C   UNL     1     168.849 173.483 186.114  1.00  0.00     0.000 C 
BRANCH   4   5
ATOM      5  C   UNL     1     167.736 172.969 185.183  1.00  0.00     0.000 C 
BRANCH   5   6
ATOM      6  C   UNL     1     166.345 173.522 185.545  1.00  0.00     0.000 C 
BRANCH   6   7
ATOM      7  C   UNL     1     166.331 174.990 186.006  1.00  0.00     0.000 C 
BRANCH   7   8
ATOM      8  C   UNL     1     166.235 175.986 184.838  1.00  0.00    -0.000 C 
BRANCH   8   9
ATOM      9  C   UNL     1     165.582 175.365 183.593  1.00  0.00    -0.000 C 
BRANCH   9  10
ATOM     10  C   UNL     1     165.800 176.218 182.330  1.00  0.00    -0.000 C 
BRANCH  10  11
ATOM     11  C   UNL     1     165.031 175.676 181.114  1.00  0.00    -0.000 C 
BRANCH  11  12
ATOM     12  C   UNL     1     165.780 174.530 180.412  1.00  0.00    -0.000 C 
BRANCH  12  13
ATOM     13  C   UNL     1     164.977 173.219 180.385  1.00  0.00    -0.000 C 
BRANCH  13  14
ATOM     14  C   UNL     1     165.804 171.947 180.660  1.00  0.00    -0.000 C 
BRANCH  14  15
ATOM     15  C   UNL     1     166.088 171.667 182.146  1.00  0.00    -0.003 C 
ATOM     16  C   UNL     1     166.308 170.183 182.442  1.00  0.00     0.004 C 
ENDBRANCH  14  15
ENDBRANCH  13  14
ENDBRANCH  12  13
ENDBRANCH  11  12
ENDBRANCH  10  11
ENDBRANCH   9  10
ENDBRANCH   8   9
ENDBRANCH   7   8
ENDBRANCH   6   7
ENDBRANCH   5   6
ENDBRANCH   4   5
ENDBRANCH   3   4
ENDBRANCH   2   3
ENDBRANCH   1   2
BRANCH   1  17
ATOM     17  C   UNL     1     173.179 173.806 183.364  1.00  0.00     0.000 C 
BRANCH  17  18
ATOM     18  C   UNL     1     174.019 172.963 184.337  1.00  0.00     0.000 C 
BRANCH  18  19
ATOM     19  C   UNL     1     174.111 171.506 183.865  1.00  0.00     0.000 C 
BRANCH  19  20
ATOM     20  C   UNL     1     173.110 170.592 184.593  1.00  0.00     0.000 C 
BRANCH  20  21
ATOM     21  C   UNL     1     172.120 169.920 183.624  1.00  0.00     0.000 C 
BRANCH  21  22
ATOM     22  C   UNL     1     170.657 170.124 184.055  1.00  0.00     0.000 C 
BRANCH  22  23
ATOM     23  C   UNL     1     169.876 170.995 183.055  1.00  0.00     0.000 C 
BRANCH  23  24
ATOM     24  C   UNL     1     170.719 171.383 181.821  1.00  0.00     0.000 C 
BRANCH  24  25
ATOM     25  C   UNL     1     170.329 172.739 181.199  1.00  0.00     0.000 C 
BRANCH  25  26
ATOM     26  C   UNL     1     169.124 173.433 181.857  1.00  0.00     0.000 C 
BRANCH  26  27
ATOM     27  C   UNL     1     169.171 174.964 181.718  1.00  0.00     0.002 C 
BRANCH  27  28
ATOM     28  C   UNL     1     170.509 175.419 181.120  1.00  0.00     0.028 C 
BRANCH  28  29
ATOM     29  C   UNL     1     170.457 176.875 180.651  1.00  0.00     0.156 C 
BRANCH  29  30
ATOM     30  O   UNL     1     171.633 177.541 181.020  1.00  0.00    -0.396 OA
ATOM     31  H   UNL     1     171.859 178.142 180.262  1.00  0.00     0.210 HD
ENDBRANCH  29  30
ENDBRANCH  28  29
ENDBRANCH  27  28
ENDBRANCH  26  27
ENDBRANCH  25  26
ENDBRANCH  24  25
ENDBRANCH  23  24
ENDBRANCH  22  23
ENDBRANCH  21  22
ENDBRANCH  20  21
ENDBRANCH  19  20
ENDBRANCH  18  19
ENDBRANCH  17  18
ENDBRANCH   1  17
TORSDOF 28
ENDMDL
MODEL 7
REMARK VINA RESULT:    -4.332      1.654      4.400
REMARK INTER + INTRA:         -16.039
REMARK INTER:                 -10.322
REMARK INTRA:                  -5.717
REMARK UNBOUND:                -4.743
REMARK SMILES CCCCCCCCCCCCCCCCCCCCCCCCCCCCCO
REMARK SMILES IDX 16 1 15 2 14 3 13 4 12 5 11 6 10 7 9 8 8 9 7 10 6 11 5 12
REMARK SMILES IDX 4 13 3 14 2 15 1 16 17 17 18 18 19 19 20 20 21 21 22 22
REMARK SMILES IDX 23 23 24 24 25 25 26 26 27 27 28 28 29 29 30 30
REMARK H PARENT 30 31
REMARK Flexibility Score: inf
ROOT
ATOM      1  C   UNL     1     171.293 174.479 184.548  1.00  0.00     0.000 C 
ENDROOT
BRANCH   1   2
ATOM      2  C   UNL     1     172.587 173.665 184.356  1.00  0.00     0.000 C 
BRANCH   2   3
ATOM      3  C   UNL     1     172.997 173.417 182.892  1.00  0.00     0.000 C 
BRANCH   3   4
ATOM      4  C   UNL     1     174.523 173.378 182.663  1.00  0.00     0.000 C 
BRANCH   4   5
ATOM      5  C   UNL     1     175.329 173.483 183.971  1.00  0.00     0.000 C 
BRANCH   5   6
ATOM      6  C   UNL     1     176.011 172.161 184.367  1.00  0.00     0.000 C 
BRANCH   6   7
ATOM      7  C   UNL     1     175.627 171.624 185.757  1.00  0.00     0.000 C 
BRANCH   7   8
ATOM      8  C   UNL     1     174.386 170.715 185.728  1.00  0.00    -0.000 C 
BRANCH   8   9
ATOM      9  C   UNL     1     174.260 169.942 184.406  1.00  0.00    -0.000 C 
BRANCH   9  10
ATOM     10  C   UNL     1     172.804 169.859 183.913  1.00  0.00    -0.000 C 
BRANCH  10  11
ATOM     11  C   UNL     1     171.790 170.225 185.009  1.00  0.00    -0.000 C 
BRANCH  11  12
ATOM     12  C   UNL     1     170.357 170.348 184.462  1.00  0.00    -0.000 C 
BRANCH  12  13
ATOM     13  C   UNL     1     170.315 170.587 182.943  1.00  0.00    -0.000 C 
BRANCH  13  14
ATOM     14  C   UNL     1     169.358 171.707 182.489  1.00  0.00    -0.000 C 
BRANCH  14  15
ATOM     15  C   UNL     1     168.027 171.218 181.890  1.00  0.00    -0.003 C 
ATOM     16  C   UNL     1     166.978 170.891 182.954  1.00  0.00     0.004 C 
ENDBRANCH  14  15
ENDBRANCH  13  14
ENDBRANCH  12  13
ENDBRANCH  11  12
ENDBRANCH  10  11
ENDBRANCH   9  10
ENDBRANCH   8   9
ENDBRANCH   7   8
ENDBRANCH   6   7
ENDBRANCH   5   6
ENDBRANCH   4   5
ENDBRANCH   3   4
ENDBRANCH   2   3
ENDBRANCH   1   2
BRANCH   1  17
ATOM     17  C   UNL     1     170.247 173.832 185.477  1.00  0.00     0.000 C 
BRANCH  17  18
ATOM     18  C   UNL     1     168.839 174.418 185.293  1.00  0.00     0.000 C 
BRANCH  18  19
ATOM     19  C   UNL     1     167.762 173.401 185.694  1.00  0.00     0.000 C 
BRANCH  19  20
ATOM     20  C   UNL     1     166.361 174.032 185.767  1.00  0.00     0.000 C 
BRANCH  20  21
ATOM     21  C   UNL     1     166.399 175.561 185.590  1.00  0.00     0.000 C 
BRANCH  21  22
ATOM     22  C   UNL     1     165.405 176.046 184.520  1.00  0.00     0.000 C 
BRANCH  22  23
ATOM     23  C   UNL     1     166.085 176.266 183.157  1.00  0.00     0.000 C 
BRANCH  23  24
ATOM     24  C   UNL     1     166.030 175.013 182.257  1.00  0.00     0.000 C 
BRANCH  24  25
ATOM     25  C   UNL     1     167.297 174.799 181.405  1.00  0.00     0.000 C 
BRANCH  25  26
ATOM     26  C   UNL     1     168.593 175.358 182.017  1.00  0.00     0.000 C 
BRANCH  26  27
ATOM     27  C   UNL     1     169.823 175.116 181.126  1.00  0.00     0.002 C 
BRANCH  27  28
ATOM     28  C   UNL     1     170.831 176.265 181.259  1.00  0.00     0.028 C 
BRANCH  28  29
ATOM     29  C   UNL     1     170.824 177.173 180.028  1.00  0.00     0.156 C 
BRANCH  29  30
ATOM     30  O   UNL     1     169.898 176.702 179.088  1.00  0.00    -0.396 OA
ATOM     31  H   UNL     1     170.367 176.000 178.566  1.00  0.00     0.210 HD
ENDBRANCH  29  30
ENDBRANCH  28  29
ENDBRANCH  27  28
ENDBRANCH  26  27
ENDBRANCH  25  26
ENDBRANCH  24  25
ENDBRANCH  23  24
ENDBRANCH  22  23
ENDBRANCH  21  22
ENDBRANCH  20  21
ENDBRANCH  19  20
ENDBRANCH  18  19
ENDBRANCH  17  18
ENDBRANCH   1  17
TORSDOF 28
ENDMDL
MODEL 8
REMARK VINA RESULT:    -4.302      2.609      8.994
REMARK INTER + INTRA:         -15.962
REMARK INTER:                 -11.185
REMARK INTRA:                  -4.778
REMARK UNBOUND:                -4.743
REMARK SMILES CCCCCCCCCCCCCCCCCCCCCCCCCCCCCO
REMARK SMILES IDX 16 1 15 2 14 3 13 4 12 5 11 6 10 7 9 8 8 9 7 10 6 11 5 12
REMARK SMILES IDX 4 13 3 14 2 15 1 16 17 17 18 18 19 19 20 20 21 21 22 22
REMARK SMILES IDX 23 23 24 24 25 25 26 26 27 27 28 28 29 29 30 30
REMARK H PARENT 30 31
REMARK Flexibility Score: inf
ROOT
ATOM      1  C   UNL     1     170.618 172.475 186.053  1.00  0.00     0.000 C 
ENDROOT
BRANCH   1   2
ATOM      2  C   UNL     1     171.706 171.919 186.992  1.00  0.00     0.000 C 
BRANCH   2   3
ATOM      3  C   UNL     1     173.157 172.179 186.544  1.00  0.00     0.000 C 
BRANCH   3   4
ATOM      4  C   UNL     1     173.343 173.481 185.738  1.00  0.00     0.000 C 
BRANCH   4   5
ATOM      5  C   UNL     1     173.859 173.234 184.308  1.00  0.00     0.000 C 
BRANCH   5   6
ATOM      6  C   UNL     1     172.868 173.693 183.222  1.00  0.00     0.000 C 
BRANCH   6   7
ATOM      7  C   UNL     1     171.914 174.822 183.651  1.00  0.00     0.000 C 
BRANCH   7   8
ATOM      8  C   UNL     1     170.693 174.961 182.724  1.00  0.00    -0.000 C 
BRANCH   8   9
ATOM      9  C   UNL     1     170.197 173.602 182.205  1.00  0.00    -0.000 C 
BRANCH   9  10
ATOM     10  C   UNL     1     168.731 173.329 182.590  1.00  0.00    -0.000 C 
BRANCH  10  11
ATOM     11  C   UNL     1     168.193 174.343 183.612  1.00  0.00    -0.000 C 
BRANCH  11  12
ATOM     12  C   UNL     1     167.004 173.786 184.417  1.00  0.00    -0.000 C 
BRANCH  12  13
ATOM     13  C   UNL     1     166.716 174.594 185.693  1.00  0.00    -0.000 C 
BRANCH  13  14
ATOM     14  C   UNL     1     166.244 176.041 185.451  1.00  0.00    -0.000 C 
BRANCH  14  15
ATOM     15  C   UNL     1     165.252 176.213 184.286  1.00  0.00    -0.003 C 
ATOM     16  C   UNL     1     165.787 177.118 183.176  1.00  0.00     0.004 C 
ENDBRANCH  14  15
ENDBRANCH  13  14
ENDBRANCH  12  13
ENDBRANCH  11  12
ENDBRANCH  10  11
ENDBRANCH   9  10
ENDBRANCH   8   9
ENDBRANCH   7   8
ENDBRANCH   6   7
ENDBRANCH   5   6
ENDBRANCH   4   5
ENDBRANCH   3   4
ENDBRANCH   2   3
ENDBRANCH   1   2
BRANCH   1  17
ATOM     17  C   UNL     1     169.735 171.408 185.375  1.00  0.00     0.000 C 
BRANCH  17  18
ATOM     18  C   UNL     1     170.511 170.133 185.011  1.00  0.00     0.000 C 
BRANCH  18  19
ATOM     19  C   UNL     1     171.350 170.344 183.743  1.00  0.00     0.000 C 
BRANCH  19  20
ATOM     20  C   UNL     1     172.766 169.755 183.875  1.00  0.00     0.000 C 
BRANCH  20  21
ATOM     21  C   UNL     1     173.415 169.481 182.507  1.00  0.00     0.000 C 
BRANCH  21  22
ATOM     22  C   UNL     1     174.599 170.423 182.227  1.00  0.00     0.000 C 
BRANCH  22  23
ATOM     23  C   UNL     1     175.825 170.084 183.094  1.00  0.00     0.000 C 
BRANCH  23  24
ATOM     24  C   UNL     1     176.843 171.243 183.163  1.00  0.00     0.000 C 
BRANCH  24  25
ATOM     25  C   UNL     1     177.000 171.856 184.569  1.00  0.00     0.000 C 
BRANCH  25  26
ATOM     26  C   UNL     1     176.827 170.864 185.732  1.00  0.00     0.000 C 
BRANCH  26  27
ATOM     27  C   UNL     1     178.104 170.058 186.021  1.00  0.00     0.002 C 
BRANCH  27  28
ATOM     28  C   UNL     1     177.882 168.563 185.752  1.00  0.00     0.028 C 
BRANCH  28  29
ATOM     29  C   UNL     1     178.933 167.995 184.796  1.00  0.00     0.156 C 
BRANCH  29  30
ATOM     30  O   UNL     1     179.461 169.018 183.999  1.00  0.00    -0.396 OA
ATOM     31  H   UNL     1     180.349 168.697 183.691  1.00  0.00     0.210 HD
ENDBRANCH  29  30
ENDBRANCH  28  29
ENDBRANCH  27  28
ENDBRANCH  26  27
ENDBRANCH  25  26
ENDBRANCH  24  25
ENDBRANCH  23  24
ENDBRANCH  22  23
ENDBRANCH  21  22
ENDBRANCH  20  21
ENDBRANCH  19  20
ENDBRANCH  18  19
ENDBRANCH  17  18
ENDBRANCH   1  17
TORSDOF 28
ENDMDL
MODEL 9
REMARK VINA RESULT:    -4.263      1.864      4.392
REMARK INTER + INTRA:         -15.859
REMARK INTER:                 -10.430
REMARK INTRA:                  -5.430
REMARK UNBOUND:                -4.743
REMARK SMILES CCCCCCCCCCCCCCCCCCCCCCCCCCCCCO
REMARK SMILES IDX 16 1 15 2 14 3 13 4 12 5 11 6 10 7 9 8 8 9 7 10 6 11 5 12
REMARK SMILES IDX 4 13 3 14 2 15 1 16 17 17 18 18 19 19 20 20 21 21 22 22
REMARK SMILES IDX 23 23 24 24 25 25 26 26 27 27 28 28 29 29 30 30
REMARK H PARENT 30 31
REMARK Flexibility Score: inf
ROOT
ATOM      1  C   UNL     1     170.170 170.552 183.346  1.00  0.00     0.000 C 
ENDROOT
BRANCH   1   2
ATOM      2  C   UNL     1     171.633 170.611 183.827  1.00  0.00     0.000 C 
BRANCH   2   3
ATOM      3  C   UNL     1     172.692 170.644 182.709  1.00  0.00     0.000 C 
BRANCH   3   4
ATOM      4  C   UNL     1     174.016 169.942 183.075  1.00  0.00     0.000 C 
BRANCH   4   5
ATOM      5  C   UNL     1     174.265 169.883 184.594  1.00  0.00     0.000 C 
BRANCH   5   6
ATOM      6  C   UNL     1     175.748 169.686 184.955  1.00  0.00     0.000 C 
BRANCH   6   7
ATOM      7  C   UNL     1     176.529 170.986 185.220  1.00  0.00     0.000 C 
BRANCH   7   8
ATOM      8  C   UNL     1     177.231 171.532 183.964  1.00  0.00    -0.000 C 
BRANCH   8   9
ATOM      9  C   UNL     1     176.649 172.879 183.509  1.00  0.00    -0.000 C 
BRANCH   9  10
ATOM     10  C   UNL     1     175.776 173.536 184.593  1.00  0.00    -0.000 C 
BRANCH  10  11
ATOM     11  C   UNL     1     174.350 173.832 184.102  1.00  0.00    -0.000 C 
BRANCH  11  12
ATOM     12  C   UNL     1     173.282 173.449 185.142  1.00  0.00    -0.000 C 
BRANCH  12  13
ATOM     13  C   UNL     1     173.882 173.088 186.511  1.00  0.00    -0.000 C 
BRANCH  13  14
ATOM     14  C   UNL     1     173.099 172.021 187.301  1.00  0.00    -0.000 C 
BRANCH  14  15
ATOM     15  C   UNL     1     171.570 172.077 187.125  1.00  0.00    -0.003 C 
ATOM     16  C   UNL     1     170.861 172.766 188.291  1.00  0.00     0.004 C 
ENDBRANCH  14  15
ENDBRANCH  13  14
ENDBRANCH  12  13
ENDBRANCH  11  12
ENDBRANCH  10  11
ENDBRANCH   9  10
ENDBRANCH   8   9
ENDBRANCH   7   8
ENDBRANCH   6   7
ENDBRANCH   5   6
ENDBRANCH   4   5
ENDBRANCH   3   4
ENDBRANCH   2   3
ENDBRANCH   1   2
BRANCH   1  17
ATOM     17  C   UNL     1     169.113 170.794 184.442  1.00  0.00     0.000 C 
BRANCH  17  18
ATOM     18  C   UNL     1     167.784 171.326 183.883  1.00  0.00     0.000 C 
BRANCH  18  19
ATOM     19  C   UNL     1     167.253 172.485 184.737  1.00  0.00     0.000 C 
BRANCH  19  20
ATOM     20  C   UNL     1     168.361 173.156 185.565  1.00  0.00     0.000 C 
BRANCH  20  21
ATOM     21  C   UNL     1     168.720 174.557 185.037  1.00  0.00     0.000 C 
BRANCH  21  22
ATOM     22  C   UNL     1     170.129 174.601 184.419  1.00  0.00     0.000 C 
BRANCH  22  23
ATOM     23  C   UNL     1     170.141 174.080 182.971  1.00  0.00     0.000 C 
BRANCH  23  24
ATOM     24  C   UNL     1     170.736 175.101 181.978  1.00  0.00     0.000 C 
BRANCH  24  25
ATOM     25  C   UNL     1     169.684 175.999 181.297  1.00  0.00     0.000 C 
BRANCH  25  26
ATOM     26  C   UNL     1     168.296 175.357 181.125  1.00  0.00     0.000 C 
BRANCH  26  27
ATOM     27  C   UNL     1     167.171 176.196 181.755  1.00  0.00     0.002 C 
BRANCH  27  28
ATOM     28  C   UNL     1     166.252 175.320 182.617  1.00  0.00     0.028 C 
BRANCH  28  29
ATOM     29  C   UNL     1     165.119 176.133 183.247  1.00  0.00     0.156 C 
BRANCH  29  30
ATOM     30  O   UNL     1     165.645 177.221 183.955  1.00  0.00    -0.396 OA
ATOM     31  H   UNL     1     166.241 176.837 184.650  1.00  0.00     0.210 HD
ENDBRANCH  29  30
ENDBRANCH  28  29
ENDBRANCH  27  28
ENDBRANCH  26  27
ENDBRANCH  25  26
ENDBRANCH  24  25
ENDBRANCH  23  24
ENDBRANCH  22  23
ENDBRANCH  21  22
ENDBRANCH  20  21
ENDBRANCH  19  20
ENDBRANCH  18  19
ENDBRANCH  17  18
ENDBRANCH   1  17
TORSDOF 28
ENDMDL
