MODEL 1
REMARK VINA RESULT:    -4.331      0.000      0.000
REMARK INTER + INTRA:          -5.552
REMARK INTER:                  -5.344
REMARK INTRA:                  -0.209
REMARK UNBOUND:                -0.209
REMARK SMILES CCCCC=CC(C)=O
REMARK SMILES IDX 4 1 3 2 2 3 1 4 5 5 6 6 7 7 9 8 8 9
REMARK H PARENT
REMARK Flexibility Score: inf
ROOT
ATOM      1  C   UNL     1     -25.021  19.850 -34.418  1.00  0.00     0.027 C 
ENDROOT
BRANCH   1   2
ATOM      2  C   UNL     1     -23.683  20.213 -33.750  1.00  0.00     0.004 C 
BRANCH   2   3
ATOM      3  C   UNL     1     -23.830  20.976 -32.422  1.00  0.00    -0.003 C 
ATOM      4  C   UNL     1     -23.243  20.217 -31.233  1.00  0.00     0.004 C 
ENDBRANCH   2   3
ENDBRANCH   1   2
BRANCH   1   5
ATOM      5  C   UNL     1     -26.203  20.114 -33.527  1.00  0.00    -0.023 C 
ATOM      6  C   UNL     1     -27.377  20.519 -34.024  1.00  0.00     0.042 C 
BRANCH   6   7
ATOM      7  C   UNL     1     -28.548  20.778 -33.168  1.00  0.00     0.152 C 
ATOM      8  O   UNL     1     -28.764  21.928 -32.699  1.00  0.00    -0.295 OA
ATOM      9  C   UNL     1     -29.497  19.665 -32.857  1.00  0.00     0.093 C 
ENDBRANCH   6   7
ENDBRANCH   1   5
TORSDOF 4
ENDMDL
MODEL 2
REMARK VINA RESULT:    -4.100      2.372      5.098
REMARK INTER + INTRA:          -5.268
REMARK INTER:                  -5.123
REMARK INTRA:                  -0.144
REMARK UNBOUND:                -0.209
REMARK SMILES CCCCC=CC(C)=O
REMARK SMILES IDX 4 1 3 2 2 3 1 4 5 5 6 6 7 7 9 8 8 9
REMARK H PARENT
REMARK Flexibility Score: inf
ROOT
ATOM      1  C   UNL     1     -28.347  19.991 -33.500  1.00  0.00     0.027 C 
ENDROOT
BRANCH   1   2
ATOM      2  C   UNL     1     -28.555  18.661 -32.756  1.00  0.00     0.004 C 
BRANCH   2   3
ATOM      3  C   UNL     1     -29.823  17.896 -33.177  1.00  0.00    -0.003 C 
ATOM      4  C   UNL     1     -29.623  16.381 -33.197  1.00  0.00     0.004 C 
ENDBRANCH   2   3
ENDBRANCH   1   2
BRANCH   1   5
ATOM      5  C   UNL     1     -26.916  20.206 -33.911  1.00  0.00    -0.023 C 
ATOM      6  C   UNL     1     -25.900  19.800 -33.143  1.00  0.00     0.042 C 
BRANCH   6   7
ATOM      7  C   UNL     1     -24.491  19.996 -33.530  1.00  0.00     0.152 C 
ATOM      8  O   UNL     1     -24.021  19.438 -34.559  1.00  0.00    -0.295 OA
ATOM      9  C   UNL     1     -23.611  20.873 -32.699  1.00  0.00     0.093 C 
ENDBRANCH   6   7
ENDBRANCH   1   5
TORSDOF 4
ENDMDL
MODEL 3
REMARK VINA RESULT:    -4.085      2.285      5.076
REMARK INTER + INTRA:          -5.249
REMARK INTER:                  -5.104
REMARK INTRA:                  -0.145
REMARK UNBOUND:                -0.209
REMARK SMILES CCCCC=CC(C)=O
REMARK SMILES IDX 4 1 3 2 2 3 1 4 5 5 6 6 7 7 9 8 8 9
REMARK H PARENT
REMARK Flexibility Score: inf
ROOT
ATOM      1  C   UNL     1     -26.986  20.253 -34.216  1.00  0.00     0.027 C 
ENDROOT
BRANCH   1   2
ATOM      2  C   UNL     1     -28.436  20.537 -33.789  1.00  0.00     0.004 C 
BRANCH   2   3
ATOM      3  C   UNL     1     -29.103  19.384 -33.017  1.00  0.00    -0.003 C 
ATOM      4  C   UNL     1     -30.547  19.137 -33.449  1.00  0.00     0.004 C 
ENDBRANCH   2   3
ENDBRANCH   1   2
BRANCH   1   5
ATOM      5  C   UNL     1     -26.138  19.747 -33.082  1.00  0.00    -0.023 C 
ATOM      6  C   UNL     1     -24.804  19.845 -33.109  1.00  0.00     0.042 C 
BRANCH   6   7
ATOM      7  C   UNL     1     -23.956  19.360 -32.005  1.00  0.00     0.152 C 
ATOM      8  O   UNL     1     -23.823  18.125 -31.787  1.00  0.00    -0.295 OA
ATOM      9  C   UNL     1     -23.238  20.344 -31.137  1.00  0.00     0.093 C 
ENDBRANCH   6   7
ENDBRANCH   1   5
TORSDOF 4
ENDMDL
MODEL 4
REMARK VINA RESULT:    -4.010      7.366      8.909
REMARK INTER + INTRA:          -5.156
REMARK INTER:                  -4.874
REMARK INTRA:                  -0.282
REMARK UNBOUND:                -0.209
REMARK SMILES CCCCC=CC(C)=O
REMARK SMILES IDX 4 1 3 2 2 3 1 4 5 5 6 6 7 7 9 8 8 9
REMARK H PARENT
REMARK Flexibility Score: inf
ROOT
ATOM      1  C   UNL     1     -29.094  14.515 -31.061  1.00  0.00     0.027 C 
ENDROOT
BRANCH   1   2
ATOM      2  C   UNL     1     -30.234  13.777 -30.338  1.00  0.00     0.004 C 
BRANCH   2   3
ATOM      3  C   UNL     1     -29.852  12.379 -29.822  1.00  0.00    -0.003 C 
ATOM      4  C   UNL     1     -29.733  12.320 -28.299  1.00  0.00     0.004 C 
ENDBRANCH   2   3
ENDBRANCH   1   2
BRANCH   1   5
ATOM      5  C   UNL     1     -27.751  13.884 -30.818  1.00  0.00    -0.023 C 
ATOM      6  C   UNL     1     -26.834  14.469 -30.040  1.00  0.00     0.042 C 
BRANCH   6   7
ATOM      7  C   UNL     1     -25.514  13.864 -29.785  1.00  0.00     0.152 C 
ATOM      8  O   UNL     1     -24.454  14.485 -30.071  1.00  0.00    -0.295 OA
ATOM      9  C   UNL     1     -25.430  12.503 -29.174  1.00  0.00     0.093 C 
ENDBRANCH   6   7
ENDBRANCH   1   5
TORSDOF 4
ENDMDL
MODEL 5
REMARK VINA RESULT:    -3.956      1.407      1.678
REMARK INTER + INTRA:          -5.090
REMARK INTER:                  -4.963
REMARK INTRA:                  -0.127
REMARK UNBOUND:                -0.209
REMARK SMILES CCCCC=CC(C)=O
REMARK SMILES IDX 4 1 3 2 2 3 1 4 5 5 6 6 7 7 9 8 8 9
REMARK H PARENT
REMARK Flexibility Score: inf
ROOT
ATOM      1  C   UNL     1     -25.620  19.382 -32.655  1.00  0.00     0.027 C 
ENDROOT
BRANCH   1   2
ATOM      2  C   UNL     1     -24.566  20.181 -33.441  1.00  0.00     0.004 C 
BRANCH   2   3
ATOM      3  C   UNL     1     -23.582  20.966 -32.556  1.00  0.00    -0.003 C 
ATOM      4  C   UNL     1     -23.286  20.265 -31.231  1.00  0.00     0.004 C 
ENDBRANCH   2   3
ENDBRANCH   1   2
BRANCH   1   5
ATOM      5  C   UNL     1     -27.000  19.514 -33.238  1.00  0.00    -0.023 C 
ATOM      6  C   UNL     1     -28.035  18.823 -32.748  1.00  0.00     0.042 C 
BRANCH   6   7
ATOM      7  C   UNL     1     -29.396  18.942 -33.303  1.00  0.00     0.152 C 
ATOM      8  O   UNL     1     -29.740  19.967 -33.951  1.00  0.00    -0.295 OA
ATOM      9  C   UNL     1     -30.377  17.833 -33.100  1.00  0.00     0.093 C 
ENDBRANCH   6   7
ENDBRANCH   1   5
TORSDOF 4
ENDMDL
MODEL 6
REMARK VINA RESULT:    -3.941      8.680     10.323
REMARK INTER + INTRA:          -5.072
REMARK INTER:                  -4.776
REMARK INTRA:                  -0.295
REMARK UNBOUND:                -0.209
REMARK SMILES CCCCC=CC(C)=O
REMARK SMILES IDX 4 1 3 2 2 3 1 4 5 5 6 6 7 7 9 8 8 9
REMARK H PARENT
REMARK Flexibility Score: inf
ROOT
ATOM      1  C   UNL     1     -29.719  12.382 -28.279  1.00  0.00     0.027 C 
ENDROOT
BRANCH   1   2
ATOM      2  C   UNL     1     -30.085  12.037 -29.733  1.00  0.00     0.004 C 
BRANCH   2   3
ATOM      3  C   UNL     1     -30.776  13.181 -30.496  1.00  0.00    -0.003 C 
ATOM      4  C   UNL     1     -29.829  14.336 -30.819  1.00  0.00     0.004 C 
ENDBRANCH   2   3
ENDBRANCH   1   2
BRANCH   1   5
ATOM      5  C   UNL     1     -28.262  12.163 -27.981  1.00  0.00    -0.023 C 
ATOM      6  C   UNL     1     -27.340  12.186 -28.950  1.00  0.00     0.042 C 
BRANCH   6   7
ATOM      7  C   UNL     1     -25.906  11.979 -28.678  1.00  0.00     0.152 C 
ATOM      8  O   UNL     1     -25.027  12.565 -29.367  1.00  0.00    -0.295 OA
ATOM      9  C   UNL     1     -25.487  11.069 -27.569  1.00  0.00     0.093 C 
ENDBRANCH   6   7
ENDBRANCH   1   5
TORSDOF 4
ENDMDL
MODEL 7
REMARK VINA RESULT:    -3.822      2.284      2.905
REMARK INTER + INTRA:          -4.925
REMARK INTER:                  -4.671
REMARK INTRA:                  -0.253
REMARK UNBOUND:                -0.209
REMARK SMILES CCCCC=CC(C)=O
REMARK SMILES IDX 4 1 3 2 2 3 1 4 5 5 6 6 7 7 9 8 8 9
REMARK H PARENT
REMARK Flexibility Score: inf
ROOT
ATOM      1  C   UNL     1     -27.350  20.623 -33.455  1.00  0.00     0.027 C 
ENDROOT
BRANCH   1   2
ATOM      2  C   UNL     1     -26.109  20.022 -34.136  1.00  0.00     0.004 C 
BRANCH   2   3
ATOM      3  C   UNL     1     -24.820  20.123 -33.301  1.00  0.00    -0.003 C 
ATOM      4  C   UNL     1     -24.795  19.145 -32.128  1.00  0.00     0.004 C 
ENDBRANCH   2   3
ENDBRANCH   1   2
BRANCH   1   5
ATOM      5  C   UNL     1     -28.549  19.720 -33.534  1.00  0.00    -0.023 C 
ATOM      6  C   UNL     1     -28.525  18.481 -33.030  1.00  0.00     0.042 C 
BRANCH   6   7
ATOM      7  C   UNL     1     -29.691  17.581 -33.093  1.00  0.00     0.152 C 
ATOM      8  O   UNL     1     -30.862  18.046 -33.155  1.00  0.00    -0.295 OA
ATOM      9  C   UNL     1     -29.484  16.101 -33.091  1.00  0.00     0.093 C 
ENDBRANCH   6   7
ENDBRANCH   1   5
TORSDOF 4
ENDMDL
MODEL 8
REMARK VINA RESULT:    -3.791     12.196     13.935
REMARK INTER + INTRA:          -4.886
REMARK INTER:                  -4.602
REMARK INTRA:                  -0.284
REMARK UNBOUND:                -0.209
REMARK SMILES CCCCC=CC(C)=O
REMARK SMILES IDX 4 1 3 2 2 3 1 4 5 5 6 6 7 7 9 8 8 9
REMARK H PARENT
REMARK Flexibility Score: inf
ROOT
ATOM      1  C   UNL     1     -13.032  15.021 -29.389  1.00  0.00     0.027 C 
ENDROOT
BRANCH   1   2
ATOM      2  C   UNL     1     -11.805  14.440 -30.113  1.00  0.00     0.004 C 
BRANCH   2   3
ATOM      3  C   UNL     1     -10.960  15.487 -30.860  1.00  0.00    -0.003 C 
ATOM      4  C   UNL     1     -11.245  15.519 -32.361  1.00  0.00     0.004 C 
ENDBRANCH   2   3
ENDBRANCH   1   2
BRANCH   1   5
ATOM      5  C   UNL     1     -14.329  14.482 -29.925  1.00  0.00    -0.023 C 
ATOM      6  C   UNL     1     -14.740  14.757 -31.168  1.00  0.00     0.042 C 
BRANCH   6   7
ATOM      7  C   UNL     1     -16.006  14.234 -31.713  1.00  0.00     0.152 C 
ATOM      8  O   UNL     1     -16.749  14.959 -32.428  1.00  0.00    -0.295 OA
ATOM      9  C   UNL     1     -16.410  12.824 -31.421  1.00  0.00     0.093 C 
ENDBRANCH   6   7
ENDBRANCH   1   5
TORSDOF 4
ENDMDL
MODEL 9
REMARK VINA RESULT:    -3.782      3.767      6.043
REMARK INTER + INTRA:          -4.875
REMARK INTER:                  -4.727
REMARK INTRA:                  -0.148
REMARK UNBOUND:                -0.209
REMARK SMILES CCCCC=CC(C)=O
REMARK SMILES IDX 4 1 3 2 2 3 1 4 5 5 6 6 7 7 9 8 8 9
REMARK H PARENT
REMARK Flexibility Score: inf
ROOT
ATOM      1  C   UNL     1     -29.328  15.778 -32.486  1.00  0.00     0.027 C 
ENDROOT
BRANCH   1   2
ATOM      2  C   UNL     1     -30.718  15.310 -32.018  1.00  0.00     0.004 C 
BRANCH   2   3
ATOM      3  C   UNL     1     -30.684  14.273 -30.882  1.00  0.00    -0.003 C 
ATOM      4  C   UNL     1     -29.265  13.832 -30.523  1.00  0.00     0.004 C 
ENDBRANCH   2   3
ENDBRANCH   1   2
BRANCH   1   5
ATOM      5  C   UNL     1     -29.366  17.123 -33.157  1.00  0.00    -0.023 C 
ATOM      6  C   UNL     1     -28.540  18.110 -32.792  1.00  0.00     0.042 C 
BRANCH   6   7
ATOM      7  C   UNL     1     -28.558  19.433 -33.441  1.00  0.00     0.152 C 
ATOM      8  O   UNL     1     -29.644  19.953 -33.816  1.00  0.00    -0.295 OA
ATOM      9  C   UNL     1     -27.275  20.171 -33.651  1.00  0.00     0.093 C 
ENDBRANCH   6   7
ENDBRANCH   1   5
TORSDOF 4
ENDMDL
