MODEL 1
REMARK VINA RESULT:    -3.507      0.000      0.000
REMARK INTER + INTRA:          -7.912
REMARK INTER:                  -6.377
REMARK INTRA:                  -1.535
REMARK UNBOUND:                -1.535
REMARK SMILES CCCCCCCCCCCCCC[C@@H](C)C(=O)[O-]
REMARK SMILES IDX 9 1 10 2 11 3 12 4 13 5 14 6 15 7 16 8 17 9 18 10 19 11 8 12
REMARK SMILES IDX 7 13 6 14 5 15 4 16 3 17 2 18 1 19
REMARK H PARENT
REMARK Flexibility Score: inf
ROOT
ATOM      1  C   UNL     1       4.571  24.207   9.283  1.00  0.00     0.000 C 
ENDROOT
BRANCH   1   2
ATOM      2  C   UNL     1       3.708  24.703  10.456  1.00  0.00     0.000 C 
BRANCH   2   3
ATOM      3  C   UNL     1       3.989  23.949  11.765  1.00  0.00     0.000 C 
BRANCH   3   4
ATOM      4  C   UNL     1       4.263  24.897  12.944  1.00  0.00     0.000 C 
BRANCH   4   5
ATOM      5  C   UNL     1       3.334  26.124  12.940  1.00  0.00     0.001 C 
BRANCH   5   6
ATOM      6  C   UNL     1       2.381  26.153  14.151  1.00  0.00     0.009 C 
BRANCH   6   7
ATOM      7  C   UNL     1       1.500  24.891  14.292  1.00  0.00     0.032 C 
ATOM      8  C   UNL     1       0.967  24.769  15.723  1.00  0.00     0.014 C 
BRANCH   7   9
ATOM      9  C   UNL     1       0.351  24.910  13.321  1.00  0.00     0.044 C 
ATOM     10  O   UNL     1       0.514  24.508  12.139  1.00  0.00    -0.550 OA
ATOM     11  O   UNL     1      -0.898  25.375  13.720  1.00  0.00    -0.550 OA
ENDBRANCH   7   9
ENDBRANCH   6   7
ENDBRANCH   5   6
ENDBRANCH   4   5
ENDBRANCH   3   4
ENDBRANCH   2   3
ENDBRANCH   1   2
BRANCH   1  12
ATOM     12  C   UNL     1       5.251  25.346   8.493  1.00  0.00     0.000 C 
BRANCH  12  13
ATOM     13  C   UNL     1       4.992  25.239   6.980  1.00  0.00    -0.000 C 
BRANCH  13  14
ATOM     14  C   UNL     1       4.349  23.893   6.582  1.00  0.00    -0.000 C 
BRANCH  14  15
ATOM     15  C   UNL     1       3.179  24.033   5.589  1.00  0.00    -0.000 C 
BRANCH  15  16
ATOM     16  C   UNL     1       2.360  25.332   5.721  1.00  0.00    -0.000 C 
BRANCH  16  17
ATOM     17  C   UNL     1       0.989  25.169   6.402  1.00  0.00    -0.000 C 
BRANCH  17  18
ATOM     18  C   UNL     1       0.803  26.110   7.602  1.00  0.00    -0.003 C 
ATOM     19  C   UNL     1       0.424  25.330   8.858  1.00  0.00     0.004 C 
ENDBRANCH  17  18
ENDBRANCH  16  17
ENDBRANCH  15  16
ENDBRANCH  14  15
ENDBRANCH  13  14
ENDBRANCH  12  13
ENDBRANCH   1  12
TORSDOF 14
ENDMDL
MODEL 2
REMARK VINA RESULT:    -3.415      2.360      6.551
REMARK INTER + INTRA:          -7.745
REMARK INTER:                  -6.248
REMARK INTRA:                  -1.497
REMARK UNBOUND:                -1.535
REMARK SMILES CCCCCCCCCCCCCC[C@@H](C)C(=O)[O-]
REMARK SMILES IDX 9 1 10 2 11 3 12 4 13 5 14 6 15 7 16 8 17 9 18 10 19 11 8 12
REMARK SMILES IDX 7 13 6 14 5 15 4 16 3 17 2 18 1 19
REMARK H PARENT
REMARK Flexibility Score: inf
ROOT
ATOM      1  C   UNL     1       3.686  24.549  10.517  1.00  0.00     0.000 C 
ENDROOT
BRANCH   1   2
ATOM      2  C   UNL     1       4.339  24.028   9.225  1.00  0.00     0.000 C 
BRANCH   2   3
ATOM      3  C   UNL     1       5.165  25.102   8.498  1.00  0.00     0.000 C 
BRANCH   3   4
ATOM      4  C   UNL     1       4.836  25.184   6.999  1.00  0.00     0.000 C 
BRANCH   4   5
ATOM      5  C   UNL     1       3.503  24.497   6.651  1.00  0.00     0.001 C 
BRANCH   5   6
ATOM      6  C   UNL     1       2.422  25.493   6.189  1.00  0.00     0.009 C 
BRANCH   6   7
ATOM      7  C   UNL     1       1.056  25.312   6.890  1.00  0.00     0.032 C 
ATOM      8  C   UNL     1       1.098  25.902   8.303  1.00  0.00     0.014 C 
BRANCH   7   9
ATOM      9  C   UNL     1      -0.055  25.954   6.104  1.00  0.00     0.044 C 
ATOM     10  O   UNL     1      -0.401  25.476   4.992  1.00  0.00    -0.550 OA
ATOM     11  O   UNL     1      -0.704  27.080   6.597  1.00  0.00    -0.550 OA
ENDBRANCH   7   9
ENDBRANCH   6   7
ENDBRANCH   5   6
ENDBRANCH   4   5
ENDBRANCH   3   4
ENDBRANCH   2   3
ENDBRANCH   1   2
BRANCH   1  12
ATOM     12  C   UNL     1       4.480  24.198  11.794  1.00  0.00     0.000 C 
BRANCH  12  13
ATOM     13  C   UNL     1       4.113  25.112  12.976  1.00  0.00    -0.000 C 
BRANCH  13  14
ATOM     14  C   UNL     1       3.183  24.418  13.995  1.00  0.00    -0.000 C 
BRANCH  14  15
ATOM     15  C   UNL     1       2.212  25.380  14.706  1.00  0.00    -0.000 C 
BRANCH  15  16
ATOM     16  C   UNL     1       0.835  24.783  15.054  1.00  0.00    -0.000 C 
BRANCH  16  17
ATOM     17  C   UNL     1      -0.268  25.046  14.012  1.00  0.00    -0.000 C 
BRANCH  17  18
ATOM     18  C   UNL     1      -0.355  23.947  12.943  1.00  0.00    -0.003 C 
ATOM     19  C   UNL     1       0.158  24.448  11.597  1.00  0.00     0.004 C 
ENDBRANCH  17  18
ENDBRANCH  16  17
ENDBRANCH  15  16
ENDBRANCH  14  15
ENDBRANCH  13  14
ENDBRANCH  12  13
ENDBRANCH   1  12
TORSDOF 14
ENDMDL
MODEL 3
REMARK VINA RESULT:    -3.331      1.671      2.530
REMARK INTER + INTRA:          -7.593
REMARK INTER:                  -5.928
REMARK INTRA:                  -1.664
REMARK UNBOUND:                -1.535
REMARK SMILES CCCCCCCCCCCCCC[C@@H](C)C(=O)[O-]
REMARK SMILES IDX 9 1 10 2 11 3 12 4 13 5 14 6 15 7 16 8 17 9 18 10 19 11 8 12
REMARK SMILES IDX 7 13 6 14 5 15 4 16 3 17 2 18 1 19
REMARK H PARENT
REMARK Flexibility Score: inf
ROOT
ATOM      1  C   UNL     1       5.261  25.296   8.493  1.00  0.00     0.000 C 
ENDROOT
BRANCH   1   2
ATOM      2  C   UNL     1       4.574  24.139   9.239  1.00  0.00     0.000 C 
BRANCH   2   3
ATOM      3  C   UNL     1       3.825  24.603  10.498  1.00  0.00     0.000 C 
BRANCH   3   4
ATOM      4  C   UNL     1       2.550  25.395  10.167  1.00  0.00     0.000 C 
BRANCH   4   5
ATOM      5  C   UNL     1       1.278  24.716  10.706  1.00  0.00     0.001 C 
BRANCH   5   6
ATOM      6  C   UNL     1       1.439  24.213  12.154  1.00  0.00     0.009 C 
BRANCH   6   7
ATOM      7  C   UNL     1       0.969  25.220  13.228  1.00  0.00     0.032 C 
ATOM      8  C   UNL     1      -0.073  24.574  14.146  1.00  0.00     0.014 C 
BRANCH   7   9
ATOM      9  C   UNL     1       2.124  25.727  14.049  1.00  0.00     0.044 C 
ATOM     10  O   UNL     1       2.202  25.445  15.273  1.00  0.00    -0.550 OA
ATOM     11  O   UNL     1       3.110  26.514  13.464  1.00  0.00    -0.550 OA
ENDBRANCH   7   9
ENDBRANCH   6   7
ENDBRANCH   5   6
ENDBRANCH   4   5
ENDBRANCH   3   4
ENDBRANCH   2   3
ENDBRANCH   1   2
BRANCH   1  12
ATOM     12  C   UNL     1       4.900  25.364   6.994  1.00  0.00     0.000 C 
BRANCH  12  13
ATOM     13  C   UNL     1       4.414  24.009   6.450  1.00  0.00    -0.000 C 
BRANCH  13  14
ATOM     14  C   UNL     1       3.036  24.106   5.760  1.00  0.00    -0.000 C 
BRANCH  14  15
ATOM     15  C   UNL     1       1.871  24.371   6.733  1.00  0.00    -0.000 C 
BRANCH  15  16
ATOM     16  C   UNL     1       1.281  25.794   6.675  1.00  0.00    -0.000 C 
BRANCH  16  17
ATOM     17  C   UNL     1      -0.257  25.859   6.676  1.00  0.00    -0.000 C 
BRANCH  17  18
ATOM     18  C   UNL     1      -0.847  26.059   5.272  1.00  0.00    -0.003 C 
ATOM     19  C   UNL     1      -1.010  24.725   4.549  1.00  0.00     0.004 C 
ENDBRANCH  17  18
ENDBRANCH  16  17
ENDBRANCH  15  16
ENDBRANCH  14  15
ENDBRANCH  13  14
ENDBRANCH  12  13
ENDBRANCH   1  12
TORSDOF 14
ENDMDL
MODEL 4
REMARK VINA RESULT:    -3.164      2.883      6.760
REMARK INTER + INTRA:          -7.289
REMARK INTER:                  -5.371
REMARK INTRA:                  -1.917
REMARK UNBOUND:                -1.535
REMARK SMILES CCCCCCCCCCCCCC[C@@H](C)C(=O)[O-]
REMARK SMILES IDX 9 1 10 2 11 3 12 4 13 5 14 6 15 7 16 8 17 9 18 10 19 11 8 12
REMARK SMILES IDX 7 13 6 14 5 15 4 16 3 17 2 18 1 19
REMARK H PARENT
REMARK Flexibility Score: inf
ROOT
ATOM      1  C   UNL     1       3.812  24.512  10.235  1.00  0.00     0.000 C 
ENDROOT
BRANCH   1   2
ATOM      2  C   UNL     1       4.824  24.877   9.135  1.00  0.00     0.000 C 
BRANCH   2   3
ATOM      3  C   UNL     1       4.549  24.153   7.807  1.00  0.00     0.000 C 
BRANCH   3   4
ATOM      4  C   UNL     1       4.240  25.126   6.658  1.00  0.00     0.000 C 
BRANCH   4   5
ATOM      5  C   UNL     1       3.106  24.622   5.749  1.00  0.00     0.001 C 
BRANCH   5   6
ATOM      6  C   UNL     1       1.946  23.987   6.539  1.00  0.00     0.009 C 
BRANCH   6   7
ATOM      7  C   UNL     1       0.635  24.806   6.505  1.00  0.00     0.032 C 
ATOM      8  C   UNL     1       0.878  26.224   7.032  1.00  0.00     0.014 C 
BRANCH   7   9
ATOM      9  C   UNL     1       0.064  24.872   5.115  1.00  0.00     0.044 C 
ATOM     10  O   UNL     1      -0.691  25.824   4.785  1.00  0.00    -0.550 OA
ATOM     11  O   UNL     1       0.361  23.881   4.185  1.00  0.00    -0.550 OA
ENDBRANCH   7   9
ENDBRANCH   6   7
ENDBRANCH   5   6
ENDBRANCH   4   5
ENDBRANCH   3   4
ENDBRANCH   2   3
ENDBRANCH   1   2
BRANCH   1  12
ATOM     12  C   UNL     1       2.448  25.217  10.077  1.00  0.00     0.000 C 
BRANCH  12  13
ATOM     13  C   UNL     1       1.267  24.244  10.238  1.00  0.00    -0.000 C 
BRANCH  13  14
ATOM     14  C   UNL     1      -0.019  24.947  10.722  1.00  0.00    -0.000 C 
BRANCH  14  15
ATOM     15  C   UNL     1      -0.509  24.466  12.101  1.00  0.00    -0.000 C 
BRANCH  15  16
ATOM     16  C   UNL     1       0.081  25.225  13.306  1.00  0.00    -0.000 C 
BRANCH  16  17
ATOM     17  C   UNL     1       1.275  24.532  13.988  1.00  0.00    -0.000 C 
BRANCH  17  18
ATOM     18  C   UNL     1       2.241  25.523  14.652  1.00  0.00    -0.003 C 
ATOM     19  C   UNL     1       3.100  26.234  13.611  1.00  0.00     0.004 C 
ENDBRANCH  17  18
ENDBRANCH  16  17
ENDBRANCH  15  16
ENDBRANCH  14  15
ENDBRANCH  13  14
ENDBRANCH  12  13
ENDBRANCH   1  12
TORSDOF 14
ENDMDL
MODEL 5
REMARK VINA RESULT:    -3.142      1.124      1.885
REMARK INTER + INTRA:          -7.249
REMARK INTER:                  -5.903
REMARK INTRA:                  -1.345
REMARK UNBOUND:                -1.535
REMARK SMILES CCCCCCCCCCCCCC[C@@H](C)C(=O)[O-]
REMARK SMILES IDX 9 1 10 2 11 3 12 4 13 5 14 6 15 7 16 8 17 9 18 10 19 11 8 12
REMARK SMILES IDX 7 13 6 14 5 15 4 16 3 17 2 18 1 19
REMARK H PARENT
REMARK Flexibility Score: inf
ROOT
ATOM      1  C   UNL     1       5.292  25.354   8.344  1.00  0.00     0.000 C 
ENDROOT
BRANCH   1   2
ATOM      2  C   UNL     1       4.593  24.241   9.143  1.00  0.00     0.000 C 
BRANCH   2   3
ATOM      3  C   UNL     1       3.117  24.555   9.438  1.00  0.00     0.000 C 
BRANCH   3   4
ATOM      4  C   UNL     1       2.636  23.937  10.760  1.00  0.00     0.000 C 
BRANCH   4   5
ATOM      5  C   UNL     1       2.619  24.955  11.914  1.00  0.00     0.001 C 
BRANCH   5   6
ATOM      6  C   UNL     1       1.282  24.964  12.681  1.00  0.00     0.009 C 
BRANCH   6   7
ATOM      7  C   UNL     1       1.410  24.594  14.176  1.00  0.00     0.032 C 
ATOM      8  C   UNL     1       2.348  25.572  14.890  1.00  0.00     0.014 C 
BRANCH   7   9
ATOM      9  C   UNL     1       0.069  24.587  14.858  1.00  0.00     0.044 C 
ATOM     10  O   UNL     1      -0.988  24.652  14.176  1.00  0.00    -0.550 OA
ATOM     11  O   UNL     1      -0.015  24.514  16.244  1.00  0.00    -0.550 OA
ENDBRANCH   7   9
ENDBRANCH   6   7
ENDBRANCH   5   6
ENDBRANCH   4   5
ENDBRANCH   3   4
ENDBRANCH   2   3
ENDBRANCH   1   2
BRANCH   1  12
ATOM     12  C   UNL     1       4.968  25.327   6.835  1.00  0.00     0.000 C 
BRANCH  12  13
ATOM     13  C   UNL     1       4.447  23.954   6.376  1.00  0.00    -0.000 C 
BRANCH  13  14
ATOM     14  C   UNL     1       3.192  24.063   5.483  1.00  0.00    -0.000 C 
BRANCH  14  15
ATOM     15  C   UNL     1       2.369  25.343   5.723  1.00  0.00    -0.000 C 
BRANCH  15  16
ATOM     16  C   UNL     1       0.923  25.111   6.203  1.00  0.00    -0.000 C 
BRANCH  16  17
ATOM     17  C   UNL     1       0.470  26.015   7.364  1.00  0.00    -0.000 C 
BRANCH  17  18
ATOM     18  C   UNL     1      -0.880  25.592   7.959  1.00  0.00    -0.003 C 
ATOM     19  C   UNL     1      -0.687  24.773   9.232  1.00  0.00     0.004 C 
ENDBRANCH  17  18
ENDBRANCH  16  17
ENDBRANCH  15  16
ENDBRANCH  14  15
ENDBRANCH  13  14
ENDBRANCH  12  13
ENDBRANCH   1  12
TORSDOF 14
ENDMDL
MODEL 6
REMARK VINA RESULT:    -3.130      1.406      6.127
REMARK INTER + INTRA:          -7.227
REMARK INTER:                  -6.086
REMARK INTRA:                  -1.141
REMARK UNBOUND:                -1.535
REMARK SMILES CCCCCCCCCCCCCC[C@@H](C)C(=O)[O-]
REMARK SMILES IDX 9 1 10 2 11 3 12 4 13 5 14 6 15 7 16 8 17 9 18 10 19 11 8 12
REMARK SMILES IDX 7 13 6 14 5 15 4 16 3 17 2 18 1 19
REMARK H PARENT
REMARK Flexibility Score: inf
ROOT
ATOM      1  C   UNL     1       5.203  25.054   8.920  1.00  0.00     0.000 C 
ENDROOT
BRANCH   1   2
ATOM      2  C   UNL     1       4.675  25.211   7.483  1.00  0.00     0.000 C 
BRANCH   2   3
ATOM      3  C   UNL     1       4.601  23.875   6.726  1.00  0.00     0.000 C 
BRANCH   3   4
ATOM      4  C   UNL     1       3.624  23.924   5.540  1.00  0.00     0.000 C 
BRANCH   4   5
ATOM      5  C   UNL     1       2.623  25.088   5.650  1.00  0.00     0.001 C 
BRANCH   5   6
ATOM      6  C   UNL     1       1.432  24.765   6.573  1.00  0.00     0.009 C 
BRANCH   6   7
ATOM      7  C   UNL     1       0.915  25.976   7.384  1.00  0.00     0.032 C 
ATOM      8  C   UNL     1      -0.383  26.511   6.772  1.00  0.00     0.014 C 
BRANCH   7   9
ATOM      9  C   UNL     1       0.686  25.615   8.826  1.00  0.00     0.044 C 
ATOM     10  O   UNL     1      -0.436  25.182   9.199  1.00  0.00    -0.550 OA
ATOM     11  O   UNL     1       1.708  25.759   9.758  1.00  0.00    -0.550 OA
ENDBRANCH   7   9
ENDBRANCH   6   7
ENDBRANCH   5   6
ENDBRANCH   4   5
ENDBRANCH   3   4
ENDBRANCH   2   3
ENDBRANCH   1   2
BRANCH   1  12
ATOM     12  C   UNL     1       4.483  23.951   9.725  1.00  0.00     0.000 C 
BRANCH  12  13
ATOM     13  C   UNL     1       4.977  23.877  11.180  1.00  0.00    -0.000 C 
BRANCH  13  14
ATOM     14  C   UNL     1       3.865  24.199  12.201  1.00  0.00    -0.000 C 
BRANCH  14  15
ATOM     15  C   UNL     1       3.820  25.680  12.624  1.00  0.00    -0.000 C 
BRANCH  15  16
ATOM     16  C   UNL     1       2.604  26.079  13.483  1.00  0.00    -0.000 C 
BRANCH  16  17
ATOM     17  C   UNL     1       2.366  25.193  14.720  1.00  0.00    -0.000 C 
BRANCH  17  18
ATOM     18  C   UNL     1       1.079  24.361  14.619  1.00  0.00    -0.003 C 
ATOM     19  C   UNL     1       0.005  25.104  13.830  1.00  0.00     0.004 C 
ENDBRANCH  17  18
ENDBRANCH  16  17
ENDBRANCH  15  16
ENDBRANCH  14  15
ENDBRANCH  13  14
ENDBRANCH  12  13
ENDBRANCH   1  12
TORSDOF 14
ENDMDL
MODEL 7
REMARK VINA RESULT:    -3.128      3.016      6.854
REMARK INTER + INTRA:          -7.224
REMARK INTER:                  -5.769
REMARK INTRA:                  -1.454
REMARK UNBOUND:                -1.535
REMARK SMILES CCCCCCCCCCCCCC[C@@H](C)C(=O)[O-]
REMARK SMILES IDX 9 1 10 2 11 3 12 4 13 5 14 6 15 7 16 8 17 9 18 10 19 11 8 12
REMARK SMILES IDX 7 13 6 14 5 15 4 16 3 17 2 18 1 19
REMARK H PARENT
REMARK Flexibility Score: inf
ROOT
ATOM      1  C   UNL     1       4.780  24.741   9.369  1.00  0.00     0.000 C 
ENDROOT
BRANCH   1   2
ATOM      2  C   UNL     1       4.990  25.092   7.887  1.00  0.00     0.000 C 
BRANCH   2   3
ATOM      3  C   UNL     1       4.424  24.026   6.934  1.00  0.00     0.000 C 
BRANCH   3   4
ATOM      4  C   UNL     1       3.489  24.624   5.871  1.00  0.00     0.000 C 
BRANCH   4   5
ATOM      5  C   UNL     1       2.363  25.472   6.487  1.00  0.00     0.001 C 
BRANCH   5   6
ATOM      6  C   UNL     1       1.163  24.623   6.949  1.00  0.00     0.009 C 
BRANCH   6   7
ATOM      7  C   UNL     1      -0.206  25.137   6.447  1.00  0.00     0.032 C 
ATOM      8  C   UNL     1      -0.423  26.589   6.883  1.00  0.00     0.014 C 
BRANCH   7   9
ATOM      9  C   UNL     1      -0.316  25.033   4.950  1.00  0.00     0.044 C 
ATOM     10  O   UNL     1      -0.796  25.988   4.284  1.00  0.00    -0.550 OA
ATOM     11  O   UNL     1       0.107  23.884   4.292  1.00  0.00    -0.550 OA
ENDBRANCH   7   9
ENDBRANCH   6   7
ENDBRANCH   5   6
ENDBRANCH   4   5
ENDBRANCH   3   4
ENDBRANCH   2   3
ENDBRANCH   1   2
BRANCH   1  12
ATOM     12  C   UNL     1       3.528  23.875   9.626  1.00  0.00     0.000 C 
BRANCH  12  13
ATOM     13  C   UNL     1       2.715  24.371  10.836  1.00  0.00    -0.000 C 
BRANCH  13  14
ATOM     14  C   UNL     1       3.045  25.832  11.212  1.00  0.00    -0.000 C 
BRANCH  14  15
ATOM     15  C   UNL     1       2.919  26.129  12.719  1.00  0.00    -0.000 C 
BRANCH  15  16
ATOM     16  C   UNL     1       3.565  25.083  13.648  1.00  0.00    -0.000 C 
BRANCH  16  17
ATOM     17  C   UNL     1       2.569  24.228  14.454  1.00  0.00    -0.000 C 
BRANCH  17  18
ATOM     18  C   UNL     1       1.507  25.069  15.175  1.00  0.00    -0.003 C 
ATOM     19  C   UNL     1       0.112  24.781  14.628  1.00  0.00     0.004 C 
ENDBRANCH  17  18
ENDBRANCH  16  17
ENDBRANCH  15  16
ENDBRANCH  14  15
ENDBRANCH  13  14
ENDBRANCH  12  13
ENDBRANCH   1  12
TORSDOF 14
ENDMDL
MODEL 8
REMARK VINA RESULT:    -3.099      1.790      3.702
REMARK INTER + INTRA:          -7.171
REMARK INTER:                  -5.756
REMARK INTRA:                  -1.416
REMARK UNBOUND:                -1.535
REMARK SMILES CCCCCCCCCCCCCC[C@@H](C)C(=O)[O-]
REMARK SMILES IDX 9 1 10 2 11 3 12 4 13 5 14 6 15 7 16 8 17 9 18 10 19 11 8 12
REMARK SMILES IDX 7 13 6 14 5 15 4 16 3 17 2 18 1 19
REMARK H PARENT
REMARK Flexibility Score: inf
ROOT
ATOM      1  C   UNL     1       1.235  25.819   8.420  1.00  0.00     0.000 C 
ENDROOT
BRANCH   1   2
ATOM      2  C   UNL     1       1.053  25.627   9.935  1.00  0.00     0.000 C 
BRANCH   2   3
ATOM      3  C   UNL     1       0.040  24.523  10.279  1.00  0.00     0.000 C 
BRANCH   3   4
ATOM      4  C   UNL     1      -0.730  24.814  11.577  1.00  0.00     0.000 C 
BRANCH   4   5
ATOM      5  C   UNL     1      -0.266  23.928  12.747  1.00  0.00     0.001 C 
BRANCH   5   6
ATOM      6  C   UNL     1       1.239  24.073  13.045  1.00  0.00     0.009 C 
BRANCH   6   7
ATOM      7  C   UNL     1       1.619  25.395  13.750  1.00  0.00     0.032 C 
ATOM      8  C   UNL     1       1.461  25.255  15.267  1.00  0.00     0.014 C 
BRANCH   7   9
ATOM      9  C   UNL     1       3.028  25.808  13.422  1.00  0.00     0.044 C 
ATOM     10  O   UNL     1       4.001  25.235  13.980  1.00  0.00    -0.550 OA
ATOM     11  O   UNL     1       3.267  26.825  12.505  1.00  0.00    -0.550 OA
ENDBRANCH   7   9
ENDBRANCH   6   7
ENDBRANCH   5   6
ENDBRANCH   4   5
ENDBRANCH   3   4
ENDBRANCH   2   3
ENDBRANCH   1   2
BRANCH   1  12
ATOM     12  C   UNL     1      -0.084  25.731   7.624  1.00  0.00     0.000 C 
BRANCH  12  13
ATOM     13  C   UNL     1       0.154  25.684   6.104  1.00  0.00    -0.000 C 
BRANCH  13  14
ATOM     14  C   UNL     1       1.653  25.602   5.742  1.00  0.00    -0.000 C 
BRANCH  14  15
ATOM     15  C   UNL     1       2.090  24.222   5.214  1.00  0.00    -0.000 C 
BRANCH  15  16
ATOM     16  C   UNL     1       3.574  23.875   5.440  1.00  0.00    -0.000 C 
BRANCH  16  17
ATOM     17  C   UNL     1       4.317  24.806   6.417  1.00  0.00    -0.000 C 
BRANCH  17  18
ATOM     18  C   UNL     1       4.538  24.169   7.796  1.00  0.00    -0.003 C 
ATOM     19  C   UNL     1       5.241  25.138   8.743  1.00  0.00     0.004 C 
ENDBRANCH  17  18
ENDBRANCH  16  17
ENDBRANCH  15  16
ENDBRANCH  14  15
ENDBRANCH  13  14
ENDBRANCH  12  13
ENDBRANCH   1  12
TORSDOF 14
ENDMDL
MODEL 9
REMARK VINA RESULT:    -3.095      2.084      7.216
REMARK INTER + INTRA:          -7.163
REMARK INTER:                  -5.587
REMARK INTRA:                  -1.576
REMARK UNBOUND:                -1.535
REMARK SMILES CCCCCCCCCCCCCC[C@@H](C)C(=O)[O-]
REMARK SMILES IDX 9 1 10 2 11 3 12 4 13 5 14 6 15 7 16 8 17 9 18 10 19 11 8 12
REMARK SMILES IDX 7 13 6 14 5 15 4 16 3 17 2 18 1 19
REMARK H PARENT
REMARK Flexibility Score: inf
ROOT
ATOM      1  C   UNL     1       0.723  24.610  10.744  1.00  0.00     0.000 C 
ENDROOT
BRANCH   1   2
ATOM      2  C   UNL     1       0.060  25.320   9.551  1.00  0.00     0.000 C 
BRANCH   2   3
ATOM      3  C   UNL     1       1.060  26.115   8.698  1.00  0.00     0.000 C 
BRANCH   3   4
ATOM      4  C   UNL     1       0.787  25.982   7.191  1.00  0.00     0.000 C 
BRANCH   4   5
ATOM      5  C   UNL     1       1.873  25.168   6.465  1.00  0.00     0.001 C 
BRANCH   5   6
ATOM      6  C   UNL     1       2.470  24.053   7.346  1.00  0.00     0.009 C 
BRANCH   6   7
ATOM      7  C   UNL     1       4.016  24.026   7.368  1.00  0.00     0.032 C 
ATOM      8  C   UNL     1       4.580  24.816   6.182  1.00  0.00     0.014 C 
BRANCH   7   9
ATOM      9  C   UNL     1       4.558  24.584   8.655  1.00  0.00     0.044 C 
ATOM     10  O   UNL     1       4.029  24.271   9.753  1.00  0.00    -0.550 OA
ATOM     11  O   UNL     1       5.645  25.452   8.642  1.00  0.00    -0.550 OA
ENDBRANCH   7   9
ENDBRANCH   6   7
ENDBRANCH   5   6
ENDBRANCH   4   5
ENDBRANCH   3   4
ENDBRANCH   2   3
ENDBRANCH   1   2
BRANCH   1  12
ATOM     12  C   UNL     1      -0.288  24.023  11.752  1.00  0.00     0.000 C 
BRANCH  12  13
ATOM     13  C   UNL     1      -0.965  25.115  12.599  1.00  0.00    -0.000 C 
BRANCH  13  14
ATOM     14  C   UNL     1      -0.500  25.098  14.071  1.00  0.00    -0.000 C 
BRANCH  14  15
ATOM     15  C   UNL     1       0.363  23.875  14.436  1.00  0.00    -0.000 C 
BRANCH  15  16
ATOM     16  C   UNL     1       1.808  24.199  14.864  1.00  0.00    -0.000 C 
BRANCH  16  17
ATOM     17  C   UNL     1       2.217  25.674  14.704  1.00  0.00    -0.000 C 
BRANCH  17  18
ATOM     18  C   UNL     1       2.939  25.953  13.377  1.00  0.00    -0.003 C 
ATOM     19  C   UNL     1       4.372  25.428  13.411  1.00  0.00     0.004 C 
ENDBRANCH  17  18
ENDBRANCH  16  17
ENDBRANCH  15  16
ENDBRANCH  14  15
ENDBRANCH  13  14
ENDBRANCH  12  13
ENDBRANCH   1  12
TORSDOF 14
ENDMDL
