MODEL 1
REMARK VINA RESULT:    -1.028      0.000      0.000
REMARK INTER + INTRA:          -9.395
REMARK INTER:                  -2.589
REMARK INTRA:                  -6.806
REMARK UNBOUND:                -6.806
REMARK SMILES CCCCCCCCCCCCCCCCCCCCCCCCCCCC(=O)[O-]
REMARK SMILES IDX 15 1 16 2 17 3 18 4 19 5 20 6 21 7 22 8 23 9 24 10 25 11
REMARK SMILES IDX 26 12 27 13 28 14 29 15 30 16 14 17 13 18 12 19 11 20 10 21
REMARK SMILES IDX 9 22 8 23 7 24 6 25 5 26 4 27 3 28 2 29 1 30
REMARK H PARENT
REMARK Flexibility Score: inf
ROOT
ATOM      1  C   UNL     1     140.994  40.155 -10.700  1.00  0.00     0.000 C 
ENDROOT
BRANCH   1   2
ATOM      2  C   UNL     1     141.973  41.338 -10.616  1.00  0.00     0.000 C 
BRANCH   2   3
ATOM      3  C   UNL     1     143.053  41.292 -11.703  1.00  0.00     0.000 C 
BRANCH   3   4
ATOM      4  C   UNL     1     144.298  42.118 -11.345  1.00  0.00     0.000 C 
BRANCH   4   5
ATOM      5  C   UNL     1     145.575  41.261 -11.241  1.00  0.00     0.000 C 
BRANCH   5   6
ATOM      6  C   UNL     1     146.697  41.923 -10.413  1.00  0.00     0.000 C 
BRANCH   6   7
ATOM      7  C   UNL     1     147.280  40.965  -9.359  1.00  0.00     0.000 C 
BRANCH   7   8
ATOM      8  C   UNL     1     147.816  39.666  -9.980  1.00  0.00     0.000 C 
BRANCH   8   9
ATOM      9  C   UNL     1     147.895  38.512  -8.968  1.00  0.00     0.000 C 
BRANCH   9  10
ATOM     10  C   UNL     1     147.334  38.946  -7.610  1.00  0.00     0.000 C 
BRANCH  10  11
ATOM     11  C   UNL     1     146.710  37.758  -6.857  1.00  0.00     0.000 C 
BRANCH  11  12
ATOM     12  C   UNL     1     145.999  38.201  -5.567  1.00  0.00     0.006 C 
BRANCH  12  13
ATOM     13  C   UNL     1     146.365  39.637  -5.164  1.00  0.00     0.053 C 
BRANCH  13  14
ATOM     14  C   UNL     1     145.562  40.069  -3.976  1.00  0.00     0.041 C 
ATOM     15  O   UNL     1     146.137  40.559  -2.967  1.00  0.00    -0.550 OA
ATOM     16  O   UNL     1     144.175  39.966  -3.995  1.00  0.00    -0.550 OA
ENDBRANCH  13  14
ENDBRANCH  12  13
ENDBRANCH  11  12
ENDBRANCH  10  11
ENDBRANCH   9  10
ENDBRANCH   8   9
ENDBRANCH   7   8
ENDBRANCH   6   7
ENDBRANCH   5   6
ENDBRANCH   4   5
ENDBRANCH   3   4
ENDBRANCH   2   3
ENDBRANCH   1   2
BRANCH   1  17
ATOM     17  C   UNL     1     140.969  39.494 -12.090  1.00  0.00     0.000 C 
BRANCH  17  18
ATOM     18  C   UNL     1     141.420  38.019 -12.086  1.00  0.00     0.000 C 
BRANCH  18  19
ATOM     19  C   UNL     1     142.099  37.615 -13.404  1.00  0.00     0.000 C 
BRANCH  19  20
ATOM     20  C   UNL     1     143.571  38.048 -13.425  1.00  0.00     0.000 C 
BRANCH  20  21
ATOM     21  C   UNL     1     144.510  37.003 -12.790  1.00  0.00     0.000 C 
BRANCH  21  22
ATOM     22  C   UNL     1     145.319  37.508 -11.579  1.00  0.00    -0.000 C 
BRANCH  22  23
ATOM     23  C   UNL     1     144.633  37.205 -10.236  1.00  0.00    -0.000 C 
BRANCH  23  24
ATOM     24  C   UNL     1     144.160  38.480  -9.515  1.00  0.00    -0.000 C 
BRANCH  24  25
ATOM     25  C   UNL     1     143.182  38.187  -8.364  1.00  0.00    -0.000 C 
BRANCH  25  26
ATOM     26  C   UNL     1     143.052  39.403  -7.437  1.00  0.00    -0.000 C 
BRANCH  26  27
ATOM     27  C   UNL     1     144.021  40.537  -7.807  1.00  0.00    -0.000 C 
BRANCH  27  28
ATOM     28  C   UNL     1     143.772  41.817  -6.996  1.00  0.00    -0.000 C 
BRANCH  28  29
ATOM     29  C   UNL     1     144.486  43.015  -7.637  1.00  0.00    -0.003 C 
ATOM     30  C   UNL     1     143.491  43.955  -8.312  1.00  0.00     0.004 C 
ENDBRANCH  28  29
ENDBRANCH  27  28
ENDBRANCH  26  27
ENDBRANCH  25  26
ENDBRANCH  24  25
ENDBRANCH  23  24
ENDBRANCH  22  23
ENDBRANCH  21  22
ENDBRANCH  20  21
ENDBRANCH  19  20
ENDBRANCH  18  19
ENDBRANCH  17  18
ENDBRANCH   1  17
TORSDOF 26
ENDMDL
MODEL 2
REMARK VINA RESULT:    -0.766      2.599      5.865
REMARK INTER + INTRA:          -8.735
REMARK INTER:                  -2.193
REMARK INTRA:                  -6.542
REMARK UNBOUND:                -6.806
REMARK SMILES CCCCCCCCCCCCCCCCCCCCCCCCCCCC(=O)[O-]
REMARK SMILES IDX 15 1 16 2 17 3 18 4 19 5 20 6 21 7 22 8 23 9 24 10 25 11
REMARK SMILES IDX 26 12 27 13 28 14 29 15 30 16 14 17 13 18 12 19 11 20 10 21
REMARK SMILES IDX 9 22 8 23 7 24 6 25 5 26 4 27 3 28 2 29 1 30
REMARK H PARENT
REMARK Flexibility Score: inf
ROOT
ATOM      1  C   UNL     1     144.166  41.780  -7.134  1.00  0.00     0.000 C 
ENDROOT
BRANCH   1   2
ATOM      2  C   UNL     1     143.426  41.176  -8.339  1.00  0.00     0.000 C 
BRANCH   2   3
ATOM      3  C   UNL     1     144.339  40.978  -9.556  1.00  0.00     0.000 C 
BRANCH   3   4
ATOM      4  C   UNL     1     144.162  39.603 -10.218  1.00  0.00     0.000 C 
BRANCH   4   5
ATOM      5  C   UNL     1     143.698  38.517  -9.228  1.00  0.00     0.000 C 
BRANCH   5   6
ATOM      6  C   UNL     1     144.712  37.366  -9.052  1.00  0.00     0.000 C 
BRANCH   6   7
ATOM      7  C   UNL     1     145.415  37.420  -7.684  1.00  0.00     0.000 C 
BRANCH   7   8
ATOM      8  C   UNL     1     146.827  38.019  -7.773  1.00  0.00     0.000 C 
BRANCH   8   9
ATOM      9  C   UNL     1     147.383  38.020  -9.206  1.00  0.00     0.000 C 
BRANCH   9  10
ATOM     10  C   UNL     1     147.780  39.439  -9.628  1.00  0.00     0.000 C 
BRANCH  10  11
ATOM     11  C   UNL     1     147.894  40.373  -8.410  1.00  0.00     0.000 C 
BRANCH  11  12
ATOM     12  C   UNL     1     147.912  41.855  -8.819  1.00  0.00     0.006 C 
BRANCH  12  13
ATOM     13  C   UNL     1     148.125  42.789  -7.618  1.00  0.00     0.053 C 
BRANCH  13  14
ATOM     14  C   UNL     1     147.048  43.828  -7.565  1.00  0.00     0.041 C 
ATOM     15  O   UNL     1     146.394  44.116  -8.603  1.00  0.00    -0.550 OA
ATOM     16  O   UNL     1     146.739  44.452  -6.361  1.00  0.00    -0.550 OA
ENDBRANCH  13  14
ENDBRANCH  12  13
ENDBRANCH  11  12
ENDBRANCH  10  11
ENDBRANCH   9  10
ENDBRANCH   8   9
ENDBRANCH   7   8
ENDBRANCH   6   7
ENDBRANCH   5   6
ENDBRANCH   4   5
ENDBRANCH   3   4
ENDBRANCH   2   3
ENDBRANCH   1   2
BRANCH   1  17
ATOM     17  C   UNL     1     144.913  40.726  -6.298  1.00  0.00     0.000 C 
BRANCH  17  18
ATOM     18  C   UNL     1     145.688  41.315  -5.101  1.00  0.00     0.000 C 
BRANCH  18  19
ATOM     19  C   UNL     1     147.000  40.562  -4.831  1.00  0.00     0.000 C 
BRANCH  19  20
ATOM     20  C   UNL     1     147.208  40.330  -3.329  1.00  0.00     0.000 C 
BRANCH  20  21
ATOM     21  C   UNL     1     147.022  38.855  -2.921  1.00  0.00     0.000 C 
BRANCH  21  22
ATOM     22  C   UNL     1     146.668  37.901  -4.079  1.00  0.00    -0.000 C 
BRANCH  22  23
ATOM     23  C   UNL     1     145.264  37.291  -3.939  1.00  0.00    -0.000 C 
BRANCH  23  24
ATOM     24  C   UNL     1     144.344  38.126  -3.031  1.00  0.00    -0.000 C 
BRANCH  24  25
ATOM     25  C   UNL     1     143.130  38.703  -3.777  1.00  0.00    -0.000 C 
BRANCH  25  26
ATOM     26  C   UNL     1     142.834  37.893  -5.046  1.00  0.00    -0.000 C 
BRANCH  26  27
ATOM     27  C   UNL     1     141.897  38.630  -6.015  1.00  0.00    -0.000 C 
BRANCH  27  28
ATOM     28  C   UNL     1     141.372  39.954  -5.439  1.00  0.00    -0.000 C 
BRANCH  28  29
ATOM     29  C   UNL     1     139.838  39.996  -5.484  1.00  0.00    -0.003 C 
ATOM     30  C   UNL     1     139.231  38.841  -4.693  1.00  0.00     0.004 C 
ENDBRANCH  28  29
ENDBRANCH  27  28
ENDBRANCH  26  27
ENDBRANCH  25  26
ENDBRANCH  24  25
ENDBRANCH  23  24
ENDBRANCH  22  23
ENDBRANCH  21  22
ENDBRANCH  20  21
ENDBRANCH  19  20
ENDBRANCH  18  19
ENDBRANCH  17  18
ENDBRANCH   1  17
TORSDOF 26
ENDMDL
MODEL 3
REMARK VINA RESULT:    -0.758      1.691      3.556
REMARK INTER + INTRA:          -8.716
REMARK INTER:                  -2.669
REMARK INTRA:                  -6.047
REMARK UNBOUND:                -6.806
REMARK SMILES CCCCCCCCCCCCCCCCCCCCCCCCCCCC(=O)[O-]
REMARK SMILES IDX 15 1 16 2 17 3 18 4 19 5 20 6 21 7 22 8 23 9 24 10 25 11
REMARK SMILES IDX 26 12 27 13 28 14 29 15 30 16 14 17 13 18 12 19 11 20 10 21
REMARK SMILES IDX 9 22 8 23 7 24 6 25 5 26 4 27 3 28 2 29 1 30
REMARK H PARENT
REMARK Flexibility Score: inf
ROOT
ATOM      1  C   UNL     1     143.468  39.629  -9.575  1.00  0.00     0.000 C 
ENDROOT
BRANCH   1   2
ATOM      2  C   UNL     1     144.215  38.588  -8.724  1.00  0.00     0.000 C 
BRANCH   2   3
ATOM      3  C   UNL     1     144.456  37.273  -9.476  1.00  0.00     0.000 C 
BRANCH   3   4
ATOM      4  C   UNL     1     145.939  37.031  -9.797  1.00  0.00     0.000 C 
BRANCH   4   5
ATOM      5  C   UNL     1     146.887  37.809  -8.864  1.00  0.00     0.000 C 
BRANCH   5   6
ATOM      6  C   UNL     1     148.120  38.396  -9.585  1.00  0.00     0.000 C 
BRANCH   6   7
ATOM      7  C   UNL     1     147.765  38.956 -10.974  1.00  0.00     0.000 C 
BRANCH   7   8
ATOM      8  C   UNL     1     147.893  40.485 -11.040  1.00  0.00     0.000 C 
BRANCH   8   9
ATOM      9  C   UNL     1     146.655  41.210 -10.486  1.00  0.00     0.000 C 
BRANCH   9  10
ATOM     10  C   UNL     1     147.027  42.049  -9.259  1.00  0.00     0.000 C 
BRANCH  10  11
ATOM     11  C   UNL     1     146.546  41.381  -7.959  1.00  0.00     0.000 C 
BRANCH  11  12
ATOM     12  C   UNL     1     147.719  40.986  -7.046  1.00  0.00     0.006 C 
BRANCH  12  13
ATOM     13  C   UNL     1     148.092  42.103  -6.060  1.00  0.00     0.053 C 
BRANCH  13  14
ATOM     14  C   UNL     1     147.715  41.718  -4.663  1.00  0.00     0.041 C 
ATOM     15  O   UNL     1     147.273  40.562  -4.422  1.00  0.00    -0.550 OA
ATOM     16  O   UNL     1     147.886  42.621  -3.619  1.00  0.00    -0.550 OA
ENDBRANCH  13  14
ENDBRANCH  12  13
ENDBRANCH  11  12
ENDBRANCH  10  11
ENDBRANCH   9  10
ENDBRANCH   8   9
ENDBRANCH   7   8
ENDBRANCH   6   7
ENDBRANCH   5   6
ENDBRANCH   4   5
ENDBRANCH   3   4
ENDBRANCH   2   3
ENDBRANCH   1   2
BRANCH   1  17
ATOM     17  C   UNL     1     141.940  39.560  -9.404  1.00  0.00     0.000 C 
BRANCH  17  18
ATOM     18  C   UNL     1     141.174  39.349 -10.726  1.00  0.00     0.000 C 
BRANCH  18  19
ATOM     19  C   UNL     1     141.167  37.876 -11.165  1.00  0.00     0.000 C 
BRANCH  19  20
ATOM     20  C   UNL     1     141.588  37.733 -12.633  1.00  0.00     0.000 C 
BRANCH  20  21
ATOM     21  C   UNL     1     142.958  37.045 -12.798  1.00  0.00     0.000 C 
BRANCH  21  22
ATOM     22  C   UNL     1     143.971  37.815 -13.667  1.00  0.00    -0.000 C 
BRANCH  22  23
ATOM     23  C   UNL     1     144.747  38.881 -12.876  1.00  0.00    -0.000 C 
BRANCH  23  24
ATOM     24  C   UNL     1     144.615  40.286 -13.492  1.00  0.00    -0.000 C 
BRANCH  24  25
ATOM     25  C   UNL     1     143.373  41.043 -12.993  1.00  0.00    -0.000 C 
BRANCH  25  26
ATOM     26  C   UNL     1     143.741  42.471 -12.567  1.00  0.00    -0.000 C 
BRANCH  26  27
ATOM     27  C   UNL     1     143.052  42.896 -11.261  1.00  0.00    -0.000 C 
BRANCH  27  28
ATOM     28  C   UNL     1     143.969  43.727 -10.351  1.00  0.00    -0.000 C 
BRANCH  28  29
ATOM     29  C   UNL     1     143.232  44.143  -9.070  1.00  0.00    -0.003 C 
ATOM     30  C   UNL     1     143.123  42.977  -8.091  1.00  0.00     0.004 C 
ENDBRANCH  28  29
ENDBRANCH  27  28
ENDBRANCH  26  27
ENDBRANCH  25  26
ENDBRANCH  24  25
ENDBRANCH  23  24
ENDBRANCH  22  23
ENDBRANCH  21  22
ENDBRANCH  20  21
ENDBRANCH  19  20
ENDBRANCH  18  19
ENDBRANCH  17  18
ENDBRANCH   1  17
TORSDOF 26
ENDMDL
MODEL 4
REMARK VINA RESULT:    -0.710      1.744      3.848
REMARK INTER + INTRA:          -8.596
REMARK INTER:                  -2.395
REMARK INTRA:                  -6.201
REMARK UNBOUND:                -6.806
REMARK SMILES CCCCCCCCCCCCCCCCCCCCCCCCCCCC(=O)[O-]
REMARK SMILES IDX 15 1 16 2 17 3 18 4 19 5 20 6 21 7 22 8 23 9 24 10 25 11
REMARK SMILES IDX 26 12 27 13 28 14 29 15 30 16 14 17 13 18 12 19 11 20 10 21
REMARK SMILES IDX 9 22 8 23 7 24 6 25 5 26 4 27 3 28 2 29 1 30
REMARK H PARENT
REMARK Flexibility Score: inf
ROOT
ATOM      1  C   UNL     1     142.978  41.902  -9.636  1.00  0.00     0.000 C 
ENDROOT
BRANCH   1   2
ATOM      2  C   UNL     1     143.692  42.319  -8.339  1.00  0.00     0.000 C 
BRANCH   2   3
ATOM      3  C   UNL     1     144.352  41.136  -7.620  1.00  0.00     0.000 C 
BRANCH   3   4
ATOM      4  C   UNL     1     145.855  41.347  -7.378  1.00  0.00     0.000 C 
BRANCH   4   5
ATOM      5  C   UNL     1     146.726  40.818  -8.535  1.00  0.00     0.000 C 
BRANCH   5   6
ATOM      6  C   UNL     1     147.865  39.884  -8.073  1.00  0.00     0.000 C 
BRANCH   6   7
ATOM      7  C   UNL     1     147.761  38.487  -8.709  1.00  0.00     0.000 C 
BRANCH   7   8
ATOM      8  C   UNL     1     146.539  38.351  -9.629  1.00  0.00     0.000 C 
BRANCH   8   9
ATOM      9  C   UNL     1     145.639  37.164  -9.250  1.00  0.00     0.000 C 
BRANCH   9  10
ATOM     10  C   UNL     1     144.661  37.561  -8.140  1.00  0.00     0.000 C 
BRANCH  10  11
ATOM     11  C   UNL     1     145.036  36.900  -6.802  1.00  0.00     0.000 C 
BRANCH  11  12
ATOM     12  C   UNL     1     145.611  37.914  -5.799  1.00  0.00     0.006 C 
BRANCH  12  13
ATOM     13  C   UNL     1     144.522  38.547  -4.919  1.00  0.00     0.053 C 
BRANCH  13  14
ATOM     14  C   UNL     1     144.658  38.084  -3.501  1.00  0.00     0.041 C 
ATOM     15  O   UNL     1     144.009  38.655  -2.584  1.00  0.00    -0.550 OA
ATOM     16  O   UNL     1     145.470  36.997  -3.196  1.00  0.00    -0.550 OA
ENDBRANCH  13  14
ENDBRANCH  12  13
ENDBRANCH  11  12
ENDBRANCH  10  11
ENDBRANCH   9  10
ENDBRANCH   8   9
ENDBRANCH   7   8
ENDBRANCH   6   7
ENDBRANCH   5   6
ENDBRANCH   4   5
ENDBRANCH   3   4
ENDBRANCH   2   3
ENDBRANCH   1   2
BRANCH   1  17
ATOM     17  C   UNL     1     143.309  40.462 -10.067  1.00  0.00     0.000 C 
BRANCH  17  18
ATOM     18  C   UNL     1     144.082  40.373 -11.399  1.00  0.00     0.000 C 
BRANCH  18  19
ATOM     19  C   UNL     1     143.824  39.048 -12.134  1.00  0.00     0.000 C 
BRANCH  19  20
ATOM     20  C   UNL     1     142.725  38.233 -11.439  1.00  0.00     0.000 C 
BRANCH  20  21
ATOM     21  C   UNL     1     141.476  38.041 -12.321  1.00  0.00     0.000 C 
BRANCH  21  22
ATOM     22  C   UNL     1     141.432  38.921 -13.585  1.00  0.00    -0.000 C 
BRANCH  22  23
ATOM     23  C   UNL     1     140.305  39.967 -13.543  1.00  0.00    -0.000 C 
BRANCH  23  24
ATOM     24  C   UNL     1     140.511  41.013 -12.432  1.00  0.00    -0.000 C 
BRANCH  24  25
ATOM     25  C   UNL     1     139.215  41.346 -11.676  1.00  0.00    -0.000 C 
BRANCH  25  26
ATOM     26  C   UNL     1     139.427  41.246 -10.160  1.00  0.00    -0.000 C 
BRANCH  26  27
ATOM     27  C   UNL     1     139.622  39.798  -9.683  1.00  0.00    -0.000 C 
BRANCH  27  28
ATOM     28  C   UNL     1     140.256  39.715  -8.286  1.00  0.00    -0.000 C 
BRANCH  28  29
ATOM     29  C   UNL     1     141.009  38.389  -8.109  1.00  0.00    -0.003 C 
ATOM     30  C   UNL     1     141.269  38.095  -6.634  1.00  0.00     0.004 C 
ENDBRANCH  28  29
ENDBRANCH  27  28
ENDBRANCH  26  27
ENDBRANCH  25  26
ENDBRANCH  24  25
ENDBRANCH  23  24
ENDBRANCH  22  23
ENDBRANCH  21  22
ENDBRANCH  20  21
ENDBRANCH  19  20
ENDBRANCH  18  19
ENDBRANCH  17  18
ENDBRANCH   1  17
TORSDOF 26
ENDMDL
MODEL 5
REMARK VINA RESULT:    -0.700      1.539      3.329
REMARK INTER + INTRA:          -8.569
REMARK INTER:                  -2.599
REMARK INTRA:                  -5.971
REMARK UNBOUND:                -6.806
REMARK SMILES CCCCCCCCCCCCCCCCCCCCCCCCCCCC(=O)[O-]
REMARK SMILES IDX 15 1 16 2 17 3 18 4 19 5 20 6 21 7 22 8 23 9 24 10 25 11
REMARK SMILES IDX 26 12 27 13 28 14 29 15 30 16 14 17 13 18 12 19 11 20 10 21
REMARK SMILES IDX 9 22 8 23 7 24 6 25 5 26 4 27 3 28 2 29 1 30
REMARK H PARENT
REMARK Flexibility Score: inf
ROOT
ATOM      1  C   UNL     1     142.427  41.076  -8.128  1.00  0.00     0.000 C 
ENDROOT
BRANCH   1   2
ATOM      2  C   UNL     1     143.903  40.861  -7.749  1.00  0.00     0.000 C 
BRANCH   2   3
ATOM      3  C   UNL     1     144.685  42.176  -7.646  1.00  0.00     0.000 C 
BRANCH   3   4
ATOM      4  C   UNL     1     146.162  42.026  -8.045  1.00  0.00     0.000 C 
BRANCH   4   5
ATOM      5  C   UNL     1     146.455  40.694  -8.762  1.00  0.00     0.000 C 
BRANCH   5   6
ATOM      6  C   UNL     1     147.785  40.039  -8.329  1.00  0.00     0.000 C 
BRANCH   6   7
ATOM      7  C   UNL     1     147.672  38.506  -8.243  1.00  0.00     0.000 C 
BRANCH   7   8
ATOM      8  C   UNL     1     146.234  38.011  -8.452  1.00  0.00     0.000 C 
BRANCH   8   9
ATOM      9  C   UNL     1     145.554  37.587  -7.141  1.00  0.00     0.000 C 
BRANCH   9  10
ATOM     10  C   UNL     1     146.601  37.210  -6.088  1.00  0.00     0.000 C 
BRANCH  10  11
ATOM     11  C   UNL     1     146.378  37.983  -4.776  1.00  0.00     0.000 C 
BRANCH  11  12
ATOM     12  C   UNL     1     145.735  39.358  -5.019  1.00  0.00     0.006 C 
BRANCH  12  13
ATOM     13  C   UNL     1     146.737  40.510  -4.839  1.00  0.00     0.053 C 
BRANCH  13  14
ATOM     14  C   UNL     1     146.180  41.550  -3.917  1.00  0.00     0.041 C 
ATOM     15  O   UNL     1     146.629  42.728  -3.945  1.00  0.00    -0.550 OA
ATOM     16  O   UNL     1     145.138  41.231  -3.052  1.00  0.00    -0.550 OA
ENDBRANCH  13  14
ENDBRANCH  12  13
ENDBRANCH  11  12
ENDBRANCH  10  11
ENDBRANCH   9  10
ENDBRANCH   8   9
ENDBRANCH   7   8
ENDBRANCH   6   7
ENDBRANCH   5   6
ENDBRANCH   4   5
ENDBRANCH   3   4
ENDBRANCH   2   3
ENDBRANCH   1   2
BRANCH   1  17
ATOM     17  C   UNL     1     141.884  39.986  -9.069  1.00  0.00     0.000 C 
BRANCH  17  18
ATOM     18  C   UNL     1     142.222  38.550  -8.619  1.00  0.00     0.000 C 
BRANCH  18  19
ATOM     19  C   UNL     1     142.591  37.641  -9.802  1.00  0.00     0.000 C 
BRANCH  19  20
ATOM     20  C   UNL     1     141.395  37.441 -10.742  1.00  0.00     0.000 C 
BRANCH  20  21
ATOM     21  C   UNL     1     141.813  37.298 -12.219  1.00  0.00     0.000 C 
BRANCH  21  22
ATOM     22  C   UNL     1     141.364  38.453 -13.135  1.00  0.00    -0.000 C 
BRANCH  22  23
ATOM     23  C   UNL     1     142.151  39.751 -12.886  1.00  0.00    -0.000 C 
BRANCH  23  24
ATOM     24  C   UNL     1     143.674  39.531 -12.903  1.00  0.00    -0.000 C 
BRANCH  24  25
ATOM     25  C   UNL     1     144.391  40.219 -11.730  1.00  0.00    -0.000 C 
BRANCH  25  26
ATOM     26  C   UNL     1     145.246  41.393 -12.226  1.00  0.00    -0.000 C 
BRANCH  26  27
ATOM     27  C   UNL     1     144.887  42.720 -11.539  1.00  0.00    -0.000 C 
BRANCH  27  28
ATOM     28  C   UNL     1     143.403  42.803 -11.151  1.00  0.00    -0.000 C 
BRANCH  28  29
ATOM     29  C   UNL     1     143.102  44.124 -10.431  1.00  0.00    -0.003 C 
ATOM     30  C   UNL     1     144.378  44.928 -10.194  1.00  0.00     0.004 C 
ENDBRANCH  28  29
ENDBRANCH  27  28
ENDBRANCH  26  27
ENDBRANCH  25  26
ENDBRANCH  24  25
ENDBRANCH  23  24
ENDBRANCH  22  23
ENDBRANCH  21  22
ENDBRANCH  20  21
ENDBRANCH  19  20
ENDBRANCH  18  19
ENDBRANCH  17  18
ENDBRANCH   1  17
TORSDOF 26
ENDMDL
MODEL 6
REMARK VINA RESULT:    -0.696      3.220      6.868
REMARK INTER + INTRA:          -8.560
REMARK INTER:                  -2.538
REMARK INTRA:                  -6.022
REMARK UNBOUND:                -6.806
REMARK SMILES CCCCCCCCCCCCCCCCCCCCCCCCCCCC(=O)[O-]
REMARK SMILES IDX 15 1 16 2 17 3 18 4 19 5 20 6 21 7 22 8 23 9 24 10 25 11
REMARK SMILES IDX 26 12 27 13 28 14 29 15 30 16 14 17 13 18 12 19 11 20 10 21
REMARK SMILES IDX 9 22 8 23 7 24 6 25 5 26 4 27 3 28 2 29 1 30
REMARK H PARENT
REMARK Flexibility Score: inf
ROOT
ATOM      1  C   UNL     1     143.757  41.140  -8.388  1.00  0.00     0.000 C 
ENDROOT
BRANCH   1   2
ATOM      2  C   UNL     1     143.417  39.932  -9.277  1.00  0.00     0.000 C 
BRANCH   2   3
ATOM      3  C   UNL     1     142.189  39.159  -8.781  1.00  0.00     0.000 C 
BRANCH   3   4
ATOM      4  C   UNL     1     142.093  37.744  -9.374  1.00  0.00     0.000 C 
BRANCH   4   5
ATOM      5  C   UNL     1     140.932  37.593 -10.377  1.00  0.00     0.000 C 
BRANCH   5   6
ATOM      6  C   UNL     1     141.346  36.921 -11.704  1.00  0.00     0.000 C 
BRANCH   6   7
ATOM      7  C   UNL     1     142.236  37.838 -12.563  1.00  0.00     0.000 C 
BRANCH   7   8
ATOM      8  C   UNL     1     141.497  38.388 -13.792  1.00  0.00     0.000 C 
BRANCH   8   9
ATOM      9  C   UNL     1     141.429  39.923 -13.808  1.00  0.00     0.000 C 
BRANCH   9  10
ATOM     10  C   UNL     1     141.940  40.498 -12.483  1.00  0.00     0.000 C 
BRANCH  10  11
ATOM     11  C   UNL     1     140.793  41.117 -11.664  1.00  0.00     0.000 C 
BRANCH  11  12
ATOM     12  C   UNL     1     141.194  42.462 -11.035  1.00  0.00     0.006 C 
BRANCH  12  13
ATOM     13  C   UNL     1     142.314  43.162 -11.820  1.00  0.00     0.053 C 
BRANCH  13  14
ATOM     14  C   UNL     1     141.753  44.270 -12.659  1.00  0.00     0.041 C 
ATOM     15  O   UNL     1     140.999  44.006 -13.633  1.00  0.00    -0.550 OA
ATOM     16  O   UNL     1     142.032  45.595 -12.342  1.00  0.00    -0.550 OA
ENDBRANCH  13  14
ENDBRANCH  12  13
ENDBRANCH  11  12
ENDBRANCH  10  11
ENDBRANCH   9  10
ENDBRANCH   8   9
ENDBRANCH   7   8
ENDBRANCH   6   7
ENDBRANCH   5   6
ENDBRANCH   4   5
ENDBRANCH   3   4
ENDBRANCH   2   3
ENDBRANCH   1   2
BRANCH   1  17
ATOM     17  C   UNL     1     144.624  42.189  -9.107  1.00  0.00     0.000 C 
BRANCH  17  18
ATOM     18  C   UNL     1     145.998  42.422  -8.444  1.00  0.00     0.000 C 
BRANCH  18  19
ATOM     19  C   UNL     1     147.104  41.569  -9.083  1.00  0.00     0.000 C 
BRANCH  19  20
ATOM     20  C   UNL     1     147.906  40.810  -8.018  1.00  0.00     0.000 C 
BRANCH  20  21
ATOM     21  C   UNL     1     147.754  39.281  -8.132  1.00  0.00     0.000 C 
BRANCH  21  22
ATOM     22  C   UNL     1     146.502  38.699  -7.449  1.00  0.00    -0.000 C 
BRANCH  22  23
ATOM     23  C   UNL     1     145.867  37.548  -8.248  1.00  0.00    -0.000 C 
BRANCH  23  24
ATOM     24  C   UNL     1     146.463  37.411  -9.661  1.00  0.00    -0.000 C 
BRANCH  24  25
ATOM     25  C   UNL     1     145.397  37.138 -10.735  1.00  0.00    -0.000 C 
BRANCH  25  26
ATOM     26  C   UNL     1     145.864  37.643 -12.107  1.00  0.00    -0.000 C 
BRANCH  26  27
ATOM     27  C   UNL     1     145.689  39.161 -12.270  1.00  0.00    -0.000 C 
BRANCH  27  28
ATOM     28  C   UNL     1     145.280  39.560 -13.695  1.00  0.00    -0.000 C 
BRANCH  28  29
ATOM     29  C   UNL     1     145.303  41.086 -13.861  1.00  0.00    -0.003 C 
ATOM     30  C   UNL     1     145.625  41.780 -12.541  1.00  0.00     0.004 C 
ENDBRANCH  28  29
ENDBRANCH  27  28
ENDBRANCH  26  27
ENDBRANCH  25  26
ENDBRANCH  24  25
ENDBRANCH  23  24
ENDBRANCH  22  23
ENDBRANCH  21  22
ENDBRANCH  20  21
ENDBRANCH  19  20
ENDBRANCH  18  19
ENDBRANCH  17  18
ENDBRANCH   1  17
TORSDOF 26
ENDMDL
MODEL 7
REMARK VINA RESULT:    -0.677     15.884     19.825
REMARK INTER + INTRA:          -8.512
REMARK INTER:                  -1.923
REMARK INTRA:                  -6.589
REMARK UNBOUND:                -6.806
REMARK SMILES CCCCCCCCCCCCCCCCCCCCCCCCCCCC(=O)[O-]
REMARK SMILES IDX 15 1 16 2 17 3 18 4 19 5 20 6 21 7 22 8 23 9 24 10 25 11
REMARK SMILES IDX 26 12 27 13 28 14 29 15 30 16 14 17 13 18 12 19 11 20 10 21
REMARK SMILES IDX 9 22 8 23 7 24 6 25 5 26 4 27 3 28 2 29 1 30
REMARK H PARENT
REMARK Flexibility Score: inf
ROOT
ATOM      1  C   UNL     1     132.492  51.139  -6.651  1.00  0.00     0.000 C 
ENDROOT
BRANCH   1   2
ATOM      2  C   UNL     1     132.375  50.289  -5.375  1.00  0.00     0.000 C 
BRANCH   2   3
ATOM      3  C   UNL     1     131.104  49.432  -5.349  1.00  0.00     0.000 C 
BRANCH   3   4
ATOM      4  C   UNL     1     130.190  49.753  -4.156  1.00  0.00     0.000 C 
BRANCH   4   5
ATOM      5  C   UNL     1     128.798  50.254  -4.588  1.00  0.00     0.000 C 
BRANCH   5   6
ATOM      6  C   UNL     1     128.607  51.776  -4.411  1.00  0.00     0.000 C 
BRANCH   6   7
ATOM      7  C   UNL     1     127.987  52.430  -5.659  1.00  0.00     0.000 C 
BRANCH   7   8
ATOM      8  C   UNL     1     128.911  52.351  -6.883  1.00  0.00     0.000 C 
BRANCH   8   9
ATOM      9  C   UNL     1     128.299  51.544  -8.039  1.00  0.00     0.000 C 
BRANCH   9  10
ATOM     10  C   UNL     1     129.285  50.481  -8.535  1.00  0.00     0.000 C 
BRANCH  10  11
ATOM     11  C   UNL     1     128.752  49.061  -8.276  1.00  0.00     0.000 C 
BRANCH  11  12
ATOM     12  C   UNL     1     129.831  47.989  -8.507  1.00  0.00     0.006 C 
BRANCH  12  13
ATOM     13  C   UNL     1     131.125  48.580  -9.087  1.00  0.00     0.053 C 
BRANCH  13  14
ATOM     14  C   UNL     1     132.321  47.873  -8.526  1.00  0.00     0.041 C 
ATOM     15  O   UNL     1     132.184  46.772  -7.929  1.00  0.00    -0.550 OA
ATOM     16  O   UNL     1     133.592  48.412  -8.695  1.00  0.00    -0.550 OA
ENDBRANCH  13  14
ENDBRANCH  12  13
ENDBRANCH  11  12
ENDBRANCH  10  11
ENDBRANCH   9  10
ENDBRANCH   8   9
ENDBRANCH   7   8
ENDBRANCH   6   7
ENDBRANCH   5   6
ENDBRANCH   4   5
ENDBRANCH   3   4
ENDBRANCH   2   3
ENDBRANCH   1   2
BRANCH   1  17
ATOM     17  C   UNL     1     132.416  52.652  -6.375  1.00  0.00     0.000 C 
BRANCH  17  18
ATOM     18  C   UNL     1     132.074  53.001  -4.911  1.00  0.00     0.000 C 
BRANCH  18  19
ATOM     19  C   UNL     1     131.325  54.337  -4.792  1.00  0.00     0.000 C 
BRANCH  19  20
ATOM     20  C   UNL     1     131.421  55.145  -6.094  1.00  0.00     0.000 C 
BRANCH  20  21
ATOM     21  C   UNL     1     130.098  55.848  -6.459  1.00  0.00     0.000 C 
BRANCH  21  22
ATOM     22  C   UNL     1     130.243  57.045  -7.418  1.00  0.00    -0.000 C 
BRANCH  22  23
ATOM     23  C   UNL     1     129.557  56.808  -8.774  1.00  0.00    -0.000 C 
BRANCH  23  24
ATOM     24  C   UNL     1     128.965  55.393  -8.897  1.00  0.00    -0.000 C 
BRANCH  24  25
ATOM     25  C   UNL     1     129.586  54.583 -10.047  1.00  0.00    -0.000 C 
BRANCH  25  26
ATOM     26  C   UNL     1     130.885  53.902  -9.595  1.00  0.00    -0.000 C 
BRANCH  26  27
ATOM     27  C   UNL     1     132.131  54.495 -10.270  1.00  0.00    -0.000 C 
BRANCH  27  28
ATOM     28  C   UNL     1     133.123  55.093  -9.261  1.00  0.00    -0.000 C 
BRANCH  28  29
ATOM     29  C   UNL     1     133.327  56.592  -9.522  1.00  0.00    -0.003 C 
ATOM     30  C   UNL     1     132.603  57.036 -10.789  1.00  0.00     0.004 C 
ENDBRANCH  28  29
ENDBRANCH  27  28
ENDBRANCH  26  27
ENDBRANCH  25  26
ENDBRANCH  24  25
ENDBRANCH  23  24
ENDBRANCH  22  23
ENDBRANCH  21  22
ENDBRANCH  20  21
ENDBRANCH  19  20
ENDBRANCH  18  19
ENDBRANCH  17  18
ENDBRANCH   1  17
TORSDOF 26
ENDMDL
MODEL 8
REMARK VINA RESULT:    -0.654      2.544      5.040
REMARK INTER + INTRA:          -8.454
REMARK INTER:                  -2.018
REMARK INTRA:                  -6.435
REMARK UNBOUND:                -6.806
REMARK SMILES CCCCCCCCCCCCCCCCCCCCCCCCCCCC(=O)[O-]
REMARK SMILES IDX 15 1 16 2 17 3 18 4 19 5 20 6 21 7 22 8 23 9 24 10 25 11
REMARK SMILES IDX 26 12 27 13 28 14 29 15 30 16 14 17 13 18 12 19 11 20 10 21
REMARK SMILES IDX 9 22 8 23 7 24 6 25 5 26 4 27 3 28 2 29 1 30
REMARK H PARENT
REMARK Flexibility Score: inf
ROOT
ATOM      1  C   UNL     1     141.620  40.208 -12.234  1.00  0.00     0.000 C 
ENDROOT
BRANCH   1   2
ATOM      2  C   UNL     1     142.090  40.258 -10.770  1.00  0.00     0.000 C 
BRANCH   2   3
ATOM      3  C   UNL     1     142.247  41.691 -10.247  1.00  0.00     0.000 C 
BRANCH   3   4
ATOM      4  C   UNL     1     143.676  42.001  -9.773  1.00  0.00     0.000 C 
BRANCH   4   5
ATOM      5  C   UNL     1     144.725  41.040 -10.367  1.00  0.00     0.000 C 
BRANCH   5   6
ATOM      6  C   UNL     1     145.970  41.758 -10.931  1.00  0.00     0.000 C 
BRANCH   6   7
ATOM      7  C   UNL     1     146.298  41.306 -12.365  1.00  0.00     0.000 C 
BRANCH   7   8
ATOM      8  C   UNL     1     145.040  41.143 -13.231  1.00  0.00     0.000 C 
BRANCH   8   9
ATOM      9  C   UNL     1     144.726  42.395 -14.065  1.00  0.00     0.000 C 
BRANCH   9  10
ATOM     10  C   UNL     1     143.508  43.130 -13.496  1.00  0.00     0.000 C 
BRANCH  10  11
ATOM     11  C   UNL     1     143.932  44.353 -12.664  1.00  0.00     0.000 C 
BRANCH  11  12
ATOM     12  C   UNL     1     142.752  44.962 -11.889  1.00  0.00     0.006 C 
BRANCH  12  13
ATOM     13  C   UNL     1     143.213  45.802 -10.688  1.00  0.00     0.053 C 
BRANCH  13  14
ATOM     14  C   UNL     1     142.395  45.479  -9.476  1.00  0.00     0.041 C 
ATOM     15  O   UNL     1     141.217  45.048  -9.603  1.00  0.00    -0.550 OA
ATOM     16  O   UNL     1     142.945  45.616  -8.206  1.00  0.00    -0.550 OA
ENDBRANCH  13  14
ENDBRANCH  12  13
ENDBRANCH  11  12
ENDBRANCH  10  11
ENDBRANCH   9  10
ENDBRANCH   8   9
ENDBRANCH   7   8
ENDBRANCH   6   7
ENDBRANCH   5   6
ENDBRANCH   4   5
ENDBRANCH   3   4
ENDBRANCH   2   3
ENDBRANCH   1   2
BRANCH   1  17
ATOM     17  C   UNL     1     141.097  38.821 -12.650  1.00  0.00     0.000 C 
BRANCH  17  18
ATOM     18  C   UNL     1     142.118  37.684 -12.445  1.00  0.00     0.000 C 
BRANCH  18  19
ATOM     19  C   UNL     1     143.367  37.858 -13.323  1.00  0.00     0.000 C 
BRANCH  19  20
ATOM     20  C   UNL     1     144.646  37.528 -12.542  1.00  0.00     0.000 C 
BRANCH  20  21
ATOM     21  C   UNL     1     144.385  37.296 -11.040  1.00  0.00     0.000 C 
BRANCH  21  22
ATOM     22  C   UNL     1     145.631  37.404 -10.140  1.00  0.00    -0.000 C 
BRANCH  22  23
ATOM     23  C   UNL     1     146.835  38.029 -10.863  1.00  0.00    -0.000 C 
BRANCH  23  24
ATOM     24  C   UNL     1     148.094  38.077  -9.979  1.00  0.00    -0.000 C 
BRANCH  24  25
ATOM     25  C   UNL     1     147.789  38.467  -8.523  1.00  0.00    -0.000 C 
BRANCH  25  26
ATOM     26  C   UNL     1     147.741  39.993  -8.365  1.00  0.00    -0.000 C 
BRANCH  26  27
ATOM     27  C   UNL     1     146.707  40.450  -7.325  1.00  0.00    -0.000 C 
BRANCH  27  28
ATOM     28  C   UNL     1     145.760  39.319  -6.896  1.00  0.00    -0.000 C 
BRANCH  28  29
ATOM     29  C   UNL     1     144.304  39.806  -6.875  1.00  0.00    -0.003 C 
ATOM     30  C   UNL     1     143.379  38.811  -7.569  1.00  0.00     0.004 C 
ENDBRANCH  28  29
ENDBRANCH  27  28
ENDBRANCH  26  27
ENDBRANCH  25  26
ENDBRANCH  24  25
ENDBRANCH  23  24
ENDBRANCH  22  23
ENDBRANCH  21  22
ENDBRANCH  20  21
ENDBRANCH  19  20
ENDBRANCH  18  19
ENDBRANCH  17  18
ENDBRANCH   1  17
TORSDOF 26
ENDMDL
MODEL 9
REMARK VINA RESULT:    -0.565      2.080      4.772
REMARK INTER + INTRA:          -8.229
REMARK INTER:                  -2.433
REMARK INTRA:                  -5.796
REMARK UNBOUND:                -6.806
REMARK SMILES CCCCCCCCCCCCCCCCCCCCCCCCCCCC(=O)[O-]
REMARK SMILES IDX 15 1 16 2 17 3 18 4 19 5 20 6 21 7 22 8 23 9 24 10 25 11
REMARK SMILES IDX 26 12 27 13 28 14 29 15 30 16 14 17 13 18 12 19 11 20 10 21
REMARK SMILES IDX 9 22 8 23 7 24 6 25 5 26 4 27 3 28 2 29 1 30
REMARK H PARENT
REMARK Flexibility Score: inf
ROOT
ATOM      1  C   UNL     1     142.395  41.958  -8.813  1.00  0.00     0.000 C 
ENDROOT
BRANCH   1   2
ATOM      2  C   UNL     1     141.796  42.191 -10.210  1.00  0.00     0.000 C 
BRANCH   2   3
ATOM      3  C   UNL     1     140.472  41.446 -10.419  1.00  0.00     0.000 C 
BRANCH   3   4
ATOM      4  C   UNL     1     140.421  40.681 -11.751  1.00  0.00     0.000 C 
BRANCH   4   5
ATOM      5  C   UNL     1     141.504  41.140 -12.747  1.00  0.00     0.000 C 
BRANCH   5   6
ATOM      6  C   UNL     1     142.206  39.974 -13.476  1.00  0.00     0.000 C 
BRANCH   6   7
ATOM      7  C   UNL     1     141.379  38.677 -13.424  1.00  0.00     0.000 C 
BRANCH   7   8
ATOM      8  C   UNL     1     142.149  37.516 -12.778  1.00  0.00     0.000 C 
BRANCH   8   9
ATOM      9  C   UNL     1     141.386  36.875 -11.608  1.00  0.00     0.000 C 
BRANCH   9  10
ATOM     10  C   UNL     1     141.795  37.522 -10.280  1.00  0.00     0.000 C 
BRANCH  10  11
ATOM     11  C   UNL     1     140.575  37.743  -9.368  1.00  0.00     0.000 C 
BRANCH  11  12
ATOM     12  C   UNL     1     140.928  38.579  -8.126  1.00  0.00     0.006 C 
BRANCH  12  13
ATOM     13  C   UNL     1     139.692  39.244  -7.501  1.00  0.00     0.053 C 
BRANCH  13  14
ATOM     14  C   UNL     1     140.081  40.046  -6.297  1.00  0.00     0.041 C 
ATOM     15  O   UNL     1     139.218  40.739  -5.693  1.00  0.00    -0.550 OA
ATOM     16  O   UNL     1     141.386  40.000  -5.819  1.00  0.00    -0.550 OA
ENDBRANCH  13  14
ENDBRANCH  12  13
ENDBRANCH  11  12
ENDBRANCH  10  11
ENDBRANCH   9  10
ENDBRANCH   8   9
ENDBRANCH   7   8
ENDBRANCH   6   7
ENDBRANCH   5   6
ENDBRANCH   4   5
ENDBRANCH   3   4
ENDBRANCH   2   3
ENDBRANCH   1   2
BRANCH   1  17
ATOM     17  C   UNL     1     143.488  40.874  -8.801  1.00  0.00     0.000 C 
BRANCH  17  18
ATOM     18  C   UNL     1     143.928  40.419 -10.208  1.00  0.00     0.000 C 
BRANCH  18  19
ATOM     19  C   UNL     1     145.278  41.025 -10.620  1.00  0.00     0.000 C 
BRANCH  19  20
ATOM     20  C   UNL     1     145.972  40.164 -11.684  1.00  0.00     0.000 C 
BRANCH  20  21
ATOM     21  C   UNL     1     145.457  38.712 -11.706  1.00  0.00     0.000 C 
BRANCH  21  22
ATOM     22  C   UNL     1     146.385  37.683 -11.031  1.00  0.00    -0.000 C 
BRANCH  22  23
ATOM     23  C   UNL     1     147.798  38.233 -10.775  1.00  0.00    -0.000 C 
BRANCH  23  24
ATOM     24  C   UNL     1     148.102  38.405  -9.276  1.00  0.00    -0.000 C 
BRANCH  24  25
ATOM     25  C   UNL     1     146.916  38.018  -8.377  1.00  0.00    -0.000 C 
BRANCH  25  26
ATOM     26  C   UNL     1     146.539  39.177  -7.443  1.00  0.00    -0.000 C 
BRANCH  26  27
ATOM     27  C   UNL     1     147.342  40.455  -7.731  1.00  0.00    -0.000 C 
BRANCH  27  28
ATOM     28  C   UNL     1     147.268  41.472  -6.583  1.00  0.00    -0.000 C 
BRANCH  28  29
ATOM     29  C   UNL     1     146.220  42.553  -6.879  1.00  0.00    -0.003 C 
ATOM     30  C   UNL     1     146.591  43.357  -8.122  1.00  0.00     0.004 C 
ENDBRANCH  28  29
ENDBRANCH  27  28
ENDBRANCH  26  27
ENDBRANCH  25  26
ENDBRANCH  24  25
ENDBRANCH  23  24
ENDBRANCH  22  23
ENDBRANCH  21  22
ENDBRANCH  20  21
ENDBRANCH  19  20
ENDBRANCH  18  19
ENDBRANCH  17  18
ENDBRANCH   1  17
TORSDOF 26
ENDMDL
