MODEL 1
REMARK VINA RESULT:    -5.603      0.000      0.000
REMARK INTER + INTRA:          -5.603
REMARK INTER:                  -5.603
REMARK INTRA:                   0.000
REMARK UNBOUND:                 0.000
REMARK SMILES O=c1ccc2ccccc2o1
REMARK SMILES IDX 7 1 8 2 9 3 10 4 5 5 6 6 4 7 3 8 2 9 1 10 11 11
REMARK H PARENT
REMARK Flexibility Score: inf
ROOT
ATOM      1  C   UNL     1      12.991  10.469  13.921  1.00  0.00     0.001 A 
ATOM      2  C   UNL     1      12.512  11.016  15.117  1.00  0.00     0.004 A 
ATOM      3  C   UNL     1      11.160  10.899  15.452  1.00  0.00     0.048 A 
ATOM      4  C   UNL     1      10.279  10.235  14.591  1.00  0.00     0.138 A 
ATOM      5  C   UNL     1      10.762   9.683  13.383  1.00  0.00     0.018 A 
ATOM      6  C   UNL     1      12.120   9.803  13.052  1.00  0.00     0.012 A 
ATOM      7  C   UNL     1       9.858   9.026  12.543  1.00  0.00     0.019 A 
ATOM      8  C   UNL     1       8.518   8.933  12.917  1.00  0.00     0.094 A 
ATOM      9  C   UNL     1       8.112   9.503  14.129  1.00  0.00     0.336 A 
ATOM     10  O   UNL     1       6.906   9.431  14.484  1.00  0.00    -0.246 OA
ATOM     11  O   UNL     1       8.992  10.124  14.910  1.00  0.00    -0.423 OA
ENDROOT
TORSDOF 0
ENDMDL
MODEL 2
REMARK VINA RESULT:    -5.385      1.452      2.240
REMARK INTER + INTRA:          -5.385
REMARK INTER:                  -5.385
REMARK INTRA:                   0.000
REMARK UNBOUND:                 0.000
REMARK SMILES O=c1ccc2ccccc2o1
REMARK SMILES IDX 7 1 8 2 9 3 10 4 5 5 6 6 4 7 3 8 2 9 1 10 11 11
REMARK H PARENT
REMARK Flexibility Score: inf
ROOT
ATOM      1  C   UNL     1      12.536  11.093  15.152  1.00  0.00     0.001 A 
ATOM      2  C   UNL     1      13.124  10.635  13.968  1.00  0.00     0.004 A 
ATOM      3  C   UNL     1      12.356   9.951  13.021  1.00  0.00     0.048 A 
ATOM      4  C   UNL     1      10.996   9.721  13.255  1.00  0.00     0.138 A 
ATOM      5  C   UNL     1      10.402  10.183  14.451  1.00  0.00     0.018 A 
ATOM      6  C   UNL     1      11.177  10.869  15.397  1.00  0.00     0.012 A 
ATOM      7  C   UNL     1       9.041   9.937  14.656  1.00  0.00     0.019 A 
ATOM      8  C   UNL     1       8.315   9.251  13.684  1.00  0.00     0.094 A 
ATOM      9  C   UNL     1       8.970   8.823  12.524  1.00  0.00     0.336 A 
ATOM     10  O   UNL     1       8.331   8.201  11.635  1.00  0.00    -0.246 OA
ATOM     11  O   UNL     1      10.266   9.068  12.352  1.00  0.00    -0.423 OA
ENDROOT
TORSDOF 0
ENDMDL
MODEL 3
REMARK VINA RESULT:    -5.379      2.033      4.398
REMARK INTER + INTRA:          -5.379
REMARK INTER:                  -5.379
REMARK INTRA:                   0.000
REMARK UNBOUND:                 0.000
REMARK SMILES O=c1ccc2ccccc2o1
REMARK SMILES IDX 7 1 8 2 9 3 10 4 5 5 6 6 4 7 3 8 2 9 1 10 11 11
REMARK H PARENT
REMARK Flexibility Score: inf
ROOT
ATOM      1  C   UNL     1       8.145   9.638  14.388  1.00  0.00     0.001 A 
ATOM      2  C   UNL     1       8.463   9.003  13.183  1.00  0.00     0.004 A 
ATOM      3  C   UNL     1       9.778   9.016  12.708  1.00  0.00     0.048 A 
ATOM      4  C   UNL     1      10.781   9.665  13.437  1.00  0.00     0.138 A 
ATOM      5  C   UNL     1      10.460  10.307  14.654  1.00  0.00     0.018 A 
ATOM      6  C   UNL     1       9.139  10.291  15.126  1.00  0.00     0.012 A 
ATOM      7  C   UNL     1      11.482  10.948  15.359  1.00  0.00     0.019 A 
ATOM      8  C   UNL     1      12.779  10.935  14.847  1.00  0.00     0.094 A 
ATOM      9  C   UNL     1      13.023  10.279  13.635  1.00  0.00     0.336 A 
ATOM     10  O   UNL     1      14.188  10.258  13.157  1.00  0.00    -0.246 OA
ATOM     11  O   UNL     1      12.032   9.678  12.983  1.00  0.00    -0.423 OA
ENDROOT
TORSDOF 0
ENDMDL
MODEL 4
REMARK VINA RESULT:    -5.378      1.615      3.783
REMARK INTER + INTRA:          -5.378
REMARK INTER:                  -5.378
REMARK INTRA:                   0.000
REMARK UNBOUND:                 0.000
REMARK SMILES O=c1ccc2ccccc2o1
REMARK SMILES IDX 7 1 8 2 9 3 10 4 5 5 6 6 4 7 3 8 2 9 1 10 11 11
REMARK H PARENT
REMARK Flexibility Score: inf
ROOT
ATOM      1  C   UNL     1       8.710   8.649  12.840  1.00  0.00     0.001 A 
ATOM      2  C   UNL     1       8.067   9.193  13.956  1.00  0.00     0.004 A 
ATOM      3  C   UNL     1       8.708  10.161  14.736  1.00  0.00     0.048 A 
ATOM      4  C   UNL     1       9.998  10.588  14.401  1.00  0.00     0.138 A 
ATOM      5  C   UNL     1      10.649  10.039  13.274  1.00  0.00     0.018 A 
ATOM      6  C   UNL     1      10.000   9.068  12.496  1.00  0.00     0.012 A 
ATOM      7  C   UNL     1      11.937  10.485  12.965  1.00  0.00     0.019 A 
ATOM      8  C   UNL     1      12.538  11.451  13.771  1.00  0.00     0.094 A 
ATOM      9  C   UNL     1      11.833  11.951  14.872  1.00  0.00     0.336 A 
ATOM     10  O   UNL     1      12.359  12.823  15.611  1.00  0.00    -0.246 OA
ATOM     11  O   UNL     1      10.608  11.509  15.144  1.00  0.00    -0.423 OA
ENDROOT
TORSDOF 0
ENDMDL
MODEL 5
REMARK VINA RESULT:    -5.203      1.843      3.882
REMARK INTER + INTRA:          -5.203
REMARK INTER:                  -5.203
REMARK INTRA:                   0.000
REMARK UNBOUND:                 0.000
REMARK SMILES O=c1ccc2ccccc2o1
REMARK SMILES IDX 7 1 8 2 9 3 10 4 5 5 6 6 4 7 3 8 2 9 1 10 11 11
REMARK H PARENT
REMARK Flexibility Score: inf
ROOT
ATOM      1  C   UNL     1       8.113   9.000  13.309  1.00  0.00     0.001 A 
ATOM      2  C   UNL     1       8.181   9.400  14.648  1.00  0.00     0.004 A 
ATOM      3  C   UNL     1       9.395   9.831  15.192  1.00  0.00     0.048 A 
ATOM      4  C   UNL     1      10.547   9.863  14.399  1.00  0.00     0.138 A 
ATOM      5  C   UNL     1      10.479   9.459  13.046  1.00  0.00     0.018 A 
ATOM      6  C   UNL     1       9.259   9.028  12.506  1.00  0.00     0.012 A 
ATOM      7  C   UNL     1      11.646   9.502  12.279  1.00  0.00     0.019 A 
ATOM      8  C   UNL     1      12.834   9.939  12.863  1.00  0.00     0.094 A 
ATOM      9  C   UNL     1      12.827  10.324  14.209  1.00  0.00     0.336 A 
ATOM     10  O   UNL     1      13.890  10.721  14.754  1.00  0.00    -0.246 OA
ATOM     11  O   UNL     1      11.702  10.273  14.918  1.00  0.00    -0.423 OA
ENDROOT
TORSDOF 0
ENDMDL
MODEL 6
REMARK VINA RESULT:    -5.120      1.169      2.282
REMARK INTER + INTRA:          -5.120
REMARK INTER:                  -5.120
REMARK INTRA:                   0.000
REMARK UNBOUND:                 0.000
REMARK SMILES O=c1ccc2ccccc2o1
REMARK SMILES IDX 7 1 8 2 9 3 10 4 5 5 6 6 4 7 3 8 2 9 1 10 11 11
REMARK H PARENT
REMARK Flexibility Score: inf
ROOT
ATOM      1  C   UNL     1      13.175   9.789  12.723  1.00  0.00     0.001 A 
ATOM      2  C   UNL     1      12.385   9.678  11.575  1.00  0.00     0.004 A 
ATOM      3  C   UNL     1      10.995   9.565  11.686  1.00  0.00     0.048 A 
ATOM      4  C   UNL     1      10.391   9.563  12.947  1.00  0.00     0.138 A 
ATOM      5  C   UNL     1      11.189   9.675  14.108  1.00  0.00     0.018 A 
ATOM      6  C   UNL     1      12.582   9.788  13.990  1.00  0.00     0.012 A 
ATOM      7  C   UNL     1      10.557   9.669  15.355  1.00  0.00     0.019 A 
ATOM      8  C   UNL     1       9.169   9.555  15.418  1.00  0.00     0.094 A 
ATOM      9  C   UNL     1       8.442   9.448  14.226  1.00  0.00     0.336 A 
ATOM     10  O   UNL     1       7.188   9.343  14.263  1.00  0.00    -0.246 OA
ATOM     11  O   UNL     1       9.068   9.455  13.052  1.00  0.00    -0.423 OA
ENDROOT
TORSDOF 0
ENDMDL
MODEL 7
REMARK VINA RESULT:    -4.989      1.743      2.274
REMARK INTER + INTRA:          -4.989
REMARK INTER:                  -4.989
REMARK INTRA:                   0.000
REMARK UNBOUND:                 0.000
REMARK SMILES O=c1ccc2ccccc2o1
REMARK SMILES IDX 7 1 8 2 9 3 10 4 5 5 6 6 4 7 3 8 2 9 1 10 11 11
REMARK H PARENT
REMARK Flexibility Score: inf
ROOT
ATOM      1  C   UNL     1      12.524  10.192  11.584  1.00  0.00     0.001 A 
ATOM      2  C   UNL     1      13.401  10.579  12.603  1.00  0.00     0.004 A 
ATOM      3  C   UNL     1      12.988  10.541  13.938  1.00  0.00     0.048 A 
ATOM      4  C   UNL     1      11.694  10.117  14.260  1.00  0.00     0.138 A 
ATOM      5  C   UNL     1      10.807   9.727  13.231  1.00  0.00     0.018 A 
ATOM      6  C   UNL     1      11.227   9.767  11.894  1.00  0.00     0.012 A 
ATOM      7  C   UNL     1       9.521   9.308  13.584  1.00  0.00     0.019 A 
ATOM      8  C   UNL     1       9.153   9.287  14.928  1.00  0.00     0.094 A 
ATOM      9  C   UNL     1      10.084   9.687  15.893  1.00  0.00     0.336 A 
ATOM     10  O   UNL     1       9.769   9.675  17.112  1.00  0.00    -0.246 OA
ATOM     11  O   UNL     1      11.302  10.082  15.532  1.00  0.00    -0.423 OA
ENDROOT
TORSDOF 0
ENDMDL
MODEL 8
REMARK VINA RESULT:    -4.893      2.260      3.918
REMARK INTER + INTRA:          -4.893
REMARK INTER:                  -4.893
REMARK INTRA:                   0.000
REMARK UNBOUND:                 0.000
REMARK SMILES O=c1ccc2ccccc2o1
REMARK SMILES IDX 7 1 8 2 9 3 10 4 5 5 6 6 4 7 3 8 2 9 1 10 11 11
REMARK H PARENT
REMARK Flexibility Score: inf
ROOT
ATOM      1  C   UNL     1       8.541   9.345  14.469  1.00  0.00     0.001 A 
ATOM      2  C   UNL     1       9.216   9.668  15.651  1.00  0.00     0.004 A 
ATOM      3  C   UNL     1      10.581   9.970  15.622  1.00  0.00     0.048 A 
ATOM      4  C   UNL     1      11.278   9.947  14.409  1.00  0.00     0.138 A 
ATOM      5  C   UNL     1      10.597   9.620  13.214  1.00  0.00     0.018 A 
ATOM      6  C   UNL     1       9.228   9.319  13.250  1.00  0.00     0.012 A 
ATOM      7  C   UNL     1      11.320   9.606  12.018  1.00  0.00     0.019 A 
ATOM      8  C   UNL     1      12.680   9.913  12.036  1.00  0.00     0.094 A 
ATOM      9  C   UNL     1      13.288  10.228  13.257  1.00  0.00     0.336 A 
ATOM     10  O   UNL     1      14.515  10.507  13.293  1.00  0.00    -0.246 OA
ATOM     11  O   UNL     1      12.578  10.234  14.382  1.00  0.00    -0.423 OA
ENDROOT
TORSDOF 0
ENDMDL
MODEL 9
REMARK VINA RESULT:    -4.630      3.562      4.171
REMARK INTER + INTRA:          -4.630
REMARK INTER:                  -4.630
REMARK INTRA:                   0.000
REMARK UNBOUND:                 0.000
REMARK SMILES O=c1ccc2ccccc2o1
REMARK SMILES IDX 7 1 8 2 9 3 10 4 5 5 6 6 4 7 3 8 2 9 1 10 11 11
REMARK H PARENT
REMARK Flexibility Score: inf
ROOT
ATOM      1  C   UNL     1      14.582   8.618  11.650  1.00  0.00     0.001 A 
ATOM      2  C   UNL     1      14.933   8.287  12.963  1.00  0.00     0.004 A 
ATOM      3  C   UNL     1      14.474   9.063  14.031  1.00  0.00     0.048 A 
ATOM      4  C   UNL     1      13.661  10.176  13.790  1.00  0.00     0.138 A 
ATOM      5  C   UNL     1      13.305  10.512  12.464  1.00  0.00     0.018 A 
ATOM      6  C   UNL     1      13.770   9.729  11.397  1.00  0.00     0.012 A 
ATOM      7  C   UNL     1      12.492  11.629  12.255  1.00  0.00     0.019 A 
ATOM      8  C   UNL     1      12.057  12.374  13.350  1.00  0.00     0.094 A 
ATOM      9  C   UNL     1      12.449  11.982  14.636  1.00  0.00     0.336 A 
ATOM     10  O   UNL     1      12.067  12.643  15.637  1.00  0.00    -0.246 OA
ATOM     11  O   UNL     1      13.224  10.915  14.808  1.00  0.00    -0.423 OA
ENDROOT
TORSDOF 0
ENDMDL
