MODEL 1
REMARK VINA RESULT:    -3.430      0.000      0.000
REMARK INTER + INTRA:          -3.878
REMARK INTER:                  -3.831
REMARK INTRA:                  -0.047
REMARK UNBOUND:                -0.047
REMARK SMILES O=C([O-])c1ccccc1C(=O)[O-]
REMARK SMILES IDX 4 1 9 2 5 3 8 4 6 5 7 6 2 7 1 8 3 9 10 10 11 11 12 12
REMARK H PARENT
REMARK Flexibility Score: inf
ROOT
ATOM      1  C   UNL     1      44.945  19.407  72.178  1.00  0.00     0.006 A 
ATOM      2  C   UNL     1      44.364  19.385  73.477  1.00  0.00     0.006 A 
ATOM      3  C   UNL     1      46.199  18.801  71.979  1.00  0.00     0.010 A 
ATOM      4  C   UNL     1      45.028  18.702  74.512  1.00  0.00     0.010 A 
ATOM      5  C   UNL     1      46.850  18.147  73.026  1.00  0.00     0.001 A 
ATOM      6  C   UNL     1      46.261  18.088  74.286  1.00  0.00     0.001 A 
ENDROOT
BRANCH   1   7
ATOM      7  C   UNL     1      44.260  19.982  70.996  1.00  0.00     0.072 C 
ATOM      8  O   UNL     1      44.672  21.049  70.469  1.00  0.00    -0.545 OA
ATOM      9  O   UNL     1      43.110  19.382  70.497  1.00  0.00    -0.545 OA
ENDBRANCH   1   7
BRANCH   2  10
ATOM     10  C   UNL     1      43.117  20.111  73.817  1.00  0.00     0.072 C 
ATOM     11  O   UNL     1      43.144  21.125  74.562  1.00  0.00    -0.545 OA
ATOM     12  O   UNL     1      41.891  19.635  73.367  1.00  0.00    -0.545 OA
ENDBRANCH   2  10
TORSDOF 2
ENDMDL
MODEL 2
REMARK VINA RESULT:    -3.224     18.186     19.378
REMARK INTER + INTRA:          -3.648
REMARK INTER:                  -3.605
REMARK INTRA:                  -0.043
REMARK UNBOUND:                -0.047
REMARK SMILES O=C([O-])c1ccccc1C(=O)[O-]
REMARK SMILES IDX 4 1 9 2 5 3 8 4 6 5 7 6 2 7 1 8 3 9 10 10 11 11 12 12
REMARK H PARENT
REMARK Flexibility Score: inf
ROOT
ATOM      1  C   UNL     1      39.212   3.460  81.201  1.00  0.00     0.006 A 
ATOM      2  C   UNL     1      39.187   2.339  80.325  1.00  0.00     0.006 A 
ATOM      3  C   UNL     1      38.266   3.538  82.240  1.00  0.00     0.010 A 
ATOM      4  C   UNL     1      38.260   1.306  80.562  1.00  0.00     0.010 A 
ATOM      5  C   UNL     1      37.342   2.512  82.443  1.00  0.00     0.001 A 
ATOM      6  C   UNL     1      37.346   1.395  81.613  1.00  0.00     0.001 A 
ENDROOT
BRANCH   1   7
ATOM      7  C   UNL     1      40.235   4.529  81.117  1.00  0.00     0.072 C 
ATOM      8  O   UNL     1      39.976   5.626  80.556  1.00  0.00    -0.545 OA
ATOM      9  O   UNL     1      41.518   4.304  81.600  1.00  0.00    -0.545 OA
ENDBRANCH   1   7
BRANCH   2  10
ATOM     10  C   UNL     1      40.049   2.232  79.124  1.00  0.00     0.072 C 
ATOM     11  O   UNL     1      40.069   3.150  78.263  1.00  0.00    -0.545 OA
ATOM     12  O   UNL     1      40.795   1.081  78.904  1.00  0.00    -0.545 OA
ENDBRANCH   2  10
TORSDOF 2
ENDMDL
MODEL 3
REMARK VINA RESULT:    -3.210     18.140     19.206
REMARK INTER + INTRA:          -3.632
REMARK INTER:                  -3.601
REMARK INTRA:                  -0.031
REMARK UNBOUND:                -0.047
REMARK SMILES O=C([O-])c1ccccc1C(=O)[O-]
REMARK SMILES IDX 4 1 9 2 5 3 8 4 6 5 7 6 2 7 1 8 3 9 10 10 11 11 12 12
REMARK H PARENT
REMARK Flexibility Score: inf
ROOT
ATOM      1  C   UNL     1      39.160   2.399  80.320  1.00  0.00     0.006 A 
ATOM      2  C   UNL     1      39.197   3.512  81.207  1.00  0.00     0.006 A 
ATOM      3  C   UNL     1      38.239   1.363  80.560  1.00  0.00     0.010 A 
ATOM      4  C   UNL     1      38.267   3.578  82.261  1.00  0.00     0.010 A 
ATOM      5  C   UNL     1      37.341   1.439  81.626  1.00  0.00     0.001 A 
ATOM      6  C   UNL     1      37.348   2.548  82.467  1.00  0.00     0.001 A 
ENDROOT
BRANCH   1   7
ATOM      7  C   UNL     1      40.004   2.306  79.105  1.00  0.00     0.072 C 
ATOM      8  O   UNL     1      40.024   3.240  78.261  1.00  0.00    -0.545 OA
ATOM      9  O   UNL     1      40.734   1.151  78.852  1.00  0.00    -0.545 OA
ENDBRANCH   1   7
BRANCH   2  10
ATOM     10  C   UNL     1      40.218   4.583  81.117  1.00  0.00     0.072 C 
ATOM     11  O   UNL     1      39.950   5.685  80.569  1.00  0.00    -0.545 OA
ATOM     12  O   UNL     1      41.508   4.354  81.580  1.00  0.00    -0.545 OA
ENDBRANCH   2  10
TORSDOF 2
ENDMDL
MODEL 4
REMARK VINA RESULT:    -3.091     18.340     19.606
REMARK INTER + INTRA:          -3.500
REMARK INTER:                  -3.356
REMARK INTRA:                  -0.143
REMARK UNBOUND:                -0.047
REMARK SMILES O=C([O-])c1ccccc1C(=O)[O-]
REMARK SMILES IDX 4 1 9 2 5 3 8 4 6 5 7 6 2 7 1 8 3 9 10 10 11 11 12 12
REMARK H PARENT
REMARK Flexibility Score: inf
ROOT
ATOM      1  C   UNL     1      38.872   2.904  81.361  1.00  0.00     0.006 A 
ATOM      2  C   UNL     1      40.088   2.927  80.622  1.00  0.00     0.006 A 
ATOM      3  C   UNL     1      38.671   3.857  82.377  1.00  0.00     0.010 A 
ATOM      4  C   UNL     1      41.028   3.941  80.882  1.00  0.00     0.010 A 
ATOM      5  C   UNL     1      39.626   4.841  82.632  1.00  0.00     0.001 A 
ATOM      6  C   UNL     1      40.796   4.890  81.879  1.00  0.00     0.001 A 
ENDROOT
BRANCH   1   7
ATOM      7  C   UNL     1      37.766   1.962  81.069  1.00  0.00     0.072 C 
ATOM      8  O   UNL     1      37.132   2.030  79.984  1.00  0.00    -0.545 OA
ATOM      9  O   UNL     1      37.373   1.032  82.024  1.00  0.00    -0.545 OA
ENDBRANCH   1   7
BRANCH   2  10
ATOM     10  C   UNL     1      40.450   1.887  79.630  1.00  0.00     0.072 C 
ATOM     11  O   UNL     1      41.123   0.879  79.970  1.00  0.00    -0.545 OA
ATOM     12  O   UNL     1      40.105   2.050  78.294  1.00  0.00    -0.545 OA
ENDBRANCH   2  10
TORSDOF 2
ENDMDL
MODEL 5
REMARK VINA RESULT:    -3.058     18.269     19.371
REMARK INTER + INTRA:          -3.462
REMARK INTER:                  -3.363
REMARK INTRA:                  -0.099
REMARK UNBOUND:                -0.047
REMARK SMILES O=C([O-])c1ccccc1C(=O)[O-]
REMARK SMILES IDX 4 1 9 2 5 3 8 4 6 5 7 6 2 7 1 8 3 9 10 10 11 11 12 12
REMARK H PARENT
REMARK Flexibility Score: inf
ROOT
ATOM      1  C   UNL     1      40.076   3.026  80.543  1.00  0.00     0.006 A 
ATOM      2  C   UNL     1      38.889   2.956  81.324  1.00  0.00     0.006 A 
ATOM      3  C   UNL     1      41.006   4.050  80.801  1.00  0.00     0.010 A 
ATOM      4  C   UNL     1      38.707   3.873  82.376  1.00  0.00     0.010 A 
ATOM      5  C   UNL     1      40.794   4.962  81.836  1.00  0.00     0.001 A 
ATOM      6  C   UNL     1      39.654   4.867  82.628  1.00  0.00     0.001 A 
ENDROOT
BRANCH   1   7
ATOM      7  C   UNL     1      40.421   2.025  79.505  1.00  0.00     0.072 C 
ATOM      8  O   UNL     1      40.037   2.173  78.316  1.00  0.00    -0.545 OA
ATOM      9  O   UNL     1      41.119   0.875  79.852  1.00  0.00    -0.545 OA
ENDBRANCH   1   7
BRANCH   2  10
ATOM     10  C   UNL     1      37.790   2.003  81.041  1.00  0.00     0.072 C 
ATOM     11  O   UNL     1      37.167   2.043  79.947  1.00  0.00    -0.545 OA
ATOM     12  O   UNL     1      37.391   1.093  82.012  1.00  0.00    -0.545 OA
ENDBRANCH   2  10
TORSDOF 2
ENDMDL
MODEL 6
REMARK VINA RESULT:    -2.568     13.288     14.988
REMARK INTER + INTRA:          -2.915
REMARK INTER:                  -2.795
REMARK INTRA:                  -0.120
REMARK UNBOUND:                -0.047
REMARK SMILES O=C([O-])c1ccccc1C(=O)[O-]
REMARK SMILES IDX 4 1 9 2 5 3 8 4 6 5 7 6 2 7 1 8 3 9 10 10 11 11 12 12
REMARK H PARENT
REMARK Flexibility Score: inf
ROOT
ATOM      1  C   UNL     1      33.107  14.829  81.327  1.00  0.00     0.006 A 
ATOM      2  C   UNL     1      34.043  13.756  81.343  1.00  0.00     0.006 A 
ATOM      3  C   UNL     1      32.086  14.860  82.295  1.00  0.00     0.010 A 
ATOM      4  C   UNL     1      33.962  12.792  82.364  1.00  0.00     0.010 A 
ATOM      5  C   UNL     1      32.012  13.880  83.286  1.00  0.00     0.001 A 
ATOM      6  C   UNL     1      32.954  12.855  83.327  1.00  0.00     0.001 A 
ENDROOT
BRANCH   1   7
ATOM      7  C   UNL     1      33.193  15.963  80.377  1.00  0.00     0.072 C 
ATOM      8  O   UNL     1      32.569  15.935  79.284  1.00  0.00    -0.545 OA
ATOM      9  O   UNL     1      34.020  17.044  80.656  1.00  0.00    -0.545 OA
ENDBRANCH   1   7
BRANCH   2  10
ATOM     10  C   UNL     1      35.066  13.563  80.288  1.00  0.00     0.072 C 
ATOM     11  O   UNL     1      36.039  14.355  80.181  1.00  0.00    -0.545 OA
ATOM     12  O   UNL     1      34.924  12.537  79.361  1.00  0.00    -0.545 OA
ENDBRANCH   2  10
TORSDOF 2
ENDMDL
MODEL 7
REMARK VINA RESULT:    -2.566     13.244     14.893
REMARK INTER + INTRA:          -2.912
REMARK INTER:                  -2.790
REMARK INTRA:                  -0.123
REMARK UNBOUND:                -0.047
REMARK SMILES O=C([O-])c1ccccc1C(=O)[O-]
REMARK SMILES IDX 4 1 9 2 5 3 8 4 6 5 7 6 2 7 1 8 3 9 10 10 11 11 12 12
REMARK H PARENT
REMARK Flexibility Score: inf
ROOT
ATOM      1  C   UNL     1      34.049  13.781  81.311  1.00  0.00     0.006 A 
ATOM      2  C   UNL     1      33.097  14.839  81.319  1.00  0.00     0.006 A 
ATOM      3  C   UNL     1      33.996  12.806  82.324  1.00  0.00     0.010 A 
ATOM      4  C   UNL     1      32.089  14.846  82.301  1.00  0.00     0.010 A 
ATOM      5  C   UNL     1      33.001  12.844  83.301  1.00  0.00     0.001 A 
ATOM      6  C   UNL     1      32.044  13.855  83.283  1.00  0.00     0.001 A 
ENDROOT
BRANCH   1   7
ATOM      7  C   UNL     1      35.061  13.613  80.242  1.00  0.00     0.072 C 
ATOM      8  O   UNL     1      36.024  14.417  80.134  1.00  0.00    -0.545 OA
ATOM      9  O   UNL     1      34.919  12.600  79.301  1.00  0.00    -0.545 OA
ENDBRANCH   1   7
BRANCH   2  10
ATOM     10  C   UNL     1      33.154  15.984  80.380  1.00  0.00     0.072 C 
ATOM     11  O   UNL     1      32.506  15.964  79.300  1.00  0.00    -0.545 OA
ATOM     12  O   UNL     1      33.980  17.067  80.652  1.00  0.00    -0.545 OA
ENDBRANCH   2  10
TORSDOF 2
ENDMDL
MODEL 8
REMARK VINA RESULT:    -2.496     13.443     15.174
REMARK INTER + INTRA:          -2.835
REMARK INTER:                  -3.473
REMARK INTRA:                   0.639
REMARK UNBOUND:                -0.047
REMARK SMILES O=C([O-])c1ccccc1C(=O)[O-]
REMARK SMILES IDX 4 1 9 2 5 3 8 4 6 5 7 6 2 7 1 8 3 9 10 10 11 11 12 12
REMARK H PARENT
REMARK Flexibility Score: inf
ROOT
ATOM      1  C   UNL     1      33.160  14.567  81.242  1.00  0.00     0.006 A 
ATOM      2  C   UNL     1      34.249  13.907  80.606  1.00  0.00     0.006 A 
ATOM      3  C   UNL     1      32.800  15.859  80.816  1.00  0.00     0.010 A 
ATOM      4  C   UNL     1      34.894  14.536  79.525  1.00  0.00     0.010 A 
ATOM      5  C   UNL     1      33.468  16.473  79.756  1.00  0.00     0.001 A 
ATOM      6  C   UNL     1      34.505  15.809  79.105  1.00  0.00     0.001 A 
ENDROOT
BRANCH   1   7
ATOM      7  C   UNL     1      32.334  13.932  82.295  1.00  0.00     0.072 C 
ATOM      8  O   UNL     1      31.745  14.631  83.161  1.00  0.00    -0.545 OA
ATOM      9  O   UNL     1      32.255  12.547  82.378  1.00  0.00    -0.545 OA
ENDBRANCH   1   7
BRANCH   2  10
ATOM     10  C   UNL     1      34.789  12.608  81.072  1.00  0.00     0.072 C 
ATOM     11  O   UNL     1      34.853  11.620  80.294  1.00  0.00    -0.545 OA
ATOM     12  O   UNL     1      35.170  12.449  82.399  1.00  0.00    -0.545 OA
ENDBRANCH   2  10
TORSDOF 2
ENDMDL
MODEL 9
REMARK VINA RESULT:    -2.478     13.417     14.962
REMARK INTER + INTRA:          -2.814
REMARK INTER:                  -3.457
REMARK INTRA:                   0.642
REMARK UNBOUND:                -0.047
REMARK SMILES O=C([O-])c1ccccc1C(=O)[O-]
REMARK SMILES IDX 4 1 9 2 5 3 8 4 6 5 7 6 2 7 1 8 3 9 10 10 11 11 12 12
REMARK H PARENT
REMARK Flexibility Score: inf
ROOT
ATOM      1  C   UNL     1      34.264  13.908  80.587  1.00  0.00     0.006 A 
ATOM      2  C   UNL     1      33.178  14.555  81.241  1.00  0.00     0.006 A 
ATOM      3  C   UNL     1      34.902  14.559  79.514  1.00  0.00     0.010 A 
ATOM      4  C   UNL     1      32.814  15.854  80.840  1.00  0.00     0.010 A 
ATOM      5  C   UNL     1      34.510  15.838  79.120  1.00  0.00     0.001 A 
ATOM      6  C   UNL     1      33.476  16.489  79.788  1.00  0.00     0.001 A 
ENDROOT
BRANCH   1   7
ATOM      7  C   UNL     1      34.808  12.601  81.024  1.00  0.00     0.072 C 
ATOM      8  O   UNL     1      34.884  11.634  80.222  1.00  0.00    -0.545 OA
ATOM      9  O   UNL     1      35.179  12.410  82.350  1.00  0.00    -0.545 OA
ENDBRANCH   1   7
BRANCH   2  10
ATOM     10  C   UNL     1      32.357  13.899  82.286  1.00  0.00     0.072 C 
ATOM     11  O   UNL     1      31.788  14.578  83.180  1.00  0.00    -0.545 OA
ATOM     12  O   UNL     1      32.264  12.513  82.328  1.00  0.00    -0.545 OA
ENDBRANCH   2  10
TORSDOF 2
ENDMDL
