MODEL 1
REMARK VINA RESULT:    -4.779      0.000      0.000
REMARK INTER + INTRA:          -4.779
REMARK INTER:                  -4.779
REMARK INTRA:                   0.000
REMARK UNBOUND:                 0.000
REMARK SMILES CC(C)=C1CC[C@H](C)CC1=O
REMARK SMILES IDX 8 1 7 2 6 3 5 4 4 5 2 6 1 7 3 8 10 9 11 10 9 11
REMARK H PARENT
REMARK Flexibility Score: inf
ROOT
ATOM      1  C   UNL     1      14.962  19.445  29.930  1.00  0.00     0.008 C 
ATOM      2  C   UNL     1      15.995  18.474  30.513  1.00  0.00    -0.006 C 
ATOM      3  C   UNL     1      15.321  17.474  31.464  1.00  0.00     0.008 C 
ATOM      4  C   UNL     1      16.355  16.559  32.135  1.00  0.00     0.039 C 
ATOM      5  C   UNL     1      17.276  15.881  31.130  1.00  0.00    -0.006 C 
ATOM      6  C   UNL     1      17.787  14.637  31.362  1.00  0.00    -0.070 C 
ATOM      7  C   UNL     1      18.656  13.930  30.346  1.00  0.00     0.039 C 
ATOM      8  C   UNL     1      17.477  13.887  32.638  1.00  0.00     0.039 C 
ATOM      9  C   UNL     1      17.669  16.700  29.945  1.00  0.00     0.159 C 
ATOM     10  O   UNL     1      18.795  16.560  29.397  1.00  0.00    -0.295 OA
ATOM     11  C   UNL     1      16.720  17.721  29.387  1.00  0.00     0.084 C 
ENDROOT
TORSDOF 0
ENDMDL
MODEL 2
REMARK VINA RESULT:    -4.351     15.027     16.466
REMARK INTER + INTRA:          -4.351
REMARK INTER:                  -4.351
REMARK INTRA:                   0.000
REMARK UNBOUND:                 0.000
REMARK SMILES CC(C)=C1CC[C@H](C)CC1=O
REMARK SMILES IDX 8 1 7 2 6 3 5 4 4 5 2 6 1 7 3 8 10 9 11 10 9 11
REMARK H PARENT
REMARK Flexibility Score: inf
ROOT
ATOM      1  C   UNL     1      16.181  32.456  29.299  1.00  0.00     0.008 C 
ATOM      2  C   UNL     1      17.693  32.541  29.061  1.00  0.00    -0.006 C 
ATOM      3  C   UNL     1      18.277  33.794  29.729  1.00  0.00     0.008 C 
ATOM      4  C   UNL     1      19.771  33.949  29.415  1.00  0.00     0.039 C 
ATOM      5  C   UNL     1      20.568  32.691  29.734  1.00  0.00    -0.006 C 
ATOM      6  C   UNL     1      21.867  32.760  30.147  1.00  0.00    -0.070 C 
ATOM      7  C   UNL     1      22.651  31.523  30.520  1.00  0.00     0.039 C 
ATOM      8  C   UNL     1      22.577  34.088  30.286  1.00  0.00     0.039 C 
ATOM      9  C   UNL     1      19.883  31.394  29.458  1.00  0.00     0.159 C 
ATOM     10  O   UNL     1      20.532  30.375  29.097  1.00  0.00    -0.295 OA
ATOM     11  C   UNL     1      18.393  31.284  29.600  1.00  0.00     0.084 C 
ENDROOT
TORSDOF 0
ENDMDL
MODEL 3
REMARK VINA RESULT:    -4.336     14.048     16.438
REMARK INTER + INTRA:          -4.336
REMARK INTER:                  -4.336
REMARK INTRA:                   0.000
REMARK UNBOUND:                 0.000
REMARK SMILES CC(C)=C1CC[C@H](C)CC1=O
REMARK SMILES IDX 8 1 7 2 6 3 5 4 4 5 2 6 1 7 3 8 10 9 11 10 9 11
REMARK H PARENT
REMARK Flexibility Score: inf
ROOT
ATOM      1  C   UNL     1      22.578  33.601  29.934  1.00  0.00     0.008 C 
ATOM      2  C   UNL     1      21.245  33.036  29.431  1.00  0.00    -0.006 C 
ATOM      3  C   UNL     1      21.024  31.613  29.966  1.00  0.00     0.008 C 
ATOM      4  C   UNL     1      19.743  30.994  29.391  1.00  0.00     0.039 C 
ATOM      5  C   UNL     1      18.524  31.886  29.583  1.00  0.00    -0.006 C 
ATOM      6  C   UNL     1      17.278  31.358  29.760  1.00  0.00    -0.070 C 
ATOM      7  C   UNL     1      16.070  32.232  30.008  1.00  0.00     0.039 C 
ATOM      8  C   UNL     1      17.052  29.863  29.751  1.00  0.00     0.039 C 
ATOM      9  C   UNL     1      18.761  33.355  29.453  1.00  0.00     0.159 C 
ATOM     10  O   UNL     1      17.871  34.123  29.000  1.00  0.00    -0.295 OA
ATOM     11  C   UNL     1      20.081  33.943  29.858  1.00  0.00     0.084 C 
ENDROOT
TORSDOF 0
ENDMDL
MODEL 4
REMARK VINA RESULT:    -4.210     12.834     14.721
REMARK INTER + INTRA:          -4.210
REMARK INTER:                  -4.210
REMARK INTRA:                   0.000
REMARK UNBOUND:                 0.000
REMARK SMILES CC(C)=C1CC[C@H](C)CC1=O
REMARK SMILES IDX 8 1 7 2 6 3 5 4 4 5 2 6 1 7 3 8 10 9 11 10 9 11
REMARK H PARENT
REMARK Flexibility Score: inf
ROOT
ATOM      1  C   UNL     1      21.427  28.635  30.310  1.00  0.00     0.008 C 
ATOM      2  C   UNL     1      20.268  29.616  30.520  1.00  0.00    -0.006 C 
ATOM      3  C   UNL     1      20.113  30.540  29.303  1.00  0.00     0.008 C 
ATOM      4  C   UNL     1      19.023  31.594  29.539  1.00  0.00     0.039 C 
ATOM      5  C   UNL     1      17.701  30.980  29.980  1.00  0.00    -0.006 C 
ATOM      6  C   UNL     1      16.507  31.549  29.643  1.00  0.00    -0.070 C 
ATOM      7  C   UNL     1      15.188  30.918  30.026  1.00  0.00     0.039 C 
ATOM      8  C   UNL     1      16.446  32.826  28.835  1.00  0.00     0.039 C 
ATOM      9  C   UNL     1      17.798  29.798  30.887  1.00  0.00     0.159 C 
ATOM     10  O   UNL     1      16.921  29.574  31.764  1.00  0.00    -0.295 OA
ATOM     11  C   UNL     1      18.958  28.853  30.771  1.00  0.00     0.084 C 
ENDROOT
TORSDOF 0
ENDMDL
MODEL 5
REMARK VINA RESULT:    -4.168     14.693     16.059
REMARK INTER + INTRA:          -4.168
REMARK INTER:                  -4.168
REMARK INTRA:                   0.000
REMARK UNBOUND:                 0.000
REMARK SMILES CC(C)=C1CC[C@H](C)CC1=O
REMARK SMILES IDX 8 1 7 2 6 3 5 4 4 5 2 6 1 7 3 8 10 9 11 10 9 11
REMARK H PARENT
REMARK Flexibility Score: inf
ROOT
ATOM      1  C   UNL     1      15.470  30.797  29.529  1.00  0.00     0.008 C 
ATOM      2  C   UNL     1      16.665  31.580  30.084  1.00  0.00    -0.006 C 
ATOM      3  C   UNL     1      17.610  30.650  30.859  1.00  0.00     0.008 C 
ATOM      4  C   UNL     1      18.758  31.435  31.507  1.00  0.00     0.039 C 
ATOM      5  C   UNL     1      19.496  32.320  30.511  1.00  0.00    -0.006 C 
ATOM      6  C   UNL     1      20.830  32.580  30.645  1.00  0.00    -0.070 C 
ATOM      7  C   UNL     1      21.585  33.409  29.632  1.00  0.00     0.039 C 
ATOM      8  C   UNL     1      21.627  32.016  31.799  1.00  0.00     0.039 C 
ATOM      9  C   UNL     1      18.655  32.967  29.461  1.00  0.00     0.159 C 
ATOM     10  O   UNL     1      18.948  34.101  28.995  1.00  0.00    -0.295 OA
ATOM     11  C   UNL     1      17.429  32.272  28.944  1.00  0.00     0.084 C 
ENDROOT
TORSDOF 0
ENDMDL
MODEL 6
REMARK VINA RESULT:    -4.147     18.639     19.763
REMARK INTER + INTRA:          -4.147
REMARK INTER:                  -4.147
REMARK INTRA:                   0.000
REMARK UNBOUND:                 0.000
REMARK SMILES CC(C)=C1CC[C@H](C)CC1=O
REMARK SMILES IDX 8 1 7 2 6 3 5 4 4 5 2 6 1 7 3 8 10 9 11 10 9 11
REMARK H PARENT
REMARK Flexibility Score: inf
ROOT
ATOM      1  C   UNL     1      31.968  32.613  28.249  1.00  0.00     0.008 C 
ATOM      2  C   UNL     1      30.791  32.597  29.231  1.00  0.00    -0.006 C 
ATOM      3  C   UNL     1      29.551  33.247  28.600  1.00  0.00     0.008 C 
ATOM      4  C   UNL     1      28.394  33.332  29.605  1.00  0.00     0.039 C 
ATOM      5  C   UNL     1      28.084  31.990  30.255  1.00  0.00    -0.006 C 
ATOM      6  C   UNL     1      26.815  31.661  30.634  1.00  0.00    -0.070 C 
ATOM      7  C   UNL     1      26.486  30.310  31.228  1.00  0.00     0.039 C 
ATOM      8  C   UNL     1      25.665  32.624  30.444  1.00  0.00     0.039 C 
ATOM      9  C   UNL     1      29.260  31.118  30.549  1.00  0.00     0.159 C 
ATOM     10  O   UNL     1      29.267  30.343  31.543  1.00  0.00    -0.295 OA
ATOM     11  C   UNL     1      30.469  31.158  29.660  1.00  0.00     0.084 C 
ENDROOT
TORSDOF 0
ENDMDL
MODEL 7
REMARK VINA RESULT:    -4.120     14.079     16.459
REMARK INTER + INTRA:          -4.120
REMARK INTER:                  -4.120
REMARK INTRA:                   0.000
REMARK UNBOUND:                 0.000
REMARK SMILES CC(C)=C1CC[C@H](C)CC1=O
REMARK SMILES IDX 8 1 7 2 6 3 5 4 4 5 2 6 1 7 3 8 10 9 11 10 9 11
REMARK H PARENT
REMARK Flexibility Score: inf
ROOT
ATOM      1  C   UNL     1      22.845  33.783  30.055  1.00  0.00     0.008 C 
ATOM      2  C   UNL     1      21.404  33.366  30.368  1.00  0.00    -0.006 C 
ATOM      3  C   UNL     1      20.414  34.123  29.469  1.00  0.00     0.008 C 
ATOM      4  C   UNL     1      18.961  33.793  29.839  1.00  0.00     0.039 C 
ATOM      5  C   UNL     1      18.692  32.295  29.872  1.00  0.00    -0.006 C 
ATOM      6  C   UNL     1      17.469  31.786  29.543  1.00  0.00    -0.070 C 
ATOM      7  C   UNL     1      17.207  30.298  29.518  1.00  0.00     0.039 C 
ATOM      8  C   UNL     1      16.324  32.690  29.148  1.00  0.00     0.039 C 
ATOM      9  C   UNL     1      19.801  31.442  30.393  1.00  0.00     0.159 C 
ATOM     10  O   UNL     1      19.566  30.375  31.022  1.00  0.00    -0.295 OA
ATOM     11  C   UNL     1      21.230  31.851  30.181  1.00  0.00     0.084 C 
ENDROOT
TORSDOF 0
ENDMDL
MODEL 8
REMARK VINA RESULT:    -4.102     18.794     19.911
REMARK INTER + INTRA:          -4.102
REMARK INTER:                  -4.102
REMARK INTRA:                   0.000
REMARK UNBOUND:                 0.000
REMARK SMILES CC(C)=C1CC[C@H](C)CC1=O
REMARK SMILES IDX 8 1 7 2 6 3 5 4 4 5 2 6 1 7 3 8 10 9 11 10 9 11
REMARK H PARENT
REMARK Flexibility Score: inf
ROOT
ATOM      1  C   UNL     1      25.918  32.398  32.063  1.00  0.00     0.008 C 
ATOM      2  C   UNL     1      26.683  32.548  30.743  1.00  0.00    -0.006 C 
ATOM      3  C   UNL     1      27.705  33.691  30.837  1.00  0.00     0.008 C 
ATOM      4  C   UNL     1      28.408  33.922  29.492  1.00  0.00     0.039 C 
ATOM      5  C   UNL     1      29.009  32.645  28.919  1.00  0.00    -0.006 C 
ATOM      6  C   UNL     1      30.144  32.672  28.162  1.00  0.00    -0.070 C 
ATOM      7  C   UNL     1      30.780  31.407  27.635  1.00  0.00     0.039 C 
ATOM      8  C   UNL     1      30.843  33.974  27.843  1.00  0.00     0.039 C 
ATOM      9  C   UNL     1      28.222  31.395  29.139  1.00  0.00     0.159 C 
ATOM     10  O   UNL     1      28.230  30.460  28.294  1.00  0.00    -0.295 OA
ATOM     11  C   UNL     1      27.394  31.236  30.381  1.00  0.00     0.084 C 
ENDROOT
TORSDOF 0
ENDMDL
