MODEL 1
REMARK VINA RESULT:    61.756      0.000      0.000
REMARK INTER + INTRA:          87.425
REMARK INTER:                  88.834
REMARK INTRA:                  -1.409
REMARK UNBOUND:                -1.409
REMARK SMILES O=c1c(O[C@H]2O[C@@H](CO)[C@@H](O)[C@H](O)[C@H]2O)c(-c2ccc(O)cc2)oc2cc(O)cc(O)c12
REMARK SMILES IDX 4 1 3 2 16 3 24 4 2 5 25 6 1 7 32 8 26 9 30 10 27 11 29 12
REMARK SMILES IDX 17 13 18 14 19 15 20 16 23 17 22 18 21 19 31 21 28 23 5 25
REMARK SMILES IDX 14 26 6 27 12 28 7 29 10 30 15 31 13 33 8 35 9 36 11 38
REMARK H PARENT 21 20 31 22 28 24 15 32 13 34 9 37 11 39
REMARK Flexibility Score: inf
ROOT
ATOM      1  O   UNL     1      18.181  41.469   9.548  1.00  0.00    -0.454 OA
ENDROOT
BRANCH   1   2
ATOM      2  C   UNL     1      19.568  41.127   9.239  1.00  0.00     0.214 A 
ATOM      3  C   UNL     1      20.298  42.068   8.431  1.00  0.00     0.180 A 
ATOM      4  O   UNL     1      20.429  43.235   9.087  1.00  0.00    -0.452 OA
ATOM      5  C   UNL     1      20.317  40.829  10.402  1.00  0.00     0.239 A 
ATOM      6  C   UNL     1      20.491  43.224  10.426  1.00  0.00     0.146 A 
ATOM      7  O   UNL     1      20.455  39.642  10.835  1.00  0.00    -0.285 OA
ATOM      8  C   UNL     1      20.744  41.996  11.116  1.00  0.00     0.111 A 
ATOM      9  C   UNL     1      19.961  44.324  11.152  1.00  0.00     0.094 A 
ATOM     10  C   UNL     1      20.802  42.102  12.518  1.00  0.00     0.134 A 
ATOM     11  C   UNL     1      19.536  44.123  12.463  1.00  0.00     0.123 A 
ATOM     12  C   UNL     1      19.840  42.913  13.124  1.00  0.00     0.093 A 
BRANCH   3  13
ATOM     13  C   UNL     1      21.454  41.766   7.474  1.00  0.00     0.021 A 
ATOM     14  C   UNL     1      21.871  42.804   6.606  1.00  0.00     0.016 A 
ATOM     15  C   UNL     1      22.924  42.632   5.649  1.00  0.00     0.047 A 
ATOM     16  C   UNL     1      23.660  41.449   5.593  1.00  0.00     0.115 A 
ATOM     17  C   UNL     1      22.348  40.642   7.531  1.00  0.00     0.016 A 
ATOM     18  C   UNL     1      23.438  40.509   6.636  1.00  0.00     0.047 A 
BRANCH  16  19
ATOM     19  O   UNL     1      24.675  41.249   4.674  1.00  0.00    -0.508 OA
ATOM     20  H   UNL     1      25.042  40.374   4.527  1.00  0.00     0.293 HD
ENDBRANCH  16  19
ENDBRANCH   3  13
BRANCH  10  21
ATOM     21  O   UNL     1      22.067  42.300  13.121  1.00  0.00    -0.507 OA
ATOM     22  H   UNL     1      22.878  41.863  12.603  1.00  0.00     0.293 HD
ENDBRANCH  10  21
BRANCH  11  23
ATOM     23  O   UNL     1      18.727  45.018  13.084  1.00  0.00    -0.508 OA
ATOM     24  H   UNL     1      19.080  45.895  13.583  1.00  0.00     0.293 HD
ENDBRANCH  11  23
ENDBRANCH   1   2
BRANCH   1  25
ATOM     25  C   UNL     1      17.333  41.247  10.698  1.00  0.00     0.339 C 
ATOM     26  C   UNL     1      16.795  39.759  10.858  1.00  0.00     0.214 C 
ATOM     27  O   UNL     1      16.206  42.100  10.823  1.00  0.00    -0.332 OA
ATOM     28  C   UNL     1      15.250  39.851  10.527  1.00  0.00     0.180 C 
ATOM     29  C   UNL     1      15.575  42.167   9.550  1.00  0.00     0.179 C 
ATOM     30  C   UNL     1      15.165  40.672   9.202  1.00  0.00     0.177 C 
BRANCH  26  31
ATOM     31  O   UNL     1      17.534  38.771  10.035  1.00  0.00    -0.384 OA
ATOM     32  H   UNL     1      16.879  38.082   9.734  1.00  0.00     0.211 HD
ENDBRANCH  26  31
BRANCH  28  33
ATOM     33  O   UNL     1      14.560  40.486  11.596  1.00  0.00    -0.387 OA
ATOM     34  H   UNL     1      14.727  41.468  11.499  1.00  0.00     0.211 HD
ENDBRANCH  28  33
BRANCH  29  35
ATOM     35  C   UNL     1      15.675  43.725   9.137  1.00  0.00     0.191 C 
BRANCH  35  36
ATOM     36  O   UNL     1      15.425  43.903   7.721  1.00  0.00    -0.394 OA
ATOM     37  H   UNL     1      15.597  43.110   7.183  1.00  0.00     0.210 HD
ENDBRANCH  35  36
ENDBRANCH  29  35
BRANCH  30  38
ATOM     38  O   UNL     1      16.022  40.030   8.293  1.00  0.00    -0.387 OA
ATOM     39  H   UNL     1      15.857  40.439   7.398  1.00  0.00     0.211 HD
ENDBRANCH  30  38
ENDBRANCH   1  25
TORSDOF 11
ENDMDL
