MODEL 1
REMARK VINA RESULT:    -3.990      0.000      0.000
REMARK INTER + INTRA:          -6.756
REMARK INTER:                  -5.856
REMARK INTRA:                  -0.900
REMARK UNBOUND:                -0.900
REMARK SMILES O=C([O-])CCCCCCCC(=O)[O-]
REMARK SMILES IDX 7 1 6 2 5 3 4 4 2 5 1 6 3 7 8 8 9 9 10 10 11 11 12 12 13 13
REMARK H PARENT
REMARK Flexibility Score: inf
ROOT
ATOM      1  C   UNL     1     -18.665  44.264  -5.672  1.00  0.00     0.000 C 
ENDROOT
BRANCH   1   2
ATOM      2  C   UNL     1     -17.260  43.982  -6.233  1.00  0.00     0.000 C 
BRANCH   2   3
ATOM      3  C   UNL     1     -17.278  42.969  -7.389  1.00  0.00     0.006 C 
BRANCH   3   4
ATOM      4  C   UNL     1     -16.262  43.307  -8.489  1.00  0.00     0.053 C 
BRANCH   4   5
ATOM      5  C   UNL     1     -16.926  44.061  -9.597  1.00  0.00     0.041 C 
ATOM      6  O   UNL     1     -17.337  43.452 -10.620  1.00  0.00    -0.550 OA
ATOM      7  O   UNL     1     -17.046  45.443  -9.525  1.00  0.00    -0.550 OA
ENDBRANCH   4   5
ENDBRANCH   3   4
ENDBRANCH   2   3
ENDBRANCH   1   2
BRANCH   1   8
ATOM      8  C   UNL     1     -19.129  45.705  -5.940  1.00  0.00     0.000 C 
BRANCH   8   9
ATOM      9  C   UNL     1     -19.773  45.873  -7.327  1.00  0.00     0.006 C 
BRANCH   9  10
ATOM     10  C   UNL     1     -20.749  44.735  -7.654  1.00  0.00     0.053 C 
BRANCH  10  11
ATOM     11  C   UNL     1     -20.501  44.161  -9.015  1.00  0.00     0.041 C 
ATOM     12  O   UNL     1     -20.450  42.913  -9.177  1.00  0.00    -0.550 OA
ATOM     13  O   UNL     1     -20.357  45.002 -10.111  1.00  0.00    -0.550 OA
ENDBRANCH  10  11
ENDBRANCH   9  10
ENDBRANCH   8   9
ENDBRANCH   1   8
TORSDOF 8
ENDMDL
MODEL 2
REMARK VINA RESULT:    -3.955      1.994      3.420
REMARK INTER + INTRA:          -6.705
REMARK INTER:                  -6.001
REMARK INTRA:                  -0.704
REMARK UNBOUND:                -0.900
REMARK SMILES O=C([O-])CCCCCCCC(=O)[O-]
REMARK SMILES IDX 7 1 6 2 5 3 4 4 2 5 1 6 3 7 8 8 9 9 10 10 11 11 12 12 13 13
REMARK H PARENT
REMARK Flexibility Score: inf
ROOT
ATOM      1  C   UNL     1     -17.240  43.266  -6.939  1.00  0.00     0.000 C 
ENDROOT
BRANCH   1   2
ATOM      2  C   UNL     1     -16.691  43.906  -8.226  1.00  0.00     0.000 C 
BRANCH   2   3
ATOM      3  C   UNL     1     -17.514  43.532  -9.469  1.00  0.00     0.006 C 
BRANCH   3   4
ATOM      4  C   UNL     1     -18.458  42.347  -9.220  1.00  0.00     0.053 C 
BRANCH   4   5
ATOM      5  C   UNL     1     -19.840  42.675  -9.689  1.00  0.00     0.041 C 
ATOM      6  O   UNL     1     -20.233  42.290 -10.822  1.00  0.00    -0.550 OA
ATOM      7  O   UNL     1     -20.679  43.448  -8.897  1.00  0.00    -0.550 OA
ENDBRANCH   4   5
ENDBRANCH   3   4
ENDBRANCH   2   3
ENDBRANCH   1   2
BRANCH   1   8
ATOM      8  C   UNL     1     -17.590  44.307  -5.863  1.00  0.00     0.000 C 
BRANCH   8   9
ATOM      9  C   UNL     1     -19.101  44.591  -5.781  1.00  0.00     0.006 C 
BRANCH   9  10
ATOM     10  C   UNL     1     -19.516  45.774  -6.665  1.00  0.00     0.053 C 
BRANCH  10  11
ATOM     11  C   UNL     1     -18.640  46.970  -6.445  1.00  0.00     0.041 C 
ATOM     12  O   UNL     1     -18.030  47.496  -7.413  1.00  0.00    -0.550 OA
ATOM     13  O   UNL     1     -18.521  47.522  -5.176  1.00  0.00    -0.550 OA
ENDBRANCH  10  11
ENDBRANCH   9  10
ENDBRANCH   8   9
ENDBRANCH   1   8
TORSDOF 8
ENDMDL
MODEL 3
REMARK VINA RESULT:    -3.944      1.940      3.463
REMARK INTER + INTRA:          -6.688
REMARK INTER:                  -5.981
REMARK INTRA:                  -0.707
REMARK UNBOUND:                -0.900
REMARK SMILES O=C([O-])CCCCCCCC(=O)[O-]
REMARK SMILES IDX 7 1 6 2 5 3 4 4 2 5 1 6 3 7 8 8 9 9 10 10 11 11 12 12 13 13
REMARK H PARENT
REMARK Flexibility Score: inf
ROOT
ATOM      1  C   UNL     1     -17.154  43.233  -6.907  1.00  0.00     0.000 C 
ENDROOT
BRANCH   1   2
ATOM      2  C   UNL     1     -17.522  44.270  -5.832  1.00  0.00     0.000 C 
BRANCH   2   3
ATOM      3  C   UNL     1     -19.036  44.518  -5.745  1.00  0.00     0.006 C 
BRANCH   3   4
ATOM      4  C   UNL     1     -19.503  45.659  -6.659  1.00  0.00     0.053 C 
BRANCH   4   5
ATOM      5  C   UNL     1     -18.616  46.852  -6.498  1.00  0.00     0.041 C 
ATOM      6  O   UNL     1     -17.927  47.265  -7.468  1.00  0.00    -0.550 OA
ATOM      7  O   UNL     1     -18.510  47.479  -5.263  1.00  0.00    -0.550 OA
ENDBRANCH   4   5
ENDBRANCH   3   4
ENDBRANCH   2   3
ENDBRANCH   1   2
BRANCH   1   8
ATOM      8  C   UNL     1     -16.658  43.882  -8.210  1.00  0.00     0.000 C 
BRANCH   8   9
ATOM      9  C   UNL     1     -17.479  43.451  -9.438  1.00  0.00     0.006 C 
BRANCH   9  10
ATOM     10  C   UNL     1     -18.487  42.344  -9.101  1.00  0.00     0.053 C 
BRANCH  10  11
ATOM     11  C   UNL     1     -19.842  42.632  -9.670  1.00  0.00     0.041 C 
ATOM     12  O   UNL     1     -20.173  42.161 -10.789  1.00  0.00    -0.550 OA
ATOM     13  O   UNL     1     -20.752  43.396  -8.950  1.00  0.00    -0.550 OA
ENDBRANCH  10  11
ENDBRANCH   9  10
ENDBRANCH   8   9
ENDBRANCH   1   8
TORSDOF 8
ENDMDL
MODEL 4
REMARK VINA RESULT:    -3.928      2.078      3.934
REMARK INTER + INTRA:          -6.665
REMARK INTER:                  -5.864
REMARK INTRA:                  -0.800
REMARK UNBOUND:                -0.900
REMARK SMILES O=C([O-])CCCCCCCC(=O)[O-]
REMARK SMILES IDX 7 1 6 2 5 3 4 4 2 5 1 6 3 7 8 8 9 9 10 10 11 11 12 12 13 13
REMARK H PARENT
REMARK Flexibility Score: inf
ROOT
ATOM      1  C   UNL     1     -19.803  45.475  -7.059  1.00  0.00     0.000 C 
ENDROOT
BRANCH   1   2
ATOM      2  C   UNL     1     -20.926  44.839  -7.896  1.00  0.00     0.000 C 
BRANCH   2   3
ATOM      3  C   UNL     1     -20.413  43.731  -8.828  1.00  0.00     0.006 C 
BRANCH   3   4
ATOM      4  C   UNL     1     -19.304  44.216  -9.772  1.00  0.00     0.053 C 
BRANCH   4   5
ATOM      5  C   UNL     1     -18.156  43.257  -9.763  1.00  0.00     0.041 C 
ATOM      6  O   UNL     1     -18.119  42.320  -8.922  1.00  0.00    -0.550 OA
ATOM      7  O   UNL     1     -17.100  43.427 -10.650  1.00  0.00    -0.550 OA
ENDBRANCH   4   5
ENDBRANCH   3   4
ENDBRANCH   2   3
ENDBRANCH   1   2
BRANCH   1   8
ATOM      8  C   UNL     1     -19.463  44.653  -5.804  1.00  0.00     0.000 C 
BRANCH   8   9
ATOM      9  C   UNL     1     -18.019  44.121  -5.817  1.00  0.00     0.006 C 
BRANCH   9  10
ATOM     10  C   UNL     1     -17.092  44.982  -6.685  1.00  0.00     0.053 C 
BRANCH  10  11
ATOM     11  C   UNL     1     -16.321  45.971  -5.866  1.00  0.00     0.041 C 
ATOM     12  O   UNL     1     -15.075  45.848  -5.730  1.00  0.00    -0.550 OA
ATOM     13  O   UNL     1     -16.973  47.047  -5.277  1.00  0.00    -0.550 OA
ENDBRANCH  10  11
ENDBRANCH   9  10
ENDBRANCH   8   9
ENDBRANCH   1   8
TORSDOF 8
ENDMDL
MODEL 5
REMARK VINA RESULT:    -3.913      1.960      3.473
REMARK INTER + INTRA:          -6.643
REMARK INTER:                  -5.844
REMARK INTRA:                  -0.798
REMARK UNBOUND:                -0.900
REMARK SMILES O=C([O-])CCCCCCCC(=O)[O-]
REMARK SMILES IDX 7 1 6 2 5 3 4 4 2 5 1 6 3 7 8 8 9 9 10 10 11 11 12 12 13 13
REMARK H PARENT
REMARK Flexibility Score: inf
ROOT
ATOM      1  C   UNL     1     -17.377  42.737  -8.262  1.00  0.00     0.000 C 
ENDROOT
BRANCH   1   2
ATOM      2  C   UNL     1     -16.467  43.945  -7.980  1.00  0.00     0.000 C 
BRANCH   2   3
ATOM      3  C   UNL     1     -16.860  44.693  -6.696  1.00  0.00     0.006 C 
BRANCH   3   4
ATOM      4  C   UNL     1     -17.912  43.941  -5.870  1.00  0.00     0.053 C 
BRANCH   4   5
ATOM      5  C   UNL     1     -19.110  44.806  -5.640  1.00  0.00     0.041 C 
ATOM      6  O   UNL     1     -20.248  44.287  -5.494  1.00  0.00    -0.550 OA
ATOM      7  O   UNL     1     -18.980  46.189  -5.637  1.00  0.00    -0.550 OA
ENDBRANCH   4   5
ENDBRANCH   3   4
ENDBRANCH   2   3
ENDBRANCH   1   2
BRANCH   1   8
ATOM      8  C   UNL     1     -18.098  42.842  -9.616  1.00  0.00     0.000 C 
BRANCH   8   9
ATOM      9  C   UNL     1     -19.576  42.422  -9.535  1.00  0.00     0.006 C 
BRANCH   9  10
ATOM     10  C   UNL     1     -20.454  43.512  -8.907  1.00  0.00     0.053 C 
BRANCH  10  11
ATOM     11  C   UNL     1     -20.197  44.856  -9.516  1.00  0.00     0.041 C 
ATOM     12  O   UNL     1     -19.553  45.729  -8.877  1.00  0.00    -0.550 OA
ATOM     13  O   UNL     1     -20.642  45.135 -10.802  1.00  0.00    -0.550 OA
ENDBRANCH  10  11
ENDBRANCH   9  10
ENDBRANCH   8   9
ENDBRANCH   1   8
TORSDOF 8
ENDMDL
MODEL 6
REMARK VINA RESULT:    -3.885      2.096      3.068
REMARK INTER + INTRA:          -6.601
REMARK INTER:                  -5.637
REMARK INTRA:                  -0.965
REMARK UNBOUND:                -0.900
REMARK SMILES O=C([O-])CCCCCCCC(=O)[O-]
REMARK SMILES IDX 7 1 6 2 5 3 4 4 2 5 1 6 3 7 8 8 9 9 10 10 11 11 12 12 13 13
REMARK H PARENT
REMARK Flexibility Score: inf
ROOT
ATOM      1  C   UNL     1     -20.258  43.300  -8.969  1.00  0.00     0.000 C 
ENDROOT
BRANCH   1   2
ATOM      2  C   UNL     1     -18.994  42.720  -9.627  1.00  0.00     0.000 C 
BRANCH   2   3
ATOM      3  C   UNL     1     -17.754  42.835  -8.726  1.00  0.00     0.006 C 
BRANCH   3   4
ATOM      4  C   UNL     1     -16.658  43.718  -9.337  1.00  0.00     0.053 C 
BRANCH   4   5
ATOM      5  C   UNL     1     -16.573  45.022  -8.608  1.00  0.00     0.041 C 
ATOM      6  O   UNL     1     -17.120  46.051  -9.085  1.00  0.00    -0.550 OA
ATOM      7  O   UNL     1     -15.847  45.113  -7.427  1.00  0.00    -0.550 OA
ENDBRANCH   4   5
ENDBRANCH   3   4
ENDBRANCH   2   3
ENDBRANCH   1   2
BRANCH   1   8
ATOM      8  C   UNL     1     -20.343  44.829  -9.099  1.00  0.00     0.000 C 
BRANCH   8   9
ATOM      9  C   UNL     1     -20.474  45.534  -7.737  1.00  0.00     0.006 C 
BRANCH   9  10
ATOM     10  C   UNL     1     -20.253  44.570  -6.563  1.00  0.00     0.053 C 
BRANCH  10  11
ATOM     11  C   UNL     1     -18.972  44.856  -5.840  1.00  0.00     0.041 C 
ATOM     12  O   UNL     1     -18.265  43.909  -5.405  1.00  0.00    -0.550 OA
ATOM     13  O   UNL     1     -18.544  46.167  -5.673  1.00  0.00    -0.550 OA
ENDBRANCH  10  11
ENDBRANCH   9  10
ENDBRANCH   8   9
ENDBRANCH   1   8
TORSDOF 8
ENDMDL
MODEL 7
REMARK VINA RESULT:    -3.869      1.200      3.813
REMARK INTER + INTRA:          -6.578
REMARK INTER:                  -5.700
REMARK INTRA:                  -0.878
REMARK UNBOUND:                -0.900
REMARK SMILES O=C([O-])CCCCCCCC(=O)[O-]
REMARK SMILES IDX 7 1 6 2 5 3 4 4 2 5 1 6 3 7 8 8 9 9 10 10 11 11 12 12 13 13
REMARK H PARENT
REMARK Flexibility Score: inf
ROOT
ATOM      1  C   UNL     1     -17.623  44.192  -5.873  1.00  0.00     0.000 C 
ENDROOT
BRANCH   1   2
ATOM      2  C   UNL     1     -19.141  44.381  -5.704  1.00  0.00     0.000 C 
BRANCH   2   3
ATOM      3  C   UNL     1     -19.731  45.362  -6.728  1.00  0.00     0.006 C 
BRANCH   3   4
ATOM      4  C   UNL     1     -20.847  44.735  -7.576  1.00  0.00     0.053 C 
BRANCH   4   5
ATOM      5  C   UNL     1     -20.303  44.264  -8.887  1.00  0.00     0.041 C 
ATOM      6  O   UNL     1     -19.888  45.096  -9.737  1.00  0.00    -0.550 OA
ATOM      7  O   UNL     1     -20.300  42.909  -9.194  1.00  0.00    -0.550 OA
ENDBRANCH   4   5
ENDBRANCH   3   4
ENDBRANCH   2   3
ENDBRANCH   1   2
BRANCH   1   8
ATOM      8  C   UNL     1     -17.272  43.210  -7.002  1.00  0.00     0.000 C 
BRANCH   8   9
ATOM      9  C   UNL     1     -16.530  43.887  -8.168  1.00  0.00     0.006 C 
BRANCH   9  10
ATOM     10  C   UNL     1     -16.156  45.340  -7.850  1.00  0.00     0.053 C 
BRANCH  10  11
ATOM     11  C   UNL     1     -16.746  46.298  -8.839  1.00  0.00     0.041 C 
ATOM     12  O   UNL     1     -16.670  46.062 -10.073  1.00  0.00    -0.550 OA
ATOM     13  O   UNL     1     -17.408  47.437  -8.397  1.00  0.00    -0.550 OA
ENDBRANCH  10  11
ENDBRANCH   9  10
ENDBRANCH   8   9
ENDBRANCH   1   8
TORSDOF 8
ENDMDL
MODEL 8
REMARK VINA RESULT:    -3.854      1.973      3.206
REMARK INTER + INTRA:          -6.556
REMARK INTER:                  -5.597
REMARK INTRA:                  -0.959
REMARK UNBOUND:                -0.900
REMARK SMILES O=C([O-])CCCCCCCC(=O)[O-]
REMARK SMILES IDX 7 1 6 2 5 3 4 4 2 5 1 6 3 7 8 8 9 9 10 10 11 11 12 12 13 13
REMARK H PARENT
REMARK Flexibility Score: inf
ROOT
ATOM      1  C   UNL     1     -20.794  44.843  -7.773  1.00  0.00     0.000 C 
ENDROOT
BRANCH   1   2
ATOM      2  C   UNL     1     -20.505  43.719  -8.783  1.00  0.00     0.000 C 
BRANCH   2   3
ATOM      3  C   UNL     1     -19.139  43.879  -9.469  1.00  0.00     0.006 C 
BRANCH   3   4
ATOM      4  C   UNL     1     -18.182  42.718  -9.161  1.00  0.00     0.053 C 
BRANCH   4   5
ATOM      5  C   UNL     1     -17.035  43.195  -8.328  1.00  0.00     0.041 C 
ATOM      6  O   UNL     1     -17.009  42.961  -7.091  1.00  0.00    -0.550 OA
ATOM      7  O   UNL     1     -16.017  43.943  -8.908  1.00  0.00    -0.550 OA
ENDBRANCH   4   5
ENDBRANCH   3   4
ENDBRANCH   2   3
ENDBRANCH   1   2
BRANCH   1   8
ATOM      8  C   UNL     1     -20.250  44.531  -6.369  1.00  0.00     0.000 C 
BRANCH   8   9
ATOM      9  C   UNL     1     -19.188  45.544  -5.906  1.00  0.00     0.006 C 
BRANCH   9  10
ATOM     10  C   UNL     1     -19.093  46.753  -6.845  1.00  0.00     0.053 C 
BRANCH  10  11
ATOM     11  C   UNL     1     -17.765  46.823  -7.534  1.00  0.00     0.041 C 
ATOM     12  O   UNL     1     -16.706  46.584  -6.895  1.00  0.00    -0.550 OA
ATOM     13  O   UNL     1     -17.697  47.122  -8.889  1.00  0.00    -0.550 OA
ENDBRANCH  10  11
ENDBRANCH   9  10
ENDBRANCH   8   9
ENDBRANCH   1   8
TORSDOF 8
ENDMDL
MODEL 9
REMARK VINA RESULT:    -3.798      2.138      3.185
REMARK INTER + INTRA:          -6.474
REMARK INTER:                  -5.661
REMARK INTRA:                  -0.813
REMARK UNBOUND:                -0.900
REMARK SMILES O=C([O-])CCCCCCCC(=O)[O-]
REMARK SMILES IDX 7 1 6 2 5 3 4 4 2 5 1 6 3 7 8 8 9 9 10 10 11 11 12 12 13 13
REMARK H PARENT
REMARK Flexibility Score: inf
ROOT
ATOM      1  C   UNL     1     -19.439  45.773  -6.873  1.00  0.00     0.000 C 
ENDROOT
BRANCH   1   2
ATOM      2  C   UNL     1     -19.167  44.589  -5.928  1.00  0.00     0.000 C 
BRANCH   2   3
ATOM      3  C   UNL     1     -17.675  44.226  -5.852  1.00  0.00     0.006 C 
BRANCH   3   4
ATOM      4  C   UNL     1     -16.807  45.089  -6.777  1.00  0.00     0.053 C 
BRANCH   4   5
ATOM      5  C   UNL     1     -15.984  46.048  -5.975  1.00  0.00     0.041 C 
ATOM      6  O   UNL     1     -16.545  46.902  -5.239  1.00  0.00    -0.550 OA
ATOM      7  O   UNL     1     -14.599  46.032  -6.079  1.00  0.00    -0.550 OA
ENDBRANCH   4   5
ENDBRANCH   3   4
ENDBRANCH   2   3
ENDBRANCH   1   2
BRANCH   1   8
ATOM      8  C   UNL     1     -20.363  45.396  -8.042  1.00  0.00     0.000 C 
BRANCH   8   9
ATOM      9  C   UNL     1     -20.596  43.878  -8.149  1.00  0.00     0.006 C 
BRANCH   9  10
ATOM     10  C   UNL     1     -20.095  43.308  -9.482  1.00  0.00     0.053 C 
BRANCH  10  11
ATOM     11  C   UNL     1     -18.599  43.241  -9.533  1.00  0.00     0.041 C 
ATOM     12  O   UNL     1     -17.981  42.364  -8.874  1.00  0.00    -0.550 OA
ATOM     13  O   UNL     1     -17.889  44.128 -10.331  1.00  0.00    -0.550 OA
ENDBRANCH  10  11
ENDBRANCH   9  10
ENDBRANCH   8   9
ENDBRANCH   1   8
TORSDOF 8
ENDMDL
