MODEL 1
REMARK VINA RESULT:    -5.268      0.000      0.000
REMARK INTER + INTRA:          -6.787
REMARK INTER:                  -6.500
REMARK INTRA:                  -0.287
REMARK UNBOUND:                -0.287
REMARK SMILES COc1cc(-c2oc3cc(O)cc(O)c3c(=O)c2O)ccc1O
REMARK SMILES IDX 6 1 18 2 16 3 17 4 15 5 13 6 12 7 10 8 9 9 8 10 7 11 5 12
REMARK SMILES IDX 3 13 22 14 4 15 21 16 20 17 2 18 1 19 23 20 19 22 14 24
REMARK SMILES IDX 11 26
REMARK H PARENT 23 21 19 23 14 25 11 27
REMARK Flexibility Score: inf
ROOT
ATOM      1  C   UNL     1      -9.069  83.498  -8.362  1.00  0.00     0.180 A 
ATOM      2  C   UNL     1      -8.774  83.714  -7.002  1.00  0.00     0.208 A 
ATOM      3  C   UNL     1      -7.435  83.658  -6.581  1.00  0.00     0.238 A 
ATOM      4  O   UNL     1      -7.159  83.861  -5.368  1.00  0.00    -0.285 OA
ATOM      5  C   UNL     1      -6.422  83.370  -7.518  1.00  0.00     0.111 A 
ATOM      6  C   UNL     1      -5.051  83.292  -7.175  1.00  0.00     0.134 A 
ATOM      7  C   UNL     1      -4.102  82.990  -8.163  1.00  0.00     0.093 A 
ATOM      8  C   UNL     1      -4.499  82.765  -9.486  1.00  0.00     0.123 A 
ATOM      9  C   UNL     1      -5.850  82.842  -9.829  1.00  0.00     0.094 A 
ATOM     10  C   UNL     1      -6.811  83.142  -8.859  1.00  0.00     0.146 A 
ATOM     11  O   UNL     1      -8.088  83.213  -9.213  1.00  0.00    -0.452 OA
ENDROOT
BRANCH   1  12
ATOM     12  C   UNL     1     -10.453  83.557  -8.886  1.00  0.00     0.025 A 
ATOM     13  C   UNL     1     -12.345  82.433  -9.951  1.00  0.00     0.161 A 
ATOM     14  C   UNL     1     -13.056  83.641  -9.948  1.00  0.00     0.157 A 
ATOM     15  C   UNL     1     -11.038  82.400  -9.424  1.00  0.00     0.062 A 
ATOM     16  C   UNL     1     -12.468  84.802  -9.431  1.00  0.00     0.051 A 
ATOM     17  C   UNL     1     -11.173  84.763  -8.911  1.00  0.00     0.016 A 
BRANCH  13  18
ATOM     18  O   UNL     1     -12.966  81.292 -10.484  1.00  0.00    -0.493 OA
ATOM     19  C   UNL     1     -12.761  80.806 -11.806  1.00  0.00     0.278 C 
ENDBRANCH  13  18
BRANCH  14  20
ATOM     20  O   UNL     1     -14.350  83.681 -10.466  1.00  0.00    -0.504 OA
ATOM     21  H   UNL     1     -15.160  83.759  -9.863  1.00  0.00     0.293 HD
ENDBRANCH  14  20
ENDBRANCH   1  12
BRANCH   2  22
ATOM     22  O   UNL     1      -9.801  83.950  -6.086  1.00  0.00    -0.502 OA
ATOM     23  H   UNL     1     -10.420  83.214  -5.761  1.00  0.00     0.293 HD
ENDBRANCH   2  22
BRANCH   6  24
ATOM     24  O   UNL     1      -4.624  83.511  -5.864  1.00  0.00    -0.507 OA
ATOM     25  H   UNL     1      -4.827  84.376  -5.374  1.00  0.00     0.293 HD
ENDBRANCH   6  24
BRANCH   8  26
ATOM     26  O   UNL     1      -3.558  82.465 -10.469  1.00  0.00    -0.508 OA
ATOM     27  H   UNL     1      -3.060  83.195 -10.965  1.00  0.00     0.293 HD
ENDBRANCH   8  26
TORSDOF 6
ENDMDL
MODEL 2
REMARK VINA RESULT:    -5.217     11.330     13.321
REMARK INTER + INTRA:          -6.724
REMARK INTER:                  -6.383
REMARK INTRA:                  -0.341
REMARK UNBOUND:                -0.287
REMARK SMILES COc1cc(-c2oc3cc(O)cc(O)c3c(=O)c2O)ccc1O
REMARK SMILES IDX 6 1 18 2 16 3 17 4 15 5 13 6 12 7 10 8 9 9 8 10 7 11 5 12
REMARK SMILES IDX 3 13 22 14 4 15 21 16 20 17 2 18 1 19 23 20 19 22 14 24
REMARK SMILES IDX 11 26
REMARK H PARENT 23 21 19 23 14 25 11 27
REMARK Flexibility Score: inf
ROOT
ATOM      1  C   UNL     1      -4.740  91.848 -14.720  1.00  0.00     0.180 A 
ATOM      2  C   UNL     1      -3.797  91.064 -15.412  1.00  0.00     0.208 A 
ATOM      3  C   UNL     1      -3.819  91.057 -16.816  1.00  0.00     0.238 A 
ATOM      4  O   UNL     1      -2.972  90.367 -17.445  1.00  0.00    -0.285 OA
ATOM      5  C   UNL     1      -4.791  91.813 -17.501  1.00  0.00     0.111 A 
ATOM      6  C   UNL     1      -4.884  91.857 -18.913  1.00  0.00     0.134 A 
ATOM      7  C   UNL     1      -5.887  92.627 -19.521  1.00  0.00     0.093 A 
ATOM      8  C   UNL     1      -6.797  93.352 -18.744  1.00  0.00     0.123 A 
ATOM      9  C   UNL     1      -6.708  93.313 -17.352  1.00  0.00     0.094 A 
ATOM     10  C   UNL     1      -5.716  92.553 -16.727  1.00  0.00     0.146 A 
ATOM     11  O   UNL     1      -5.652  92.537 -15.401  1.00  0.00    -0.452 OA
ENDROOT
BRANCH   1  12
ATOM     12  C   UNL     1      -4.770  91.923 -13.241  1.00  0.00     0.025 A 
ATOM     13  C   UNL     1      -4.199  93.121 -11.188  1.00  0.00     0.161 A 
ATOM     14  C   UNL     1      -4.749  92.076 -10.433  1.00  0.00     0.157 A 
ATOM     15  C   UNL     1      -4.206  93.034 -12.595  1.00  0.00     0.062 A 
ATOM     16  C   UNL     1      -5.294  90.956 -11.075  1.00  0.00     0.051 A 
ATOM     17  C   UNL     1      -5.298  90.876 -12.468  1.00  0.00     0.016 A 
BRANCH  13  18
ATOM     18  O   UNL     1      -3.657  94.223 -10.509  1.00  0.00    -0.493 OA
ATOM     19  C   UNL     1      -2.875  95.243 -11.122  1.00  0.00     0.278 C 
ENDBRANCH  13  18
BRANCH  14  20
ATOM     20  O   UNL     1      -4.748  92.156  -9.041  1.00  0.00    -0.504 OA
ATOM     21  H   UNL     1      -5.084  92.980  -8.557  1.00  0.00     0.293 HD
ENDBRANCH  14  20
ENDBRANCH   1  12
BRANCH   2  22
ATOM     22  O   UNL     1      -2.875  90.286 -14.708  1.00  0.00    -0.502 OA
ATOM     23  H   UNL     1      -2.900  89.272 -14.718  1.00  0.00     0.293 HD
ENDBRANCH   2  22
BRANCH   6  24
ATOM     24  O   UNL     1      -3.991  91.143 -19.714  1.00  0.00    -0.507 OA
ATOM     25  H   UNL     1      -4.077  90.141 -19.846  1.00  0.00     0.293 HD
ENDBRANCH   6  24
BRANCH   8  26
ATOM     26  O   UNL     1      -7.794  94.117 -19.347  1.00  0.00    -0.508 OA
ATOM     27  H   UNL     1      -7.846  94.220 -20.353  1.00  0.00     0.293 HD
ENDBRANCH   8  26
TORSDOF 6
ENDMDL
MODEL 3
REMARK VINA RESULT:    -5.161      7.663      9.501
REMARK INTER + INTRA:          -6.655
REMARK INTER:                  -6.356
REMARK INTRA:                  -0.299
REMARK UNBOUND:                -0.287
REMARK SMILES COc1cc(-c2oc3cc(O)cc(O)c3c(=O)c2O)ccc1O
REMARK SMILES IDX 6 1 18 2 16 3 17 4 15 5 13 6 12 7 10 8 9 9 8 10 7 11 5 12
REMARK SMILES IDX 3 13 22 14 4 15 21 16 20 17 2 18 1 19 23 20 19 22 14 24
REMARK SMILES IDX 11 26
REMARK H PARENT 23 21 19 23 14 25 11 27
REMARK Flexibility Score: inf
ROOT
ATOM      1  C   UNL     1      -4.890  90.164  -8.238  1.00  0.00     0.180 A 
ATOM      2  C   UNL     1      -3.873  89.523  -7.503  1.00  0.00     0.208 A 
ATOM      3  C   UNL     1      -3.788  88.122  -7.544  1.00  0.00     0.238 A 
ATOM      4  O   UNL     1      -2.875  87.538  -6.899  1.00  0.00    -0.285 OA
ATOM      5  C   UNL     1      -4.726  87.389  -8.298  1.00  0.00     0.111 A 
ATOM      6  C   UNL     1      -4.711  85.975  -8.388  1.00  0.00     0.134 A 
ATOM      7  C   UNL     1      -5.686  85.316  -9.152  1.00  0.00     0.093 A 
ATOM      8  C   UNL     1      -6.674  86.044  -9.826  1.00  0.00     0.123 A 
ATOM      9  C   UNL     1      -6.692  87.437  -9.740  1.00  0.00     0.094 A 
ATOM     10  C   UNL     1      -5.729  88.112  -8.985  1.00  0.00     0.146 A 
ATOM     11  O   UNL     1      -5.766  89.437  -8.925  1.00  0.00    -0.452 OA
ENDROOT
BRANCH   1  12
ATOM     12  C   UNL     1      -5.035  91.638  -8.260  1.00  0.00     0.025 A 
ATOM     13  C   UNL     1      -4.179  93.821  -8.951  1.00  0.00     0.161 A 
ATOM     14  C   UNL     1      -5.238  94.443  -8.276  1.00  0.00     0.157 A 
ATOM     15  C   UNL     1      -4.079  92.416  -8.932  1.00  0.00     0.062 A 
ATOM     16  C   UNL     1      -6.182  93.671  -7.587  1.00  0.00     0.051 A 
ATOM     17  C   UNL     1      -6.078  92.279  -7.572  1.00  0.00     0.016 A 
BRANCH  13  18
ATOM     18  O   UNL     1      -3.249  94.629  -9.624  1.00  0.00    -0.493 OA
ATOM     19  C   UNL     1      -3.285  94.909 -11.019  1.00  0.00     0.278 C 
ENDBRANCH  13  18
BRANCH  14  20
ATOM     20  O   UNL     1      -5.345  95.833  -8.291  1.00  0.00    -0.504 OA
ATOM     21  H   UNL     1      -4.679  96.421  -7.806  1.00  0.00     0.293 HD
ENDBRANCH  14  20
ENDBRANCH   1  12
BRANCH   2  22
ATOM     22  O   UNL     1      -2.987  90.270  -6.725  1.00  0.00    -0.502 OA
ATOM     23  H   UNL     1      -2.695  91.207  -6.982  1.00  0.00     0.293 HD
ENDBRANCH   2  22
BRANCH   6  24
ATOM     24  O   UNL     1      -3.739  85.223  -7.726  1.00  0.00    -0.507 OA
ATOM     25  H   UNL     1      -2.781  85.183  -8.055  1.00  0.00     0.293 HD
ENDBRANCH   6  24
BRANCH   8  26
ATOM     26  O   UNL     1      -7.643  85.390 -10.584  1.00  0.00    -0.508 OA
ATOM     27  H   UNL     1      -7.571  84.403 -10.798  1.00  0.00     0.293 HD
ENDBRANCH   8  26
TORSDOF 6
ENDMDL
MODEL 4
REMARK VINA RESULT:    -5.155      1.607      7.255
REMARK INTER + INTRA:          -6.648
REMARK INTER:                  -6.281
REMARK INTRA:                  -0.367
REMARK UNBOUND:                -0.287
REMARK SMILES COc1cc(-c2oc3cc(O)cc(O)c3c(=O)c2O)ccc1O
REMARK SMILES IDX 6 1 18 2 16 3 17 4 15 5 13 6 12 7 10 8 9 9 8 10 7 11 5 12
REMARK SMILES IDX 3 13 22 14 4 15 21 16 20 17 2 18 1 19 23 20 19 22 14 24
REMARK SMILES IDX 11 26
REMARK H PARENT 23 21 19 23 14 25 11 27
REMARK Flexibility Score: inf
ROOT
ATOM      1  C   UNL     1      -9.808  83.495  -8.499  1.00  0.00     0.180 A 
ATOM      2  C   UNL     1     -10.581  82.381  -8.878  1.00  0.00     0.208 A 
ATOM      3  C   UNL     1     -11.854  82.594  -9.430  1.00  0.00     0.238 A 
ATOM      4  O   UNL     1     -12.550  81.604  -9.783  1.00  0.00    -0.285 OA
ATOM      5  C   UNL     1     -12.338  83.910  -9.576  1.00  0.00     0.111 A 
ATOM      6  C   UNL     1     -13.610  84.211 -10.121  1.00  0.00     0.134 A 
ATOM      7  C   UNL     1     -14.025  85.547 -10.224  1.00  0.00     0.093 A 
ATOM      8  C   UNL     1     -13.192  86.586  -9.794  1.00  0.00     0.123 A 
ATOM      9  C   UNL     1     -11.937  86.294  -9.258  1.00  0.00     0.094 A 
ATOM     10  C   UNL     1     -11.505  84.970  -9.147  1.00  0.00     0.146 A 
ATOM     11  O   UNL     1     -10.305  84.721  -8.638  1.00  0.00    -0.452 OA
ENDROOT
BRANCH   1  12
ATOM     12  C   UNL     1      -8.450  83.353  -7.926  1.00  0.00     0.025 A 
ATOM     13  C   UNL     1      -6.026  83.326  -8.251  1.00  0.00     0.161 A 
ATOM     14  C   UNL     1      -5.855  83.031  -6.891  1.00  0.00     0.157 A 
ATOM     15  C   UNL     1      -7.330  83.479  -8.764  1.00  0.00     0.062 A 
ATOM     16  C   UNL     1      -6.970  82.885  -6.057  1.00  0.00     0.051 A 
ATOM     17  C   UNL     1      -8.258  83.037  -6.571  1.00  0.00     0.016 A 
BRANCH  13  18
ATOM     18  O   UNL     1      -4.885  83.458  -9.057  1.00  0.00    -0.493 OA
ATOM     19  C   UNL     1      -4.336  82.415  -9.855  1.00  0.00     0.278 C 
ENDBRANCH  13  18
BRANCH  14  20
ATOM     20  O   UNL     1      -4.568  82.880  -6.376  1.00  0.00    -0.504 OA
ATOM     21  H   UNL     1      -4.239  83.441  -5.600  1.00  0.00     0.293 HD
ENDBRANCH  14  20
ENDBRANCH   1  12
BRANCH   2  22
ATOM     22  O   UNL     1     -10.097  81.086  -8.677  1.00  0.00    -0.502 OA
ATOM     23  H   UNL     1     -10.565  80.267  -9.050  1.00  0.00     0.293 HD
ENDBRANCH   2  22
BRANCH   6  24
ATOM     24  O   UNL     1     -14.463  83.195 -10.557  1.00  0.00    -0.507 OA
ATOM     25  H   UNL     1     -15.309  83.397 -11.078  1.00  0.00     0.293 HD
ENDBRANCH   6  24
BRANCH   8  26
ATOM     26  O   UNL     1     -13.603  87.914  -9.896  1.00  0.00    -0.508 OA
ATOM     27  H   UNL     1     -14.439  88.171 -10.408  1.00  0.00     0.293 HD
ENDBRANCH   8  26
TORSDOF 6
ENDMDL
MODEL 5
REMARK VINA RESULT:    -5.059     10.832     12.232
REMARK INTER + INTRA:          -6.529
REMARK INTER:                  -6.144
REMARK INTRA:                  -0.385
REMARK UNBOUND:                -0.287
REMARK SMILES COc1cc(-c2oc3cc(O)cc(O)c3c(=O)c2O)ccc1O
REMARK SMILES IDX 6 1 18 2 16 3 17 4 15 5 13 6 12 7 10 8 9 9 8 10 7 11 5 12
REMARK SMILES IDX 3 13 22 14 4 15 21 16 20 17 2 18 1 19 23 20 19 22 14 24
REMARK SMILES IDX 11 26
REMARK H PARENT 23 21 19 23 14 25 11 27
REMARK Flexibility Score: inf
ROOT
ATOM      1  C   UNL     1      -4.540  91.337 -14.866  1.00  0.00     0.180 A 
ATOM      2  C   UNL     1      -5.134  90.195 -14.295  1.00  0.00     0.208 A 
ATOM      3  C   UNL     1      -5.358  90.168 -12.909  1.00  0.00     0.238 A 
ATOM      4  O   UNL     1      -5.900  89.155 -12.389  1.00  0.00    -0.285 OA
ATOM      5  C   UNL     1      -4.969  91.269 -12.119  1.00  0.00     0.111 A 
ATOM      6  C   UNL     1      -5.157  91.319 -10.716  1.00  0.00     0.134 A 
ATOM      7  C   UNL     1      -4.733  92.447  -9.997  1.00  0.00     0.093 A 
ATOM      8  C   UNL     1      -4.127  93.524 -10.655  1.00  0.00     0.123 A 
ATOM      9  C   UNL     1      -3.941  93.478 -12.038  1.00  0.00     0.094 A 
ATOM     10  C   UNL     1      -4.357  92.364 -12.772  1.00  0.00     0.146 A 
ATOM     11  O   UNL     1      -4.173  92.350 -14.086  1.00  0.00    -0.452 OA
ENDROOT
BRANCH   1  12
ATOM     12  C   UNL     1      -4.287  91.449 -16.321  1.00  0.00     0.025 A 
ATOM     13  C   UNL     1      -5.088  92.054 -18.550  1.00  0.00     0.161 A 
ATOM     14  C   UNL     1      -3.872  91.622 -19.097  1.00  0.00     0.157 A 
ATOM     15  C   UNL     1      -5.292  91.958 -17.159  1.00  0.00     0.062 A 
ATOM     16  C   UNL     1      -2.875  91.095 -18.266  1.00  0.00     0.051 A 
ATOM     17  C   UNL     1      -3.083  91.002 -16.889  1.00  0.00     0.016 A 
BRANCH  13  18
ATOM     18  O   UNL     1      -6.065  92.570 -19.416  1.00  0.00    -0.493 OA
ATOM     19  C   UNL     1      -6.224  93.951 -19.721  1.00  0.00     0.278 C 
ENDBRANCH  13  18
BRANCH  14  20
ATOM     20  O   UNL     1      -3.662  91.716 -20.472  1.00  0.00    -0.504 OA
ATOM     21  H   UNL     1      -4.344  91.373 -21.137  1.00  0.00     0.293 HD
ENDBRANCH  14  20
ENDBRANCH   1  12
BRANCH   2  22
ATOM     22  O   UNL     1      -5.466  89.098 -15.093  1.00  0.00    -0.502 OA
ATOM     23  H   UNL     1      -6.382  88.665 -15.069  1.00  0.00     0.293 HD
ENDBRANCH   2  22
BRANCH   6  24
ATOM     24  O   UNL     1      -5.757  90.260 -10.033  1.00  0.00    -0.507 OA
ATOM     25  H   UNL     1      -5.220  89.629  -9.449  1.00  0.00     0.293 HD
ENDBRANCH   6  24
BRANCH   8  26
ATOM     26  O   UNL     1      -3.705  94.644  -9.942  1.00  0.00    -0.508 OA
ATOM     27  H   UNL     1      -3.730  94.667  -8.929  1.00  0.00     0.293 HD
ENDBRANCH   8  26
TORSDOF 6
ENDMDL
MODEL 6
REMARK VINA RESULT:    -5.000     10.152     11.177
REMARK INTER + INTRA:          -6.457
REMARK INTER:                  -6.150
REMARK INTRA:                  -0.307
REMARK UNBOUND:                -0.287
REMARK SMILES COc1cc(-c2oc3cc(O)cc(O)c3c(=O)c2O)ccc1O
REMARK SMILES IDX 6 1 18 2 16 3 17 4 15 5 13 6 12 7 10 8 9 9 8 10 7 11 5 12
REMARK SMILES IDX 3 13 22 14 4 15 21 16 20 17 2 18 1 19 23 20 19 22 14 24
REMARK SMILES IDX 11 26
REMARK H PARENT 23 21 19 23 14 25 11 27
REMARK Flexibility Score: inf
ROOT
ATOM      1  C   UNL     1      -5.685  91.365 -14.399  1.00  0.00     0.180 A 
ATOM      2  C   UNL     1      -4.915  92.154 -13.523  1.00  0.00     0.208 A 
ATOM      3  C   UNL     1      -4.825  91.777 -12.173  1.00  0.00     0.238 A 
ATOM      4  O   UNL     1      -4.129  92.471 -11.382  1.00  0.00    -0.285 OA
ATOM      5  C   UNL     1      -5.517  90.636 -11.720  1.00  0.00     0.111 A 
ATOM      6  C   UNL     1      -5.481  90.191 -10.376  1.00  0.00     0.134 A 
ATOM      7  C   UNL     1      -6.206  89.051 -10.001  1.00  0.00     0.093 A 
ATOM      8  C   UNL     1      -6.965  88.348 -10.943  1.00  0.00     0.123 A 
ATOM      9  C   UNL     1      -7.002  88.782 -12.269  1.00  0.00     0.094 A 
ATOM     10  C   UNL     1      -6.287  89.916 -12.664  1.00  0.00     0.146 A 
ATOM     11  O   UNL     1      -6.336  90.303 -13.932  1.00  0.00    -0.452 OA
ENDROOT
BRANCH   1  12
ATOM     12  C   UNL     1      -5.815  91.685 -15.839  1.00  0.00     0.025 A 
ATOM     13  C   UNL     1      -6.769  93.088 -17.600  1.00  0.00     0.161 A 
ATOM     14  C   UNL     1      -6.137  92.293 -18.566  1.00  0.00     0.157 A 
ATOM     15  C   UNL     1      -6.609  92.773 -16.235  1.00  0.00     0.062 A 
ATOM     16  C   UNL     1      -5.361  91.194 -18.175  1.00  0.00     0.051 A 
ATOM     17  C   UNL     1      -5.206  90.888 -16.822  1.00  0.00     0.016 A 
BRANCH  13  18
ATOM     18  O   UNL     1      -7.544  94.176 -18.031  1.00  0.00    -0.493 OA
ATOM     19  C   UNL     1      -8.964  94.167 -18.126  1.00  0.00     0.278 C 
ENDBRANCH  13  18
BRANCH  14  20
ATOM     20  O   UNL     1      -6.289  92.599 -19.918  1.00  0.00    -0.504 OA
ATOM     21  H   UNL     1      -5.680  92.202 -20.623  1.00  0.00     0.293 HD
ENDBRANCH  14  20
ENDBRANCH   1  12
BRANCH   2  22
ATOM     22  O   UNL     1      -4.279  93.307 -13.987  1.00  0.00    -0.502 OA
ATOM     23  H   UNL     1      -3.290  93.479 -13.839  1.00  0.00     0.293 HD
ENDBRANCH   2  22
BRANCH   6  24
ATOM     24  O   UNL     1      -4.734  90.873  -9.414  1.00  0.00    -0.507 OA
ATOM     25  H   UNL     1      -3.770  90.627  -9.215  1.00  0.00     0.293 HD
ENDBRANCH   6  24
BRANCH   8  26
ATOM     26  O   UNL     1      -7.686  87.214 -10.572  1.00  0.00    -0.508 OA
ATOM     27  H   UNL     1      -8.671  87.266 -10.339  1.00  0.00     0.293 HD
ENDBRANCH   8  26
TORSDOF 6
ENDMDL
MODEL 7
REMARK VINA RESULT:    -4.985      7.266      8.420
REMARK INTER + INTRA:          -6.438
REMARK INTER:                  -6.089
REMARK INTRA:                  -0.349
REMARK UNBOUND:                -0.287
REMARK SMILES COc1cc(-c2oc3cc(O)cc(O)c3c(=O)c2O)ccc1O
REMARK SMILES IDX 6 1 18 2 16 3 17 4 15 5 13 6 12 7 10 8 9 9 8 10 7 11 5 12
REMARK SMILES IDX 3 13 22 14 4 15 21 16 20 17 2 18 1 19 23 20 19 22 14 24
REMARK SMILES IDX 11 26
REMARK H PARENT 23 21 19 23 14 25 11 27
REMARK Flexibility Score: inf
ROOT
ATOM      1  C   UNL     1      -6.246  89.013 -11.464  1.00  0.00     0.180 A 
ATOM      2  C   UNL     1      -5.667  90.156 -10.880  1.00  0.00     0.208 A 
ATOM      3  C   UNL     1      -5.100  91.131 -11.716  1.00  0.00     0.238 A 
ATOM      4  O   UNL     1      -4.588  92.164 -11.204  1.00  0.00    -0.285 OA
ATOM      5  C   UNL     1      -5.106  90.940 -13.112  1.00  0.00     0.111 A 
ATOM      6  C   UNL     1      -4.553  91.873 -14.023  1.00  0.00     0.134 A 
ATOM      7  C   UNL     1      -4.588  91.605 -15.400  1.00  0.00     0.093 A 
ATOM      8  C   UNL     1      -5.164  90.425 -15.881  1.00  0.00     0.123 A 
ATOM      9  C   UNL     1      -5.711  89.503 -14.987  1.00  0.00     0.094 A 
ATOM     10  C   UNL     1      -5.687  89.751 -13.612  1.00  0.00     0.146 A 
ATOM     11  O   UNL     1      -6.219  88.860 -12.784  1.00  0.00    -0.452 OA
ENDROOT
BRANCH   1  12
ATOM     12  C   UNL     1      -6.879  87.948 -10.651  1.00  0.00     0.025 A 
ATOM     13  C   UNL     1      -6.820  85.673  -9.759  1.00  0.00     0.161 A 
ATOM     14  C   UNL     1      -8.074  85.880  -9.167  1.00  0.00     0.157 A 
ATOM     15  C   UNL     1      -6.231  86.712 -10.507  1.00  0.00     0.062 A 
ATOM     16  C   UNL     1      -8.733  87.105  -9.325  1.00  0.00     0.051 A 
ATOM     17  C   UNL     1      -8.144  88.130 -10.068  1.00  0.00     0.016 A 
BRANCH  13  18
ATOM     18  O   UNL     1      -6.194  84.429  -9.583  1.00  0.00    -0.493 OA
ATOM     19  C   UNL     1      -4.809  84.255  -9.304  1.00  0.00     0.278 C 
ENDBRANCH  13  18
BRANCH  14  20
ATOM     20  O   UNL     1      -8.662  84.857  -8.423  1.00  0.00    -0.504 OA
ATOM     21  H   UNL     1      -8.172  83.992  -8.230  1.00  0.00     0.293 HD
ENDBRANCH  14  20
ENDBRANCH   1  12
BRANCH   2  22
ATOM     22  O   UNL     1      -5.632  90.298  -9.491  1.00  0.00    -0.502 OA
ATOM     23  H   UNL     1      -6.458  90.518  -8.946  1.00  0.00     0.293 HD
ENDBRANCH   2  22
BRANCH   6  24
ATOM     24  O   UNL     1      -3.970  93.059 -13.572  1.00  0.00    -0.507 OA
ATOM     25  H   UNL     1      -4.374  93.964 -13.782  1.00  0.00     0.293 HD
ENDBRANCH   6  24
BRANCH   8  26
ATOM     26  O   UNL     1      -5.199  90.158 -17.249  1.00  0.00    -0.508 OA
ATOM     27  H   UNL     1      -5.602  90.816 -17.906  1.00  0.00     0.293 HD
ENDBRANCH   8  26
TORSDOF 6
ENDMDL
MODEL 8
REMARK VINA RESULT:    -4.979      2.193      2.761
REMARK INTER + INTRA:          -6.430
REMARK INTER:                  -6.040
REMARK INTRA:                  -0.390
REMARK UNBOUND:                -0.287
REMARK SMILES COc1cc(-c2oc3cc(O)cc(O)c3c(=O)c2O)ccc1O
REMARK SMILES IDX 6 1 18 2 16 3 17 4 15 5 13 6 12 7 10 8 9 9 8 10 7 11 5 12
REMARK SMILES IDX 3 13 22 14 4 15 21 16 20 17 2 18 1 19 23 20 19 22 14 24
REMARK SMILES IDX 11 26
REMARK H PARENT 23 21 19 23 14 25 11 27
REMARK Flexibility Score: inf
ROOT
ATOM      1  C   UNL     1      -9.338  83.728  -8.852  1.00  0.00     0.180 A 
ATOM      2  C   UNL     1      -9.485  85.121  -9.003  1.00  0.00     0.208 A 
ATOM      3  C   UNL     1      -8.342  85.902  -9.236  1.00  0.00     0.238 A 
ATOM      4  O   UNL     1      -8.463  87.148  -9.383  1.00  0.00    -0.285 OA
ATOM      5  C   UNL     1      -7.076  85.283  -9.295  1.00  0.00     0.111 A 
ATOM      6  C   UNL     1      -5.875  85.999  -9.522  1.00  0.00     0.134 A 
ATOM      7  C   UNL     1      -4.652  85.313  -9.557  1.00  0.00     0.093 A 
ATOM      8  C   UNL     1      -4.608  83.927  -9.369  1.00  0.00     0.123 A 
ATOM      9  C   UNL     1      -5.789  83.218  -9.146  1.00  0.00     0.094 A 
ATOM     10  C   UNL     1      -7.018  83.883  -9.108  1.00  0.00     0.146 A 
ATOM     11  O   UNL     1      -8.126  83.183  -8.899  1.00  0.00    -0.452 OA
ENDROOT
BRANCH   1  12
ATOM     12  C   UNL     1     -10.497  82.835  -8.622  1.00  0.00     0.025 A 
ATOM     13  C   UNL     1     -12.311  81.471  -9.533  1.00  0.00     0.161 A 
ATOM     14  C   UNL     1     -12.740  81.184  -8.230  1.00  0.00     0.157 A 
ATOM     15  C   UNL     1     -11.190  82.306  -9.722  1.00  0.00     0.062 A 
ATOM     16  C   UNL     1     -12.063  81.727  -7.131  1.00  0.00     0.051 A 
ATOM     17  C   UNL     1     -10.954  82.552  -7.324  1.00  0.00     0.016 A 
BRANCH  13  18
ATOM     18  O   UNL     1     -13.019  80.914 -10.609  1.00  0.00    -0.493 OA
ATOM     19  C   UNL     1     -12.667  81.080 -11.979  1.00  0.00     0.278 C 
ENDBRANCH  13  18
BRANCH  14  20
ATOM     20  O   UNL     1     -13.846  80.357  -8.035  1.00  0.00    -0.504 OA
ATOM     21  H   UNL     1     -13.751  79.351  -7.973  1.00  0.00     0.293 HD
ENDBRANCH  14  20
ENDBRANCH   1  12
BRANCH   2  22
ATOM     22  O   UNL     1     -10.744  85.713  -8.891  1.00  0.00    -0.502 OA
ATOM     23  H   UNL     1     -11.369  85.816  -9.683  1.00  0.00     0.293 HD
ENDBRANCH   2  22
BRANCH   6  24
ATOM     24  O   UNL     1      -5.888  87.382  -9.712  1.00  0.00    -0.507 OA
ATOM     25  H   UNL     1      -6.580  87.975  -9.268  1.00  0.00     0.293 HD
ENDBRANCH   6  24
BRANCH   8  26
ATOM     26  O   UNL     1      -3.394  83.244  -9.404  1.00  0.00    -0.508 OA
ATOM     27  H   UNL     1      -2.763  83.245  -8.610  1.00  0.00     0.293 HD
ENDBRANCH   8  26
TORSDOF 6
ENDMDL
MODEL 9
REMARK VINA RESULT:    -4.940      8.144      9.080
REMARK INTER + INTRA:          -6.382
REMARK INTER:                  -6.109
REMARK INTRA:                  -0.273
REMARK UNBOUND:                -0.287
REMARK SMILES COc1cc(-c2oc3cc(O)cc(O)c3c(=O)c2O)ccc1O
REMARK SMILES IDX 6 1 18 2 16 3 17 4 15 5 13 6 12 7 10 8 9 9 8 10 7 11 5 12
REMARK SMILES IDX 3 13 22 14 4 15 21 16 20 17 2 18 1 19 23 20 19 22 14 24
REMARK SMILES IDX 11 26
REMARK H PARENT 23 21 19 23 14 25 11 27
REMARK Flexibility Score: inf
ROOT
ATOM      1  C   UNL     1      -8.498  90.474 -13.132  1.00  0.00     0.180 A 
ATOM      2  C   UNL     1      -7.613  89.439 -13.493  1.00  0.00     0.208 A 
ATOM      3  C   UNL     1      -6.238  89.714 -13.553  1.00  0.00     0.238 A 
ATOM      4  O   UNL     1      -5.435  88.793 -13.865  1.00  0.00    -0.285 OA
ATOM      5  C   UNL     1      -5.775  91.016 -13.272  1.00  0.00     0.111 A 
ATOM      6  C   UNL     1      -4.405  91.375 -13.314  1.00  0.00     0.134 A 
ATOM      7  C   UNL     1      -4.024  92.695 -13.030  1.00  0.00     0.093 A 
ATOM      8  C   UNL     1      -4.985  93.660 -12.706  1.00  0.00     0.123 A 
ATOM      9  C   UNL     1      -6.335  93.309 -12.663  1.00  0.00     0.094 A 
ATOM     10  C   UNL     1      -6.735  92.000 -12.942  1.00  0.00     0.146 A 
ATOM     11  O   UNL     1      -8.026  91.692 -12.888  1.00  0.00    -0.452 OA
ENDROOT
BRANCH   1  12
ATOM     12  C   UNL     1      -9.960  90.258 -13.029  1.00  0.00     0.025 A 
ATOM     13  C   UNL     1     -11.853  89.205 -11.893  1.00  0.00     0.161 A 
ATOM     14  C   UNL     1     -12.724  89.774 -12.833  1.00  0.00     0.157 A 
ATOM     15  C   UNL     1     -10.468  89.446 -12.002  1.00  0.00     0.062 A 
ATOM     16  C   UNL     1     -12.219  90.568 -13.871  1.00  0.00     0.051 A 
ATOM     17  C   UNL     1     -10.847  90.803 -13.973  1.00  0.00     0.016 A 
BRANCH  13  18
ATOM     18  O   UNL     1     -12.396  88.410 -10.873  1.00  0.00    -0.493 OA
ATOM     19  C   UNL     1     -11.654  87.476 -10.096  1.00  0.00     0.278 C 
ENDBRANCH  13  18
BRANCH  14  20
ATOM     20  O   UNL     1     -14.095  89.542 -12.731  1.00  0.00    -0.504 OA
ATOM     21  H   UNL     1     -14.563  88.865 -13.321  1.00  0.00     0.293 HD
ENDBRANCH  14  20
ENDBRANCH   1  12
BRANCH   2  22
ATOM     22  O   UNL     1      -8.103  88.172 -13.814  1.00  0.00    -0.502 OA
ATOM     23  H   UNL     1      -7.498  87.364 -13.915  1.00  0.00     0.293 HD
ENDBRANCH   2  22
BRANCH   6  24
ATOM     24  O   UNL     1      -3.425  90.435 -13.634  1.00  0.00    -0.507 OA
ATOM     25  H   UNL     1      -2.439  90.670 -13.628  1.00  0.00     0.293 HD
ENDBRANCH   6  24
BRANCH   8  26
ATOM     26  O   UNL     1      -4.607  94.972 -12.425  1.00  0.00    -0.508 OA
ATOM     27  H   UNL     1      -3.699  95.188 -12.030  1.00  0.00     0.293 HD
ENDBRANCH   8  26
TORSDOF 6
ENDMDL
