MODEL 1
REMARK VINA RESULT:    -5.399      0.000      0.000
REMARK INTER + INTRA:          -8.368
REMARK INTER:                  -7.608
REMARK INTRA:                  -0.759
REMARK UNBOUND:                -0.759
REMARK SMILES COc1ccc(-c2cc(=O)c3c(OC)c(OC)c(OC)c(OC)c3o2)cc1OC
REMARK SMILES IDX 7 1 8 2 9 3 10 4 11 5 24 6 25 7 21 8 18 9 15 10 12 11 6 12
REMARK SMILES IDX 3 13 27 14 4 15 26 16 5 17 2 18 1 19 28 20 29 21 22 22 23 23
REMARK SMILES IDX 13 24 14 25 19 26 20 27 16 28 17 29
REMARK H PARENT
REMARK Flexibility Score: inf
ROOT
ATOM      1  C   UNL     1      45.190  16.359  -3.672  1.00  0.00     0.138 A 
ATOM      2  C   UNL     1      44.562  15.188  -3.231  1.00  0.00     0.100 A 
ATOM      3  C   UNL     1      45.304  14.012  -3.119  1.00  0.00     0.197 A 
ATOM      4  O   UNL     1      44.721  12.968  -2.723  1.00  0.00    -0.289 OA
ATOM      5  C   UNL     1      46.681  14.016  -3.445  1.00  0.00     0.115 A 
ATOM      6  C   UNL     1      47.245  15.244  -3.861  1.00  0.00     0.188 A 
ATOM      7  O   UNL     1      46.489  16.335  -3.954  1.00  0.00    -0.452 OA
ATOM      8  C   UNL     1      48.602  15.342  -4.176  1.00  0.00     0.209 A 
ATOM      9  C   UNL     1      49.425  14.202  -4.055  1.00  0.00     0.211 A 
ATOM     10  C   UNL     1      48.861  12.945  -3.740  1.00  0.00     0.208 A 
ATOM     11  C   UNL     1      47.490  12.855  -3.385  1.00  0.00     0.179 A 
ENDROOT
BRANCH   1  12
ATOM     12  C   UNL     1      44.451  17.640  -3.819  1.00  0.00     0.021 A 
ATOM     13  C   UNL     1      43.049  20.082  -4.028  1.00  0.00     0.160 A 
ATOM     14  C   UNL     1      42.828  19.240  -2.927  1.00  0.00     0.161 A 
ATOM     15  C   UNL     1      43.976  19.702  -5.016  1.00  0.00     0.051 A 
ATOM     16  C   UNL     1      43.534  18.026  -2.827  1.00  0.00     0.062 A 
ATOM     17  C   UNL     1      44.671  18.497  -4.909  1.00  0.00     0.016 A 
BRANCH  13  18
ATOM     18  O   UNL     1      42.330  21.285  -4.103  1.00  0.00    -0.493 OA
ATOM     19  C   UNL     1      41.692  21.771  -5.279  1.00  0.00     0.278 C 
ENDBRANCH  13  18
BRANCH  14  20
ATOM     20  O   UNL     1      41.900  19.646  -1.955  1.00  0.00    -0.493 OA
ATOM     21  C   UNL     1      42.236  20.339  -0.758  1.00  0.00     0.278 C 
ENDBRANCH  14  20
ENDBRANCH   1  12
BRANCH   8  22
ATOM     22  O   UNL     1      49.071  16.603  -4.592  1.00  0.00    -0.490 OA
ATOM     23  C   UNL     1      49.185  17.061  -5.936  1.00  0.00     0.278 C 
ENDBRANCH   8  22
BRANCH  11  24
ATOM     24  O   UNL     1      46.883  11.644  -2.992  1.00  0.00    -0.492 OA
ATOM     25  C   UNL     1      47.137  10.895  -1.807  1.00  0.00     0.278 C 
ENDBRANCH  11  24
BRANCH   9  26
ATOM     26  O   UNL     1      50.808  14.324  -4.200  1.00  0.00    -0.490 OA
ATOM     27  C   UNL     1      51.433  14.166  -5.469  1.00  0.00     0.279 C 
ENDBRANCH   9  26
BRANCH  10  28
ATOM     28  O   UNL     1      49.641  11.781  -3.783  1.00  0.00    -0.490 OA
ATOM     29  C   UNL     1      49.728  10.913  -4.910  1.00  0.00     0.278 C 
ENDBRANCH  10  28
TORSDOF 7
ENDMDL
MODEL 2
REMARK VINA RESULT:    -5.162      1.733      3.786
REMARK INTER + INTRA:          -8.034
REMARK INTER:                  -7.307
REMARK INTRA:                  -0.727
REMARK UNBOUND:                -0.759
REMARK SMILES COc1ccc(-c2cc(=O)c3c(OC)c(OC)c(OC)c(OC)c3o2)cc1OC
REMARK SMILES IDX 7 1 8 2 9 3 10 4 11 5 24 6 25 7 21 8 18 9 15 10 12 11 6 12
REMARK SMILES IDX 3 13 27 14 4 15 26 16 5 17 2 18 1 19 28 20 29 21 22 22 23 23
REMARK SMILES IDX 13 24 14 25 19 26 20 27 16 28 17 29
REMARK H PARENT
REMARK Flexibility Score: inf
ROOT
ATOM      1  C   UNL     1      45.571  16.676  -3.714  1.00  0.00     0.138 A 
ATOM      2  C   UNL     1      46.411  17.368  -4.596  1.00  0.00     0.100 A 
ATOM      3  C   UNL     1      47.617  16.789  -4.992  1.00  0.00     0.197 A 
ATOM      4  O   UNL     1      48.359  17.427  -5.784  1.00  0.00    -0.289 OA
ATOM      5  C   UNL     1      47.976  15.509  -4.505  1.00  0.00     0.115 A 
ATOM      6  C   UNL     1      47.064  14.868  -3.636  1.00  0.00     0.188 A 
ATOM      7  O   UNL     1      45.929  15.468  -3.287  1.00  0.00    -0.452 OA
ATOM      8  C   UNL     1      47.327  13.593  -3.130  1.00  0.00     0.209 A 
ATOM      9  C   UNL     1      48.513  12.928  -3.511  1.00  0.00     0.211 A 
ATOM     10  C   UNL     1      49.482  13.593  -4.295  1.00  0.00     0.208 A 
ATOM     11  C   UNL     1      49.197  14.873  -4.838  1.00  0.00     0.179 A 
ENDROOT
BRANCH   1  12
ATOM     12  C   UNL     1      44.279  17.244  -3.251  1.00  0.00     0.021 A 
ATOM     13  C   UNL     1      41.825  18.281  -2.316  1.00  0.00     0.160 A 
ATOM     14  C   UNL     1      42.129  16.925  -2.126  1.00  0.00     0.161 A 
ATOM     15  C   UNL     1      42.753  19.115  -2.966  1.00  0.00     0.051 A 
ATOM     16  C   UNL     1      43.356  16.415  -2.592  1.00  0.00     0.062 A 
ATOM     17  C   UNL     1      43.967  18.603  -3.424  1.00  0.00     0.016 A 
BRANCH  13  18
ATOM     18  O   UNL     1      40.593  18.762  -1.844  1.00  0.00    -0.493 OA
ATOM     19  C   UNL     1      40.431  19.955  -1.085  1.00  0.00     0.278 C 
ENDBRANCH  13  18
BRANCH  14  20
ATOM     20  O   UNL     1      41.186  16.117  -1.471  1.00  0.00    -0.493 OA
ATOM     21  C   UNL     1      40.244  15.279  -2.131  1.00  0.00     0.278 C 
ENDBRANCH  14  20
ENDBRANCH   1  12
BRANCH   8  22
ATOM     22  O   UNL     1      46.366  13.039  -2.263  1.00  0.00    -0.490 OA
ATOM     23  C   UNL     1      45.359  12.093  -2.610  1.00  0.00     0.278 C 
ENDBRANCH   8  22
BRANCH  11  24
ATOM     24  O   UNL     1      50.091  15.558  -5.685  1.00  0.00    -0.492 OA
ATOM     25  C   UNL     1      51.392  16.040  -5.361  1.00  0.00     0.278 C 
ENDBRANCH  11  24
BRANCH   9  26
ATOM     26  O   UNL     1      48.708  11.594  -3.153  1.00  0.00    -0.490 OA
ATOM     27  C   UNL     1      49.170  11.238  -1.855  1.00  0.00     0.279 C 
ENDBRANCH   9  26
BRANCH  10  28
ATOM     28  O   UNL     1      50.731  13.005  -4.537  1.00  0.00    -0.490 OA
ATOM     29  C   UNL     1      51.055  12.258  -5.706  1.00  0.00     0.278 C 
ENDBRANCH  10  28
TORSDOF 7
ENDMDL
MODEL 3
REMARK VINA RESULT:    -5.089      1.406      3.736
REMARK INTER + INTRA:          -7.930
REMARK INTER:                  -7.363
REMARK INTRA:                  -0.568
REMARK UNBOUND:                -0.759
REMARK SMILES COc1ccc(-c2cc(=O)c3c(OC)c(OC)c(OC)c(OC)c3o2)cc1OC
REMARK SMILES IDX 7 1 8 2 9 3 10 4 11 5 24 6 25 7 21 8 18 9 15 10 12 11 6 12
REMARK SMILES IDX 3 13 27 14 4 15 26 16 5 17 2 18 1 19 28 20 29 21 22 22 23 23
REMARK SMILES IDX 13 24 14 25 19 26 20 27 16 28 17 29
REMARK H PARENT
REMARK Flexibility Score: inf
ROOT
ATOM      1  C   UNL     1      45.550  16.717  -3.602  1.00  0.00     0.138 A 
ATOM      2  C   UNL     1      46.358  17.403  -4.518  1.00  0.00     0.100 A 
ATOM      3  C   UNL     1      47.536  16.810  -4.971  1.00  0.00     0.197 A 
ATOM      4  O   UNL     1      48.251  17.443  -5.793  1.00  0.00    -0.289 OA
ATOM      5  C   UNL     1      47.899  15.522  -4.509  1.00  0.00     0.115 A 
ATOM      6  C   UNL     1      47.018  14.888  -3.604  1.00  0.00     0.188 A 
ATOM      7  O   UNL     1      45.909  15.502  -3.199  1.00  0.00    -0.452 OA
ATOM      8  C   UNL     1      47.287  13.606  -3.118  1.00  0.00     0.209 A 
ATOM      9  C   UNL     1      48.444  12.927  -3.557  1.00  0.00     0.211 A 
ATOM     10  C   UNL     1      49.386  13.584  -4.381  1.00  0.00     0.208 A 
ATOM     11  C   UNL     1      49.094  14.871  -4.902  1.00  0.00     0.179 A 
ENDROOT
BRANCH   1  12
ATOM     12  C   UNL     1      44.288  17.300  -3.077  1.00  0.00     0.021 A 
ATOM     13  C   UNL     1      41.884  18.446  -2.138  1.00  0.00     0.160 A 
ATOM     14  C   UNL     1      42.766  19.210  -2.917  1.00  0.00     0.161 A 
ATOM     15  C   UNL     1      42.205  17.108  -1.839  1.00  0.00     0.051 A 
ATOM     16  C   UNL     1      43.962  18.631  -3.385  1.00  0.00     0.062 A 
ATOM     17  C   UNL     1      43.391  16.542  -2.307  1.00  0.00     0.016 A 
BRANCH  13  18
ATOM     18  O   UNL     1      40.702  19.049  -1.683  1.00  0.00    -0.493 OA
ATOM     19  C   UNL     1      40.633  19.980  -0.608  1.00  0.00     0.278 C 
ENDBRANCH  13  18
BRANCH  14  20
ATOM     20  O   UNL     1      42.419  20.540  -3.202  1.00  0.00    -0.493 OA
ATOM     21  C   UNL     1      41.996  21.008  -4.478  1.00  0.00     0.278 C 
ENDBRANCH  14  20
ENDBRANCH   1  12
BRANCH   8  22
ATOM     22  O   UNL     1      46.358  13.060  -2.211  1.00  0.00    -0.490 OA
ATOM     23  C   UNL     1      45.387  12.059  -2.496  1.00  0.00     0.278 C 
ENDBRANCH   8  22
BRANCH  11  24
ATOM     24  O   UNL     1      49.958  15.550  -5.786  1.00  0.00    -0.492 OA
ATOM     25  C   UNL     1      51.254  16.068  -5.499  1.00  0.00     0.278 C 
ENDBRANCH  11  24
BRANCH   9  26
ATOM     26  O   UNL     1      48.636  11.588  -3.217  1.00  0.00    -0.490 OA
ATOM     27  C   UNL     1      49.156  11.218  -1.945  1.00  0.00     0.279 C 
ENDBRANCH   9  26
BRANCH  10  28
ATOM     28  O   UNL     1      50.614  12.980  -4.683  1.00  0.00    -0.490 OA
ATOM     29  C   UNL     1      50.858  12.193  -5.846  1.00  0.00     0.278 C 
ENDBRANCH  10  28
TORSDOF 7
ENDMDL
MODEL 4
REMARK VINA RESULT:    -5.070      1.622      8.742
REMARK INTER + INTRA:          -7.905
REMARK INTER:                  -7.233
REMARK INTRA:                  -0.672
REMARK UNBOUND:                -0.759
REMARK SMILES COc1ccc(-c2cc(=O)c3c(OC)c(OC)c(OC)c(OC)c3o2)cc1OC
REMARK SMILES IDX 7 1 8 2 9 3 10 4 11 5 24 6 25 7 21 8 18 9 15 10 12 11 6 12
REMARK SMILES IDX 3 13 27 14 4 15 26 16 5 17 2 18 1 19 28 20 29 21 22 22 23 23
REMARK SMILES IDX 13 24 14 25 19 26 20 27 16 28 17 29
REMARK H PARENT
REMARK Flexibility Score: inf
ROOT
ATOM      1  C   UNL     1      45.619  16.014  -3.801  1.00  0.00     0.138 A 
ATOM      2  C   UNL     1      46.140  16.793  -4.842  1.00  0.00     0.100 A 
ATOM      3  C   UNL     1      45.514  17.993  -5.180  1.00  0.00     0.197 A 
ATOM      4  O   UNL     1      45.996  18.679  -6.119  1.00  0.00    -0.289 OA
ATOM      5  C   UNL     1      44.366  18.412  -4.467  1.00  0.00     0.115 A 
ATOM      6  C   UNL     1      43.916  17.580  -3.416  1.00  0.00     0.188 A 
ATOM      7  O   UNL     1      44.549  16.443  -3.139  1.00  0.00    -0.452 OA
ATOM      8  C   UNL     1      42.805  17.932  -2.645  1.00  0.00     0.209 A 
ATOM      9  C   UNL     1      42.138  19.148  -2.906  1.00  0.00     0.211 A 
ATOM     10  C   UNL     1      42.510  19.941  -4.015  1.00  0.00     0.208 A 
ATOM     11  C   UNL     1      43.659  19.601  -4.774  1.00  0.00     0.179 A 
ENDROOT
BRANCH   1  12
ATOM     12  C   UNL     1      46.238  14.724  -3.400  1.00  0.00     0.021 A 
ATOM     13  C   UNL     1      47.472  12.307  -2.621  1.00  0.00     0.160 A 
ATOM     14  C   UNL     1      48.230  13.311  -3.242  1.00  0.00     0.161 A 
ATOM     15  C   UNL     1      46.102  12.519  -2.384  1.00  0.00     0.051 A 
ATOM     16  C   UNL     1      47.609  14.516  -3.624  1.00  0.00     0.062 A 
ATOM     17  C   UNL     1      45.493  13.716  -2.766  1.00  0.00     0.016 A 
BRANCH  13  18
ATOM     18  O   UNL     1      48.117  11.116  -2.253  1.00  0.00    -0.493 OA
ATOM     19  C   UNL     1      48.911  10.956  -1.082  1.00  0.00     0.278 C 
ENDBRANCH  13  18
BRANCH  14  20
ATOM     20  O   UNL     1      49.596  13.073  -3.462  1.00  0.00    -0.493 OA
ATOM     21  C   UNL     1      50.328  13.551  -4.586  1.00  0.00     0.278 C 
ENDBRANCH  14  20
ENDBRANCH   1  12
BRANCH   8  22
ATOM     22  O   UNL     1      42.425  17.035  -1.628  1.00  0.00    -0.490 OA
ATOM     23  C   UNL     1      41.329  16.126  -1.671  1.00  0.00     0.278 C 
ENDBRANCH   8  22
BRANCH  11  24
ATOM     24  O   UNL     1      44.125  20.389  -5.847  1.00  0.00    -0.492 OA
ATOM     25  C   UNL     1      44.508  21.761  -5.809  1.00  0.00     0.278 C 
ENDBRANCH  11  24
BRANCH   9  26
ATOM     26  O   UNL     1      41.139  19.593  -2.040  1.00  0.00    -0.490 OA
ATOM     27  C   UNL     1      41.450  20.391  -0.903  1.00  0.00     0.279 C 
ENDBRANCH   9  26
BRANCH  10  28
ATOM     28  O   UNL     1      41.748  21.060  -4.380  1.00  0.00    -0.490 OA
ATOM     29  C   UNL     1      40.670  21.029  -5.312  1.00  0.00     0.278 C 
ENDBRANCH  10  28
TORSDOF 7
ENDMDL
MODEL 5
REMARK VINA RESULT:    -4.890      1.273      2.109
REMARK INTER + INTRA:          -7.650
REMARK INTER:                  -6.934
REMARK INTRA:                  -0.716
REMARK UNBOUND:                -0.759
REMARK SMILES COc1ccc(-c2cc(=O)c3c(OC)c(OC)c(OC)c(OC)c3o2)cc1OC
REMARK SMILES IDX 7 1 8 2 9 3 10 4 11 5 24 6 25 7 21 8 18 9 15 10 12 11 6 12
REMARK SMILES IDX 3 13 27 14 4 15 26 16 5 17 2 18 1 19 28 20 29 21 22 22 23 23
REMARK SMILES IDX 13 24 14 25 19 26 20 27 16 28 17 29
REMARK H PARENT
REMARK Flexibility Score: inf
ROOT
ATOM      1  C   UNL     1      45.126  15.727  -2.967  1.00  0.00     0.138 A 
ATOM      2  C   UNL     1      45.015  14.414  -2.492  1.00  0.00     0.100 A 
ATOM      3  C   UNL     1      46.039  13.503  -2.750  1.00  0.00     0.197 A 
ATOM      4  O   UNL     1      45.921  12.326  -2.316  1.00  0.00    -0.289 OA
ATOM      5  C   UNL     1      47.178  13.914  -3.482  1.00  0.00     0.115 A 
ATOM      6  C   UNL     1      47.224  15.261  -3.907  1.00  0.00     0.188 A 
ATOM      7  O   UNL     1      46.216  16.087  -3.637  1.00  0.00    -0.452 OA
ATOM      8  C   UNL     1      48.323  15.757  -4.612  1.00  0.00     0.209 A 
ATOM      9  C   UNL     1      49.414  14.903  -4.883  1.00  0.00     0.211 A 
ATOM     10  C   UNL     1      49.342  13.530  -4.556  1.00  0.00     0.208 A 
ATOM     11  C   UNL     1      48.242  13.037  -3.808  1.00  0.00     0.179 A 
ENDROOT
BRANCH   1  12
ATOM     12  C   UNL     1      44.065  16.740  -2.730  1.00  0.00     0.021 A 
ATOM     13  C   UNL     1      42.063  18.694  -2.343  1.00  0.00     0.160 A 
ATOM     14  C   UNL     1      43.249  19.030  -3.013  1.00  0.00     0.161 A 
ATOM     15  C   UNL     1      41.880  17.379  -1.875  1.00  0.00     0.051 A 
ATOM     16  C   UNL     1      44.241  18.050  -3.207  1.00  0.00     0.062 A 
ATOM     17  C   UNL     1      42.868  16.414  -2.071  1.00  0.00     0.016 A 
BRANCH  13  18
ATOM     18  O   UNL     1      41.093  19.692  -2.162  1.00  0.00    -0.493 OA
ATOM     19  C   UNL     1      40.699  20.214  -0.897  1.00  0.00     0.278 C 
ENDBRANCH  13  18
BRANCH  14  20
ATOM     20  O   UNL     1      43.403  20.348  -3.472  1.00  0.00    -0.493 OA
ATOM     21  C   UNL     1      43.848  20.702  -4.777  1.00  0.00     0.278 C 
ENDBRANCH  14  20
ENDBRANCH   1  12
BRANCH   8  22
ATOM     22  O   UNL     1      48.273  17.108  -5.004  1.00  0.00    -0.490 OA
ATOM     23  C   UNL     1      47.571  17.637  -6.125  1.00  0.00     0.278 C 
ENDBRANCH   8  22
BRANCH  11  24
ATOM     24  O   UNL     1      48.145  11.694  -3.389  1.00  0.00    -0.492 OA
ATOM     25  C   UNL     1      48.956  11.030  -2.424  1.00  0.00     0.278 C 
ENDBRANCH  11  24
BRANCH   9  26
ATOM     26  O   UNL     1      50.585  15.424  -5.432  1.00  0.00    -0.490 OA
ATOM     27  C   UNL     1      51.648  15.884  -4.605  1.00  0.00     0.279 C 
ENDBRANCH   9  26
BRANCH  10  28
ATOM     28  O   UNL     1      50.346  12.644  -4.971  1.00  0.00    -0.490 OA
ATOM     29  C   UNL     1      50.258  11.812  -6.125  1.00  0.00     0.278 C 
ENDBRANCH  10  28
TORSDOF 7
ENDMDL
MODEL 6
REMARK VINA RESULT:    -4.884      1.070      3.390
REMARK INTER + INTRA:          -7.642
REMARK INTER:                  -6.958
REMARK INTRA:                  -0.683
REMARK UNBOUND:                -0.759
REMARK SMILES COc1ccc(-c2cc(=O)c3c(OC)c(OC)c(OC)c(OC)c3o2)cc1OC
REMARK SMILES IDX 7 1 8 2 9 3 10 4 11 5 24 6 25 7 21 8 18 9 15 10 12 11 6 12
REMARK SMILES IDX 3 13 27 14 4 15 26 16 5 17 2 18 1 19 28 20 29 21 22 22 23 23
REMARK SMILES IDX 13 24 14 25 19 26 20 27 16 28 17 29
REMARK H PARENT
REMARK Flexibility Score: inf
ROOT
ATOM      1  C   UNL     1      45.851  17.143  -4.517  1.00  0.00     0.138 A 
ATOM      2  C   UNL     1      47.156  17.393  -4.961  1.00  0.00     0.100 A 
ATOM      3  C   UNL     1      48.144  16.429  -4.762  1.00  0.00     0.197 A 
ATOM      4  O   UNL     1      49.312  16.671  -5.166  1.00  0.00    -0.289 OA
ATOM      5  C   UNL     1      47.818  15.210  -4.121  1.00  0.00     0.115 A 
ATOM      6  C   UNL     1      46.474  15.026  -3.722  1.00  0.00     0.188 A 
ATOM      7  O   UNL     1      45.572  15.982  -3.933  1.00  0.00    -0.452 OA
ATOM      8  C   UNL     1      46.061  13.842  -3.106  1.00  0.00     0.209 A 
ATOM      9  C   UNL     1      46.997  12.806  -2.901  1.00  0.00     0.211 A 
ATOM     10  C   UNL     1      48.363  13.010  -3.198  1.00  0.00     0.208 A 
ATOM     11  C   UNL     1      48.774  14.198  -3.857  1.00  0.00     0.179 A 
ENDROOT
BRANCH   1  12
ATOM     12  C   UNL     1      44.758  18.134  -4.694  1.00  0.00     0.021 A 
ATOM     13  C   UNL     1      42.675  20.023  -4.960  1.00  0.00     0.160 A 
ATOM     14  C   UNL     1      42.642  19.086  -3.916  1.00  0.00     0.161 A 
ATOM     15  C   UNL     1      43.756  20.016  -5.862  1.00  0.00     0.051 A 
ATOM     16  C   UNL     1      43.686  18.150  -3.787  1.00  0.00     0.062 A 
ATOM     17  C   UNL     1      44.786  19.086  -5.727  1.00  0.00     0.016 A 
BRANCH  13  18
ATOM     18  O   UNL     1      41.621  20.942  -5.067  1.00  0.00    -0.493 OA
ATOM     19  C   UNL     1      41.707  22.195  -5.738  1.00  0.00     0.278 C 
ENDBRANCH  13  18
BRANCH  14  20
ATOM     20  O   UNL     1      41.554  19.118  -3.029  1.00  0.00    -0.493 OA
ATOM     21  C   UNL     1      41.661  19.347  -1.629  1.00  0.00     0.278 C 
ENDBRANCH  14  20
ENDBRANCH   1  12
BRANCH   8  22
ATOM     22  O   UNL     1      44.706  13.756  -2.734  1.00  0.00    -0.490 OA
ATOM     23  C   UNL     1      43.671  13.097  -3.458  1.00  0.00     0.278 C 
ENDBRANCH   8  22
BRANCH  11  24
ATOM     24  O   UNL     1      50.109  14.432  -4.245  1.00  0.00    -0.492 OA
ATOM     25  C   UNL     1      50.840  13.764  -5.270  1.00  0.00     0.278 C 
ENDBRANCH  11  24
BRANCH   9  26
ATOM     26  O   UNL     1      46.566  11.560  -2.445  1.00  0.00    -0.490 OA
ATOM     27  C   UNL     1      46.554  11.245  -1.058  1.00  0.00     0.279 C 
ENDBRANCH   9  26
BRANCH  10  28
ATOM     28  O   UNL     1      49.323  12.053  -2.842  1.00  0.00    -0.490 OA
ATOM     29  C   UNL     1      49.605  10.877  -3.597  1.00  0.00     0.278 C 
ENDBRANCH  10  28
TORSDOF 7
ENDMDL
MODEL 7
REMARK VINA RESULT:    -4.634      1.876      8.243
REMARK INTER + INTRA:          -7.290
REMARK INTER:                  -6.616
REMARK INTRA:                  -0.673
REMARK UNBOUND:                -0.759
REMARK SMILES COc1ccc(-c2cc(=O)c3c(OC)c(OC)c(OC)c(OC)c3o2)cc1OC
REMARK SMILES IDX 7 1 8 2 9 3 10 4 11 5 24 6 25 7 21 8 18 9 15 10 12 11 6 12
REMARK SMILES IDX 3 13 27 14 4 15 26 16 5 17 2 18 1 19 28 20 29 21 22 22 23 23
REMARK SMILES IDX 13 24 14 25 19 26 20 27 16 28 17 29
REMARK H PARENT
REMARK Flexibility Score: inf
ROOT
ATOM      1  C   UNL     1      46.590  17.250  -5.004  1.00  0.00     0.138 A 
ATOM      2  C   UNL     1      46.221  18.424  -5.673  1.00  0.00     0.100 A 
ATOM      3  C   UNL     1      44.929  18.925  -5.514  1.00  0.00     0.197 A 
ATOM      4  O   UNL     1      44.614  19.981  -6.125  1.00  0.00    -0.289 OA
ATOM      5  C   UNL     1      44.009  18.249  -4.678  1.00  0.00     0.115 A 
ATOM      6  C   UNL     1      44.467  17.083  -4.022  1.00  0.00     0.188 A 
ATOM      7  O   UNL     1      45.710  16.646  -4.213  1.00  0.00    -0.452 OA
ATOM      8  C   UNL     1      43.633  16.369  -3.158  1.00  0.00     0.209 A 
ATOM      9  C   UNL     1      42.322  16.833  -2.921  1.00  0.00     0.211 A 
ATOM     10  C   UNL     1      41.814  17.936  -3.645  1.00  0.00     0.208 A 
ATOM     11  C   UNL     1      42.673  18.681  -4.494  1.00  0.00     0.179 A 
ENDROOT
BRANCH   1  12
ATOM     12  C   UNL     1      47.949  16.664  -5.140  1.00  0.00     0.021 A 
ATOM     13  C   UNL     1      50.503  15.485  -5.391  1.00  0.00     0.160 A 
ATOM     14  C   UNL     1      49.549  14.914  -4.536  1.00  0.00     0.161 A 
ATOM     15  C   UNL     1      50.172  16.640  -6.124  1.00  0.00     0.051 A 
ATOM     16  C   UNL     1      48.276  15.504  -4.418  1.00  0.00     0.062 A 
ATOM     17  C   UNL     1      48.909  17.219  -6.002  1.00  0.00     0.016 A 
BRANCH  13  18
ATOM     18  O   UNL     1      51.764  14.877  -5.486  1.00  0.00    -0.493 OA
ATOM     19  C   UNL     1      52.915  15.491  -6.057  1.00  0.00     0.278 C 
ENDBRANCH  13  18
BRANCH  14  20
ATOM     20  O   UNL     1      49.905  13.759  -3.819  1.00  0.00    -0.493 OA
ATOM     21  C   UNL     1      49.000  12.723  -3.456  1.00  0.00     0.278 C 
ENDBRANCH  14  20
ENDBRANCH   1  12
BRANCH   8  22
ATOM     22  O   UNL     1      44.173  15.214  -2.560  1.00  0.00    -0.490 OA
ATOM     23  C   UNL     1      44.076  13.882  -3.054  1.00  0.00     0.278 C 
ENDBRANCH   8  22
BRANCH  11  24
ATOM     24  O   UNL     1      42.248  19.833  -5.187  1.00  0.00    -0.492 OA
ATOM     25  C   UNL     1      41.990  21.123  -4.643  1.00  0.00     0.278 C 
ENDBRANCH  11  24
BRANCH   9  26
ATOM     26  O   UNL     1      41.538  16.232  -1.936  1.00  0.00    -0.490 OA
ATOM     27  C   UNL     1      40.572  15.240  -2.264  1.00  0.00     0.279 C 
ENDBRANCH   9  26
BRANCH  10  28
ATOM     28  O   UNL     1      40.464  18.298  -3.541  1.00  0.00    -0.490 OA
ATOM     29  C   UNL     1      39.923  19.091  -2.486  1.00  0.00     0.278 C 
ENDBRANCH  10  28
TORSDOF 7
ENDMDL
MODEL 8
REMARK VINA RESULT:    -3.796      1.313      1.333
REMARK INTER + INTRA:          -6.108
REMARK INTER:                  -5.480
REMARK INTRA:                  -0.629
REMARK UNBOUND:                -0.759
REMARK SMILES COc1ccc(-c2cc(=O)c3c(OC)c(OC)c(OC)c(OC)c3o2)cc1OC
REMARK SMILES IDX 7 1 8 2 9 3 10 4 11 5 24 6 25 7 21 8 18 9 15 10 12 11 6 12
REMARK SMILES IDX 3 13 27 14 4 15 26 16 5 17 2 18 1 19 28 20 29 21 22 22 23 23
REMARK SMILES IDX 13 24 14 25 19 26 20 27 16 28 17 29
REMARK H PARENT
REMARK Flexibility Score: inf
ROOT
ATOM      1  C   UNL     1      44.193  16.062  -4.202  1.00  0.00     0.138 A 
ATOM      2  C   UNL     1      43.645  14.965  -3.525  1.00  0.00     0.100 A 
ATOM      3  C   UNL     1      44.392  13.795  -3.398  1.00  0.00     0.197 A 
ATOM      4  O   UNL     1      43.883  12.819  -2.787  1.00  0.00    -0.289 OA
ATOM      5  C   UNL     1      45.695  13.728  -3.949  1.00  0.00     0.115 A 
ATOM      6  C   UNL     1      46.183  14.885  -4.598  1.00  0.00     0.188 A 
ATOM      7  O   UNL     1      45.425  15.975  -4.694  1.00  0.00    -0.452 OA
ATOM      8  C   UNL     1      47.467  14.914  -5.147  1.00  0.00     0.209 A 
ATOM      9  C   UNL     1      48.296  13.778  -5.030  1.00  0.00     0.211 A 
ATOM     10  C   UNL     1      47.790  12.580  -4.476  1.00  0.00     0.208 A 
ATOM     11  C   UNL     1      46.499  12.564  -3.887  1.00  0.00     0.179 A 
ENDROOT
BRANCH   1  12
ATOM     12  C   UNL     1      43.443  17.333  -4.376  1.00  0.00     0.021 A 
ATOM     13  C   UNL     1      42.072  19.783  -4.679  1.00  0.00     0.160 A 
ATOM     14  C   UNL     1      42.925  19.589  -3.582  1.00  0.00     0.161 A 
ATOM     15  C   UNL     1      41.916  18.753  -5.625  1.00  0.00     0.051 A 
ATOM     16  C   UNL     1      43.608  18.366  -3.438  1.00  0.00     0.062 A 
ATOM     17  C   UNL     1      42.596  17.545  -5.476  1.00  0.00     0.016 A 
BRANCH  13  18
ATOM     18  O   UNL     1      41.402  21.011  -4.795  1.00  0.00    -0.493 OA
ATOM     19  C   UNL     1      41.800  22.069  -5.660  1.00  0.00     0.278 C 
ENDBRANCH  13  18
BRANCH  14  20
ATOM     20  O   UNL     1      43.065  20.635  -2.655  1.00  0.00    -0.493 OA
ATOM     21  C   UNL     1      42.866  20.503  -1.252  1.00  0.00     0.278 C 
ENDBRANCH  14  20
ENDBRANCH   1  12
BRANCH   8  22
ATOM     22  O   UNL     1      47.862  16.106  -5.785  1.00  0.00    -0.490 OA
ATOM     23  C   UNL     1      48.593  17.177  -5.196  1.00  0.00     0.278 C 
ENDBRANCH   8  22
BRANCH  11  24
ATOM     24  O   UNL     1      45.964  11.423  -3.254  1.00  0.00    -0.492 OA
ATOM     25  C   UNL     1      46.261  10.941  -1.947  1.00  0.00     0.278 C 
ENDBRANCH  11  24
BRANCH   9  26
ATOM     26  O   UNL     1      49.634  13.849  -5.419  1.00  0.00    -0.490 OA
ATOM     27  C   UNL     1      50.652  14.223  -4.498  1.00  0.00     0.279 C 
ENDBRANCH   9  26
BRANCH  10  28
ATOM     28  O   UNL     1      48.548  11.402  -4.509  1.00  0.00    -0.490 OA
ATOM     29  C   UNL     1      49.414  10.973  -3.461  1.00  0.00     0.278 C 
ENDBRANCH  10  28
TORSDOF 7
ENDMDL
MODEL 9
REMARK VINA RESULT:    -3.768      1.553      8.130
REMARK INTER + INTRA:          -6.069
REMARK INTER:                  -6.534
REMARK INTRA:                   0.465
REMARK UNBOUND:                -0.759
REMARK SMILES COc1ccc(-c2cc(=O)c3c(OC)c(OC)c(OC)c(OC)c3o2)cc1OC
REMARK SMILES IDX 7 1 8 2 9 3 10 4 11 5 24 6 25 7 21 8 18 9 15 10 12 11 6 12
REMARK SMILES IDX 3 13 27 14 4 15 26 16 5 17 2 18 1 19 28 20 29 21 22 22 23 23
REMARK SMILES IDX 13 24 14 25 19 26 20 27 16 28 17 29
REMARK H PARENT
REMARK Flexibility Score: inf
ROOT
ATOM      1  C   UNL     1      44.647  15.797  -3.128  1.00  0.00     0.138 A 
ATOM      2  C   UNL     1      43.543  15.842  -2.266  1.00  0.00     0.100 A 
ATOM      3  C   UNL     1      42.699  16.952  -2.291  1.00  0.00     0.197 A 
ATOM      4  O   UNL     1      41.713  16.975  -1.507  1.00  0.00    -0.289 OA
ATOM      5  C   UNL     1      42.960  18.015  -3.188  1.00  0.00     0.115 A 
ATOM      6  C   UNL     1      44.081  17.883  -4.039  1.00  0.00     0.188 A 
ATOM      7  O   UNL     1      44.856  16.804  -3.970  1.00  0.00    -0.452 OA
ATOM      8  C   UNL     1      44.396  18.874  -4.973  1.00  0.00     0.209 A 
ATOM      9  C   UNL     1      43.568  20.012  -5.080  1.00  0.00     0.211 A 
ATOM     10  C   UNL     1      42.506  20.209  -4.169  1.00  0.00     0.208 A 
ATOM     11  C   UNL     1      42.165  19.186  -3.247  1.00  0.00     0.179 A 
ENDROOT
BRANCH   1  12
ATOM     12  C   UNL     1      45.586  14.646  -3.142  1.00  0.00     0.021 A 
ATOM     13  C   UNL     1      47.422  12.500  -3.145  1.00  0.00     0.160 A 
ATOM     14  C   UNL     1      47.859  13.796  -3.459  1.00  0.00     0.161 A 
ATOM     15  C   UNL     1      46.069  12.285  -2.823  1.00  0.00     0.051 A 
ATOM     16  C   UNL     1      46.939  14.862  -3.452  1.00  0.00     0.062 A 
ATOM     17  C   UNL     1      45.163  13.346  -2.818  1.00  0.00     0.016 A 
BRANCH  13  18
ATOM     18  O   UNL     1      48.359  11.457  -3.162  1.00  0.00    -0.493 OA
ATOM     19  C   UNL     1      48.983  10.913  -2.003  1.00  0.00     0.278 C 
ENDBRANCH  13  18
BRANCH  14  20
ATOM     20  O   UNL     1      49.215  13.982  -3.772  1.00  0.00    -0.493 OA
ATOM     21  C   UNL     1      49.730  15.093  -4.499  1.00  0.00     0.278 C 
ENDBRANCH  14  20
ENDBRANCH   1  12
BRANCH   8  22
ATOM     22  O   UNL     1      45.537  18.660  -5.769  1.00  0.00    -0.490 OA
ATOM     23  C   UNL     1      46.107  17.400  -6.108  1.00  0.00     0.278 C 
ENDBRANCH   8  22
BRANCH  11  24
ATOM     24  O   UNL     1      41.073  19.290  -2.362  1.00  0.00    -0.492 OA
ATOM     25  C   UNL     1      40.967  20.129  -1.215  1.00  0.00     0.278 C 
ENDBRANCH  11  24
BRANCH   9  26
ATOM     26  O   UNL     1      43.769  20.923  -6.117  1.00  0.00    -0.490 OA
ATOM     27  C   UNL     1      44.797  21.906  -6.047  1.00  0.00     0.279 C 
ENDBRANCH   9  26
BRANCH  10  28
ATOM     28  O   UNL     1      41.786  21.412  -4.160  1.00  0.00    -0.490 OA
ATOM     29  C   UNL     1      41.040  21.911  -5.267  1.00  0.00     0.278 C 
ENDBRANCH  10  28
TORSDOF 7
ENDMDL
