MODEL 1
REMARK VINA RESULT:    -4.263      0.000      0.000
REMARK INTER + INTRA:          -4.610
REMARK INTER:                  -4.512
REMARK INTRA:                  -0.098
REMARK UNBOUND:                -0.098
REMARK SMILES C=C(C)[C@H]1CC=C(C)C(=O)C1
REMARK SMILES IDX 8 1 7 2 6 3 5 4 4 5 11 6 9 7 10 8 2 9 1 10 3 11
REMARK H PARENT
REMARK Flexibility Score: inf
ROOT
ATOM      1  C   UNL     1      17.428   6.570   2.210  1.00  0.00     0.048 C 
ATOM      2  C   UNL     1      16.145   5.796   2.338  1.00  0.00    -0.012 C 
ATOM      3  C   UNL     1      14.980   6.374   1.998  1.00  0.00    -0.019 C 
ATOM      4  C   UNL     1      13.664   5.653   2.123  1.00  0.00     0.036 C 
ATOM      5  C   UNL     1      13.836   4.142   1.875  1.00  0.00     0.025 C 
ATOM      6  C   UNL     1      14.908   3.563   2.814  1.00  0.00     0.089 C 
ATOM      7  C   UNL     1      16.180   4.362   2.720  1.00  0.00     0.158 C 
ATOM      8  O   UNL     1      17.276   3.809   3.005  1.00  0.00    -0.295 OA
ENDROOT
BRANCH   5   9
ATOM      9  C   UNL     1      12.513   3.400   2.018  1.00  0.00    -0.077 C 
ATOM     10  C   UNL     1      11.380   4.083   2.253  1.00  0.00     0.008 C 
ATOM     11  C   UNL     1      12.438   1.898   1.902  1.00  0.00     0.039 C 
ENDBRANCH   5   9
TORSDOF 1
ENDMDL
MODEL 2
REMARK VINA RESULT:    -4.099      1.986      4.651
REMARK INTER + INTRA:          -4.437
REMARK INTER:                  -4.338
REMARK INTRA:                  -0.099
REMARK UNBOUND:                -0.098
REMARK SMILES C=C(C)[C@H]1CC=C(C)C(=O)C1
REMARK SMILES IDX 8 1 7 2 6 3 5 4 4 5 11 6 9 7 10 8 2 9 1 10 3 11
REMARK H PARENT
REMARK Flexibility Score: inf
ROOT
ATOM      1  C   UNL     1      12.040   1.987   1.875  1.00  0.00     0.048 C 
ATOM      2  C   UNL     1      13.105   3.000   2.194  1.00  0.00    -0.012 C 
ATOM      3  C   UNL     1      14.393   2.620   2.250  1.00  0.00    -0.019 C 
ATOM      4  C   UNL     1      15.498   3.588   2.582  1.00  0.00     0.036 C 
ATOM      5  C   UNL     1      15.170   5.001   2.064  1.00  0.00     0.025 C 
ATOM      6  C   UNL     1      13.806   5.466   2.603  1.00  0.00     0.089 C 
ATOM      7  C   UNL     1      12.747   4.434   2.323  1.00  0.00     0.158 C 
ATOM      8  O   UNL     1      11.543   4.797   2.236  1.00  0.00    -0.295 OA
ENDROOT
BRANCH   5   9
ATOM      9  C   UNL     1      16.272   5.992   2.412  1.00  0.00    -0.077 C 
ATOM     10  C   UNL     1      15.976   7.125   3.070  1.00  0.00     0.008 C 
ATOM     11  C   UNL     1      17.710   5.733   2.035  1.00  0.00     0.039 C 
ENDBRANCH   5   9
TORSDOF 1
ENDMDL
MODEL 3
REMARK VINA RESULT:    -4.008      1.335      1.980
REMARK INTER + INTRA:          -4.340
REMARK INTER:                  -4.242
REMARK INTRA:                  -0.098
REMARK UNBOUND:                -0.098
REMARK SMILES C=C(C)[C@H]1CC=C(C)C(=O)C1
REMARK SMILES IDX 8 1 7 2 6 3 5 4 4 5 11 6 9 7 10 8 2 9 1 10 3 11
REMARK H PARENT
REMARK Flexibility Score: inf
ROOT
ATOM      1  C   UNL     1      17.905   5.343   2.559  1.00  0.00     0.048 C 
ATOM      2  C   UNL     1      16.511   4.847   2.289  1.00  0.00    -0.012 C 
ATOM      3  C   UNL     1      16.284   3.529   2.164  1.00  0.00    -0.019 C 
ATOM      4  C   UNL     1      14.912   2.979   1.875  1.00  0.00     0.036 C 
ATOM      5  C   UNL     1      13.819   3.856   2.514  1.00  0.00     0.025 C 
ATOM      6  C   UNL     1      13.969   5.317   2.056  1.00  0.00     0.089 C 
ATOM      7  C   UNL     1      15.374   5.802   2.286  1.00  0.00     0.158 C 
ATOM      8  O   UNL     1      15.582   7.035   2.439  1.00  0.00    -0.295 OA
ENDROOT
BRANCH   5   9
ATOM      9  C   UNL     1      12.426   3.319   2.212  1.00  0.00    -0.077 C 
ATOM     10  C   UNL     1      11.367   4.145   2.232  1.00  0.00     0.008 C 
ATOM     11  C   UNL     1      12.199   1.864   1.884  1.00  0.00     0.039 C 
ENDBRANCH   5   9
TORSDOF 1
ENDMDL
MODEL 4
REMARK VINA RESULT:    -3.529     18.423     18.943
REMARK INTER + INTRA:          -3.834
REMARK INTER:                  -3.735
REMARK INTRA:                  -0.099
REMARK UNBOUND:                -0.098
REMARK SMILES C=C(C)[C@H]1CC=C(C)C(=O)C1
REMARK SMILES IDX 8 1 7 2 6 3 5 4 4 5 11 6 9 7 10 8 2 9 1 10 3 11
REMARK H PARENT
REMARK Flexibility Score: inf
ROOT
ATOM      1  C   UNL     1      25.881 -10.135   2.034  1.00  0.00     0.048 C 
ATOM      2  C   UNL     1      25.292 -10.734   3.282  1.00  0.00    -0.012 C 
ATOM      3  C   UNL     1      25.912 -10.562   4.462  1.00  0.00    -0.019 C 
ATOM      4  C   UNL     1      25.377 -11.155   5.739  1.00  0.00     0.036 C 
ATOM      5  C   UNL     1      23.838 -11.216   5.719  1.00  0.00     0.025 C 
ATOM      6  C   UNL     1      23.349 -11.977   4.474  1.00  0.00     0.089 C 
ATOM      7  C   UNL     1      23.970 -11.407   3.228  1.00  0.00     0.158 C 
ATOM      8  O   UNL     1      23.371 -11.538   2.127  1.00  0.00    -0.295 OA
ENDROOT
BRANCH   5   9
ATOM      9  C   UNL     1      23.288 -11.832   6.998  1.00  0.00    -0.077 C 
ATOM     10  C   UNL     1      24.084 -12.577   7.784  1.00  0.00     0.008 C 
ATOM     11  C   UNL     1      21.853 -11.626   7.416  1.00  0.00     0.039 C 
ENDBRANCH   5   9
TORSDOF 1
ENDMDL
MODEL 5
REMARK VINA RESULT:    -3.528     18.302     19.404
REMARK INTER + INTRA:          -3.833
REMARK INTER:                  -3.734
REMARK INTRA:                  -0.099
REMARK UNBOUND:                -0.098
REMARK SMILES C=C(C)[C@H]1CC=C(C)C(=O)C1
REMARK SMILES IDX 8 1 7 2 6 3 5 4 4 5 11 6 9 7 10 8 2 9 1 10 3 11
REMARK H PARENT
REMARK Flexibility Score: inf
ROOT
ATOM      1  C   UNL     1      26.737  -9.744   9.064  1.00  0.00     0.048 C 
ATOM      2  C   UNL     1      25.908 -10.288   7.934  1.00  0.00    -0.012 C 
ATOM      3  C   UNL     1      25.189  -9.449   7.169  1.00  0.00    -0.019 C 
ATOM      4  C   UNL     1      24.327  -9.941   6.036  1.00  0.00     0.036 C 
ATOM      5  C   UNL     1      24.938 -11.193   5.380  1.00  0.00     0.025 C 
ATOM      6  C   UNL     1      25.189 -12.283   6.437  1.00  0.00     0.089 C 
ATOM      7  C   UNL     1      25.982 -11.730   7.589  1.00  0.00     0.158 C 
ATOM      8  O   UNL     1      26.684 -12.512   8.285  1.00  0.00    -0.295 OA
ENDROOT
BRANCH   5   9
ATOM      9  C   UNL     1      24.063 -11.711   4.246  1.00  0.00    -0.077 C 
ATOM     10  C   UNL     1      23.462 -12.907   4.350  1.00  0.00     0.008 C 
ATOM     11  C   UNL     1      23.849 -10.905   2.988  1.00  0.00     0.039 C 
ENDBRANCH   5   9
TORSDOF 1
ENDMDL
MODEL 6
REMARK VINA RESULT:    -3.471     18.326     19.314
REMARK INTER + INTRA:          -3.772
REMARK INTER:                  -3.676
REMARK INTRA:                  -0.096
REMARK UNBOUND:                -0.098
REMARK SMILES C=C(C)[C@H]1CC=C(C)C(=O)C1
REMARK SMILES IDX 8 1 7 2 6 3 5 4 4 5 11 6 9 7 10 8 2 9 1 10 3 11
REMARK H PARENT
REMARK Flexibility Score: inf
ROOT
ATOM      1  C   UNL     1      23.736 -11.196   2.883  1.00  0.00     0.048 C 
ATOM      2  C   UNL     1      24.324 -10.856   4.225  1.00  0.00    -0.012 C 
ATOM      3  C   UNL     1      23.556 -10.923   5.326  1.00  0.00    -0.019 C 
ATOM      4  C   UNL     1      24.087 -10.577   6.692  1.00  0.00     0.036 C 
ATOM      5  C   UNL     1      25.580 -10.937   6.813  1.00  0.00     0.025 C 
ATOM      6  C   UNL     1      26.386 -10.266   5.688  1.00  0.00     0.089 C 
ATOM      7  C   UNL     1      25.775 -10.569   4.347  1.00  0.00     0.158 C 
ATOM      8  O   UNL     1      26.503 -10.541   3.318  1.00  0.00    -0.295 OA
ENDROOT
BRANCH   5   9
ATOM      9  C   UNL     1      26.132 -10.573   8.185  1.00  0.00    -0.077 C 
ATOM     10  C   UNL     1      26.061  -9.305   8.625  1.00  0.00     0.008 C 
ATOM     11  C   UNL     1      26.764 -11.611   9.079  1.00  0.00     0.039 C 
ENDBRANCH   5   9
TORSDOF 1
ENDMDL
MODEL 7
REMARK VINA RESULT:    -3.426     18.414     19.635
REMARK INTER + INTRA:          -3.725
REMARK INTER:                  -3.634
REMARK INTRA:                  -0.091
REMARK UNBOUND:                -0.098
REMARK SMILES C=C(C)[C@H]1CC=C(C)C(=O)C1
REMARK SMILES IDX 8 1 7 2 6 3 5 4 4 5 11 6 9 7 10 8 2 9 1 10 3 11
REMARK H PARENT
REMARK Flexibility Score: inf
ROOT
ATOM      1  C   UNL     1      26.738 -11.143   9.303  1.00  0.00     0.048 C 
ATOM      2  C   UNL     1      26.169 -11.273   7.916  1.00  0.00    -0.012 C 
ATOM      3  C   UNL     1      26.319 -12.424   7.238  1.00  0.00    -0.019 C 
ATOM      4  C   UNL     1      25.787 -12.603   5.841  1.00  0.00     0.036 C 
ATOM      5  C   UNL     1      24.495 -11.790   5.633  1.00  0.00     0.025 C 
ATOM      6  C   UNL     1      24.732 -10.310   5.981  1.00  0.00     0.089 C 
ATOM      7  C   UNL     1      25.340 -10.179   7.351  1.00  0.00     0.158 C 
ATOM      8  O   UNL     1      25.169  -9.113   8.001  1.00  0.00    -0.295 OA
ENDROOT
BRANCH   5   9
ATOM      9  C   UNL     1      23.959 -11.948   4.216  1.00  0.00    -0.077 C 
ATOM     10  C   UNL     1      23.397 -13.108   3.835  1.00  0.00     0.008 C 
ATOM     11  C   UNL     1      24.040 -10.824   3.214  1.00  0.00     0.039 C 
ENDBRANCH   5   9
TORSDOF 1
ENDMDL
MODEL 8
REMARK VINA RESULT:    -3.349     18.403     19.235
REMARK INTER + INTRA:          -3.643
REMARK INTER:                  -3.553
REMARK INTRA:                  -0.089
REMARK UNBOUND:                -0.098
REMARK SMILES C=C(C)[C@H]1CC=C(C)C(=O)C1
REMARK SMILES IDX 8 1 7 2 6 3 5 4 4 5 11 6 9 7 10 8 2 9 1 10 3 11
REMARK H PARENT
REMARK Flexibility Score: inf
ROOT
ATOM      1  C   UNL     1      22.309 -11.599   7.126  1.00  0.00     0.048 C 
ATOM      2  C   UNL     1      23.405 -11.548   6.098  1.00  0.00    -0.012 C 
ATOM      3  C   UNL     1      23.374 -12.385   5.047  1.00  0.00    -0.019 C 
ATOM      4  C   UNL     1      24.454 -12.390   3.998  1.00  0.00     0.036 C 
ATOM      5  C   UNL     1      25.036 -10.978   3.796  1.00  0.00     0.025 C 
ATOM      6  C   UNL     1      25.529 -10.405   5.137  1.00  0.00     0.089 C 
ATOM      7  C   UNL     1      24.447 -10.495   6.179  1.00  0.00     0.158 C 
ATOM      8  O   UNL     1      24.457  -9.686   7.146  1.00  0.00    -0.295 OA
ENDROOT
BRANCH   5   9
ATOM      9  C   UNL     1      26.143 -10.975   2.751  1.00  0.00    -0.077 C 
ATOM     10  C   UNL     1      26.264  -9.942   1.900  1.00  0.00     0.008 C 
ATOM     11  C   UNL     1      27.124 -12.117   2.641  1.00  0.00     0.039 C 
ENDBRANCH   5   9
TORSDOF 1
ENDMDL
