MODEL 1
REMARK VINA RESULT:    -4.078      0.000      0.000
REMARK INTER + INTRA:          -4.468
REMARK INTER:                  -4.317
REMARK INTRA:                  -0.152
REMARK UNBOUND:                -0.152
REMARK SMILES CC1=CC=C(C(C)C)CC1
REMARK SMILES IDX 1 1 2 2 3 3 4 4 5 5 9 6 10 7 6 8 7 9 8 10
REMARK H PARENT
REMARK Flexibility Score: inf
ROOT
ATOM      1  C   UNL     1     133.277 134.382 129.160  1.00  0.00     0.039 C 
ATOM      2  C   UNL     1     133.419 134.900 130.562  1.00  0.00    -0.073 C 
ATOM      3  C   UNL     1     134.400 134.435 131.350  1.00  0.00    -0.001 C 
ATOM      4  C   UNL     1     134.563 134.934 132.728  1.00  0.00    -0.001 C 
ATOM      5  C   UNL     1     133.888 136.018 133.157  1.00  0.00    -0.067 C 
ATOM      6  C   UNL     1     133.038 136.794 132.172  1.00  0.00     0.035 C 
ATOM      7  C   UNL     1     132.403 135.866 131.125  1.00  0.00     0.035 C 
ENDROOT
BRANCH   5   8
ATOM      8  C   UNL     1     134.035 136.528 134.579  1.00  0.00     0.009 C 
ATOM      9  C   UNL     1     133.076 135.807 135.536  1.00  0.00     0.012 C 
ATOM     10  C   UNL     1     133.844 138.048 134.644  1.00  0.00     0.012 C 
ENDBRANCH   5   8
TORSDOF 1
ENDMDL
MODEL 2
REMARK VINA RESULT:    -4.056      4.091      5.170
REMARK INTER + INTRA:          -4.445
REMARK INTER:                  -4.293
REMARK INTRA:                  -0.152
REMARK UNBOUND:                -0.152
REMARK SMILES CC1=CC=C(C(C)C)CC1
REMARK SMILES IDX 1 1 2 2 3 3 4 4 5 5 9 6 10 7 6 8 7 9 8 10
REMARK H PARENT
REMARK Flexibility Score: inf
ROOT
ATOM      1  C   UNL     1     134.376 140.362 129.135  1.00  0.00     0.039 C 
ATOM      2  C   UNL     1     134.906 140.243 130.534  1.00  0.00    -0.073 C 
ATOM      3  C   UNL     1     134.459 139.266 131.338  1.00  0.00    -0.001 C 
ATOM      4  C   UNL     1     134.969 139.126 132.714  1.00  0.00    -0.001 C 
ATOM      5  C   UNL     1     136.048 139.820 133.127  1.00  0.00    -0.067 C 
ATOM      6  C   UNL     1     136.806 140.666 132.126  1.00  0.00     0.035 C 
ATOM      7  C   UNL     1     135.864 141.277 131.078  1.00  0.00     0.035 C 
ENDROOT
BRANCH   5   8
ATOM      8  C   UNL     1     136.569 139.697 134.547  1.00  0.00     0.009 C 
ATOM      9  C   UNL     1     135.825 140.639 135.502  1.00  0.00     0.012 C 
ATOM     10  C   UNL     1     138.083 139.934 134.603  1.00  0.00     0.012 C 
ENDBRANCH   5   8
TORSDOF 1
ENDMDL
MODEL 3
REMARK VINA RESULT:    -4.050      6.648      7.336
REMARK INTER + INTRA:          -4.438
REMARK INTER:                  -4.285
REMARK INTRA:                  -0.153
REMARK UNBOUND:                -0.152
REMARK SMILES CC1=CC=C(C(C)C)CC1
REMARK SMILES IDX 1 1 2 2 3 3 4 4 5 5 9 6 10 7 6 8 7 9 8 10
REMARK H PARENT
REMARK Flexibility Score: inf
ROOT
ATOM      1  C   UNL     1     140.329 139.290 129.237  1.00  0.00     0.039 C 
ATOM      2  C   UNL     1     140.234 138.789 130.648  1.00  0.00    -0.073 C 
ATOM      3  C   UNL     1     139.257 139.234 131.453  1.00  0.00    -0.001 C 
ATOM      4  C   UNL     1     139.141 138.751 132.840  1.00  0.00    -0.001 C 
ATOM      5  C   UNL     1     139.860 137.695 133.269  1.00  0.00    -0.067 C 
ATOM      6  C   UNL     1     140.712 136.932 132.276  1.00  0.00     0.035 C 
ATOM      7  C   UNL     1     141.293 137.863 131.202  1.00  0.00     0.035 C 
ENDROOT
BRANCH   5   8
ATOM      8  C   UNL     1     139.762 137.202 134.701  1.00  0.00     0.009 C 
ATOM      9  C   UNL     1     140.631 138.042 135.646  1.00  0.00     0.012 C 
ATOM     10  C   UNL     1     140.116 135.713 134.800  1.00  0.00     0.012 C 
ENDBRANCH   5   8
TORSDOF 1
ENDMDL
MODEL 4
REMARK VINA RESULT:    -4.011      5.231      7.115
REMARK INTER + INTRA:          -4.397
REMARK INTER:                  -4.229
REMARK INTRA:                  -0.168
REMARK UNBOUND:                -0.152
REMARK SMILES CC1=CC=C(C(C)C)CC1
REMARK SMILES IDX 1 1 2 2 3 3 4 4 5 5 9 6 10 7 6 8 7 9 8 10
REMARK H PARENT
REMARK Flexibility Score: inf
ROOT
ATOM      1  C   UNL     1     140.375 136.825 135.057  1.00  0.00     0.039 C 
ATOM      2  C   UNL     1     139.884 135.946 133.944  1.00  0.00    -0.073 C 
ATOM      3  C   UNL     1     138.804 135.173 134.130  1.00  0.00    -0.001 C 
ATOM      4  C   UNL     1     138.299 134.306 133.050  1.00  0.00    -0.001 C 
ATOM      5  C   UNL     1     138.760 134.430 131.790  1.00  0.00    -0.067 C 
ATOM      6  C   UNL     1     139.726 135.551 131.466  1.00  0.00     0.035 C 
ATOM      7  C   UNL     1     140.658 135.850 132.650  1.00  0.00     0.035 C 
ENDROOT
BRANCH   5   8
ATOM      8  C   UNL     1     138.261 133.529 130.674  1.00  0.00     0.009 C 
ATOM      9  C   UNL     1     137.702 132.211 131.224  1.00  0.00     0.012 C 
ATOM     10  C   UNL     1     139.360 133.275 129.636  1.00  0.00     0.012 C 
ENDBRANCH   5   8
TORSDOF 1
ENDMDL
MODEL 5
REMARK VINA RESULT:    -4.005      4.194      5.192
REMARK INTER + INTRA:          -4.391
REMARK INTER:                  -4.237
REMARK INTRA:                  -0.154
REMARK UNBOUND:                -0.152
REMARK SMILES CC1=CC=C(C(C)C)CC1
REMARK SMILES IDX 1 1 2 2 3 3 4 4 5 5 9 6 10 7 6 8 7 9 8 10
REMARK H PARENT
REMARK Flexibility Score: inf
ROOT
ATOM      1  C   UNL     1     139.262 133.603 129.217  1.00  0.00     0.039 C 
ATOM      2  C   UNL     1     138.771 133.641 130.634  1.00  0.00    -0.073 C 
ATOM      3  C   UNL     1     139.223 134.584 131.474  1.00  0.00    -0.001 C 
ATOM      4  C   UNL     1     138.751 134.644 132.869  1.00  0.00    -0.001 C 
ATOM      5  C   UNL     1     137.697 133.909 133.276  1.00  0.00    -0.067 C 
ATOM      6  C   UNL     1     136.926 133.099 132.255  1.00  0.00     0.035 C 
ATOM      7  C   UNL     1     137.848 132.561 131.151  1.00  0.00     0.035 C 
ENDROOT
BRANCH   5   8
ATOM      8  C   UNL     1     137.215 133.950 134.715  1.00  0.00     0.009 C 
ATOM      9  C   UNL     1     138.110 133.106 135.631  1.00  0.00     0.012 C 
ATOM     10  C   UNL     1     135.749 133.513 134.819  1.00  0.00     0.012 C 
ENDBRANCH   5   8
TORSDOF 1
ENDMDL
MODEL 6
REMARK VINA RESULT:    -3.954      5.470      5.793
REMARK INTER + INTRA:          -4.337
REMARK INTER:                  -4.170
REMARK INTRA:                  -0.168
REMARK UNBOUND:                -0.152
REMARK SMILES CC1=CC=C(C(C)C)CC1
REMARK SMILES IDX 1 1 2 2 3 3 4 4 5 5 9 6 10 7 6 8 7 9 8 10
REMARK H PARENT
REMARK Flexibility Score: inf
ROOT
ATOM      1  C   UNL     1     134.330 139.998 127.922  1.00  0.00     0.039 C 
ATOM      2  C   UNL     1     135.260 140.024 129.100  1.00  0.00    -0.073 C 
ATOM      3  C   UNL     1     136.508 139.547 128.978  1.00  0.00    -0.001 C 
ATOM      4  C   UNL     1     137.440 139.568 130.120  1.00  0.00    -0.001 C 
ATOM      5  C   UNL     1     137.151 140.261 131.238  1.00  0.00    -0.067 C 
ATOM      6  C   UNL     1     135.903 141.118 131.272  1.00  0.00     0.035 C 
ATOM      7  C   UNL     1     134.767 140.489 130.451  1.00  0.00     0.035 C 
ENDROOT
BRANCH   5   8
ATOM      8  C   UNL     1     138.096 140.272 132.426  1.00  0.00     0.009 C 
ATOM      9  C   UNL     1     139.045 139.068 132.401  1.00  0.00     0.012 C 
ATOM     10  C   UNL     1     137.321 140.339 133.748  1.00  0.00     0.012 C 
ENDBRANCH   5   8
TORSDOF 1
ENDMDL
MODEL 7
REMARK VINA RESULT:    -3.945      3.064      5.002
REMARK INTER + INTRA:          -4.327
REMARK INTER:                  -4.160
REMARK INTRA:                  -0.168
REMARK UNBOUND:                -0.152
REMARK SMILES CC1=CC=C(C(C)C)CC1
REMARK SMILES IDX 1 1 2 2 3 3 4 4 5 5 9 6 10 7 6 8 7 9 8 10
REMARK H PARENT
REMARK Flexibility Score: inf
ROOT
ATOM      1  C   UNL     1     133.505 136.790 135.062  1.00  0.00     0.039 C 
ATOM      2  C   UNL     1     133.964 137.689 133.952  1.00  0.00    -0.073 C 
ATOM      3  C   UNL     1     135.002 138.517 134.148  1.00  0.00    -0.001 C 
ATOM      4  C   UNL     1     135.474 139.405 133.070  1.00  0.00    -0.001 C 
ATOM      5  C   UNL     1     135.035 139.254 131.806  1.00  0.00    -0.067 C 
ATOM      6  C   UNL     1     134.130 138.086 131.474  1.00  0.00     0.035 C 
ATOM      7  C   UNL     1     133.201 137.743 132.649  1.00  0.00     0.035 C 
ENDROOT
BRANCH   5   8
ATOM      8  C   UNL     1     135.500 140.176 130.693  1.00  0.00     0.009 C 
ATOM      9  C   UNL     1     136.063 141.490 131.250  1.00  0.00     0.012 C 
ATOM     10  C   UNL     1     134.375 140.439 129.685  1.00  0.00     0.012 C 
ENDBRANCH   5   8
TORSDOF 1
ENDMDL
MODEL 8
REMARK VINA RESULT:    -2.139      6.679      7.379
REMARK INTER + INTRA:          -2.415
REMARK INTER:                  -2.249
REMARK INTRA:                  -0.166
REMARK UNBOUND:                -0.152
REMARK SMILES CC1=CC=C(C(C)C)CC1
REMARK SMILES IDX 1 1 2 2 3 3 4 4 5 5 9 6 10 7 6 8 7 9 8 10
REMARK H PARENT
REMARK Flexibility Score: inf
ROOT
ATOM      1  C   UNL     1     139.971 139.629 127.875  1.00  0.00     0.039 C 
ATOM      2  C   UNL     1     140.031 138.690 129.045  1.00  0.00    -0.073 C 
ATOM      3  C   UNL     1     139.389 137.514 128.993  1.00  0.00    -0.001 C 
ATOM      4  C   UNL     1     139.439 136.574 130.127  1.00  0.00    -0.001 C 
ATOM      5  C   UNL     1     140.302 136.761 131.144  1.00  0.00    -0.067 C 
ATOM      6  C   UNL     1     141.308 137.890 131.058  1.00  0.00     0.035 C 
ATOM      7  C   UNL     1     140.727 139.105 130.321  1.00  0.00     0.035 C 
ENDROOT
BRANCH   5   8
ATOM      8  C   UNL     1     140.348 135.809 132.326  1.00  0.00     0.009 C 
ATOM      9  C   UNL     1     139.275 134.719 132.211  1.00  0.00     0.012 C 
ATOM     10  C   UNL     1     140.226 136.568 133.652  1.00  0.00     0.012 C 
ENDBRANCH   5   8
TORSDOF 1
ENDMDL
