MODEL 1
REMARK VINA RESULT:    -4.009      0.000      0.000
REMARK INTER + INTRA:          -5.017
REMARK INTER:                  -4.947
REMARK INTRA:                  -0.070
REMARK UNBOUND:                -0.070
REMARK SMILES CCCCCC(=O)[O-]
REMARK SMILES IDX 4 1 5 2 6 3 7 4 8 5 3 6 2 7 1 8
REMARK H PARENT
REMARK Flexibility Score: inf
ROOT
ATOM      1  C   UNL     1      17.837 -36.703  -2.156  1.00  0.00     0.006 C 
ENDROOT
BRANCH   1   2
ATOM      2  C   UNL     1      17.698 -37.786  -1.076  1.00  0.00     0.053 C 
BRANCH   2   3
ATOM      3  C   UNL     1      18.456 -37.439   0.167  1.00  0.00     0.041 C 
ATOM      4  O   UNL     1      18.142 -36.422   0.840  1.00  0.00    -0.550 OA
ATOM      5  O   UNL     1      19.534 -38.220   0.565  1.00  0.00    -0.550 OA
ENDBRANCH   2   3
ENDBRANCH   1   2
BRANCH   1   6
ATOM      6  C   UNL     1      16.758 -35.602  -2.099  1.00  0.00     0.000 C 
BRANCH   6   7
ATOM      7  C   UNL     1      17.299 -34.173  -1.915  1.00  0.00    -0.003 C 
ATOM      8  C   UNL     1      16.229 -33.099  -2.104  1.00  0.00     0.004 C 
ENDBRANCH   6   7
ENDBRANCH   1   6
TORSDOF 4
ENDMDL
MODEL 2
REMARK VINA RESULT:    -3.988      0.322      1.182
REMARK INTER + INTRA:          -4.991
REMARK INTER:                  -4.862
REMARK INTRA:                  -0.128
REMARK UNBOUND:                -0.070
REMARK SMILES CCCCCC(=O)[O-]
REMARK SMILES IDX 4 1 5 2 6 3 7 4 8 5 3 6 2 7 1 8
REMARK H PARENT
REMARK Flexibility Score: inf
ROOT
ATOM      1  C   UNL     1      17.916 -37.068  -2.086  1.00  0.00     0.006 C 
ENDROOT
BRANCH   1   2
ATOM      2  C   UNL     1      17.724 -38.020  -0.896  1.00  0.00     0.053 C 
BRANCH   2   3
ATOM      3  C   UNL     1      18.463 -37.554   0.319  1.00  0.00     0.041 C 
ATOM      4  O   UNL     1      19.550 -38.098   0.649  1.00  0.00    -0.550 OA
ATOM      5  O   UNL     1      17.935 -36.540   1.109  1.00  0.00    -0.550 OA
ENDBRANCH   2   3
ENDBRANCH   1   2
BRANCH   1   6
ATOM      6  C   UNL     1      16.883 -35.925  -2.164  1.00  0.00     0.000 C 
BRANCH   6   7
ATOM      7  C   UNL     1      17.441 -34.525  -1.854  1.00  0.00    -0.003 C 
ATOM      8  C   UNL     1      16.403 -33.416  -2.022  1.00  0.00     0.004 C 
ENDBRANCH   6   7
ENDBRANCH   1   6
TORSDOF 4
ENDMDL
MODEL 3
REMARK VINA RESULT:    -3.776      1.020      1.379
REMARK INTER + INTRA:          -4.728
REMARK INTER:                  -4.632
REMARK INTRA:                  -0.096
REMARK UNBOUND:                -0.070
REMARK SMILES CCCCCC(=O)[O-]
REMARK SMILES IDX 4 1 5 2 6 3 7 4 8 5 3 6 2 7 1 8
REMARK H PARENT
REMARK Flexibility Score: inf
ROOT
ATOM      1  C   UNL     1      17.649 -37.620  -1.735  1.00  0.00     0.006 C 
ENDROOT
BRANCH   1   2
ATOM      2  C   UNL     1      17.492 -37.743  -0.212  1.00  0.00     0.053 C 
BRANCH   2   3
ATOM      3  C   UNL     1      18.636 -38.479   0.412  1.00  0.00     0.041 C 
ATOM      4  O   UNL     1      19.656 -37.853   0.805  1.00  0.00    -0.550 OA
ATOM      5  O   UNL     1      18.592 -39.863   0.528  1.00  0.00    -0.550 OA
ENDBRANCH   2   3
ENDBRANCH   1   2
BRANCH   1   6
ATOM      6  C   UNL     1      17.876 -36.179  -2.239  1.00  0.00     0.000 C 
BRANCH   6   7
ATOM      7  C   UNL     1      16.786 -35.172  -1.835  1.00  0.00    -0.003 C 
ATOM      8  C   UNL     1      17.226 -33.717  -1.996  1.00  0.00     0.004 C 
ENDBRANCH   6   7
ENDBRANCH   1   6
TORSDOF 4
ENDMDL
MODEL 4
REMARK VINA RESULT:    -3.753      1.114      1.317
REMARK INTER + INTRA:          -4.700
REMARK INTER:                  -4.596
REMARK INTRA:                  -0.105
REMARK UNBOUND:                -0.070
REMARK SMILES CCCCCC(=O)[O-]
REMARK SMILES IDX 4 1 5 2 6 3 7 4 8 5 3 6 2 7 1 8
REMARK H PARENT
REMARK Flexibility Score: inf
ROOT
ATOM      1  C   UNL     1      16.846 -36.268  -0.899  1.00  0.00     0.006 C 
ENDROOT
BRANCH   1   2
ATOM      2  C   UNL     1      17.841 -36.420   0.261  1.00  0.00     0.053 C 
BRANCH   2   3
ATOM      3  C   UNL     1      18.430 -37.795   0.320  1.00  0.00     0.041 C 
ATOM      4  O   UNL     1      17.773 -38.785  -0.099  1.00  0.00    -0.550 OA
ATOM      5  O   UNL     1      19.691 -37.989   0.868  1.00  0.00    -0.550 OA
ENDBRANCH   2   3
ENDBRANCH   1   2
BRANCH   1   6
ATOM      6  C   UNL     1      17.386 -35.467  -2.102  1.00  0.00     0.000 C 
BRANCH   6   7
ATOM      7  C   UNL     1      17.518 -33.952  -1.866  1.00  0.00    -0.003 C 
ATOM      8  C   UNL     1      16.202 -33.199  -2.058  1.00  0.00     0.004 C 
ENDBRANCH   6   7
ENDBRANCH   1   6
TORSDOF 4
ENDMDL
MODEL 5
REMARK VINA RESULT:    -3.677      3.195      4.679
REMARK INTER + INTRA:          -4.607
REMARK INTER:                  -4.438
REMARK INTRA:                  -0.169
REMARK UNBOUND:                -0.070
REMARK SMILES CCCCCC(=O)[O-]
REMARK SMILES IDX 4 1 5 2 6 3 7 4 8 5 3 6 2 7 1 8
REMARK H PARENT
REMARK Flexibility Score: inf
ROOT
ATOM      1  C   UNL     1      17.450 -34.434  -0.655  1.00  0.00     0.006 C 
ENDROOT
BRANCH   1   2
ATOM      2  C   UNL     1      17.094 -33.686  -1.948  1.00  0.00     0.053 C 
BRANCH   2   3
ATOM      3  C   UNL     1      15.650 -33.294  -1.990  1.00  0.00     0.041 C 
ATOM      4  O   UNL     1      14.761 -34.163  -2.195  1.00  0.00    -0.550 OA
ATOM      5  O   UNL     1      15.285 -31.962  -1.835  1.00  0.00    -0.550 OA
ENDBRANCH   2   3
ENDBRANCH   1   2
BRANCH   1   6
ATOM      6  C   UNL     1      17.395 -35.972  -0.771  1.00  0.00     0.000 C 
BRANCH   6   7
ATOM      7  C   UNL     1      17.684 -36.527  -2.176  1.00  0.00    -0.003 C 
ATOM      8  C   UNL     1      16.965 -37.845  -2.459  1.00  0.00     0.004 C 
ENDBRANCH   6   7
ENDBRANCH   1   6
TORSDOF 4
ENDMDL
MODEL 6
REMARK VINA RESULT:    -3.615      3.060      4.448
REMARK INTER + INTRA:          -4.530
REMARK INTER:                  -4.326
REMARK INTRA:                  -0.204
REMARK UNBOUND:                -0.070
REMARK SMILES CCCCCC(=O)[O-]
REMARK SMILES IDX 4 1 5 2 6 3 7 4 8 5 3 6 2 7 1 8
REMARK H PARENT
REMARK Flexibility Score: inf
ROOT
ATOM      1  C   UNL     1      17.474 -34.674  -0.466  1.00  0.00     0.006 C 
ENDROOT
BRANCH   1   2
ATOM      2  C   UNL     1      17.310 -33.874  -1.767  1.00  0.00     0.053 C 
BRANCH   2   3
ATOM      3  C   UNL     1      15.894 -33.442  -1.985  1.00  0.00     0.041 C 
ATOM      4  O   UNL     1      15.595 -32.218  -1.983  1.00  0.00    -0.550 OA
ATOM      5  O   UNL     1      14.895 -34.393  -2.156  1.00  0.00    -0.550 OA
ENDBRANCH   2   3
ENDBRANCH   1   2
BRANCH   1   6
ATOM      6  C   UNL     1      17.743 -36.180  -0.671  1.00  0.00     0.000 C 
BRANCH   6   7
ATOM      7  C   UNL     1      17.755 -36.642  -2.139  1.00  0.00    -0.003 C 
ATOM      8  C   UNL     1      16.811 -37.813  -2.405  1.00  0.00     0.004 C 
ENDBRANCH   6   7
ENDBRANCH   1   6
TORSDOF 4
ENDMDL
MODEL 7
REMARK VINA RESULT:    -3.517      2.368      2.907
REMARK INTER + INTRA:          -4.409
REMARK INTER:                  -4.231
REMARK INTRA:                  -0.178
REMARK UNBOUND:                -0.070
REMARK SMILES CCCCCC(=O)[O-]
REMARK SMILES IDX 4 1 5 2 6 3 7 4 8 5 3 6 2 7 1 8
REMARK H PARENT
REMARK Flexibility Score: inf
ROOT
ATOM      1  C   UNL     1      17.193 -35.082  -1.327  1.00  0.00     0.006 C 
ENDROOT
BRANCH   1   2
ATOM      2  C   UNL     1      17.511 -36.292  -2.218  1.00  0.00     0.053 C 
BRANCH   2   3
ATOM      3  C   UNL     1      16.476 -37.367  -2.095  1.00  0.00     0.041 C 
ATOM      4  O   UNL     1      16.566 -38.417  -2.784  1.00  0.00    -0.550 OA
ATOM      5  O   UNL     1      15.393 -37.195  -1.242  1.00  0.00    -0.550 OA
ENDBRANCH   2   3
ENDBRANCH   1   2
BRANCH   1   6
ATOM      6  C   UNL     1      17.218 -33.725  -2.060  1.00  0.00     0.000 C 
BRANCH   6   7
ATOM      7  C   UNL     1      15.898 -32.936  -2.009  1.00  0.00    -0.003 C 
ATOM      8  C   UNL     1      14.664 -33.823  -2.162  1.00  0.00     0.004 C 
ENDBRANCH   6   7
ENDBRANCH   1   6
TORSDOF 4
ENDMDL
MODEL 8
REMARK VINA RESULT:    -3.517      2.040      3.143
REMARK INTER + INTRA:          -4.409
REMARK INTER:                  -4.190
REMARK INTRA:                  -0.219
REMARK UNBOUND:                -0.070
REMARK SMILES CCCCCC(=O)[O-]
REMARK SMILES IDX 4 1 5 2 6 3 7 4 8 5 3 6 2 7 1 8
REMARK H PARENT
REMARK Flexibility Score: inf
ROOT
ATOM      1  C   UNL     1      16.931 -35.193  -2.055  1.00  0.00     0.006 C 
ENDROOT
BRANCH   1   2
ATOM      2  C   UNL     1      17.488 -34.268  -0.963  1.00  0.00     0.053 C 
BRANCH   2   3
ATOM      3  C   UNL     1      17.375 -34.878   0.399  1.00  0.00     0.041 C 
ATOM      4  O   UNL     1      16.405 -35.630   0.681  1.00  0.00    -0.550 OA
ATOM      5  O   UNL     1      18.325 -34.587   1.372  1.00  0.00    -0.550 OA
ENDBRANCH   2   3
ENDBRANCH   1   2
BRANCH   1   6
ATOM      6  C   UNL     1      17.831 -36.401  -2.390  1.00  0.00     0.000 C 
BRANCH   6   7
ATOM      7  C   UNL     1      17.175 -37.777  -2.180  1.00  0.00    -0.003 C 
ATOM      8  C   UNL     1      15.648 -37.725  -2.226  1.00  0.00     0.004 C 
ENDBRANCH   6   7
ENDBRANCH   1   6
TORSDOF 4
ENDMDL
MODEL 9
REMARK VINA RESULT:    -3.415      1.980      3.948
REMARK INTER + INTRA:          -4.283
REMARK INTER:                  -4.043
REMARK INTRA:                  -0.240
REMARK UNBOUND:                -0.070
REMARK SMILES CCCCCC(=O)[O-]
REMARK SMILES IDX 4 1 5 2 6 3 7 4 8 5 3 6 2 7 1 8
REMARK H PARENT
REMARK Flexibility Score: inf
ROOT
ATOM      1  C   UNL     1      17.765 -36.621  -2.221  1.00  0.00     0.006 C 
ENDROOT
BRANCH   1   2
ATOM      2  C   UNL     1      16.581 -35.666  -2.005  1.00  0.00     0.053 C 
BRANCH   2   3
ATOM      3  C   UNL     1      17.027 -34.317  -1.534  1.00  0.00     0.041 C 
ATOM      4  O   UNL     1      17.759 -34.210  -0.515  1.00  0.00    -0.550 OA
ATOM      5  O   UNL     1      16.606 -33.174  -2.202  1.00  0.00    -0.550 OA
ENDBRANCH   2   3
ENDBRANCH   1   2
BRANCH   1   6
ATOM      6  C   UNL     1      17.778 -37.846  -1.282  1.00  0.00     0.000 C 
BRANCH   6   7
ATOM      7  C   UNL     1      18.504 -37.629   0.057  1.00  0.00    -0.003 C 
ATOM      8  C   UNL     1      17.549 -37.348   1.216  1.00  0.00     0.004 C 
ENDBRANCH   6   7
ENDBRANCH   1   6
TORSDOF 4
ENDMDL
