MODEL 1
REMARK VINA RESULT:    -5.215      0.000      0.000
REMARK INTER + INTRA:          -7.982
REMARK INTER:                  -7.654
REMARK INTRA:                  -0.328
REMARK UNBOUND:                -0.328
REMARK SMILES O=C([O-])CCCCCCCC(=O)[O-]
REMARK SMILES IDX 7 1 6 2 5 3 4 4 2 5 1 6 3 7 8 8 9 9 10 10 11 11 12 12 13 13
REMARK H PARENT
REMARK Flexibility Score: inf
ROOT
ATOM      1  C   UNL     1      14.539  15.460  62.583  1.00  0.00     0.000 C 
ENDROOT
BRANCH   1   2
ATOM      2  C   UNL     1      15.585  16.423  62.002  1.00  0.00     0.000 C 
BRANCH   2   3
ATOM      3  C   UNL     1      15.268  16.760  60.540  1.00  0.00     0.006 C 
BRANCH   3   4
ATOM      4  C   UNL     1      16.528  16.692  59.673  1.00  0.00     0.053 C 
BRANCH   4   5
ATOM      5  C   UNL     1      16.353  15.697  58.570  1.00  0.00     0.041 C 
ATOM      6  O   UNL     1      15.382  14.894  58.590  1.00  0.00    -0.550 OA
ATOM      7  O   UNL     1      17.288  15.622  57.546  1.00  0.00    -0.550 OA
ENDBRANCH   4   5
ENDBRANCH   3   4
ENDBRANCH   2   3
ENDBRANCH   1   2
BRANCH   1   8
ATOM      8  C   UNL     1      14.452  15.534  64.116  1.00  0.00     0.000 C 
BRANCH   8   9
ATOM      9  C   UNL     1      13.972  14.214  64.746  1.00  0.00     0.006 C 
BRANCH   9  10
ATOM     10  C   UNL     1      13.577  13.178  63.685  1.00  0.00     0.053 C 
BRANCH  10  11
ATOM     11  C   UNL     1      14.239  11.856  63.926  1.00  0.00     0.041 C 
ATOM     12  O   UNL     1      13.667  10.977  64.622  1.00  0.00    -0.550 OA
ATOM     13  O   UNL     1      15.478  11.585  63.359  1.00  0.00    -0.550 OA
ENDBRANCH  10  11
ENDBRANCH   9  10
ENDBRANCH   8   9
ENDBRANCH   1   8
TORSDOF 8
ENDMDL
MODEL 2
REMARK VINA RESULT:    -5.116      0.427      5.806
REMARK INTER + INTRA:          -7.838
REMARK INTER:                  -7.503
REMARK INTRA:                  -0.334
REMARK UNBOUND:                -0.328
REMARK SMILES O=C([O-])CCCCCCCC(=O)[O-]
REMARK SMILES IDX 7 1 6 2 5 3 4 4 2 5 1 6 3 7 8 8 9 9 10 10 11 11 12 12 13 13
REMARK H PARENT
REMARK Flexibility Score: inf
ROOT
ATOM      1  C   UNL     1      14.508  15.625  62.592  1.00  0.00     0.000 C 
ENDROOT
BRANCH   1   2
ATOM      2  C   UNL     1      14.308  15.682  64.113  1.00  0.00     0.000 C 
BRANCH   2   3
ATOM      3  C   UNL     1      14.322  14.274  64.722  1.00  0.00     0.006 C 
BRANCH   3   4
ATOM      4  C   UNL     1      13.590  13.276  63.820  1.00  0.00     0.053 C 
BRANCH   4   5
ATOM      5  C   UNL     1      14.206  11.918  63.933  1.00  0.00     0.041 C 
ATOM      6  O   UNL     1      13.611  11.004  64.562  1.00  0.00    -0.550 OA
ATOM      7  O   UNL     1      15.459  11.675  63.386  1.00  0.00    -0.550 OA
ENDBRANCH   4   5
ENDBRANCH   3   4
ENDBRANCH   2   3
ENDBRANCH   1   2
BRANCH   1   8
ATOM      8  C   UNL     1      15.411  16.753  62.069  1.00  0.00     0.000 C 
BRANCH   8   9
ATOM      9  C   UNL     1      15.315  16.930  60.543  1.00  0.00     0.006 C 
BRANCH   9  10
ATOM     10  C   UNL     1      16.484  16.260  59.809  1.00  0.00     0.053 C 
BRANCH  10  11
ATOM     11  C   UNL     1      16.009  15.374  58.698  1.00  0.00     0.041 C 
ATOM     12  O   UNL     1      16.329  15.625  57.506  1.00  0.00    -0.550 OA
ATOM     13  O   UNL     1      15.234  14.257  58.982  1.00  0.00    -0.550 OA
ENDBRANCH  10  11
ENDBRANCH   9  10
ENDBRANCH   8   9
ENDBRANCH   1   8
TORSDOF 8
ENDMDL
MODEL 3
REMARK VINA RESULT:    -5.042      1.152      6.152
REMARK INTER + INTRA:          -7.728
REMARK INTER:                  -7.476
REMARK INTRA:                  -0.252
REMARK UNBOUND:                -0.328
REMARK SMILES O=C([O-])CCCCCCCC(=O)[O-]
REMARK SMILES IDX 7 1 6 2 5 3 4 4 2 5 1 6 3 7 8 8 9 9 10 10 11 11 12 12 13 13
REMARK H PARENT
REMARK Flexibility Score: inf
ROOT
ATOM      1  C   UNL     1      15.274  15.592  62.104  1.00  0.00     0.000 C 
ENDROOT
BRANCH   1   2
ATOM      2  C   UNL     1      14.218  15.692  63.215  1.00  0.00     0.000 C 
BRANCH   2   3
ATOM      3  C   UNL     1      14.248  14.452  64.115  1.00  0.00     0.006 C 
BRANCH   3   4
ATOM      4  C   UNL     1      13.504  13.281  63.467  1.00  0.00     0.053 C 
BRANCH   4   5
ATOM      5  C   UNL     1      14.113  11.979  63.879  1.00  0.00     0.041 C 
ATOM      6  O   UNL     1      13.473  11.187  64.620  1.00  0.00    -0.550 OA
ATOM      7  O   UNL     1      15.407  11.662  63.484  1.00  0.00    -0.550 OA
ENDBRANCH   4   5
ENDBRANCH   3   4
ENDBRANCH   2   3
ENDBRANCH   1   2
BRANCH   1   8
ATOM      8  C   UNL     1      15.092  16.658  61.013  1.00  0.00     0.000 C 
BRANCH   8   9
ATOM      9  C   UNL     1      15.687  16.229  59.660  1.00  0.00     0.006 C 
BRANCH   9  10
ATOM     10  C   UNL     1      17.045  16.891  59.390  1.00  0.00     0.053 C 
BRANCH  10  11
ATOM     11  C   UNL     1      18.000  15.948  58.724  1.00  0.00     0.041 C 
ATOM     12  O   UNL     1      18.513  15.000  59.375  1.00  0.00    -0.550 OA
ATOM     13  O   UNL     1      18.304  16.102  57.378  1.00  0.00    -0.550 OA
ENDBRANCH  10  11
ENDBRANCH   9  10
ENDBRANCH   8   9
ENDBRANCH   1   8
TORSDOF 8
ENDMDL
MODEL 4
REMARK VINA RESULT:    -5.028      1.462      1.741
REMARK INTER + INTRA:          -7.709
REMARK INTER:                  -7.339
REMARK INTRA:                  -0.369
REMARK UNBOUND:                -0.328
REMARK SMILES O=C([O-])CCCCCCCC(=O)[O-]
REMARK SMILES IDX 7 1 6 2 5 3 4 4 2 5 1 6 3 7 8 8 9 9 10 10 11 11 12 12 13 13
REMARK H PARENT
REMARK Flexibility Score: inf
ROOT
ATOM      1  C   UNL     1      14.270  15.920  62.603  1.00  0.00     0.000 C 
ENDROOT
BRANCH   1   2
ATOM      2  C   UNL     1      15.615  16.443  62.078  1.00  0.00     0.000 C 
BRANCH   2   3
ATOM      3  C   UNL     1      16.013  15.728  60.780  1.00  0.00     0.006 C 
BRANCH   3   4
ATOM      4  C   UNL     1      16.697  16.693  59.808  1.00  0.00     0.053 C 
BRANCH   4   5
ATOM      5  C   UNL     1      18.177  16.698  60.027  1.00  0.00     0.041 C 
ATOM      6  O   UNL     1      18.758  17.751  60.398  1.00  0.00    -0.550 OA
ATOM      7  O   UNL     1      18.920  15.552  59.774  1.00  0.00    -0.550 OA
ENDBRANCH   4   5
ENDBRANCH   3   4
ENDBRANCH   2   3
ENDBRANCH   1   2
BRANCH   1   8
ATOM      8  C   UNL     1      14.229  15.822  64.136  1.00  0.00     0.000 C 
BRANCH   8   9
ATOM      9  C   UNL     1      14.020  14.380  64.631  1.00  0.00     0.006 C 
BRANCH   9  10
ATOM     10  C   UNL     1      13.805  13.396  63.473  1.00  0.00     0.053 C 
BRANCH  10  11
ATOM     11  C   UNL     1      14.249  12.011  63.830  1.00  0.00     0.041 C 
ATOM     12  O   UNL     1      13.508  11.266  64.525  1.00  0.00    -0.550 OA
ATOM     13  O   UNL     1      15.470  11.532  63.373  1.00  0.00    -0.550 OA
ENDBRANCH  10  11
ENDBRANCH   9  10
ENDBRANCH   8   9
ENDBRANCH   1   8
TORSDOF 8
ENDMDL
MODEL 5
REMARK VINA RESULT:    -4.946      1.569      2.162
REMARK INTER + INTRA:          -7.588
REMARK INTER:                  -7.219
REMARK INTRA:                  -0.368
REMARK UNBOUND:                -0.328
REMARK SMILES O=C([O-])CCCCCCCC(=O)[O-]
REMARK SMILES IDX 7 1 6 2 5 3 4 4 2 5 1 6 3 7 8 8 9 9 10 10 11 11 12 12 13 13
REMARK H PARENT
REMARK Flexibility Score: inf
ROOT
ATOM      1  C   UNL     1      15.366  14.024  60.934  1.00  0.00     0.000 C 
ENDROOT
BRANCH   1   2
ATOM      2  C   UNL     1      16.543  14.519  60.081  1.00  0.00     0.000 C 
BRANCH   2   3
ATOM      3  C   UNL     1      17.508  15.369  60.917  1.00  0.00     0.006 C 
BRANCH   3   4
ATOM      4  C   UNL     1      18.605  15.980  60.041  1.00  0.00     0.053 C 
BRANCH   4   5
ATOM      5  C   UNL     1      18.007  16.663  58.851  1.00  0.00     0.041 C 
ATOM      6  O   UNL     1      17.248  17.656  59.006  1.00  0.00    -0.550 OA
ATOM      7  O   UNL     1      18.248  16.171  57.575  1.00  0.00    -0.550 OA
ENDBRANCH   4   5
ENDBRANCH   3   4
ENDBRANCH   2   3
ENDBRANCH   1   2
BRANCH   1   8
ATOM      8  C   UNL     1      14.895  15.068  61.959  1.00  0.00     0.000 C 
BRANCH   8   9
ATOM      9  C   UNL     1      14.292  14.427  63.222  1.00  0.00     0.006 C 
BRANCH   9  10
ATOM     10  C   UNL     1      13.599  13.092  62.919  1.00  0.00     0.053 C 
BRANCH  10  11
ATOM     11  C   UNL     1      14.213  11.960  63.683  1.00  0.00     0.041 C 
ATOM     12  O   UNL     1      15.424  11.661  63.511  1.00  0.00    -0.550 OA
ATOM     13  O   UNL     1      13.455  11.252  64.606  1.00  0.00    -0.550 OA
ENDBRANCH  10  11
ENDBRANCH   9  10
ENDBRANCH   8   9
ENDBRANCH   1   8
TORSDOF 8
ENDMDL
MODEL 6
REMARK VINA RESULT:    -4.936      1.649      6.117
REMARK INTER + INTRA:          -7.572
REMARK INTER:                  -7.111
REMARK INTRA:                  -0.461
REMARK UNBOUND:                -0.328
REMARK SMILES O=C([O-])CCCCCCCC(=O)[O-]
REMARK SMILES IDX 7 1 6 2 5 3 4 4 2 5 1 6 3 7 8 8 9 9 10 10 11 11 12 12 13 13
REMARK H PARENT
REMARK Flexibility Score: inf
ROOT
ATOM      1  C   UNL     1      15.154  15.391  61.915  1.00  0.00     0.000 C 
ENDROOT
BRANCH   1   2
ATOM      2  C   UNL     1      15.269  14.367  60.777  1.00  0.00     0.000 C 
BRANCH   2   3
ATOM      3  C   UNL     1      14.925  12.956  61.270  1.00  0.00     0.006 C 
BRANCH   3   4
ATOM      4  C   UNL     1      14.136  13.009  62.581  1.00  0.00     0.053 C 
BRANCH   4   5
ATOM      5  C   UNL     1      14.494  11.849  63.456  1.00  0.00     0.041 C 
ATOM      6  O   UNL     1      15.615  11.290  63.337  1.00  0.00    -0.550 OA
ATOM      7  O   UNL     1      13.569  11.355  64.367  1.00  0.00    -0.550 OA
ENDBRANCH   4   5
ENDBRANCH   3   4
ENDBRANCH   2   3
ENDBRANCH   1   2
BRANCH   1   8
ATOM      8  C   UNL     1      16.198  16.515  61.811  1.00  0.00     0.000 C 
BRANCH   8   9
ATOM      9  C   UNL     1      17.511  16.044  61.161  1.00  0.00     0.006 C 
BRANCH   9  10
ATOM     10  C   UNL     1      17.854  16.850  59.901  1.00  0.00     0.053 C 
BRANCH  10  11
ATOM     11  C   UNL     1      18.294  15.963  58.777  1.00  0.00     0.041 C 
ATOM     12  O   UNL     1      18.547  14.748  58.989  1.00  0.00    -0.550 OA
ATOM     13  O   UNL     1      18.400  16.473  57.489  1.00  0.00    -0.550 OA
ENDBRANCH  10  11
ENDBRANCH   9  10
ENDBRANCH   8   9
ENDBRANCH   1   8
TORSDOF 8
ENDMDL
MODEL 7
REMARK VINA RESULT:    -4.858      1.622      5.929
REMARK INTER + INTRA:          -7.459
REMARK INTER:                  -6.911
REMARK INTRA:                  -0.548
REMARK UNBOUND:                -0.328
REMARK SMILES O=C([O-])CCCCCCCC(=O)[O-]
REMARK SMILES IDX 7 1 6 2 5 3 4 4 2 5 1 6 3 7 8 8 9 9 10 10 11 11 12 12 13 13
REMARK H PARENT
REMARK Flexibility Score: inf
ROOT
ATOM      1  C   UNL     1      16.080  16.517  62.017  1.00  0.00     0.000 C 
ENDROOT
BRANCH   1   2
ATOM      2  C   UNL     1      15.052  17.297  62.850  1.00  0.00     0.000 C 
BRANCH   2   3
ATOM      3  C   UNL     1      13.805  16.446  63.120  1.00  0.00     0.006 C 
BRANCH   3   4
ATOM      4  C   UNL     1      14.003  15.552  64.347  1.00  0.00     0.053 C 
BRANCH   4   5
ATOM      5  C   UNL     1      13.890  14.109  63.970  1.00  0.00     0.041 C 
ATOM      6  O   UNL     1      13.069  13.750  63.085  1.00  0.00    -0.550 OA
ATOM      7  O   UNL     1      14.654  13.156  64.630  1.00  0.00    -0.550 OA
ENDBRANCH   4   5
ENDBRANCH   3   4
ENDBRANCH   2   3
ENDBRANCH   1   2
BRANCH   1   8
ATOM      8  C   UNL     1      15.427  15.622  60.953  1.00  0.00     0.000 C 
BRANCH   8   9
ATOM      9  C   UNL     1      15.626  16.157  59.524  1.00  0.00     0.006 C 
BRANCH   9  10
ATOM     10  C   UNL     1      16.937  16.942  59.379  1.00  0.00     0.053 C 
BRANCH  10  11
ATOM     11  C   UNL     1      18.017  16.111  58.758  1.00  0.00     0.041 C 
ATOM     12  O   UNL     1      18.140  16.063  57.505  1.00  0.00    -0.550 OA
ATOM     13  O   UNL     1      18.905  15.409  59.563  1.00  0.00    -0.550 OA
ENDBRANCH  10  11
ENDBRANCH   9  10
ENDBRANCH   8   9
ENDBRANCH   1   8
TORSDOF 8
ENDMDL
MODEL 8
REMARK VINA RESULT:    -4.765      1.989      6.294
REMARK INTER + INTRA:          -7.322
REMARK INTER:                  -6.808
REMARK INTRA:                  -0.514
REMARK UNBOUND:                -0.328
REMARK SMILES O=C([O-])CCCCCCCC(=O)[O-]
REMARK SMILES IDX 7 1 6 2 5 3 4 4 2 5 1 6 3 7 8 8 9 9 10 10 11 11 12 12 13 13
REMARK H PARENT
REMARK Flexibility Score: inf
ROOT
ATOM      1  C   UNL     1      15.346  14.789  61.095  1.00  0.00     0.000 C 
ENDROOT
BRANCH   1   2
ATOM      2  C   UNL     1      15.164  16.219  61.626  1.00  0.00     0.000 C 
BRANCH   2   3
ATOM      3  C   UNL     1      14.833  16.210  63.124  1.00  0.00     0.006 C 
BRANCH   3   4
ATOM      4  C   UNL     1      13.758  15.169  63.444  1.00  0.00     0.053 C 
BRANCH   4   5
ATOM      5  C   UNL     1      14.184  14.310  64.592  1.00  0.00     0.041 C 
ATOM      6  O   UNL     1      14.176  14.771  65.764  1.00  0.00    -0.550 OA
ATOM      7  O   UNL     1      14.639  13.018  64.362  1.00  0.00    -0.550 OA
ENDBRANCH   4   5
ENDBRANCH   3   4
ENDBRANCH   2   3
ENDBRANCH   1   2
BRANCH   1   8
ATOM      8  C   UNL     1      16.673  14.599  60.345  1.00  0.00     0.000 C 
BRANCH   8   9
ATOM      9  C   UNL     1      17.810  15.460  60.924  1.00  0.00     0.006 C 
BRANCH   9  10
ATOM     10  C   UNL     1      18.799  15.915  59.842  1.00  0.00     0.053 C 
BRANCH  10  11
ATOM     11  C   UNL     1      18.106  16.611  58.712  1.00  0.00     0.041 C 
ATOM     12  O   UNL     1      18.284  16.228  57.526  1.00  0.00    -0.550 OA
ATOM     13  O   UNL     1      17.241  17.667  58.971  1.00  0.00    -0.550 OA
ENDBRANCH  10  11
ENDBRANCH   9  10
ENDBRANCH   8   9
ENDBRANCH   1   8
TORSDOF 8
ENDMDL
MODEL 9
REMARK VINA RESULT:    -4.742      1.593      2.364
REMARK INTER + INTRA:          -7.288
REMARK INTER:                  -6.879
REMARK INTRA:                  -0.409
REMARK UNBOUND:                -0.328
REMARK SMILES O=C([O-])CCCCCCCC(=O)[O-]
REMARK SMILES IDX 7 1 6 2 5 3 4 4 2 5 1 6 3 7 8 8 9 9 10 10 11 11 12 12 13 13
REMARK H PARENT
REMARK Flexibility Score: inf
ROOT
ATOM      1  C   UNL     1      15.851  15.869  61.813  1.00  0.00     0.000 C 
ENDROOT
BRANCH   1   2
ATOM      2  C   UNL     1      15.505  16.047  60.327  1.00  0.00     0.000 C 
BRANCH   2   3
ATOM      3  C   UNL     1      16.426  17.083  59.670  1.00  0.00     0.006 C 
BRANCH   3   4
ATOM      4  C   UNL     1      17.888  16.635  59.729  1.00  0.00     0.053 C 
BRANCH   4   5
ATOM      5  C   UNL     1      18.219  15.765  58.557  1.00  0.00     0.041 C 
ATOM      6  O   UNL     1      18.502  16.283  57.445  1.00  0.00    -0.550 OA
ATOM      7  O   UNL     1      18.165  14.383  58.681  1.00  0.00    -0.550 OA
ENDBRANCH   4   5
ENDBRANCH   3   4
ENDBRANCH   2   3
ENDBRANCH   1   2
BRANCH   1   8
ATOM      8  C   UNL     1      15.292  16.999  62.692  1.00  0.00     0.000 C 
BRANCH   8   9
ATOM      9  C   UNL     1      14.256  16.497  63.714  1.00  0.00     0.006 C 
BRANCH   9  10
ATOM     10  C   UNL     1      13.772  15.075  63.396  1.00  0.00     0.053 C 
BRANCH  10  11
ATOM     11  C   UNL     1      14.045  14.129  64.525  1.00  0.00     0.041 C 
ATOM     12  O   UNL     1      14.563  13.004  64.299  1.00  0.00    -0.550 OA
ATOM     13  O   UNL     1      13.751  14.501  65.830  1.00  0.00    -0.550 OA
ENDBRANCH  10  11
ENDBRANCH   9  10
ENDBRANCH   8   9
ENDBRANCH   1   8
TORSDOF 8
ENDMDL
