MODEL 1
REMARK VINA RESULT:    -2.887      0.000      0.000
REMARK INTER + INTRA:          -3.494
REMARK INTER:                  -3.393
REMARK INTRA:                  -0.101
REMARK UNBOUND:                -0.101
REMARK SMILES O=C([O-])CCC(=O)[O-]
REMARK SMILES IDX 4 1 2 2 1 3 3 4 5 5 6 6 7 7 8 8
REMARK H PARENT
REMARK Flexibility Score: inf
ROOT
ATOM      1  C   UNL     1      27.505   4.852  38.643  1.00  0.00     0.059 C 
ENDROOT
BRANCH   1   2
ATOM      2  C   UNL     1      27.919   3.811  37.647  1.00  0.00     0.042 C 
ATOM      3  O   UNL     1      29.094   3.359  37.654  1.00  0.00    -0.550 OA
ATOM      4  O   UNL     1      27.018   3.370  36.686  1.00  0.00    -0.550 OA
ENDBRANCH   1   2
BRANCH   1   5
ATOM      5  C   UNL     1      28.710   5.635  39.173  1.00  0.00     0.059 C 
BRANCH   5   6
ATOM      6  C   UNL     1      28.788   5.583  40.669  1.00  0.00     0.042 C 
ATOM      7  O   UNL     1      29.001   4.488  41.254  1.00  0.00    -0.550 OA
ATOM      8  O   UNL     1      28.667   6.750  41.412  1.00  0.00    -0.550 OA
ENDBRANCH   5   6
ENDBRANCH   1   5
TORSDOF 3
ENDMDL
MODEL 2
REMARK VINA RESULT:    -2.875      0.105      4.043
REMARK INTER + INTRA:          -3.480
REMARK INTER:                  -3.366
REMARK INTRA:                  -0.114
REMARK UNBOUND:                -0.101
REMARK SMILES O=C([O-])CCC(=O)[O-]
REMARK SMILES IDX 4 1 2 2 1 3 3 4 5 5 6 6 7 7 8 8
REMARK H PARENT
REMARK Flexibility Score: inf
ROOT
ATOM      1  C   UNL     1      28.769   5.689  39.190  1.00  0.00     0.059 C 
ENDROOT
BRANCH   1   2
ATOM      2  C   UNL     1      28.880   5.601  40.682  1.00  0.00     0.042 C 
ATOM      3  O   UNL     1      29.039   4.484  41.241  1.00  0.00    -0.550 OA
ATOM      4  O   UNL     1      28.768   6.748  41.457  1.00  0.00    -0.550 OA
ENDBRANCH   1   2
BRANCH   1   5
ATOM      5  C   UNL     1      27.548   4.925  38.670  1.00  0.00     0.059 C 
BRANCH   5   6
ATOM      6  C   UNL     1      27.941   3.845  37.707  1.00  0.00     0.042 C 
ATOM      7  O   UNL     1      29.056   3.271  37.820  1.00  0.00    -0.550 OA
ATOM      8  O   UNL     1      27.058   3.446  36.713  1.00  0.00    -0.550 OA
ENDBRANCH   5   6
ENDBRANCH   1   5
TORSDOF 3
ENDMDL
MODEL 3
REMARK VINA RESULT:    -2.852      0.960      4.059
REMARK INTER + INTRA:          -3.453
REMARK INTER:                  -3.361
REMARK INTRA:                  -0.092
REMARK UNBOUND:                -0.101
REMARK SMILES O=C([O-])CCC(=O)[O-]
REMARK SMILES IDX 4 1 2 2 1 3 3 4 5 5 6 6 7 7 8 8
REMARK H PARENT
REMARK Flexibility Score: inf
ROOT
ATOM      1  C   UNL     1      28.805   5.952  39.300  1.00  0.00     0.059 C 
ENDROOT
BRANCH   1   2
ATOM      2  C   UNL     1      28.815   5.803  40.791  1.00  0.00     0.042 C 
ATOM      3  O   UNL     1      28.632   6.806  41.529  1.00  0.00    -0.550 OA
ATOM      4  O   UNL     1      29.067   4.563  41.364  1.00  0.00    -0.550 OA
ENDBRANCH   1   2
BRANCH   1   5
ATOM      5  C   UNL     1      29.071   4.617  38.597  1.00  0.00     0.059 C 
BRANCH   5   6
ATOM      6  C   UNL     1      27.809   4.018  38.055  1.00  0.00     0.042 C 
ATOM      7  O   UNL     1      26.779   4.729  37.914  1.00  0.00    -0.550 OA
ATOM      8  O   UNL     1      27.784   2.685  37.666  1.00  0.00    -0.550 OA
ENDBRANCH   5   6
ENDBRANCH   1   5
TORSDOF 3
ENDMDL
MODEL 4
REMARK VINA RESULT:    -2.793     18.299     19.434
REMARK INTER + INTRA:          -3.384
REMARK INTER:                  -3.276
REMARK INTRA:                  -0.108
REMARK UNBOUND:                -0.101
REMARK SMILES O=C([O-])CCC(=O)[O-]
REMARK SMILES IDX 4 1 2 2 1 3 3 4 5 5 6 6 7 7 8 8
REMARK H PARENT
REMARK Flexibility Score: inf
ROOT
ATOM      1  C   UNL     1      12.679  15.316  46.135  1.00  0.00     0.059 C 
ENDROOT
BRANCH   1   2
ATOM      2  C   UNL     1      12.215  14.125  46.916  1.00  0.00     0.042 C 
ATOM      3  O   UNL     1      11.517  14.279  47.952  1.00  0.00    -0.550 OA
ATOM      4  O   UNL     1      12.589  12.846  46.522  1.00  0.00    -0.550 OA
ENDBRANCH   1   2
BRANCH   1   5
ATOM      5  C   UNL     1      13.970  15.903  46.714  1.00  0.00     0.059 C 
BRANCH   5   6
ATOM      6  C   UNL     1      15.169  15.502  45.908  1.00  0.00     0.042 C 
ATOM      7  O   UNL     1      15.849  16.375  45.307  1.00  0.00    -0.550 OA
ATOM      8  O   UNL     1      15.557  14.170  45.856  1.00  0.00    -0.550 OA
ENDBRANCH   5   6
ENDBRANCH   1   5
TORSDOF 3
ENDMDL
MODEL 5
REMARK VINA RESULT:    -2.712     18.258     19.418
REMARK INTER + INTRA:          -3.289
REMARK INTER:                  -3.172
REMARK INTRA:                  -0.116
REMARK UNBOUND:                -0.101
REMARK SMILES O=C([O-])CCC(=O)[O-]
REMARK SMILES IDX 4 1 2 2 1 3 3 4 5 5 6 6 7 7 8 8
REMARK H PARENT
REMARK Flexibility Score: inf
ROOT
ATOM      1  C   UNL     1      14.044  15.869  46.765  1.00  0.00     0.059 C 
ENDROOT
BRANCH   1   2
ATOM      2  C   UNL     1      15.248  15.537  45.936  1.00  0.00     0.042 C 
ATOM      3  O   UNL     1      15.903  16.454  45.374  1.00  0.00    -0.550 OA
ATOM      4  O   UNL     1      15.621  14.212  45.751  1.00  0.00    -0.550 OA
ENDBRANCH   1   2
BRANCH   1   5
ATOM      5  C   UNL     1      12.762  15.300  46.151  1.00  0.00     0.059 C 
BRANCH   5   6
ATOM      6  C   UNL     1      12.270  14.104  46.909  1.00  0.00     0.042 C 
ATOM      7  O   UNL     1      11.501  14.251  47.895  1.00  0.00    -0.550 OA
ATOM      8  O   UNL     1      12.628  12.826  46.500  1.00  0.00    -0.550 OA
ENDBRANCH   5   6
ENDBRANCH   1   5
TORSDOF 3
ENDMDL
MODEL 6
REMARK VINA RESULT:    -2.600     18.126     19.164
REMARK INTER + INTRA:          -3.157
REMARK INTER:                  -3.105
REMARK INTRA:                  -0.052
REMARK UNBOUND:                -0.101
REMARK SMILES O=C([O-])CCC(=O)[O-]
REMARK SMILES IDX 4 1 2 2 1 3 3 4 5 5 6 6 7 7 8 8
REMARK H PARENT
REMARK Flexibility Score: inf
ROOT
ATOM      1  C   UNL     1      12.529  13.016  46.565  1.00  0.00     0.059 C 
ENDROOT
BRANCH   1   2
ATOM      2  C   UNL     1      13.804  12.230  46.521  1.00  0.00     0.042 C 
ATOM      3  O   UNL     1      13.847  11.065  46.996  1.00  0.00    -0.550 OA
ATOM      4  O   UNL     1      14.956  12.800  45.994  1.00  0.00    -0.550 OA
ENDBRANCH   1   2
BRANCH   1   5
ATOM      5  C   UNL     1      12.686  14.301  47.385  1.00  0.00     0.059 C 
BRANCH   5   6
ATOM      6  C   UNL     1      13.026  15.473  46.515  1.00  0.00     0.042 C 
ATOM      7  O   UNL     1      12.139  16.007  45.797  1.00  0.00    -0.550 OA
ATOM      8  O   UNL     1      14.310  16.001  46.530  1.00  0.00    -0.550 OA
ENDBRANCH   5   6
ENDBRANCH   1   5
TORSDOF 3
ENDMDL
MODEL 7
REMARK VINA RESULT:    -2.544     18.145     19.304
REMARK INTER + INTRA:          -3.090
REMARK INTER:                  -3.066
REMARK INTRA:                  -0.024
REMARK UNBOUND:                -0.101
REMARK SMILES O=C([O-])CCC(=O)[O-]
REMARK SMILES IDX 4 1 2 2 1 3 3 4 5 5 6 6 7 7 8 8
REMARK H PARENT
REMARK Flexibility Score: inf
ROOT
ATOM      1  C   UNL     1      12.617  14.306  47.359  1.00  0.00     0.059 C 
ENDROOT
BRANCH   1   2
ATOM      2  C   UNL     1      12.926  15.465  46.461  1.00  0.00     0.042 C 
ATOM      3  O   UNL     1      12.038  15.929  45.698  1.00  0.00    -0.550 OA
ATOM      4  O   UNL     1      14.206  16.005  46.437  1.00  0.00    -0.550 OA
ENDBRANCH   1   2
BRANCH   1   5
ATOM      5  C   UNL     1      12.534  12.992  46.577  1.00  0.00     0.059 C 
BRANCH   5   6
ATOM      6  C   UNL     1      13.851  12.277  46.557  1.00  0.00     0.042 C 
ATOM      7  O   UNL     1      13.941  11.102  47.003  1.00  0.00    -0.550 OA
ATOM      8  O   UNL     1      14.969  12.893  46.009  1.00  0.00    -0.550 OA
ENDBRANCH   5   6
ENDBRANCH   1   5
TORSDOF 3
ENDMDL
MODEL 8
REMARK VINA RESULT:    -2.165     20.078     20.763
REMARK INTER + INTRA:          -2.645
REMARK INTER:                  -2.652
REMARK INTRA:                   0.007
REMARK UNBOUND:                -0.101
REMARK SMILES O=C([O-])CCC(=O)[O-]
REMARK SMILES IDX 4 1 2 2 1 3 3 4 5 5 6 6 7 7 8 8
REMARK H PARENT
REMARK Flexibility Score: inf
ROOT
ATOM      1  C   UNL     1      13.189  15.235  46.061  1.00  0.00     0.059 C 
ENDROOT
BRANCH   1   2
ATOM      2  C   UNL     1      11.826  15.453  45.476  1.00  0.00     0.042 C 
ATOM      3  O   UNL     1      11.431  14.748  44.510  1.00  0.00    -0.550 OA
ATOM      4  O   UNL     1      11.009  16.461  45.971  1.00  0.00    -0.550 OA
ENDBRANCH   1   2
BRANCH   1   5
ATOM      5  C   UNL     1      13.171  14.154  47.145  1.00  0.00     0.059 C 
BRANCH   5   6
ATOM      6  C   UNL     1      12.622  14.677  48.438  1.00  0.00     0.042 C 
ATOM      7  O   UNL     1      13.401  15.111  49.328  1.00  0.00    -0.550 OA
ATOM      8  O   UNL     1      11.249  14.724  48.642  1.00  0.00    -0.550 OA
ENDBRANCH   5   6
ENDBRANCH   1   5
TORSDOF 3
ENDMDL
MODEL 9
REMARK VINA RESULT:    -2.163     20.108     21.024
REMARK INTER + INTRA:          -2.643
REMARK INTER:                  -2.623
REMARK INTRA:                  -0.019
REMARK UNBOUND:                -0.101
REMARK SMILES O=C([O-])CCC(=O)[O-]
REMARK SMILES IDX 4 1 2 2 1 3 3 4 5 5 6 6 7 7 8 8
REMARK H PARENT
REMARK Flexibility Score: inf
ROOT
ATOM      1  C   UNL     1      13.150  14.245  47.091  1.00  0.00     0.059 C 
ENDROOT
BRANCH   1   2
ATOM      2  C   UNL     1      12.573  14.687  48.402  1.00  0.00     0.042 C 
ATOM      3  O   UNL     1      11.326  14.683  48.578  1.00  0.00    -0.550 OA
ATOM      4  O   UNL     1      13.410  15.141  49.413  1.00  0.00    -0.550 OA
ENDBRANCH   1   2
BRANCH   1   5
ATOM      5  C   UNL     1      13.125  15.372  46.055  1.00  0.00     0.059 C 
BRANCH   5   6
ATOM      6  C   UNL     1      11.771  15.517  45.428  1.00  0.00     0.042 C 
ATOM      7  O   UNL     1      11.419  14.747  44.496  1.00  0.00    -0.550 OA
ATOM      8  O   UNL     1      10.884  16.474  45.903  1.00  0.00    -0.550 OA
ENDBRANCH   5   6
ENDBRANCH   1   5
TORSDOF 3
ENDMDL
