MODEL 1
REMARK VINA RESULT:    -6.701      0.000      0.000
REMARK INTER + INTRA:          -8.725
REMARK INTER:                  -9.051
REMARK INTRA:                   0.326
REMARK UNBOUND:                 0.326
REMARK SMILES O=c1c(-c2ccc(O)cc2)coc2c([C@@H]3O[C@@H](CO)[C@@H](O)[C@@H](O)[C@H]3O)c(O)ccc12
REMARK SMILES IDX 3 1 11 2 12 3 13 4 30 5 2 6 1 7 29 8 28 9 26 10 14 11 4 12
REMARK SMILES IDX 5 13 6 14 7 15 10 16 9 17 8 18 15 20 24 21 16 22 22 23 17 24
REMARK SMILES IDX 20 25 25 26 23 28 18 30 19 31 21 33 27 35
REMARK H PARENT 8 19 25 27 23 29 19 32 21 34 27 36
REMARK Flexibility Score: inf
ROOT
ATOM      1  C   UNL     1       3.893 -14.444   6.850  1.00  0.00     0.065 A 
ATOM      2  C   UNL     1       4.989 -15.311   6.935  1.00  0.00     0.208 A 
ATOM      3  O   UNL     1       4.830 -16.624   6.821  1.00  0.00    -0.463 OA
ATOM      4  C   UNL     1       3.648 -17.205   6.618  1.00  0.00     0.147 A 
ATOM      5  C   UNL     1       2.488 -16.401   6.528  1.00  0.00     0.066 A 
ATOM      6  C   UNL     1       2.621 -15.005   6.636  1.00  0.00     0.200 A 
ATOM      7  O   UNL     1       1.609 -14.258   6.523  1.00  0.00    -0.288 OA
ATOM      8  C   UNL     1       1.241 -17.007   6.336  1.00  0.00     0.020 A 
ATOM      9  C   UNL     1       1.142 -18.390   6.259  1.00  0.00     0.047 A 
ATOM     10  C   UNL     1       2.279 -19.204   6.351  1.00  0.00     0.125 A 
ATOM     11  C   UNL     1       3.569 -18.618   6.494  1.00  0.00     0.069 A 
ENDROOT
BRANCH   1  12
ATOM     12  C   UNL     1       4.094 -12.980   6.984  1.00  0.00    -0.011 A 
ATOM     13  C   UNL     1       4.139 -12.373   8.251  1.00  0.00     0.013 A 
ATOM     14  C   UNL     1       4.340 -10.995   8.370  1.00  0.00     0.047 A 
ATOM     15  C   UNL     1       4.501 -10.206   7.223  1.00  0.00     0.115 A 
ATOM     16  C   UNL     1       4.265 -12.181   5.838  1.00  0.00     0.013 A 
ATOM     17  C   UNL     1       4.464 -10.802   5.960  1.00  0.00     0.047 A 
BRANCH  15  18
ATOM     18  O   UNL     1       4.700  -8.831   7.330  1.00  0.00    -0.508 OA
ATOM     19  H   UNL     1       4.636  -8.354   8.222  1.00  0.00     0.293 HD
ENDBRANCH  15  18
ENDBRANCH   1  12
BRANCH  11  20
ATOM     20  C   UNL     1       4.898 -19.405   6.577  1.00  0.00     0.188 C 
ATOM     21  C   UNL     1       4.917 -20.863   7.112  1.00  0.00     0.179 C 
ATOM     22  O   UNL     1       5.611 -19.339   5.346  1.00  0.00    -0.362 OA
ATOM     23  C   UNL     1       4.355 -21.838   6.050  1.00  0.00     0.177 C 
ATOM     24  C   UNL     1       4.988 -20.122   4.338  1.00  0.00     0.176 C 
ATOM     25  C   UNL     1       5.053 -21.622   4.692  1.00  0.00     0.177 C 
BRANCH  21  26
ATOM     26  O   UNL     1       6.252 -21.203   7.405  1.00  0.00    -0.387 OA
ATOM     27  H   UNL     1       6.658 -20.431   7.879  1.00  0.00     0.211 HD
ENDBRANCH  21  26
BRANCH  23  28
ATOM     28  O   UNL     1       4.512 -23.164   6.487  1.00  0.00    -0.387 OA
ATOM     29  H   UNL     1       5.221 -23.154   7.184  1.00  0.00     0.211 HD
ENDBRANCH  23  28
BRANCH  24  30
ATOM     30  C   UNL     1       5.643 -19.818   2.979  1.00  0.00     0.191 C 
BRANCH  30  31
ATOM     31  O   UNL     1       5.697 -20.962   2.167  1.00  0.00    -0.394 OA
ATOM     32  H   UNL     1       4.947 -21.549   2.448  1.00  0.00     0.210 HD
ENDBRANCH  30  31
ENDBRANCH  24  30
BRANCH  25  33
ATOM     33  O   UNL     1       6.390 -22.051   4.752  1.00  0.00    -0.388 OA
ATOM     34  H   UNL     1       6.736 -21.795   5.648  1.00  0.00     0.211 HD
ENDBRANCH  25  33
ENDBRANCH  11  20
BRANCH  10  35
ATOM     35  O   UNL     1       2.092 -20.583   6.309  1.00  0.00    -0.507 OA
ATOM     36  H   UNL     1       2.862 -21.235   6.390  1.00  0.00     0.293 HD
ENDBRANCH  10  35
TORSDOF 9
ENDMDL
MODEL 2
REMARK VINA RESULT:    -6.604      1.803      2.824
REMARK INTER + INTRA:          -8.593
REMARK INTER:                  -8.850
REMARK INTRA:                   0.257
REMARK UNBOUND:                 0.326
REMARK SMILES O=c1c(-c2ccc(O)cc2)coc2c([C@@H]3O[C@@H](CO)[C@@H](O)[C@@H](O)[C@H]3O)c(O)ccc12
REMARK SMILES IDX 3 1 11 2 12 3 13 4 30 5 2 6 1 7 29 8 28 9 26 10 14 11 4 12
REMARK SMILES IDX 5 13 6 14 7 15 10 16 9 17 8 18 15 20 24 21 16 22 22 23 17 24
REMARK SMILES IDX 20 25 25 26 23 28 18 30 19 31 21 33 27 35
REMARK H PARENT 8 19 25 27 23 29 19 32 21 34 27 36
REMARK Flexibility Score: inf
ROOT
ATOM      1  C   UNL     1       4.093 -15.217   6.381  1.00  0.00     0.065 A 
ATOM      2  C   UNL     1       4.522 -16.364   7.060  1.00  0.00     0.208 A 
ATOM      3  O   UNL     1       4.927 -17.439   6.395  1.00  0.00    -0.463 OA
ATOM      4  C   UNL     1       4.961 -17.508   5.064  1.00  0.00     0.147 A 
ATOM      5  C   UNL     1       4.537 -16.395   4.302  1.00  0.00     0.066 A 
ATOM      6  C   UNL     1       4.110 -15.236   4.975  1.00  0.00     0.200 A 
ATOM      7  O   UNL     1       3.761 -14.213   4.322  1.00  0.00    -0.288 OA
ATOM      8  C   UNL     1       4.551 -16.469   2.904  1.00  0.00     0.020 A 
ATOM      9  C   UNL     1       4.955 -17.638   2.272  1.00  0.00     0.047 A 
ATOM     10  C   UNL     1       5.374 -18.754   3.010  1.00  0.00     0.125 A 
ATOM     11  C   UNL     1       5.422 -18.694   4.432  1.00  0.00     0.069 A 
ENDROOT
BRANCH   1  12
ATOM     12  C   UNL     1       3.642 -14.028   7.146  1.00  0.00    -0.011 A 
ATOM     13  C   UNL     1       4.566 -13.066   7.590  1.00  0.00     0.013 A 
ATOM     14  C   UNL     1       4.134 -11.944   8.302  1.00  0.00     0.047 A 
ATOM     15  C   UNL     1       2.771 -11.767   8.577  1.00  0.00     0.115 A 
ATOM     16  C   UNL     1       2.275 -13.839   7.420  1.00  0.00     0.013 A 
ATOM     17  C   UNL     1       1.845 -12.715   8.133  1.00  0.00     0.047 A 
BRANCH  15  18
ATOM     18  O   UNL     1       2.328 -10.653   9.287  1.00  0.00    -0.508 OA
ATOM     19  H   UNL     1       2.359 -10.623  10.300  1.00  0.00     0.293 HD
ENDBRANCH  15  18
ENDBRANCH   1  12
BRANCH  11  20
ATOM     20  C   UNL     1       5.891 -19.844   5.355  1.00  0.00     0.188 C 
ATOM     21  C   UNL     1       5.265 -20.027   6.764  1.00  0.00     0.179 C 
ATOM     22  O   UNL     1       5.886 -21.089   4.665  1.00  0.00    -0.362 OA
ATOM     23  C   UNL     1       3.847 -20.635   6.653  1.00  0.00     0.177 C 
ATOM     24  C   UNL     1       4.564 -21.556   4.436  1.00  0.00     0.176 C 
ATOM     25  C   UNL     1       3.866 -21.898   5.769  1.00  0.00     0.177 C 
BRANCH  21  26
ATOM     26  O   UNL     1       6.094 -20.894   7.501  1.00  0.00    -0.387 OA
ATOM     27  H   UNL     1       7.024 -20.762   7.178  1.00  0.00     0.211 HD
ENDBRANCH  21  26
BRANCH  23  28
ATOM     28  O   UNL     1       3.351 -20.931   7.934  1.00  0.00    -0.387 OA
ATOM     29  H   UNL     1       3.488 -20.118   8.489  1.00  0.00     0.211 HD
ENDBRANCH  23  28
BRANCH  24  30
ATOM     30  C   UNL     1       4.606 -22.758   3.478  1.00  0.00     0.191 C 
BRANCH  30  31
ATOM     31  O   UNL     1       5.807 -23.474   3.603  1.00  0.00    -0.394 OA
ATOM     32  H   UNL     1       5.573 -24.363   3.980  1.00  0.00     0.210 HD
ENDBRANCH  30  31
ENDBRANCH  24  30
BRANCH  25  33
ATOM     33  O   UNL     1       4.544 -22.944   6.419  1.00  0.00    -0.388 OA
ATOM     34  H   UNL     1       4.655 -22.671   7.368  1.00  0.00     0.211 HD
ENDBRANCH  25  33
ENDBRANCH  11  20
BRANCH  10  35
ATOM     35  O   UNL     1       5.722 -19.901   2.304  1.00  0.00    -0.507 OA
ATOM     36  H   UNL     1       6.565 -20.425   2.506  1.00  0.00     0.293 HD
ENDBRANCH  10  35
TORSDOF 9
ENDMDL
MODEL 3
REMARK VINA RESULT:    -6.596      2.020      3.637
REMARK INTER + INTRA:          -8.584
REMARK INTER:                  -8.657
REMARK INTRA:                   0.074
REMARK UNBOUND:                 0.326
REMARK SMILES O=c1c(-c2ccc(O)cc2)coc2c([C@@H]3O[C@@H](CO)[C@@H](O)[C@@H](O)[C@H]3O)c(O)ccc12
REMARK SMILES IDX 3 1 11 2 12 3 13 4 30 5 2 6 1 7 29 8 28 9 26 10 14 11 4 12
REMARK SMILES IDX 5 13 6 14 7 15 10 16 9 17 8 18 15 20 24 21 16 22 22 23 17 24
REMARK SMILES IDX 20 25 25 26 23 28 18 30 19 31 21 33 27 35
REMARK H PARENT 8 19 25 27 23 29 19 32 21 34 27 36
REMARK Flexibility Score: inf
ROOT
ATOM      1  C   UNL     1       4.154 -16.045   6.951  1.00  0.00     0.065 A 
ATOM      2  C   UNL     1       3.834 -16.351   5.622  1.00  0.00     0.208 A 
ATOM      3  O   UNL     1       3.960 -17.588   5.158  1.00  0.00    -0.463 OA
ATOM      4  C   UNL     1       4.385 -18.610   5.900  1.00  0.00     0.147 A 
ATOM      5  C   UNL     1       4.735 -18.386   7.251  1.00  0.00     0.066 A 
ATOM      6  C   UNL     1       4.606 -17.088   7.779  1.00  0.00     0.200 A 
ATOM      7  O   UNL     1       4.876 -16.863   8.991  1.00  0.00    -0.288 OA
ATOM      8  C   UNL     1       5.202 -19.451   8.030  1.00  0.00     0.020 A 
ATOM      9  C   UNL     1       5.342 -20.715   7.471  1.00  0.00     0.047 A 
ATOM     10  C   UNL     1       5.004 -20.956   6.132  1.00  0.00     0.125 A 
ATOM     11  C   UNL     1       4.477 -19.907   5.326  1.00  0.00     0.069 A 
ENDROOT
BRANCH   1  12
ATOM     12  C   UNL     1       4.008 -14.654   7.446  1.00  0.00    -0.011 A 
ATOM     13  C   UNL     1       5.128 -13.813   7.569  1.00  0.00     0.013 A 
ATOM     14  C   UNL     1       4.983 -12.501   8.028  1.00  0.00     0.047 A 
ATOM     15  C   UNL     1       3.714 -12.010   8.366  1.00  0.00     0.115 A 
ATOM     16  C   UNL     1       2.737 -14.151   7.781  1.00  0.00     0.013 A 
ATOM     17  C   UNL     1       2.594 -12.837   8.240  1.00  0.00     0.047 A 
BRANCH  15  18
ATOM     18  O   UNL     1       3.557 -10.705   8.824  1.00  0.00    -0.508 OA
ATOM     19  H   UNL     1       2.640 -10.281   8.915  1.00  0.00     0.293 HD
ENDBRANCH  15  18
ENDBRANCH   1  12
BRANCH  11  20
ATOM     20  C   UNL     1       4.041 -20.053   3.850  1.00  0.00     0.188 C 
ATOM     21  C   UNL     1       4.037 -18.821   2.905  1.00  0.00     0.179 C 
ATOM     22  O   UNL     1       4.719 -21.135   3.220  1.00  0.00    -0.362 OA
ATOM     23  C   UNL     1       5.480 -18.451   2.488  1.00  0.00     0.177 C 
ATOM     24  C   UNL     1       6.087 -20.830   2.986  1.00  0.00     0.176 C 
ATOM     25  C   UNL     1       6.225 -19.691   1.954  1.00  0.00     0.177 C 
BRANCH  21  26
ATOM     26  O   UNL     1       3.285 -19.150   1.760  1.00  0.00    -0.387 OA
ATOM     27  H   UNL     1       3.003 -20.098   1.853  1.00  0.00     0.211 HD
ENDBRANCH  21  26
BRANCH  23  28
ATOM     28  O   UNL     1       5.453 -17.430   1.522  1.00  0.00    -0.387 OA
ATOM     29  H   UNL     1       5.481 -17.876   0.634  1.00  0.00     0.211 HD
ENDBRANCH  23  28
BRANCH  24  30
ATOM     30  C   UNL     1       6.825 -22.105   2.543  1.00  0.00     0.191 C 
BRANCH  30  31
ATOM     31  O   UNL     1       6.448 -23.214   3.316  1.00  0.00    -0.394 OA
ATOM     32  H   UNL     1       5.474 -23.346   3.172  1.00  0.00     0.210 HD
ENDBRANCH  30  31
ENDBRANCH  24  30
BRANCH  25  33
ATOM     33  O   UNL     1       5.694 -20.089   0.715  1.00  0.00    -0.388 OA
ATOM     34  H   UNL     1       6.290 -20.800   0.360  1.00  0.00     0.211 HD
ENDBRANCH  25  33
ENDBRANCH  11  20
BRANCH  10  35
ATOM     35  O   UNL     1       5.214 -22.239   5.634  1.00  0.00    -0.507 OA
ATOM     36  H   UNL     1       4.842 -22.539   4.741  1.00  0.00     0.293 HD
ENDBRANCH  10  35
TORSDOF 9
ENDMDL
MODEL 4
REMARK VINA RESULT:    -6.515      2.680      8.627
REMARK INTER + INTRA:          -8.474
REMARK INTER:                  -8.552
REMARK INTRA:                   0.078
REMARK UNBOUND:                 0.326
REMARK SMILES O=c1c(-c2ccc(O)cc2)coc2c([C@@H]3O[C@@H](CO)[C@@H](O)[C@@H](O)[C@H]3O)c(O)ccc12
REMARK SMILES IDX 3 1 11 2 12 3 13 4 30 5 2 6 1 7 29 8 28 9 26 10 14 11 4 12
REMARK SMILES IDX 5 13 6 14 7 15 10 16 9 17 8 18 15 20 24 21 16 22 22 23 17 24
REMARK SMILES IDX 20 25 25 26 23 28 18 30 19 31 21 33 27 35
REMARK H PARENT 8 19 25 27 23 29 19 32 21 34 27 36
REMARK Flexibility Score: inf
ROOT
ATOM      1  C   UNL     1       4.106 -16.755   7.140  1.00  0.00     0.065 A 
ATOM      2  C   UNL     1       2.741 -16.504   6.951  1.00  0.00     0.208 A 
ATOM      3  O   UNL     1       2.240 -15.288   7.130  1.00  0.00    -0.463 OA
ATOM      4  C   UNL     1       2.975 -14.238   7.491  1.00  0.00     0.147 A 
ATOM      5  C   UNL     1       4.362 -14.406   7.710  1.00  0.00     0.066 A 
ATOM      6  C   UNL     1       4.928 -15.680   7.520  1.00  0.00     0.200 A 
ATOM      7  O   UNL     1       6.170 -15.854   7.673  1.00  0.00    -0.288 OA
ATOM      8  C   UNL     1       5.137 -13.311   8.110  1.00  0.00     0.020 A 
ATOM      9  C   UNL     1       4.541 -12.073   8.313  1.00  0.00     0.047 A 
ATOM     10  C   UNL     1       3.168 -11.886   8.105  1.00  0.00     0.125 A 
ATOM     11  C   UNL     1       2.360 -12.967   7.648  1.00  0.00     0.069 A 
ENDROOT
BRANCH   1  12
ATOM     12  C   UNL     1       4.643 -18.123   6.936  1.00  0.00    -0.011 A 
ATOM     13  C   UNL     1       4.991 -18.574   5.651  1.00  0.00     0.013 A 
ATOM     14  C   UNL     1       5.506 -19.860   5.466  1.00  0.00     0.047 A 
ATOM     15  C   UNL     1       5.682 -20.712   6.566  1.00  0.00     0.115 A 
ATOM     16  C   UNL     1       4.829 -18.982   8.034  1.00  0.00     0.013 A 
ATOM     17  C   UNL     1       5.344 -20.269   7.847  1.00  0.00     0.047 A 
BRANCH  15  18
ATOM     18  O   UNL     1       6.192 -21.997   6.394  1.00  0.00    -0.508 OA
ATOM     19  H   UNL     1       7.115 -22.152   6.004  1.00  0.00     0.293 HD
ENDBRANCH  15  18
ENDBRANCH   1  12
BRANCH  11  20
ATOM     20  C   UNL     1       0.843 -12.881   7.355  1.00  0.00     0.188 C 
ATOM     21  C   UNL     1      -0.019 -14.171   7.289  1.00  0.00     0.179 C 
ATOM     22  O   UNL     1       0.211 -11.927   8.203  1.00  0.00    -0.362 OA
ATOM     23  C   UNL     1      -0.279 -14.724   8.710  1.00  0.00     0.177 C 
ATOM     24  C   UNL     1       0.121 -12.395   9.541  1.00  0.00     0.176 C 
ATOM     25  C   UNL     1      -0.821 -13.614   9.633  1.00  0.00     0.177 C 
BRANCH  21  26
ATOM     26  O   UNL     1      -1.245 -13.845   6.677  1.00  0.00    -0.387 OA
ATOM     27  H   UNL     1      -1.950 -14.390   7.116  1.00  0.00     0.211 HD
ENDBRANCH  21  26
BRANCH  23  28
ATOM     28  O   UNL     1      -1.178 -15.802   8.646  1.00  0.00    -0.387 OA
ATOM     29  H   UNL     1      -0.840 -16.495   9.274  1.00  0.00     0.211 HD
ENDBRANCH  23  28
BRANCH  24  30
ATOM     30  C   UNL     1      -0.332 -11.243  10.454  1.00  0.00     0.191 C 
BRANCH  30  31
ATOM     31  O   UNL     1       0.108 -10.000   9.973  1.00  0.00    -0.394 OA
ATOM     32  H   UNL     1       0.329  -9.447  10.768  1.00  0.00     0.210 HD
ENDBRANCH  30  31
ENDBRANCH  24  30
BRANCH  25  33
ATOM     33  O   UNL     1      -2.125 -13.252   9.255  1.00  0.00    -0.388 OA
ATOM     34  H   UNL     1      -2.396 -13.867   8.524  1.00  0.00     0.211 HD
ENDBRANCH  25  33
ENDBRANCH  11  20
BRANCH  10  35
ATOM     35  O   UNL     1       2.639 -10.627   8.372  1.00  0.00    -0.507 OA
ATOM     36  H   UNL     1       2.501  -9.934   7.646  1.00  0.00     0.293 HD
ENDBRANCH  10  35
TORSDOF 9
ENDMDL
MODEL 5
REMARK VINA RESULT:    -6.411      1.986      3.700
REMARK INTER + INTRA:          -8.334
REMARK INTER:                  -8.527
REMARK INTRA:                   0.194
REMARK UNBOUND:                 0.326
REMARK SMILES O=c1c(-c2ccc(O)cc2)coc2c([C@@H]3O[C@@H](CO)[C@@H](O)[C@@H](O)[C@H]3O)c(O)ccc12
REMARK SMILES IDX 3 1 11 2 12 3 13 4 30 5 2 6 1 7 29 8 28 9 26 10 14 11 4 12
REMARK SMILES IDX 5 13 6 14 7 15 10 16 9 17 8 18 15 20 24 21 16 22 22 23 17 24
REMARK SMILES IDX 20 25 25 26 23 28 18 30 19 31 21 33 27 35
REMARK H PARENT 8 19 25 27 23 29 19 32 21 34 27 36
REMARK Flexibility Score: inf
ROOT
ATOM      1  C   UNL     1       3.898 -16.419   7.227  1.00  0.00     0.065 A 
ATOM      2  C   UNL     1       3.141 -16.824   6.121  1.00  0.00     0.208 A 
ATOM      3  O   UNL     1       3.124 -18.093   5.733  1.00  0.00    -0.463 OA
ATOM      4  C   UNL     1       3.805 -19.058   6.351  1.00  0.00     0.147 A 
ATOM      5  C   UNL     1       4.601 -18.733   7.473  1.00  0.00     0.066 A 
ATOM      6  C   UNL     1       4.635 -17.398   7.917  1.00  0.00     0.200 A 
ATOM      7  O   UNL     1       5.308 -17.084   8.938  1.00  0.00    -0.288 OA
ATOM      8  C   UNL     1       5.335 -19.739   8.114  1.00  0.00     0.020 A 
ATOM      9  C   UNL     1       5.299 -21.041   7.634  1.00  0.00     0.047 A 
ATOM     10  C   UNL     1       4.519 -21.382   6.520  1.00  0.00     0.125 A 
ATOM     11  C   UNL     1       3.720 -20.394   5.877  1.00  0.00     0.069 A 
ENDROOT
BRANCH   1  12
ATOM     12  C   UNL     1       3.904 -14.994   7.641  1.00  0.00    -0.011 A 
ATOM     13  C   UNL     1       5.079 -14.227   7.561  1.00  0.00     0.013 A 
ATOM     14  C   UNL     1       5.075 -12.882   7.942  1.00  0.00     0.047 A 
ATOM     15  C   UNL     1       3.895 -12.286   8.406  1.00  0.00     0.115 A 
ATOM     16  C   UNL     1       2.721 -14.386   8.100  1.00  0.00     0.013 A 
ATOM     17  C   UNL     1       2.720 -13.040   8.482  1.00  0.00     0.047 A 
BRANCH  15  18
ATOM     18  O   UNL     1       3.879 -10.947   8.790  1.00  0.00    -0.508 OA
ATOM     19  H   UNL     1       3.534 -10.222   8.171  1.00  0.00     0.293 HD
ENDBRANCH  15  18
ENDBRANCH   1  12
BRANCH  11  20
ATOM     20  C   UNL     1       2.798 -20.650   4.661  1.00  0.00     0.188 C 
ATOM     21  C   UNL     1       2.436 -19.493   3.691  1.00  0.00     0.179 C 
ATOM     22  O   UNL     1       3.237 -21.780   3.914  1.00  0.00    -0.362 OA
ATOM     23  C   UNL     1       3.634 -19.162   2.769  1.00  0.00     0.177 C 
ATOM     24  C   UNL     1       4.429 -21.500   3.194  1.00  0.00     0.176 C 
ATOM     25  C   UNL     1       4.172 -20.442   2.100  1.00  0.00     0.177 C 
BRANCH  21  26
ATOM     26  O   UNL     1       1.339 -19.905   2.910  1.00  0.00    -0.387 OA
ATOM     27  H   UNL     1       0.958 -19.094   2.482  1.00  0.00     0.211 HD
ENDBRANCH  21  26
BRANCH  23  28
ATOM     28  O   UNL     1       3.248 -18.218   1.803  1.00  0.00    -0.387 OA
ATOM     29  H   UNL     1       2.790 -18.721   1.078  1.00  0.00     0.211 HD
ENDBRANCH  23  28
BRANCH  24  30
ATOM     30  C   UNL     1       4.994 -22.808   2.614  1.00  0.00     0.191 C 
BRANCH  30  31
ATOM     31  O   UNL     1       5.866 -23.437   3.516  1.00  0.00    -0.394 OA
ATOM     32  H   UNL     1       5.663 -24.408   3.481  1.00  0.00     0.210 HD
ENDBRANCH  30  31
ENDBRANCH  24  30
BRANCH  25  33
ATOM     33  O   UNL     1       3.250 -20.931   1.158  1.00  0.00    -0.388 OA
ATOM     34  H   UNL     1       2.874 -21.771   1.531  1.00  0.00     0.211 HD
ENDBRANCH  25  33
ENDBRANCH  11  20
BRANCH  10  35
ATOM     35  O   UNL     1       4.570 -22.699   6.075  1.00  0.00    -0.507 OA
ATOM     36  H   UNL     1       5.216 -23.377   6.463  1.00  0.00     0.293 HD
ENDBRANCH  10  35
TORSDOF 9
ENDMDL
MODEL 6
REMARK VINA RESULT:    -6.251      2.920      9.039
REMARK INTER + INTRA:          -8.117
REMARK INTER:                  -8.664
REMARK INTRA:                   0.548
REMARK UNBOUND:                 0.326
REMARK SMILES O=c1c(-c2ccc(O)cc2)coc2c([C@@H]3O[C@@H](CO)[C@@H](O)[C@@H](O)[C@H]3O)c(O)ccc12
REMARK SMILES IDX 3 1 11 2 12 3 13 4 30 5 2 6 1 7 29 8 28 9 26 10 14 11 4 12
REMARK SMILES IDX 5 13 6 14 7 15 10 16 9 17 8 18 15 20 24 21 16 22 22 23 17 24
REMARK SMILES IDX 20 25 25 26 23 28 18 30 19 31 21 33 27 35
REMARK H PARENT 8 19 25 27 23 29 19 32 21 34 27 36
REMARK Flexibility Score: inf
ROOT
ATOM      1  C   UNL     1       3.927 -16.793   7.282  1.00  0.00     0.065 A 
ATOM      2  C   UNL     1       2.563 -16.557   7.494  1.00  0.00     0.208 A 
ATOM      3  O   UNL     1       2.121 -15.346   7.809  1.00  0.00    -0.463 OA
ATOM      4  C   UNL     1       2.917 -14.286   7.941  1.00  0.00     0.147 A 
ATOM      5  C   UNL     1       4.310 -14.438   7.750  1.00  0.00     0.066 A 
ATOM      6  C   UNL     1       4.812 -15.708   7.407  1.00  0.00     0.200 A 
ATOM      7  O   UNL     1       6.046 -15.868   7.195  1.00  0.00    -0.288 OA
ATOM      8  C   UNL     1       5.154 -13.333   7.907  1.00  0.00     0.020 A 
ATOM      9  C   UNL     1       4.629 -12.101   8.272  1.00  0.00     0.047 A 
ATOM     10  C   UNL     1       3.252 -11.930   8.470  1.00  0.00     0.125 A 
ATOM     11  C   UNL     1       2.359 -13.021   8.267  1.00  0.00     0.069 A 
ENDROOT
BRANCH   1  12
ATOM     12  C   UNL     1       4.398 -18.156   6.934  1.00  0.00    -0.011 A 
ATOM     13  C   UNL     1       4.800 -19.056   7.937  1.00  0.00     0.013 A 
ATOM     14  C   UNL     1       5.233 -20.342   7.603  1.00  0.00     0.047 A 
ATOM     15  C   UNL     1       5.266 -20.747   6.262  1.00  0.00     0.115 A 
ATOM     16  C   UNL     1       4.427 -18.574   5.591  1.00  0.00     0.013 A 
ATOM     17  C   UNL     1       4.862 -19.861   5.259  1.00  0.00     0.047 A 
BRANCH  15  18
ATOM     18  O   UNL     1       5.697 -22.026   5.917  1.00  0.00    -0.508 OA
ATOM     19  H   UNL     1       6.321 -22.555   6.516  1.00  0.00     0.293 HD
ENDBRANCH  15  18
ENDBRANCH   1  12
BRANCH  11  20
ATOM     20  C   UNL     1       0.821 -12.952   8.424  1.00  0.00     0.188 C 
ATOM     21  C   UNL     1       0.185 -12.123   9.573  1.00  0.00     0.179 C 
ATOM     22  O   UNL     1       0.194 -12.618   7.191  1.00  0.00    -0.362 OA
ATOM     23  C   UNL     1       0.265 -10.610   9.260  1.00  0.00     0.177 C 
ATOM     24  C   UNL     1       0.412 -11.258   6.844  1.00  0.00     0.176 C 
ATOM     25  C   UNL     1      -0.286 -10.318   7.850  1.00  0.00     0.177 C 
BRANCH  21  26
ATOM     26  O   UNL     1      -1.164 -12.509   9.694  1.00  0.00    -0.387 OA
ATOM     27  H   UNL     1      -1.407 -13.004   8.868  1.00  0.00     0.211 HD
ENDBRANCH  21  26
BRANCH  23  28
ATOM     28  O   UNL     1      -0.441  -9.882  10.232  1.00  0.00    -0.387 OA
ATOM     29  H   UNL     1      -1.332 -10.313  10.322  1.00  0.00     0.211 HD
ENDBRANCH  23  28
BRANCH  24  30
ATOM     30  C   UNL     1      -0.063 -11.017   5.401  1.00  0.00     0.191 C 
BRANCH  30  31
ATOM     31  O   UNL     1      -0.542  -9.709   5.228  1.00  0.00    -0.394 OA
ATOM     32  H   UNL     1      -1.175  -9.734   4.464  1.00  0.00     0.210 HD
ENDBRANCH  30  31
ENDBRANCH  24  30
BRANCH  25  33
ATOM     33  O   UNL     1      -1.678 -10.515   7.815  1.00  0.00    -0.388 OA
ATOM     34  H   UNL     1      -1.957 -10.434   6.865  1.00  0.00     0.211 HD
ENDBRANCH  25  33
ENDBRANCH  11  20
BRANCH  10  35
ATOM     35  O   UNL     1       2.808 -10.675   8.876  1.00  0.00    -0.507 OA
ATOM     36  H   UNL     1       2.147 -10.555   9.635  1.00  0.00     0.293 HD
ENDBRANCH  10  35
TORSDOF 9
ENDMDL
MODEL 7
REMARK VINA RESULT:    -6.223      2.330      8.742
REMARK INTER + INTRA:          -8.080
REMARK INTER:                  -8.269
REMARK INTRA:                   0.190
REMARK UNBOUND:                 0.326
REMARK SMILES O=c1c(-c2ccc(O)cc2)coc2c([C@@H]3O[C@@H](CO)[C@@H](O)[C@@H](O)[C@H]3O)c(O)ccc12
REMARK SMILES IDX 3 1 11 2 12 3 13 4 30 5 2 6 1 7 29 8 28 9 26 10 14 11 4 12
REMARK SMILES IDX 5 13 6 14 7 15 10 16 9 17 8 18 15 20 24 21 16 22 22 23 17 24
REMARK SMILES IDX 20 25 25 26 23 28 18 30 19 31 21 33 27 35
REMARK H PARENT 8 19 25 27 23 29 19 32 21 34 27 36
REMARK Flexibility Score: inf
ROOT
ATOM      1  C   UNL     1       3.952 -17.507   6.591  1.00  0.00     0.065 A 
ATOM      2  C   UNL     1       3.948 -16.727   7.755  1.00  0.00     0.208 A 
ATOM      3  O   UNL     1       3.762 -15.414   7.695  1.00  0.00    -0.463 OA
ATOM      4  C   UNL     1       3.567 -14.752   6.555  1.00  0.00     0.147 A 
ATOM      5  C   UNL     1       3.564 -15.464   5.333  1.00  0.00     0.066 A 
ATOM      6  C   UNL     1       3.749 -16.858   5.360  1.00  0.00     0.200 A 
ATOM      7  O   UNL     1       3.715 -17.526   4.289  1.00  0.00    -0.288 OA
ATOM      8  C   UNL     1       3.380 -14.771   4.131  1.00  0.00     0.020 A 
ATOM      9  C   UNL     1       3.226 -13.391   4.138  1.00  0.00     0.047 A 
ATOM     10  C   UNL     1       3.230 -12.667   5.338  1.00  0.00     0.125 A 
ATOM     11  C   UNL     1       3.363 -13.347   6.583  1.00  0.00     0.069 A 
ENDROOT
BRANCH   1  12
ATOM     12  C   UNL     1       4.164 -18.973   6.683  1.00  0.00    -0.011 A 
ATOM     13  C   UNL     1       5.444 -19.500   6.929  1.00  0.00     0.013 A 
ATOM     14  C   UNL     1       5.636 -20.881   7.024  1.00  0.00     0.047 A 
ATOM     15  C   UNL     1       4.549 -21.754   6.877  1.00  0.00     0.115 A 
ATOM     16  C   UNL     1       3.078 -19.856   6.544  1.00  0.00     0.013 A 
ATOM     17  C   UNL     1       3.272 -21.238   6.638  1.00  0.00     0.047 A 
BRANCH  15  18
ATOM     18  O   UNL     1       4.727 -23.132   6.968  1.00  0.00    -0.508 OA
ATOM     19  H   UNL     1       4.874 -23.590   7.861  1.00  0.00     0.293 HD
ENDBRANCH  15  18
ENDBRANCH   1  12
BRANCH  11  20
ATOM     20  C   UNL     1       3.354 -12.666   7.972  1.00  0.00     0.188 C 
ATOM     21  C   UNL     1       3.233 -11.122   8.091  1.00  0.00     0.179 C 
ATOM     22  O   UNL     1       2.412 -13.287   8.841  1.00  0.00    -0.362 OA
ATOM     23  C   UNL     1       1.780 -10.668   7.809  1.00  0.00     0.177 C 
ATOM     24  C   UNL     1       1.075 -12.980   8.469  1.00  0.00     0.176 C 
ATOM     25  C   UNL     1       0.784 -11.477   8.664  1.00  0.00     0.177 C 
BRANCH  21  26
ATOM     26  O   UNL     1       3.596 -10.755   9.401  1.00  0.00    -0.387 OA
ATOM     27  H   UNL     1       4.518 -10.390   9.362  1.00  0.00     0.211 HD
ENDBRANCH  21  26
BRANCH  23  28
ATOM     28  O   UNL     1       1.652  -9.292   8.062  1.00  0.00    -0.387 OA
ATOM     29  H   UNL     1       0.742  -9.029   7.760  1.00  0.00     0.211 HD
ENDBRANCH  23  28
BRANCH  24  30
ATOM     30  C   UNL     1       0.107 -13.867   9.270  1.00  0.00     0.191 C 
BRANCH  30  31
ATOM     31  O   UNL     1      -1.090 -13.193   9.558  1.00  0.00    -0.394 OA
ATOM     32  H   UNL     1      -0.838 -12.306   9.927  1.00  0.00     0.210 HD
ENDBRANCH  30  31
ENDBRANCH  24  30
BRANCH  25  33
ATOM     33  O   UNL     1       0.904 -11.130  10.020  1.00  0.00    -0.388 OA
ATOM     34  H   UNL     1       1.746 -11.541  10.351  1.00  0.00     0.211 HD
ENDBRANCH  25  33
ENDBRANCH  11  20
BRANCH  10  35
ATOM     35  O   UNL     1       3.114 -11.283   5.258  1.00  0.00    -0.507 OA
ATOM     36  H   UNL     1       2.356 -10.778   5.701  1.00  0.00     0.293 HD
ENDBRANCH  10  35
TORSDOF 9
ENDMDL
MODEL 8
REMARK VINA RESULT:    -6.217      1.954      2.973
REMARK INTER + INTRA:          -8.071
REMARK INTER:                  -8.648
REMARK INTRA:                   0.577
REMARK UNBOUND:                 0.326
REMARK SMILES O=c1c(-c2ccc(O)cc2)coc2c([C@@H]3O[C@@H](CO)[C@@H](O)[C@@H](O)[C@H]3O)c(O)ccc12
REMARK SMILES IDX 3 1 11 2 12 3 13 4 30 5 2 6 1 7 29 8 28 9 26 10 14 11 4 12
REMARK SMILES IDX 5 13 6 14 7 15 10 16 9 17 8 18 15 20 24 21 16 22 22 23 17 24
REMARK SMILES IDX 20 25 25 26 23 28 18 30 19 31 21 33 27 35
REMARK H PARENT 8 19 25 27 23 29 19 32 21 34 27 36
REMARK Flexibility Score: inf
ROOT
ATOM      1  C   UNL     1       4.504 -15.546   6.591  1.00  0.00     0.065 A 
ATOM      2  C   UNL     1       4.657 -16.017   5.281  1.00  0.00     0.208 A 
ATOM      3  O   UNL     1       4.891 -17.302   5.041  1.00  0.00    -0.463 OA
ATOM      4  C   UNL     1       4.991 -18.221   6.000  1.00  0.00     0.147 A 
ATOM      5  C   UNL     1       4.856 -17.828   7.352  1.00  0.00     0.066 A 
ATOM      6  C   UNL     1       4.599 -16.475   7.642  1.00  0.00     0.200 A 
ATOM      7  O   UNL     1       4.438 -16.100   8.837  1.00  0.00    -0.288 OA
ATOM      8  C   UNL     1       4.981 -18.785   8.366  1.00  0.00     0.020 A 
ATOM      9  C   UNL     1       5.260 -20.107   8.045  1.00  0.00     0.047 A 
ATOM     10  C   UNL     1       5.402 -20.516   6.712  1.00  0.00     0.125 A 
ATOM     11  C   UNL     1       5.229 -19.578   5.654  1.00  0.00     0.069 A 
ENDROOT
BRANCH   1  12
ATOM     12  C   UNL     1       4.246 -14.105   6.835  1.00  0.00    -0.011 A 
ATOM     13  C   UNL     1       5.021 -13.384   7.760  1.00  0.00     0.013 A 
ATOM     14  C   UNL     1       4.779 -12.024   7.978  1.00  0.00     0.047 A 
ATOM     15  C   UNL     1       3.763 -11.368   7.271  1.00  0.00     0.115 A 
ATOM     16  C   UNL     1       3.233 -13.437   6.124  1.00  0.00     0.013 A 
ATOM     17  C   UNL     1       2.993 -12.077   6.344  1.00  0.00     0.047 A 
BRANCH  15  18
ATOM     18  O   UNL     1       3.512 -10.014   7.481  1.00  0.00    -0.508 OA
ATOM     19  H   UNL     1       3.221  -9.405   6.724  1.00  0.00     0.293 HD
ENDBRANCH  15  18
ENDBRANCH   1  12
BRANCH  11  20
ATOM     20  C   UNL     1       5.331 -19.910   4.147  1.00  0.00     0.188 C 
ATOM     21  C   UNL     1       6.074 -21.188   3.671  1.00  0.00     0.179 C 
ATOM     22  O   UNL     1       4.055 -19.839   3.519  1.00  0.00    -0.362 OA
ATOM     23  C   UNL     1       5.214 -22.447   3.936  1.00  0.00     0.177 C 
ATOM     24  C   UNL     1       3.223 -20.926   3.898  1.00  0.00     0.176 C 
ATOM     25  C   UNL     1       3.792 -22.260   3.371  1.00  0.00     0.177 C 
BRANCH  21  26
ATOM     26  O   UNL     1       6.316 -21.064   2.290  1.00  0.00    -0.387 OA
ATOM     27  H   UNL     1       7.066 -21.675   2.064  1.00  0.00     0.211 HD
ENDBRANCH  21  26
BRANCH  23  28
ATOM     28  O   UNL     1       5.831 -23.576   3.372  1.00  0.00    -0.387 OA
ATOM     29  H   UNL     1       6.072 -24.178   4.124  1.00  0.00     0.211 HD
ENDBRANCH  23  28
BRANCH  24  30
ATOM     30  C   UNL     1       1.791 -20.670   3.400  1.00  0.00     0.191 C 
BRANCH  30  31
ATOM     31  O   UNL     1       1.106 -21.871   3.161  1.00  0.00    -0.394 OA
ATOM     32  H   UNL     1       1.787 -22.540   2.887  1.00  0.00     0.210 HD
ENDBRANCH  30  31
ENDBRANCH  24  30
BRANCH  25  33
ATOM     33  O   UNL     1       3.817 -22.257   1.965  1.00  0.00    -0.388 OA
ATOM     34  H   UNL     1       4.186 -23.134   1.681  1.00  0.00     0.211 HD
ENDBRANCH  25  33
ENDBRANCH  11  20
BRANCH  10  35
ATOM     35  O   UNL     1       5.724 -21.849   6.476  1.00  0.00    -0.507 OA
ATOM     36  H   UNL     1       5.369 -22.356   5.674  1.00  0.00     0.293 HD
ENDBRANCH  10  35
TORSDOF 9
ENDMDL
MODEL 9
REMARK VINA RESULT:    -6.171      2.039      3.041
REMARK INTER + INTRA:          -8.009
REMARK INTER:                  -8.140
REMARK INTRA:                   0.131
REMARK UNBOUND:                 0.326
REMARK SMILES O=c1c(-c2ccc(O)cc2)coc2c([C@@H]3O[C@@H](CO)[C@@H](O)[C@@H](O)[C@H]3O)c(O)ccc12
REMARK SMILES IDX 3 1 11 2 12 3 13 4 30 5 2 6 1 7 29 8 28 9 26 10 14 11 4 12
REMARK SMILES IDX 5 13 6 14 7 15 10 16 9 17 8 18 15 20 24 21 16 22 22 23 17 24
REMARK SMILES IDX 20 25 25 26 23 28 18 30 19 31 21 33 27 35
REMARK H PARENT 8 19 25 27 23 29 19 32 21 34 27 36
REMARK Flexibility Score: inf
ROOT
ATOM      1  C   UNL     1       3.260 -15.545   6.243  1.00  0.00     0.065 A 
ATOM      2  C   UNL     1       2.959 -16.749   6.893  1.00  0.00     0.208 A 
ATOM      3  O   UNL     1       2.824 -17.878   6.209  1.00  0.00    -0.463 OA
ATOM      4  C   UNL     1       2.966 -17.956   4.887  1.00  0.00     0.147 A 
ATOM      5  C   UNL     1       3.264 -16.785   4.152  1.00  0.00     0.066 A 
ATOM      6  C   UNL     1       3.422 -15.571   4.847  1.00  0.00     0.200 A 
ATOM      7  O   UNL     1       3.724 -14.516   4.223  1.00  0.00    -0.288 OA
ATOM      8  C   UNL     1       3.393 -16.856   2.761  1.00  0.00     0.020 A 
ATOM      9  C   UNL     1       3.206 -18.065   2.104  1.00  0.00     0.047 A 
ATOM     10  C   UNL     1       2.906 -19.236   2.813  1.00  0.00     0.125 A 
ATOM     11  C   UNL     1       2.818 -19.209   4.235  1.00  0.00     0.069 A 
ENDROOT
BRANCH   1  12
ATOM     12  C   UNL     1       3.403 -14.294   7.029  1.00  0.00    -0.011 A 
ATOM     13  C   UNL     1       2.271 -13.555   7.414  1.00  0.00     0.013 A 
ATOM     14  C   UNL     1       2.412 -12.382   8.162  1.00  0.00     0.047 A 
ATOM     15  C   UNL     1       3.686 -11.937   8.539  1.00  0.00     0.115 A 
ATOM     16  C   UNL     1       4.678 -13.844   7.417  1.00  0.00     0.013 A 
ATOM     17  C   UNL     1       4.816 -12.670   8.166  1.00  0.00     0.047 A 
BRANCH  15  18
ATOM     18  O   UNL     1       3.839 -10.769   9.283  1.00  0.00    -0.508 OA
ATOM     19  H   UNL     1       4.672 -10.196   9.206  1.00  0.00     0.293 HD
ENDBRANCH  15  18
ENDBRANCH   1  12
BRANCH  11  20
ATOM     20  C   UNL     1       2.523 -20.436   5.130  1.00  0.00     0.188 C 
ATOM     21  C   UNL     1       2.372 -21.849   4.504  1.00  0.00     0.179 C 
ATOM     22  O   UNL     1       3.424 -20.495   6.231  1.00  0.00    -0.362 OA
ATOM     23  C   UNL     1       3.756 -22.417   4.106  1.00  0.00     0.177 C 
ATOM     24  C   UNL     1       4.730 -20.870   5.819  1.00  0.00     0.176 C 
ATOM     25  C   UNL     1       4.742 -22.318   5.287  1.00  0.00     0.177 C 
BRANCH  21  26
ATOM     26  O   UNL     1       1.775 -22.690   5.463  1.00  0.00    -0.387 OA
ATOM     27  H   UNL     1       2.489 -22.979   6.090  1.00  0.00     0.211 HD
ENDBRANCH  21  26
BRANCH  23  28
ATOM     28  O   UNL     1       3.621 -23.748   3.678  1.00  0.00    -0.387 OA
ATOM     29  H   UNL     1       2.780 -23.797   3.152  1.00  0.00     0.211 HD
ENDBRANCH  23  28
BRANCH  24  30
ATOM     30  C   UNL     1       5.710 -20.675   6.989  1.00  0.00     0.191 C 
BRANCH  30  31
ATOM     31  O   UNL     1       6.825 -21.518   6.873  1.00  0.00    -0.394 OA
ATOM     32  H   UNL     1       6.631 -22.151   6.133  1.00  0.00     0.210 HD
ENDBRANCH  30  31
ENDBRANCH  24  30
BRANCH  25  33
ATOM     33  O   UNL     1       4.380 -23.215   6.307  1.00  0.00    -0.388 OA
ATOM     34  H   UNL     1       3.900 -22.687   6.999  1.00  0.00     0.211 HD
ENDBRANCH  25  33
ENDBRANCH  11  20
BRANCH  10  35
ATOM     35  O   UNL     1       2.689 -20.398   2.079  1.00  0.00    -0.507 OA
ATOM     36  H   UNL     1       1.943 -21.047   2.302  1.00  0.00     0.293 HD
ENDBRANCH  10  35
TORSDOF 9
ENDMDL
