MODEL 1
REMARK VINA RESULT:    -5.122      0.000      0.000
REMARK INTER + INTRA:          -7.218
REMARK INTER:                  -7.218
REMARK INTRA:                  -0.000
REMARK UNBOUND:                -0.000
REMARK SMILES CC1=CCC(=C(C)C)C(=O)CC(C)=CCC1
REMARK SMILES IDX 12 1 14 2 13 3 15 4 16 5 2 6 1 7 3 8 11 10 9 11 10 12 5 13
REMARK SMILES IDX 6 14 7 15 8 16 4 17
REMARK H PARENT
REMARK Flexibility Score: 60.00
ROOT
ATOM      1  C   UNL     1      -8.284  35.003  25.126  1.00  0.00    -0.070 C 
ATOM      2  C   UNL     1      -8.110  35.468  23.867  1.00  0.00    -0.027 C 
ATOM      3  C   UNL     1      -8.999  35.884  26.116  1.00  0.00     0.039 C 
ENDROOT
BRANCH   2   4
ATOM      4  C   UNL     1      -7.295  34.786  22.799  1.00  0.00     0.032 C 
BRANCH   4   5
ATOM      5  C   UNL     1      -8.198  34.400  21.622  1.00  0.00     0.034 C 
BRANCH   5   6
ATOM      6  C   UNL     1      -7.958  32.981  21.147  1.00  0.00    -0.077 C 
ATOM      7  C   UNL     1      -7.065  32.761  19.952  1.00  0.00     0.039 C 
ATOM      8  C   UNL     1      -8.446  31.886  21.782  1.00  0.00    -0.023 CG0
ATOM      9  G   UNL     1      -9.404  31.852  22.958  1.00  0.00     0.000 G0
ENDBRANCH   5   6
ENDBRANCH   4   5
ENDBRANCH   2   4
BRANCH   1  10
ATOM     10  C   UNL     1      -7.814  33.635  25.581  1.00  0.00     0.111 C 
BRANCH  10  11
ATOM     11  C   UNL     1      -8.881  32.582  25.395  1.00  0.00     0.163 C 
ATOM     12  O   UNL     1      -9.871  32.625  26.174  1.00  0.00    -0.294 OA
BRANCH  11  13
ATOM     13  C   UNL     1      -8.831  31.522  24.334  1.00  0.00    -0.002 C 
ATOM     14  C   UNL     1      -8.419  30.252  24.640  1.00  0.00    -0.069 C 
ATOM     15  C   UNL     1      -8.573  29.105  23.667  1.00  0.00     0.039 C 
ATOM     16  C   UNL     1      -7.738  29.937  25.952  1.00  0.00     0.039 C 
BRANCH  13  17
ATOM     17  C   UNL     1      -9.421  31.853  22.968  1.00  0.00     0.066 CG0
ATOM     18  G   UNL     1      -8.452  31.879  21.801  1.00  0.00     0.000 G0
ENDBRANCH  13  17
ENDBRANCH  11  13
ENDBRANCH  10  11
ENDBRANCH   1  10
TORSDOF 0
ENDMDL
MODEL 2
REMARK VINA RESULT:    -5.017      2.007      5.374
REMARK INTER + INTRA:          -7.070
REMARK INTER:                  -7.186
REMARK INTRA:                   0.115
REMARK UNBOUND:                -0.000
REMARK SMILES CC1=CCC(=C(C)C)C(=O)CC(C)=CCC1
REMARK SMILES IDX 12 1 14 2 13 3 15 4 16 5 2 6 1 7 3 8 11 10 9 11 10 12 5 13
REMARK SMILES IDX 6 14 7 15 8 16 4 17
REMARK H PARENT
REMARK Flexibility Score: 60.00
ROOT
ATOM      1  C   UNL     1      -8.212  29.977  23.174  1.00  0.00    -0.070 C 
ATOM      2  C   UNL     1      -8.511  29.418  24.370  1.00  0.00    -0.027 C 
ATOM      3  C   UNL     1      -8.715  29.298  21.927  1.00  0.00     0.039 C 
ENDROOT
BRANCH   2   4
ATOM      4  C   UNL     1      -7.969  29.879  25.699  1.00  0.00     0.032 C 
BRANCH   4   5
ATOM      5  C   UNL     1      -9.105  30.456  26.552  1.00  0.00     0.034 C 
BRANCH   5   6
ATOM      6  C   UNL     1      -8.798  31.850  27.061  1.00  0.00    -0.077 C 
ATOM      7  C   UNL     1      -8.205  32.001  28.440  1.00  0.00     0.039 C 
ATOM      8  C   UNL     1      -8.959  32.972  26.317  1.00  0.00    -0.023 CG0
ATOM      9  G   UNL     1      -9.585  33.084  24.939  1.00  0.00     0.000 G0
ENDBRANCH   5   6
ENDBRANCH   4   5
ENDBRANCH   2   4
BRANCH   1  10
ATOM     10  C   UNL     1      -7.416  31.260  23.029  1.00  0.00     0.111 C 
BRANCH  10  11
ATOM     11  C   UNL     1      -8.308  32.450  22.769  1.00  0.00     0.163 C 
ATOM     12  O   UNL     1      -8.810  32.550  21.617  1.00  0.00    -0.294 OA
BRANCH  11  13
ATOM     13  C   UNL     1      -8.638  33.488  23.802  1.00  0.00    -0.002 C 
ATOM     14  C   UNL     1      -8.246  34.788  23.631  1.00  0.00    -0.069 C 
ATOM     15  C   UNL     1      -8.752  35.901  24.520  1.00  0.00     0.039 C 
ATOM     16  C   UNL     1      -7.241  35.176  22.570  1.00  0.00     0.039 C 
BRANCH  13  17
ATOM     17  C   UNL     1      -9.570  33.088  24.940  1.00  0.00     0.066 CG0
ATOM     18  G   UNL     1      -8.951  33.002  26.323  1.00  0.00     0.000 G0
ENDBRANCH  13  17
ENDBRANCH  11  13
ENDBRANCH  10  11
ENDBRANCH   1  10
TORSDOF 0
ENDMDL
MODEL 3
REMARK VINA RESULT:    -4.857      1.677      3.684
REMARK INTER + INTRA:          -6.844
REMARK INTER:                  -7.302
REMARK INTRA:                   0.458
REMARK UNBOUND:                -0.000
REMARK SMILES CC1=CCC(=C(C)C)C(=O)CC(C)=CCC1
REMARK SMILES IDX 12 1 14 2 13 3 15 4 16 5 2 6 1 7 3 8 11 10 9 11 10 12 5 13
REMARK SMILES IDX 6 14 7 15 8 16 4 17
REMARK H PARENT
REMARK Flexibility Score: 60.00
ROOT
ATOM      1  C   UNL     1      -7.582  33.343  21.181  1.00  0.00    -0.070 C 
ATOM      2  C   UNL     1      -7.450  34.561  21.756  1.00  0.00    -0.027 C 
ATOM      3  C   UNL     1      -7.787  33.281  19.690  1.00  0.00     0.039 C 
ENDROOT
BRANCH   2   4
ATOM      4  C   UNL     1      -7.387  34.813  23.241  1.00  0.00     0.032 C 
BRANCH   4   5
ATOM      5  C   UNL     1      -8.764  34.571  23.870  1.00  0.00     0.034 C 
BRANCH   5   6
ATOM      6  C   UNL     1      -8.672  33.940  25.244  1.00  0.00    -0.077 C 
ATOM      7  C   UNL     1      -7.930  34.680  26.330  1.00  0.00     0.039 C 
ATOM      8  C   UNL     1      -9.282  32.775  25.577  1.00  0.00    -0.023 CG0
ATOM      9  G   UNL     1     -10.029  31.829  24.656  1.00  0.00     0.000 G0
ENDBRANCH   5   6
ENDBRANCH   4   5
ENDBRANCH   2   4
BRANCH   1  10
ATOM     10  C   UNL     1      -7.514  32.043  21.957  1.00  0.00     0.111 C 
BRANCH  10  11
ATOM     11  C   UNL     1      -8.886  31.544  22.344  1.00  0.00     0.163 C 
ATOM     12  O   UNL     1      -9.785  31.598  21.461  1.00  0.00    -0.294 OA
BRANCH  11  13
ATOM     13  C   UNL     1      -9.220  30.981  23.694  1.00  0.00    -0.002 C 
ATOM     14  C   UNL     1      -8.660  29.804  24.114  1.00  0.00    -0.069 C 
ATOM     15  C   UNL     1      -8.784  29.323  25.541  1.00  0.00     0.039 C 
ATOM     16  C   UNL     1      -7.929  28.892  23.156  1.00  0.00     0.039 C 
BRANCH  13  17
ATOM     17  C   UNL     1     -10.046  31.844  24.641  1.00  0.00     0.066 CG0
ATOM     18  G   UNL     1      -9.271  32.768  25.562  1.00  0.00     0.000 G0
ENDBRANCH  13  17
ENDBRANCH  11  13
ENDBRANCH  10  11
ENDBRANCH   1  10
TORSDOF 0
ENDMDL
MODEL 4
REMARK VINA RESULT:    -4.627      1.827      3.554
REMARK INTER + INTRA:          -6.520
REMARK INTER:                  -7.153
REMARK INTRA:                   0.633
REMARK UNBOUND:                -0.000
REMARK SMILES CC1=CCC(=C(C)C)C(=O)CC(C)=CCC1
REMARK SMILES IDX 12 1 14 2 13 3 15 4 16 5 2 6 1 7 3 8 11 10 9 11 10 12 5 13
REMARK SMILES IDX 6 14 7 15 8 16 4 17
REMARK H PARENT
REMARK Flexibility Score: 60.00
ROOT
ATOM      1  C   UNL     1      -7.569  30.538  22.804  1.00  0.00    -0.070 C 
ATOM      2  C   UNL     1      -7.307  31.630  22.049  1.00  0.00    -0.027 C 
ATOM      3  C   UNL     1      -6.418  29.871  23.510  1.00  0.00     0.039 C 
ENDROOT
BRANCH   2   4
ATOM      4  C   UNL     1      -8.306  32.329  21.163  1.00  0.00     0.032 C 
BRANCH   4   5
ATOM      5  C   UNL     1      -9.131  33.322  21.990  1.00  0.00     0.034 C 
BRANCH   5   6
ATOM      6  C   UNL     1      -8.372  33.849  23.191  1.00  0.00    -0.077 C 
ATOM      7  C   UNL     1      -7.275  34.860  22.964  1.00  0.00     0.039 C 
ATOM      8  C   UNL     1      -8.671  33.517  24.472  1.00  0.00    -0.023 CG0
ATOM      9  G   UNL     1      -9.681  32.490  24.947  1.00  0.00     0.000 G0
ENDBRANCH   5   6
ENDBRANCH   4   5
ENDBRANCH   2   4
BRANCH   1  10
ATOM     10  C   UNL     1      -8.962  29.969  22.990  1.00  0.00     0.111 C 
BRANCH  10  11
ATOM     11  C   UNL     1      -9.386  29.978  24.439  1.00  0.00     0.163 C 
ATOM     12  O   UNL     1      -9.956  28.942  24.877  1.00  0.00    -0.294 OA
BRANCH  11  13
ATOM     13  C   UNL     1      -9.146  31.129  25.372  1.00  0.00    -0.002 C 
ATOM     14  C   UNL     1      -8.328  30.984  26.459  1.00  0.00    -0.069 C 
ATOM     15  C   UNL     1      -7.877  32.168  27.285  1.00  0.00     0.039 C 
ATOM     16  C   UNL     1      -7.869  29.622  26.926  1.00  0.00     0.039 C 
BRANCH  13  17
ATOM     17  C   UNL     1      -9.689  32.496  24.969  1.00  0.00     0.066 CG0
ATOM     18  G   UNL     1      -8.671  33.512  24.486  1.00  0.00     0.000 G0
ENDBRANCH  13  17
ENDBRANCH  11  13
ENDBRANCH  10  11
ENDBRANCH   1  10
TORSDOF 0
ENDMDL
MODEL 5
REMARK VINA RESULT:    -4.569      1.734      3.118
REMARK INTER + INTRA:          -6.439
REMARK INTER:                  -6.522
REMARK INTRA:                   0.083
REMARK UNBOUND:                -0.000
REMARK SMILES CC1=CCC(=C(C)C)C(=O)CC(C)=CCC1
REMARK SMILES IDX 12 1 14 2 13 3 15 4 16 5 2 6 1 7 3 8 11 10 9 11 10 12 5 13
REMARK SMILES IDX 6 14 7 15 8 16 4 17
REMARK H PARENT
REMARK Flexibility Score: 60.00
ROOT
ATOM      1  C   UNL     1      -7.703  34.114  22.147  1.00  0.00    -0.070 C 
ATOM      2  C   UNL     1      -8.054  33.392  21.057  1.00  0.00    -0.027 C 
ATOM      3  C   UNL     1      -7.664  35.614  22.023  1.00  0.00     0.039 C 
ENDROOT
BRANCH   2   4
ATOM      4  C   UNL     1      -8.004  31.889  20.963  1.00  0.00     0.032 C 
BRANCH   4   5
ATOM      5  C   UNL     1      -9.319  31.290  21.475  1.00  0.00     0.034 C 
BRANCH   5   6
ATOM      6  C   UNL     1      -9.099  30.190  22.492  1.00  0.00    -0.077 C 
ATOM      7  C   UNL     1      -8.487  28.891  22.029  1.00  0.00     0.039 C 
ATOM      8  C   UNL     1      -9.354  30.331  23.817  1.00  0.00    -0.023 CG0
ATOM      9  G   UNL     1     -10.016  31.508  24.509  1.00  0.00     0.000 G0
ENDBRANCH   5   6
ENDBRANCH   4   5
ENDBRANCH   2   4
BRANCH   1  10
ATOM     10  C   UNL     1      -7.368  33.489  23.488  1.00  0.00     0.111 C 
BRANCH  10  11
ATOM     11  C   UNL     1      -8.509  33.616  24.469  1.00  0.00     0.163 C 
ATOM     12  O   UNL     1      -9.014  34.762  24.615  1.00  0.00    -0.294 OA
BRANCH  11  13
ATOM     13  C   UNL     1      -9.073  32.465  25.248  1.00  0.00    -0.002 C 
ATOM     14  C   UNL     1      -8.885  32.382  26.601  1.00  0.00    -0.069 C 
ATOM     15  C   UNL     1      -9.624  31.374  27.453  1.00  0.00     0.039 C 
ATOM     16  C   UNL     1      -7.884  33.262  27.314  1.00  0.00     0.039 C 
BRANCH  13  17
ATOM     17  C   UNL     1     -10.007  31.503  24.521  1.00  0.00     0.066 CG0
ATOM     18  G   UNL     1      -9.353  30.326  23.820  1.00  0.00     0.000 G0
ENDBRANCH  13  17
ENDBRANCH  11  13
ENDBRANCH  10  11
ENDBRANCH   1  10
TORSDOF 0
ENDMDL
MODEL 6
REMARK VINA RESULT:    -4.495      1.387      1.820
REMARK INTER + INTRA:          -6.335
REMARK INTER:                  -6.974
REMARK INTRA:                   0.640
REMARK UNBOUND:                -0.000
REMARK SMILES CC1=CCC(=C(C)C)C(=O)CC(C)=CCC1
REMARK SMILES IDX 12 1 14 2 13 3 15 4 16 5 2 6 1 7 3 8 11 10 9 11 10 12 5 13
REMARK SMILES IDX 6 14 7 15 8 16 4 17
REMARK H PARENT
REMARK Flexibility Score: 60.00
ROOT
ATOM      1  C   UNL     1      -7.991  34.632  24.082  1.00  0.00    -0.070 C 
ATOM      2  C   UNL     1      -7.677  34.797  22.776  1.00  0.00    -0.027 C 
ATOM      3  C   UNL     1      -7.127  35.312  25.112  1.00  0.00     0.039 C 
ENDROOT
BRANCH   2   4
ATOM      4  C   UNL     1      -8.338  34.076  21.630  1.00  0.00     0.032 C 
BRANCH   4   5
ATOM      5  C   UNL     1      -7.677  32.708  21.424  1.00  0.00     0.034 C 
BRANCH   5   6
ATOM      6  C   UNL     1      -8.644  31.559  21.625  1.00  0.00    -0.077 C 
ATOM      7  C   UNL     1      -9.601  31.219  20.510  1.00  0.00     0.039 C 
ATOM      8  C   UNL     1      -8.650  30.769  22.727  1.00  0.00    -0.023 CG0
ATOM      9  G   UNL     1      -7.831  30.943  23.992  1.00  0.00     0.000 G0
ENDBRANCH   5   6
ENDBRANCH   4   5
ENDBRANCH   2   4
BRANCH   1  10
ATOM     10  C   UNL     1      -9.177  33.815  24.557  1.00  0.00     0.111 C 
BRANCH  10  11
ATOM     11  C   UNL     1      -8.773  32.773  25.574  1.00  0.00     0.163 C 
ATOM     12  O   UNL     1      -8.575  33.171  26.754  1.00  0.00    -0.294 OA
BRANCH  11  13
ATOM     13  C   UNL     1      -8.619  31.314  25.258  1.00  0.00    -0.002 C 
ATOM     14  C   UNL     1      -9.299  30.372  25.981  1.00  0.00    -0.069 C 
ATOM     15  C   UNL     1      -9.357  28.923  25.554  1.00  0.00     0.039 C 
ATOM     16  C   UNL     1      -9.991  30.720  27.280  1.00  0.00     0.039 C 
BRANCH  13  17
ATOM     17  C   UNL     1      -7.837  30.935  24.006  1.00  0.00     0.066 CG0
ATOM     18  G   UNL     1      -8.643  30.764  22.732  1.00  0.00     0.000 G0
ENDBRANCH  13  17
ENDBRANCH  11  13
ENDBRANCH  10  11
ENDBRANCH   1  10
TORSDOF 0
ENDMDL
MODEL 7
REMARK VINA RESULT:    -4.344      1.726      4.171
REMARK INTER + INTRA:          -6.121
REMARK INTER:                  -6.798
REMARK INTRA:                   0.677
REMARK UNBOUND:                -0.000
REMARK SMILES CC1=CCC(=C(C)C)C(=O)CC(C)=CCC1
REMARK SMILES IDX 12 1 14 2 13 3 15 4 16 5 2 6 1 7 3 8 11 10 9 11 10 12 5 13
REMARK SMILES IDX 6 14 7 15 8 16 4 17
REMARK H PARENT
REMARK Flexibility Score: 60.00
ROOT
ATOM      1  C   UNL     1      -8.485  31.009  26.193  1.00  0.00    -0.070 C 
ATOM      2  C   UNL     1      -8.231  31.998  27.081  1.00  0.00    -0.027 C 
ATOM      3  C   UNL     1      -7.713  29.722  26.323  1.00  0.00     0.039 C 
ENDROOT
BRANCH   2   4
ATOM      4  C   UNL     1      -8.799  33.391  27.009  1.00  0.00     0.032 C 
BRANCH   4   5
ATOM      5  C   UNL     1      -7.837  34.307  26.243  1.00  0.00     0.034 C 
BRANCH   5   6
ATOM      6  C   UNL     1      -8.435  34.824  24.950  1.00  0.00    -0.077 C 
ATOM      7  C   UNL     1      -9.236  36.102  24.985  1.00  0.00     0.039 C 
ATOM      8  C   UNL     1      -8.229  34.241  23.743  1.00  0.00    -0.023 CG0
ATOM      9  G   UNL     1      -7.515  32.932  23.460  1.00  0.00     0.000 G0
ENDBRANCH   5   6
ENDBRANCH   4   5
ENDBRANCH   2   4
BRANCH   1  10
ATOM     10  C   UNL     1      -9.520  31.125  25.091  1.00  0.00     0.111 C 
BRANCH  10  11
ATOM     11  C   UNL     1      -8.939  30.795  23.736  1.00  0.00     0.163 C 
ATOM     12  O   UNL     1      -8.994  29.590  23.367  1.00  0.00    -0.294 OA
BRANCH  11  13
ATOM     13  C   UNL     1      -8.331  31.814  22.818  1.00  0.00    -0.002 C 
ATOM     14  C   UNL     1      -8.652  31.829  21.487  1.00  0.00    -0.069 C 
ATOM     15  C   UNL     1      -8.250  32.969  20.579  1.00  0.00     0.039 C 
ATOM     16  C   UNL     1      -9.385  30.677  20.838  1.00  0.00     0.039 C 
BRANCH  13  17
ATOM     17  C   UNL     1      -7.502  32.930  23.442  1.00  0.00     0.066 CG0
ATOM     18  G   UNL     1      -8.230  34.227  23.740  1.00  0.00     0.000 G0
ENDBRANCH  13  17
ENDBRANCH  11  13
ENDBRANCH  10  11
ENDBRANCH   1  10
TORSDOF 0
ENDMDL
MODEL 8
REMARK VINA RESULT:    -4.151      1.880      3.777
REMARK INTER + INTRA:          -5.850
REMARK INTER:                  -6.833
REMARK INTRA:                   0.983
REMARK UNBOUND:                -0.000
REMARK SMILES CC1=CCC(=C(C)C)C(=O)CC(C)=CCC1
REMARK SMILES IDX 12 1 14 2 13 3 15 4 16 5 2 6 1 7 3 8 11 10 9 11 10 12 5 13
REMARK SMILES IDX 6 14 7 15 8 16 4 17
REMARK H PARENT
REMARK Flexibility Score: 60.00
ROOT
ATOM      1  C   UNL     1      -8.169  34.520  23.622  1.00  0.00    -0.070 C 
ATOM      2  C   UNL     1      -7.566  34.767  24.808  1.00  0.00    -0.027 C 
ATOM      3  C   UNL     1      -7.432  34.890  22.361  1.00  0.00     0.039 C 
ENDROOT
BRANCH   2   4
ATOM      4  C   UNL     1      -8.214  34.599  26.158  1.00  0.00     0.032 C 
BRANCH   4   5
ATOM      5  C   UNL     1      -9.156  33.389  26.137  1.00  0.00     0.034 C 
BRANCH   5   6
ATOM      6  C   UNL     1      -8.449  32.095  26.486  1.00  0.00    -0.077 C 
ATOM      7  C   UNL     1      -7.564  32.064  27.707  1.00  0.00     0.039 C 
ATOM      8  C   UNL     1      -8.623  30.937  25.802  1.00  0.00    -0.023 CG0
ATOM      9  G   UNL     1      -9.409  30.732  24.520  1.00  0.00     0.000 G0
ENDBRANCH   5   6
ENDBRANCH   4   5
ENDBRANCH   2   4
BRANCH   1  10
ATOM     10  C   UNL     1      -9.535  33.873  23.500  1.00  0.00     0.111 C 
BRANCH  10  11
ATOM     11  C   UNL     1      -9.478  32.582  22.718  1.00  0.00     0.163 C 
ATOM     12  O   UNL     1      -9.978  32.591  21.561  1.00  0.00    -0.294 OA
BRANCH  11  13
ATOM     13  C   UNL     1      -8.850  31.321  23.234  1.00  0.00    -0.002 C 
ATOM     14  C   UNL     1      -7.705  30.832  22.665  1.00  0.00    -0.069 C 
ATOM     15  C   UNL     1      -6.917  29.706  23.295  1.00  0.00     0.039 C 
ATOM     16  C   UNL     1      -7.193  31.359  21.345  1.00  0.00     0.039 C 
BRANCH  13  17
ATOM     17  C   UNL     1      -9.418  30.714  24.512  1.00  0.00     0.066 CG0
ATOM     18  G   UNL     1      -8.622  30.947  25.783  1.00  0.00     0.000 G0
ENDBRANCH  13  17
ENDBRANCH  11  13
ENDBRANCH  10  11
ENDBRANCH   1  10
TORSDOF 0
ENDMDL
MODEL 9
REMARK VINA RESULT:    -3.465     17.190     18.686
REMARK INTER + INTRA:          -4.883
REMARK INTER:                  -5.220
REMARK INTRA:                   0.338
REMARK UNBOUND:                -0.000
REMARK SMILES CC1=CCC(=C(C)C)C(=O)CC(C)=CCC1
REMARK SMILES IDX 12 1 14 2 13 3 15 4 16 5 2 6 1 7 3 8 11 10 9 11 10 12 5 13
REMARK SMILES IDX 6 14 7 15 8 16 4 17
REMARK H PARENT
REMARK Flexibility Score: 60.00
ROOT
ATOM      1  C   UNL     1      -0.445  45.284  13.721  1.00  0.00    -0.070 C 
ATOM      2  C   UNL     1      -1.366  45.207  12.733  1.00  0.00    -0.027 C 
ATOM      3  C   UNL     1      -0.134  44.032  14.500  1.00  0.00     0.039 C 
ENDROOT
BRANCH   2   4
ATOM      4  C   UNL     1      -1.901  46.384  11.958  1.00  0.00     0.032 C 
BRANCH   4   5
ATOM      5  C   UNL     1      -3.421  46.480  12.139  1.00  0.00     0.034 C 
BRANCH   5   6
ATOM      6  C   UNL     1      -3.843  47.754  12.841  1.00  0.00    -0.077 C 
ATOM      7  C   UNL     1      -4.495  48.844  12.027  1.00  0.00     0.039 C 
ATOM      8  C   UNL     1      -3.733  47.944  14.179  1.00  0.00    -0.023 CG0
ATOM      9  G   UNL     1      -3.068  47.029  15.190  1.00  0.00     0.000 G0
ENDBRANCH   5   6
ENDBRANCH   4   5
ENDBRANCH   2   4
BRANCH   1  10
ATOM     10  C   UNL     1       0.303  46.557  14.067  1.00  0.00     0.111 C 
BRANCH  10  11
ATOM     11  C   UNL     1      -0.624  47.630  14.588  1.00  0.00     0.163 C 
ATOM     12  O   UNL     1      -0.517  48.777  14.076  1.00  0.00    -0.294 OA
BRANCH  11  13
ATOM     13  C   UNL     1      -1.659  47.396  15.649  1.00  0.00    -0.002 C 
ATOM     14  C   UNL     1      -1.381  47.665  16.963  1.00  0.00    -0.069 C 
ATOM     15  C   UNL     1      -2.457  47.667  18.024  1.00  0.00     0.039 C 
ATOM     16  C   UNL     1       0.032  47.926  17.433  1.00  0.00     0.039 C 
BRANCH  13  17
ATOM     17  C   UNL     1      -3.069  47.032  15.200  1.00  0.00     0.066 CG0
ATOM     18  G   UNL     1      -3.721  47.964  14.195  1.00  0.00     0.000 G0
ENDBRANCH  13  17
ENDBRANCH  11  13
ENDBRANCH  10  11
ENDBRANCH   1  10
TORSDOF 0
ENDMDL
