MODEL 1
REMARK VINA RESULT:    12.890      0.000      0.000
REMARK INTER + INTRA:          19.750
REMARK INTER:                  20.425
REMARK INTRA:                  -0.676
REMARK UNBOUND:                -0.676
REMARK SMILES CCCCCCCCCCCC(=O)[O-]
REMARK SMILES IDX 7 1 8 2 9 3 10 4 11 5 12 6 13 7 14 8 6 9 5 10 4 11 3 12 2 13
REMARK SMILES IDX 1 14
REMARK H PARENT
REMARK Flexibility Score: inf
ROOT
ATOM      1  C   UNL     1      52.886  56.262  24.680  1.00  0.00     0.000 C 
ENDROOT
BRANCH   1   2
ATOM      2  C   UNL     1      52.623  56.342  26.194  1.00  0.00     0.000 C 
BRANCH   2   3
ATOM      3  C   UNL     1      53.342  55.274  27.038  1.00  0.00     0.000 C 
BRANCH   3   4
ATOM      4  C   UNL     1      52.478  54.742  28.195  1.00  0.00     0.006 C 
BRANCH   4   5
ATOM      5  C   UNL     1      52.352  53.213  28.168  1.00  0.00     0.053 C 
BRANCH   5   6
ATOM      6  C   UNL     1      51.070  52.749  28.787  1.00  0.00     0.041 C 
ATOM      7  O   UNL     1      50.320  51.949  28.168  1.00  0.00    -0.550 OA
ATOM      8  O   UNL     1      50.716  53.179  30.059  1.00  0.00    -0.550 OA
ENDBRANCH   5   6
ENDBRANCH   4   5
ENDBRANCH   3   4
ENDBRANCH   2   3
ENDBRANCH   1   2
BRANCH   1   9
ATOM      9  C   UNL     1      54.204  56.932  24.263  1.00  0.00     0.000 C 
BRANCH   9  10
ATOM     10  C   UNL     1      55.236  55.887  23.824  1.00  0.00    -0.000 C 
BRANCH  10  11
ATOM     11  C   UNL     1      56.620  56.199  24.415  1.00  0.00    -0.000 C 
BRANCH  11  12
ATOM     12  C   UNL     1      56.547  57.124  25.639  1.00  0.00    -0.000 C 
BRANCH  12  13
ATOM     13  C   UNL     1      57.846  57.125  26.458  1.00  0.00    -0.003 C 
ATOM     14  C   UNL     1      58.482  55.739  26.481  1.00  0.00     0.004 C 
ENDBRANCH  12  13
ENDBRANCH  11  12
ENDBRANCH  10  11
ENDBRANCH   9  10
ENDBRANCH   1   9
TORSDOF 10
ENDMDL
MODEL 2
REMARK VINA RESULT:    12.961      3.384      6.446
REMARK INTER + INTRA:          19.862
REMARK INTER:                  19.810
REMARK INTRA:                   0.052
REMARK UNBOUND:                -0.676
REMARK SMILES CCCCCCCCCCCC(=O)[O-]
REMARK SMILES IDX 7 1 8 2 9 3 10 4 11 5 12 6 13 7 14 8 6 9 5 10 4 11 3 12 2 13
REMARK SMILES IDX 1 14
REMARK H PARENT
REMARK Flexibility Score: inf
ROOT
ATOM      1  C   UNL     1      53.508  55.596  26.299  1.00  0.00     0.000 C 
ENDROOT
BRANCH   1   2
ATOM      2  C   UNL     1      53.415  56.507  25.062  1.00  0.00     0.000 C 
BRANCH   2   3
ATOM      3  C   UNL     1      54.113  55.967  23.800  1.00  0.00     0.000 C 
BRANCH   3   4
ATOM      4  C   UNL     1      55.647  55.981  23.912  1.00  0.00     0.006 C 
BRANCH   4   5
ATOM      5  C   UNL     1      56.137  56.900  25.039  1.00  0.00     0.053 C 
BRANCH   5   6
ATOM      6  C   UNL     1      57.297  56.306  25.777  1.00  0.00     0.041 C 
ATOM      7  O   UNL     1      57.515  55.067  25.724  1.00  0.00    -0.550 OA
ATOM      8  O   UNL     1      58.154  57.125  26.501  1.00  0.00    -0.550 OA
ENDBRANCH   5   6
ENDBRANCH   4   5
ENDBRANCH   3   4
ENDBRANCH   2   3
ENDBRANCH   1   2
BRANCH   1   9
ATOM      9  C   UNL     1      52.518  55.986  27.408  1.00  0.00     0.000 C 
BRANCH   9  10
ATOM     10  C   UNL     1      52.219  54.793  28.322  1.00  0.00    -0.000 C 
BRANCH  10  11
ATOM     11  C   UNL     1      52.947  53.531  27.836  1.00  0.00    -0.000 C 
BRANCH  11  12
ATOM     12  C   UNL     1      52.126  52.251  28.057  1.00  0.00    -0.000 C 
BRANCH  12  13
ATOM     13  C   UNL     1      50.684  52.543  28.500  1.00  0.00    -0.003 C 
ATOM     14  C   UNL     1      50.602  52.738  30.010  1.00  0.00     0.004 C 
ENDBRANCH  12  13
ENDBRANCH  11  12
ENDBRANCH  10  11
ENDBRANCH   9  10
ENDBRANCH   1   9
TORSDOF 10
ENDMDL
MODEL 3
REMARK VINA RESULT:    13.284      9.683     11.254
REMARK INTER + INTRA:          20.375
REMARK INTER:                  20.928
REMARK INTRA:                  -0.553
REMARK UNBOUND:                -0.676
REMARK SMILES CCCCCCCCCCCC(=O)[O-]
REMARK SMILES IDX 7 1 8 2 9 3 10 4 11 5 12 6 13 7 14 8 6 9 5 10 4 11 3 12 2 13
REMARK SMILES IDX 1 14
REMARK H PARENT
REMARK Flexibility Score: inf
ROOT
ATOM      1  C   UNL     1      57.337  47.831  18.467  1.00  0.00     0.000 C 
ENDROOT
BRANCH   1   2
ATOM      2  C   UNL     1      55.964  47.826  19.164  1.00  0.00     0.000 C 
BRANCH   2   3
ATOM      3  C   UNL     1      55.979  47.367  20.633  1.00  0.00     0.000 C 
BRANCH   3   4
ATOM      4  C   UNL     1      56.866  48.250  21.527  1.00  0.00     0.006 C 
BRANCH   4   5
ATOM      5  C   UNL     1      57.779  47.418  22.438  1.00  0.00     0.053 C 
BRANCH   5   6
ATOM      6  C   UNL     1      56.993  46.558  23.378  1.00  0.00     0.041 C 
ATOM      7  O   UNL     1      56.330  47.082  24.312  1.00  0.00    -0.550 OA
ATOM      8  O   UNL     1      56.970  45.180  23.206  1.00  0.00    -0.550 OA
ENDBRANCH   5   6
ENDBRANCH   4   5
ENDBRANCH   3   4
ENDBRANCH   2   3
ENDBRANCH   1   2
BRANCH   1   9
ATOM      9  C   UNL     1      57.273  48.334  17.017  1.00  0.00     0.000 C 
BRANCH   9  10
ATOM     10  C   UNL     1      55.946  49.051  16.742  1.00  0.00    -0.000 C 
BRANCH  10  11
ATOM     11  C   UNL     1      56.185  50.409  16.064  1.00  0.00    -0.000 C 
BRANCH  11  12
ATOM     12  C   UNL     1      55.002  50.851  15.189  1.00  0.00    -0.000 C 
BRANCH  12  13
ATOM     13  C   UNL     1      53.955  49.742  15.007  1.00  0.00    -0.003 C 
ATOM     14  C   UNL     1      52.638  50.113  15.682  1.00  0.00     0.004 C 
ENDBRANCH  12  13
ENDBRANCH  11  12
ENDBRANCH  10  11
ENDBRANCH   9  10
ENDBRANCH   1   9
TORSDOF 10
ENDMDL
MODEL 4
REMARK VINA RESULT:    13.402      9.942     11.628
REMARK INTER + INTRA:          20.561
REMARK INTER:                  21.037
REMARK INTRA:                  -0.476
REMARK UNBOUND:                -0.676
REMARK SMILES CCCCCCCCCCCC(=O)[O-]
REMARK SMILES IDX 7 1 8 2 9 3 10 4 11 5 12 6 13 7 14 8 6 9 5 10 4 11 3 12 2 13
REMARK SMILES IDX 1 14
REMARK H PARENT
REMARK Flexibility Score: inf
ROOT
ATOM      1  C   UNL     1      57.132  48.197  17.054  1.00  0.00     0.000 C 
ENDROOT
BRANCH   1   2
ATOM      2  C   UNL     1      57.213  47.749  18.525  1.00  0.00     0.000 C 
BRANCH   2   3
ATOM      3  C   UNL     1      55.909  47.905  19.328  1.00  0.00     0.000 C 
BRANCH   3   4
ATOM      4  C   UNL     1      55.972  47.236  20.711  1.00  0.00     0.006 C 
BRANCH   4   5
ATOM      5  C   UNL     1      56.781  48.064  21.718  1.00  0.00     0.053 C 
BRANCH   5   6
ATOM      6  C   UNL     1      57.622  47.197  22.604  1.00  0.00     0.041 C 
ATOM      7  O   UNL     1      57.077  46.416  23.427  1.00  0.00    -0.550 OA
ATOM      8  O   UNL     1      59.006  47.232  22.500  1.00  0.00    -0.550 OA
ENDBRANCH   5   6
ENDBRANCH   4   5
ENDBRANCH   3   4
ENDBRANCH   2   3
ENDBRANCH   1   2
BRANCH   1   9
ATOM      9  C   UNL     1      55.995  49.197  16.793  1.00  0.00     0.000 C 
BRANCH   9  10
ATOM     10  C   UNL     1      56.478  50.365  15.927  1.00  0.00    -0.000 C 
BRANCH  10  11
ATOM     11  C   UNL     1      55.383  50.814  14.947  1.00  0.00    -0.000 C 
BRANCH  11  12
ATOM     12  C   UNL     1      54.092  49.994  15.086  1.00  0.00    -0.000 C 
BRANCH  12  13
ATOM     13  C   UNL     1      52.831  50.871  15.084  1.00  0.00    -0.003 C 
ATOM     14  C   UNL     1      51.615  50.086  15.566  1.00  0.00     0.004 C 
ENDBRANCH  12  13
ENDBRANCH  11  12
ENDBRANCH  10  11
ENDBRANCH   9  10
ENDBRANCH   1   9
TORSDOF 10
ENDMDL
MODEL 5
REMARK VINA RESULT:    13.413     12.974     14.387
REMARK INTER + INTRA:          20.579
REMARK INTER:                  20.797
REMARK INTRA:                  -0.218
REMARK UNBOUND:                -0.676
REMARK SMILES CCCCCCCCCCCC(=O)[O-]
REMARK SMILES IDX 7 1 8 2 9 3 10 4 11 5 12 6 13 7 14 8 6 9 5 10 4 11 3 12 2 13
REMARK SMILES IDX 1 14
REMARK H PARENT
REMARK Flexibility Score: inf
ROOT
ATOM      1  C   UNL     1      55.576  43.560  20.064  1.00  0.00     0.000 C 
ENDROOT
BRANCH   1   2
ATOM      2  C   UNL     1      56.213  44.856  20.600  1.00  0.00     0.000 C 
BRANCH   2   3
ATOM      3  C   UNL     1      55.527  46.157  20.145  1.00  0.00     0.000 C 
BRANCH   3   4
ATOM      4  C   UNL     1      56.486  47.358  20.103  1.00  0.00     0.006 C 
BRANCH   4   5
ATOM      5  C   UNL     1      56.541  48.102  21.443  1.00  0.00     0.053 C 
BRANCH   5   6
ATOM      6  C   UNL     1      57.314  47.338  22.473  1.00  0.00     0.041 C 
ATOM      7  O   UNL     1      58.559  47.192  22.352  1.00  0.00    -0.550 OA
ATOM      8  O   UNL     1      56.664  46.810  23.581  1.00  0.00    -0.550 OA
ENDBRANCH   5   6
ENDBRANCH   4   5
ENDBRANCH   3   4
ENDBRANCH   2   3
ENDBRANCH   1   2
BRANCH   1   9
ATOM      9  C   UNL     1      55.930  42.325  20.906  1.00  0.00     0.000 C 
BRANCH   9  10
ATOM     10  C   UNL     1      54.781  41.310  20.903  1.00  0.00    -0.000 C 
BRANCH  10  11
ATOM     11  C   UNL     1      55.266  39.929  21.372  1.00  0.00    -0.000 C 
BRANCH  11  12
ATOM     12  C   UNL     1      56.406  39.375  20.504  1.00  0.00    -0.000 C 
BRANCH  12  13
ATOM     13  C   UNL     1      57.355  38.458  21.289  1.00  0.00    -0.003 C 
ATOM     14  C   UNL     1      56.836  37.024  21.315  1.00  0.00     0.004 C 
ENDBRANCH  12  13
ENDBRANCH  11  12
ENDBRANCH  10  11
ENDBRANCH   9  10
ENDBRANCH   1   9
TORSDOF 10
ENDMDL
MODEL 6
REMARK VINA RESULT:    13.845     10.588     11.941
REMARK INTER + INTRA:          21.263
REMARK INTER:                  21.222
REMARK INTRA:                   0.040
REMARK UNBOUND:                -0.676
REMARK SMILES CCCCCCCCCCCC(=O)[O-]
REMARK SMILES IDX 7 1 8 2 9 3 10 4 11 5 12 6 13 7 14 8 6 9 5 10 4 11 3 12 2 13
REMARK SMILES IDX 1 14
REMARK H PARENT
REMARK Flexibility Score: inf
ROOT
ATOM      1  C   UNL     1      57.122  47.544  18.451  1.00  0.00     0.000 C 
ENDROOT
BRANCH   1   2
ATOM      2  C   UNL     1      57.104  48.424  17.188  1.00  0.00     0.000 C 
BRANCH   2   3
ATOM      3  C   UNL     1      55.813  49.237  16.978  1.00  0.00     0.000 C 
BRANCH   3   4
ATOM      4  C   UNL     1      56.011  50.448  16.052  1.00  0.00     0.006 C 
BRANCH   4   5
ATOM      5  C   UNL     1      55.027  50.445  14.875  1.00  0.00     0.053 C 
BRANCH   5   6
ATOM      6  C   UNL     1      53.638  50.094  15.312  1.00  0.00     0.041 C 
ATOM      7  O   UNL     1      52.706  50.932  15.196  1.00  0.00    -0.550 OA
ATOM      8  O   UNL     1      53.368  48.830  15.822  1.00  0.00    -0.550 OA
ENDBRANCH   5   6
ENDBRANCH   4   5
ENDBRANCH   3   4
ENDBRANCH   2   3
ENDBRANCH   1   2
BRANCH   1   9
ATOM      9  C   UNL     1      56.305  48.138  19.609  1.00  0.00     0.000 C 
BRANCH   9  10
ATOM     10  C   UNL     1      55.717  47.031  20.492  1.00  0.00    -0.000 C 
BRANCH  10  11
ATOM     11  C   UNL     1      56.711  46.615  21.587  1.00  0.00    -0.000 C 
BRANCH  11  12
ATOM     12  C   UNL     1      57.578  47.785  22.076  1.00  0.00    -0.000 C 
BRANCH  12  13
ATOM     13  C   UNL     1      59.000  47.348  22.458  1.00  0.00    -0.003 C 
ATOM     14  C   UNL     1      60.045  48.253  21.812  1.00  0.00     0.004 C 
ENDBRANCH  12  13
ENDBRANCH  11  12
ENDBRANCH  10  11
ENDBRANCH   9  10
ENDBRANCH   1   9
TORSDOF 10
ENDMDL
MODEL 7
REMARK VINA RESULT:    13.864     11.868     13.034
REMARK INTER + INTRA:          21.293
REMARK INTER:                  21.672
REMARK INTRA:                  -0.379
REMARK UNBOUND:                -0.676
REMARK SMILES CCCCCCCCCCCC(=O)[O-]
REMARK SMILES IDX 7 1 8 2 9 3 10 4 11 5 12 6 13 7 14 8 6 9 5 10 4 11 3 12 2 13
REMARK SMILES IDX 1 14
REMARK H PARENT
REMARK Flexibility Score: inf
ROOT
ATOM      1  C   UNL     1      56.125  46.937  20.580  1.00  0.00     0.000 C 
ENDROOT
BRANCH   1   2
ATOM      2  C   UNL     1      55.594  45.571  20.109  1.00  0.00     0.000 C 
BRANCH   2   3
ATOM      3  C   UNL     1      56.290  44.349  20.735  1.00  0.00     0.000 C 
BRANCH   3   4
ATOM      4  C   UNL     1      55.654  43.014  20.311  1.00  0.00     0.006 C 
BRANCH   4   5
ATOM      5  C   UNL     1      55.929  41.894  21.323  1.00  0.00     0.053 C 
BRANCH   5   6
ATOM      6  C   UNL     1      55.368  40.582  20.868  1.00  0.00     0.041 C 
ATOM      7  O   UNL     1      56.096  39.555  20.846  1.00  0.00    -0.550 OA
ATOM      8  O   UNL     1      54.034  40.488  20.494  1.00  0.00    -0.550 OA
ENDBRANCH   5   6
ENDBRANCH   4   5
ENDBRANCH   3   4
ENDBRANCH   2   3
ENDBRANCH   1   2
BRANCH   1   9
ATOM      9  C   UNL     1      56.172  47.983  19.457  1.00  0.00     0.000 C 
BRANCH   9  10
ATOM     10  C   UNL     1      57.180  47.583  18.374  1.00  0.00    -0.000 C 
BRANCH  10  11
ATOM     11  C   UNL     1      57.047  48.485  17.137  1.00  0.00    -0.000 C 
BRANCH  11  12
ATOM     12  C   UNL     1      55.677  49.176  17.053  1.00  0.00    -0.000 C 
BRANCH  12  13
ATOM     13  C   UNL     1      55.601  50.201  15.911  1.00  0.00    -0.003 C 
ATOM     14  C   UNL     1      54.327  50.017  15.093  1.00  0.00     0.004 C 
ENDBRANCH  12  13
ENDBRANCH  11  12
ENDBRANCH  10  11
ENDBRANCH   9  10
ENDBRANCH   1   9
TORSDOF 10
ENDMDL
MODEL 8
REMARK VINA RESULT:    13.952     13.307     14.169
REMARK INTER + INTRA:          21.433
REMARK INTER:                  21.792
REMARK INTRA:                  -0.358
REMARK UNBOUND:                -0.676
REMARK SMILES CCCCCCCCCCCC(=O)[O-]
REMARK SMILES IDX 7 1 8 2 9 3 10 4 11 5 12 6 13 7 14 8 6 9 5 10 4 11 3 12 2 13
REMARK SMILES IDX 1 14
REMARK H PARENT
REMARK Flexibility Score: inf
ROOT
ATOM      1  C   UNL     1      55.342  43.640  19.993  1.00  0.00     0.000 C 
ENDROOT
BRANCH   1   2
ATOM      2  C   UNL     1      55.907  42.546  20.916  1.00  0.00     0.000 C 
BRANCH   2   3
ATOM      3  C   UNL     1      54.926  41.411  21.261  1.00  0.00     0.000 C 
BRANCH   3   4
ATOM      4  C   UNL     1      55.300  40.073  20.600  1.00  0.00     0.006 C 
BRANCH   4   5
ATOM      5  C   UNL     1      55.761  39.030  21.625  1.00  0.00     0.053 C 
BRANCH   5   6
ATOM      6  C   UNL     1      57.026  38.351  21.199  1.00  0.00     0.041 C 
ATOM      7  O   UNL     1      57.133  37.099  21.284  1.00  0.00    -0.550 OA
ATOM      8  O   UNL     1      58.076  39.098  20.681  1.00  0.00    -0.550 OA
ENDBRANCH   5   6
ENDBRANCH   4   5
ENDBRANCH   3   4
ENDBRANCH   2   3
ENDBRANCH   1   2
BRANCH   1   9
ATOM      9  C   UNL     1      56.239  44.885  19.917  1.00  0.00     0.000 C 
BRANCH   9  10
ATOM     10  C   UNL     1      55.511  46.120  20.459  1.00  0.00    -0.000 C 
BRANCH  10  11
ATOM     11  C   UNL     1      56.345  47.391  20.237  1.00  0.00    -0.000 C 
BRANCH  11  12
ATOM     12  C   UNL     1      56.726  48.088  21.552  1.00  0.00    -0.000 C 
BRANCH  12  13
ATOM     13  C   UNL     1      57.462  47.153  22.524  1.00  0.00    -0.003 C 
ATOM     14  C   UNL     1      56.583  46.801  23.720  1.00  0.00     0.004 C 
ENDBRANCH  12  13
ENDBRANCH  11  12
ENDBRANCH  10  11
ENDBRANCH   9  10
ENDBRANCH   1   9
TORSDOF 10
ENDMDL
MODEL 9
REMARK VINA RESULT:    14.618     10.889     12.228
REMARK INTER + INTRA:          22.488
REMARK INTER:                  22.861
REMARK INTRA:                  -0.373
REMARK UNBOUND:                -0.676
REMARK SMILES CCCCCCCCCCCC(=O)[O-]
REMARK SMILES IDX 7 1 8 2 9 3 10 4 11 5 12 6 13 7 14 8 6 9 5 10 4 11 3 12 2 13
REMARK SMILES IDX 1 14
REMARK H PARENT
REMARK Flexibility Score: inf
ROOT
ATOM      1  C   UNL     1      55.968  48.156  19.188  1.00  0.00     0.000 C 
ENDROOT
BRANCH   1   2
ATOM      2  C   UNL     1      56.205  47.783  20.663  1.00  0.00     0.000 C 
BRANCH   2   3
ATOM      3  C   UNL     1      56.403  46.280  20.932  1.00  0.00     0.000 C 
BRANCH   3   4
ATOM      4  C   UNL     1      55.341  45.403  20.246  1.00  0.00     0.006 C 
BRANCH   4   5
ATOM      5  C   UNL     1      55.923  44.074  19.746  1.00  0.00     0.053 C 
BRANCH   5   6
ATOM      6  C   UNL     1      56.128  43.101  20.866  1.00  0.00     0.041 C 
ATOM      7  O   UNL     1      55.469  42.028  20.901  1.00  0.00    -0.550 OA
ATOM      8  O   UNL     1      57.066  43.365  21.854  1.00  0.00    -0.550 OA
ENDBRANCH   5   6
ENDBRANCH   4   5
ENDBRANCH   3   4
ENDBRANCH   2   3
ENDBRANCH   1   2
BRANCH   1   9
ATOM      9  C   UNL     1      57.141  47.769  18.275  1.00  0.00     0.000 C 
BRANCH   9  10
ATOM     10  C   UNL     1      57.095  48.553  16.958  1.00  0.00    -0.000 C 
BRANCH  10  11
ATOM     11  C   UNL     1      55.704  49.165  16.731  1.00  0.00    -0.000 C 
BRANCH  11  12
ATOM     12  C   UNL     1      55.739  50.381  15.793  1.00  0.00    -0.000 C 
BRANCH  12  13
ATOM     13  C   UNL     1      54.456  50.522  14.959  1.00  0.00    -0.003 C 
ATOM     14  C   UNL     1      53.318  49.705  15.561  1.00  0.00     0.004 C 
ENDBRANCH  12  13
ENDBRANCH  11  12
ENDBRANCH  10  11
ENDBRANCH   9  10
ENDBRANCH   1   9
TORSDOF 10
ENDMDL
