MODEL 1
REMARK VINA RESULT:    -4.092      0.000      0.000
REMARK INTER + INTRA:          -6.619
REMARK INTER:                  -6.244
REMARK INTRA:                  -0.374
REMARK UNBOUND:                -0.374
REMARK SMILES CCCCCCCCCCC(=O)[O-]
REMARK SMILES IDX 7 1 8 2 9 3 10 4 11 5 12 6 13 7 6 8 5 9 4 10 3 11 2 12 1 13
REMARK H PARENT
REMARK Flexibility Score: inf
ROOT
ATOM      1  C   UNL     1      49.349   8.014  20.863  1.00  0.00     0.000 C 
ENDROOT
BRANCH   1   2
ATOM      2  C   UNL     1      50.510   7.825  19.874  1.00  0.00     0.000 C 
BRANCH   2   3
ATOM      3  C   UNL     1      50.464   8.826  18.705  1.00  0.00     0.006 C 
BRANCH   3   4
ATOM      4  C   UNL     1      49.222   8.631  17.826  1.00  0.00     0.053 C 
BRANCH   4   5
ATOM      5  C   UNL     1      49.591   8.328  16.406  1.00  0.00     0.041 C 
ATOM      6  O   UNL     1      50.214   7.272  16.124  1.00  0.00    -0.550 OA
ATOM      7  O   UNL     1      49.274   9.231  15.399  1.00  0.00    -0.550 OA
ENDBRANCH   4   5
ENDBRANCH   3   4
ENDBRANCH   2   3
ENDBRANCH   1   2
BRANCH   1   8
ATOM      8  C   UNL     1      49.578   7.268  22.190  1.00  0.00     0.000 C 
BRANCH   8   9
ATOM      9  C   UNL     1      49.135   8.089  23.412  1.00  0.00    -0.000 C 
BRANCH   9  10
ATOM     10  C   UNL     1      50.055   7.893  24.626  1.00  0.00    -0.000 C 
BRANCH  10  11
ATOM     11  C   UNL     1      50.538   6.436  24.717  1.00  0.00    -0.000 C 
BRANCH  11  12
ATOM     12  C   UNL     1      50.320   5.828  26.110  1.00  0.00    -0.003 C 
ATOM     13  C   UNL     1      49.063   4.959  26.186  1.00  0.00     0.004 C 
ENDBRANCH  11  12
ENDBRANCH  10  11
ENDBRANCH   9  10
ENDBRANCH   8   9
ENDBRANCH   1   8
TORSDOF 9
ENDMDL
MODEL 2
REMARK VINA RESULT:    -4.047      5.303      6.375
REMARK INTER + INTRA:          -6.551
REMARK INTER:                  -5.332
REMARK INTRA:                  -1.219
REMARK UNBOUND:                -0.374
REMARK SMILES CCCCCCCCCCC(=O)[O-]
REMARK SMILES IDX 7 1 8 2 9 3 10 4 11 5 12 6 13 7 6 8 5 9 4 10 3 11 2 12 1 13
REMARK H PARENT
REMARK Flexibility Score: inf
ROOT
ATOM      1  C   UNL     1      48.698   4.267  21.450  1.00  0.00     0.000 C 
ENDROOT
BRANCH   1   2
ATOM      2  C   UNL     1      49.833   3.719  22.331  1.00  0.00     0.000 C 
BRANCH   2   3
ATOM      3  C   UNL     1      50.741   2.727  21.582  1.00  0.00     0.006 C 
BRANCH   3   4
ATOM      4  C   UNL     1      50.478   2.732  20.071  1.00  0.00     0.053 C 
BRANCH   4   5
ATOM      5  C   UNL     1      51.709   3.090  19.296  1.00  0.00     0.041 C 
ATOM      6  O   UNL     1      51.775   4.188  18.683  1.00  0.00    -0.550 OA
ATOM      7  O   UNL     1      52.769   2.196  19.225  1.00  0.00    -0.550 OA
ENDBRANCH   4   5
ENDBRANCH   3   4
ENDBRANCH   2   3
ENDBRANCH   1   2
BRANCH   1   8
ATOM      8  C   UNL     1      47.368   4.396  22.214  1.00  0.00     0.000 C 
BRANCH   8   9
ATOM      9  C   UNL     1      46.156   3.991  21.361  1.00  0.00    -0.000 C 
BRANCH   9  10
ATOM     10  C   UNL     1      46.512   2.973  20.268  1.00  0.00    -0.000 C 
BRANCH  10  11
ATOM     11  C   UNL     1      46.242   1.538  20.749  1.00  0.00    -0.000 C 
BRANCH  11  12
ATOM     12  C   UNL     1      47.432   0.598  20.502  1.00  0.00    -0.003 C 
ATOM     13  C   UNL     1      48.060   0.086  21.799  1.00  0.00     0.004 C 
ENDBRANCH  11  12
ENDBRANCH  10  11
ENDBRANCH   9  10
ENDBRANCH   8   9
ENDBRANCH   1   8
TORSDOF 9
ENDMDL
MODEL 3
REMARK VINA RESULT:    -4.004      3.598      5.819
REMARK INTER + INTRA:          -6.485
REMARK INTER:                  -5.886
REMARK INTRA:                  -0.599
REMARK UNBOUND:                -0.374
REMARK SMILES CCCCCCCCCCC(=O)[O-]
REMARK SMILES IDX 7 1 8 2 9 3 10 4 11 5 12 6 13 7 6 8 5 9 4 10 3 11 2 12 1 13
REMARK H PARENT
REMARK Flexibility Score: inf
ROOT
ATOM      1  C   UNL     1      48.512   5.057  21.818  1.00  0.00     0.000 C 
ENDROOT
BRANCH   1   2
ATOM      2  C   UNL     1      49.364   3.789  21.991  1.00  0.00     0.000 C 
BRANCH   2   3
ATOM      3  C   UNL     1      49.748   3.142  20.649  1.00  0.00     0.006 C 
BRANCH   3   4
ATOM      4  C   UNL     1      51.106   2.431  20.718  1.00  0.00     0.053 C 
BRANCH   4   5
ATOM      5  C   UNL     1      51.909   2.649  19.472  1.00  0.00     0.041 C 
ATOM      6  O   UNL     1      52.732   1.778  19.087  1.00  0.00    -0.550 OA
ATOM      7  O   UNL     1      51.771   3.830  18.755  1.00  0.00    -0.550 OA
ENDBRANCH   4   5
ENDBRANCH   3   4
ENDBRANCH   2   3
ENDBRANCH   1   2
BRANCH   1   8
ATOM      8  C   UNL     1      49.275   6.337  22.201  1.00  0.00     0.000 C 
BRANCH   8   9
ATOM      9  C   UNL     1      48.563   7.613  21.724  1.00  0.00    -0.000 C 
BRANCH   9  10
ATOM     10  C   UNL     1      48.497   7.721  20.193  1.00  0.00    -0.000 C 
BRANCH  10  11
ATOM     11  C   UNL     1      49.314   8.923  19.694  1.00  0.00    -0.000 C 
BRANCH  11  12
ATOM     12  C   UNL     1      50.394   8.521  18.677  1.00  0.00    -0.003 C 
ATOM     13  C   UNL     1      51.259   7.357  19.161  1.00  0.00     0.004 C 
ENDBRANCH  11  12
ENDBRANCH  10  11
ENDBRANCH   9  10
ENDBRANCH   8   9
ENDBRANCH   1   8
TORSDOF 9
ENDMDL
MODEL 4
REMARK VINA RESULT:    -3.998      3.311      4.371
REMARK INTER + INTRA:          -6.476
REMARK INTER:                  -5.526
REMARK INTRA:                  -0.950
REMARK UNBOUND:                -0.374
REMARK SMILES CCCCCCCCCCC(=O)[O-]
REMARK SMILES IDX 7 1 8 2 9 3 10 4 11 5 12 6 13 7 6 8 5 9 4 10 3 11 2 12 1 13
REMARK H PARENT
REMARK Flexibility Score: inf
ROOT
ATOM      1  C   UNL     1      48.188   5.599  21.611  1.00  0.00     0.000 C 
ENDROOT
BRANCH   1   2
ATOM      2  C   UNL     1      48.610   4.121  21.643  1.00  0.00     0.000 C 
BRANCH   2   3
ATOM      3  C   UNL     1      50.085   3.915  21.257  1.00  0.00     0.006 C 
BRANCH   3   4
ATOM      4  C   UNL     1      50.257   2.825  20.191  1.00  0.00     0.053 C 
BRANCH   4   5
ATOM      5  C   UNL     1      51.512   3.020  19.397  1.00  0.00     0.041 C 
ATOM      6  O   UNL     1      52.404   2.132  19.393  1.00  0.00    -0.550 OA
ATOM      7  O   UNL     1      51.709   4.198  18.688  1.00  0.00    -0.550 OA
ENDBRANCH   4   5
ENDBRANCH   3   4
ENDBRANCH   2   3
ENDBRANCH   1   2
BRANCH   1   8
ATOM      8  C   UNL     1      49.258   6.505  20.976  1.00  0.00     0.000 C 
BRANCH   8   9
ATOM      9  C   UNL     1      49.381   7.861  21.687  1.00  0.00    -0.000 C 
BRANCH   9  10
ATOM     10  C   UNL     1      48.498   7.958  22.940  1.00  0.00    -0.000 C 
BRANCH  10  11
ATOM     11  C   UNL     1      49.332   8.360  24.167  1.00  0.00    -0.000 C 
BRANCH  11  12
ATOM     12  C   UNL     1      50.444   7.348  24.484  1.00  0.00    -0.003 C 
ATOM     13  C   UNL     1      49.899   5.987  24.917  1.00  0.00     0.004 C 
ENDBRANCH  11  12
ENDBRANCH  10  11
ENDBRANCH   9  10
ENDBRANCH   8   9
ENDBRANCH   1   8
TORSDOF 9
ENDMDL
MODEL 5
REMARK VINA RESULT:    -3.947      2.005      3.321
REMARK INTER + INTRA:          -6.398
REMARK INTER:                  -5.143
REMARK INTRA:                  -1.255
REMARK UNBOUND:                -0.374
REMARK SMILES CCCCCCCCCCC(=O)[O-]
REMARK SMILES IDX 7 1 8 2 9 3 10 4 11 5 12 6 13 7 6 8 5 9 4 10 3 11 2 12 1 13
REMARK H PARENT
REMARK Flexibility Score: inf
ROOT
ATOM      1  C   UNL     1      49.279   5.221  22.114  1.00  0.00     0.000 C 
ENDROOT
BRANCH   1   2
ATOM      2  C   UNL     1      47.923   5.818  21.704  1.00  0.00     0.000 C 
BRANCH   2   3
ATOM      3  C   UNL     1      48.057   7.204  21.048  1.00  0.00     0.006 C 
BRANCH   3   4
ATOM      4  C   UNL     1      49.519   7.567  20.759  1.00  0.00     0.053 C 
BRANCH   4   5
ATOM      5  C   UNL     1      49.649   8.399  19.520  1.00  0.00     0.041 C 
ATOM      6  O   UNL     1      50.777   8.818  19.153  1.00  0.00    -0.550 OA
ATOM      7  O   UNL     1      48.517   8.739  18.791  1.00  0.00    -0.550 OA
ENDBRANCH   4   5
ENDBRANCH   3   4
ENDBRANCH   2   3
ENDBRANCH   1   2
BRANCH   1   8
ATOM      8  C   UNL     1      49.269   4.665  23.549  1.00  0.00     0.000 C 
BRANCH   8   9
ATOM      9  C   UNL     1      49.337   5.774  24.611  1.00  0.00    -0.000 C 
BRANCH   9  10
ATOM     10  C   UNL     1      50.384   6.849  24.283  1.00  0.00    -0.000 C 
BRANCH  10  11
ATOM     11  C   UNL     1      49.901   8.237  24.732  1.00  0.00    -0.000 C 
BRANCH  11  12
ATOM     12  C   UNL     1      48.381   8.410  24.587  1.00  0.00    -0.003 C 
ATOM     13  C   UNL     1      47.994   9.769  24.003  1.00  0.00     0.004 C 
ENDBRANCH  11  12
ENDBRANCH  10  11
ENDBRANCH   9  10
ENDBRANCH   8   9
ENDBRANCH   1   8
TORSDOF 9
ENDMDL
MODEL 6
REMARK VINA RESULT:    -3.939      7.545      8.789
REMARK INTER + INTRA:          -6.386
REMARK INTER:                  -5.269
REMARK INTRA:                  -1.117
REMARK UNBOUND:                -0.374
REMARK SMILES CCCCCCCCCCC(=O)[O-]
REMARK SMILES IDX 7 1 8 2 9 3 10 4 11 5 12 6 13 7 6 8 5 9 4 10 3 11 2 12 1 13
REMARK H PARENT
REMARK Flexibility Score: inf
ROOT
ATOM      1  C   UNL     1      46.863   3.164  21.273  1.00  0.00     0.000 C 
ENDROOT
BRANCH   1   2
ATOM      2  C   UNL     1      47.127   2.296  20.032  1.00  0.00     0.000 C 
BRANCH   2   3
ATOM      3  C   UNL     1      47.017   0.789  20.325  1.00  0.00     0.006 C 
BRANCH   3   4
ATOM      4  C   UNL     1      47.047   0.490  21.830  1.00  0.00     0.053 C 
BRANCH   4   5
ATOM      5  C   UNL     1      48.311  -0.208  22.230  1.00  0.00     0.041 C 
ATOM      6  O   UNL     1      48.575  -1.352  21.775  1.00  0.00    -0.550 OA
ATOM      7  O   UNL     1      49.180   0.392  23.132  1.00  0.00    -0.550 OA
ENDBRANCH   4   5
ENDBRANCH   3   4
ENDBRANCH   2   3
ENDBRANCH   1   2
BRANCH   1   8
ATOM      8  C   UNL     1      45.675   4.123  21.081  1.00  0.00     0.000 C 
BRANCH   8   9
ATOM      9  C   UNL     1      44.641   3.588  20.077  1.00  0.00    -0.000 C 
BRANCH   9  10
ATOM     10  C   UNL     1      43.254   3.381  20.704  1.00  0.00    -0.000 C 
BRANCH  10  11
ATOM     11  C   UNL     1      43.309   2.319  21.815  1.00  0.00    -0.000 C 
BRANCH  11  12
ATOM     12  C   UNL     1      43.250   0.885  21.265  1.00  0.00    -0.003 C 
ATOM     13  C   UNL     1      43.197  -0.170  22.370  1.00  0.00     0.004 C 
ENDBRANCH  11  12
ENDBRANCH  10  11
ENDBRANCH   9  10
ENDBRANCH   8   9
ENDBRANCH   1   8
TORSDOF 9
ENDMDL
MODEL 7
REMARK VINA RESULT:    -3.934     11.448     13.034
REMARK INTER + INTRA:          -6.379
REMARK INTER:                  -5.822
REMARK INTRA:                  -0.557
REMARK UNBOUND:                -0.374
REMARK SMILES CCCCCCCCCCC(=O)[O-]
REMARK SMILES IDX 7 1 8 2 9 3 10 4 11 5 12 6 13 7 6 8 5 9 4 10 3 11 2 12 1 13
REMARK H PARENT
REMARK Flexibility Score: inf
ROOT
ATOM      1  C   UNL     1      58.416   0.132  17.039  1.00  0.00     0.000 C 
ENDROOT
BRANCH   1   2
ATOM      2  C   UNL     1      57.909  -1.153  17.716  1.00  0.00     0.000 C 
BRANCH   2   3
ATOM      3  C   UNL     1      57.177  -0.878  19.041  1.00  0.00     0.006 C 
BRANCH   3   4
ATOM      4  C   UNL     1      56.397  -2.103  19.535  1.00  0.00     0.053 C 
BRANCH   4   5
ATOM      5  C   UNL     1      54.974  -2.078  19.068  1.00  0.00     0.041 C 
ATOM      6  O   UNL     1      54.467  -3.093  18.522  1.00  0.00    -0.550 OA
ATOM      7  O   UNL     1      54.218  -0.921  19.207  1.00  0.00    -0.550 OA
ENDBRANCH   4   5
ENDBRANCH   3   4
ENDBRANCH   2   3
ENDBRANCH   1   2
BRANCH   1   8
ATOM      8  C   UNL     1      59.436  -0.153  15.922  1.00  0.00     0.000 C 
BRANCH   8   9
ATOM      9  C   UNL     1      60.159   1.117  15.446  1.00  0.00    -0.000 C 
BRANCH   9  10
ATOM     10  C   UNL     1      61.183   1.636  16.467  1.00  0.00    -0.000 C 
BRANCH  10  11
ATOM     11  C   UNL     1      61.070   3.161  16.627  1.00  0.00    -0.000 C 
BRANCH  11  12
ATOM     12  C   UNL     1      60.454   3.570  17.974  1.00  0.00    -0.003 C 
ATOM     13  C   UNL     1      58.925   3.605  17.938  1.00  0.00     0.004 C 
ENDBRANCH  11  12
ENDBRANCH  10  11
ENDBRANCH   9  10
ENDBRANCH   8   9
ENDBRANCH   1   8
TORSDOF 9
ENDMDL
MODEL 8
REMARK VINA RESULT:    -3.857      3.675      4.865
REMARK INTER + INTRA:          -6.260
REMARK INTER:                  -5.508
REMARK INTRA:                  -0.752
REMARK UNBOUND:                -0.374
REMARK SMILES CCCCCCCCCCC(=O)[O-]
REMARK SMILES IDX 7 1 8 2 9 3 10 4 11 5 12 6 13 7 6 8 5 9 4 10 3 11 2 12 1 13
REMARK H PARENT
REMARK Flexibility Score: inf
ROOT
ATOM      1  C   UNL     1      48.787   4.323  22.773  1.00  0.00     0.000 C 
ENDROOT
BRANCH   1   2
ATOM      2  C   UNL     1      49.503   4.492  21.423  1.00  0.00     0.000 C 
BRANCH   2   3
ATOM      3  C   UNL     1      49.626   3.169  20.646  1.00  0.00     0.006 C 
BRANCH   3   4
ATOM      4  C   UNL     1      51.041   2.582  20.725  1.00  0.00     0.053 C 
BRANCH   4   5
ATOM      5  C   UNL     1      51.809   2.815  19.459  1.00  0.00     0.041 C 
ATOM      6  O   UNL     1      52.638   1.959  19.053  1.00  0.00    -0.550 OA
ATOM      7  O   UNL     1      51.632   3.994  18.748  1.00  0.00    -0.550 OA
ENDBRANCH   4   5
ENDBRANCH   3   4
ENDBRANCH   2   3
ENDBRANCH   1   2
BRANCH   1   8
ATOM      8  C   UNL     1      49.724   4.560  23.971  1.00  0.00     0.000 C 
BRANCH   8   9
ATOM      9  C   UNL     1      49.014   5.246  25.148  1.00  0.00    -0.000 C 
BRANCH   9  10
ATOM     10  C   UNL     1      49.738   6.516  25.621  1.00  0.00    -0.000 C 
BRANCH  10  11
ATOM     11  C   UNL     1      50.376   7.255  24.434  1.00  0.00    -0.000 C 
BRANCH  11  12
ATOM     12  C   UNL     1      49.585   8.507  24.023  1.00  0.00    -0.003 C 
ATOM     13  C   UNL     1      48.591   8.233  22.894  1.00  0.00     0.004 C 
ENDBRANCH  11  12
ENDBRANCH  10  11
ENDBRANCH   9  10
ENDBRANCH   8   9
ENDBRANCH   1   8
TORSDOF 9
ENDMDL
MODEL 9
REMARK VINA RESULT:    -3.854      3.188      4.369
REMARK INTER + INTRA:          -6.256
REMARK INTER:                  -5.806
REMARK INTRA:                  -0.450
REMARK UNBOUND:                -0.374
REMARK SMILES CCCCCCCCCCC(=O)[O-]
REMARK SMILES IDX 7 1 8 2 9 3 10 4 11 5 12 6 13 7 6 8 5 9 4 10 3 11 2 12 1 13
REMARK H PARENT
REMARK Flexibility Score: inf
ROOT
ATOM      1  C   UNL     1      48.903   6.284  22.731  1.00  0.00     0.000 C 
ENDROOT
BRANCH   1   2
ATOM      2  C   UNL     1      49.571   7.498  22.065  1.00  0.00     0.000 C 
BRANCH   2   3
ATOM      3  C   UNL     1      49.214   7.631  20.575  1.00  0.00     0.006 C 
BRANCH   3   4
ATOM      4  C   UNL     1      50.417   8.067  19.728  1.00  0.00     0.053 C 
BRANCH   4   5
ATOM      5  C   UNL     1      49.993   8.856  18.528  1.00  0.00     0.041 C 
ATOM      6  O   UNL     1      49.648  10.060  18.649  1.00  0.00    -0.550 OA
ATOM      7  O   UNL     1      49.948   8.249  17.279  1.00  0.00    -0.550 OA
ENDBRANCH   4   5
ENDBRANCH   3   4
ENDBRANCH   2   3
ENDBRANCH   1   2
BRANCH   1   8
ATOM      8  C   UNL     1      48.975   5.019  21.857  1.00  0.00     0.000 C 
BRANCH   8   9
ATOM      9  C   UNL     1      49.347   3.765  22.664  1.00  0.00    -0.000 C 
BRANCH   9  10
ATOM     10  C   UNL     1      49.203   2.470  21.851  1.00  0.00    -0.000 C 
BRANCH  10  11
ATOM     11  C   UNL     1      49.787   2.643  20.439  1.00  0.00    -0.000 C 
BRANCH  11  12
ATOM     12  C   UNL     1      51.321   2.719  20.439  1.00  0.00    -0.003 C 
ATOM     13  C   UNL     1      51.887   3.257  19.125  1.00  0.00     0.004 C 
ENDBRANCH  11  12
ENDBRANCH  10  11
ENDBRANCH   9  10
ENDBRANCH   8   9
ENDBRANCH   1   8
TORSDOF 9
ENDMDL
