MODEL 1
REMARK VINA RESULT:    -4.987      0.000      0.000
REMARK INTER + INTRA:         -14.046
REMARK INTER:                 -10.817
REMARK INTRA:                  -3.229
REMARK UNBOUND:                -3.229
REMARK SMILES CCCCCCCCCCCCCCCCCCCCCC(=O)[O-]
REMARK SMILES IDX 12 1 11 2 10 3 9 4 8 5 7 6 6 7 5 8 4 9 3 10 2 11 1 12 13 13
REMARK SMILES IDX 14 14 15 15 16 16 17 17 18 18 19 19 20 20 21 21 22 22 23 23
REMARK SMILES IDX 24 24
REMARK H PARENT
REMARK Flexibility Score: inf
ROOT
ATOM      1  C   UNL     1      18.494 -31.228  21.321  1.00  0.00     0.000 C 
ENDROOT
BRANCH   1   2
ATOM      2  C   UNL     1      18.040 -32.156  20.180  1.00  0.00     0.000 C 
BRANCH   2   3
ATOM      3  C   UNL     1      17.684 -33.574  20.666  1.00  0.00     0.000 C 
BRANCH   3   4
ATOM      4  C   UNL     1      16.574 -34.280  19.863  1.00  0.00    -0.000 C 
BRANCH   4   5
ATOM      5  C   UNL     1      15.366 -34.678  20.730  1.00  0.00    -0.000 C 
BRANCH   5   6
ATOM      6  C   UNL     1      14.718 -33.476  21.443  1.00  0.00    -0.000 C 
BRANCH   6   7
ATOM      7  C   UNL     1      13.880 -32.552  20.540  1.00  0.00    -0.000 C 
BRANCH   7   8
ATOM      8  C   UNL     1      13.604 -31.181  21.176  1.00  0.00    -0.000 C 
BRANCH   8   9
ATOM      9  C   UNL     1      14.914 -30.437  21.470  1.00  0.00    -0.000 C 
BRANCH   9  10
ATOM     10  C   UNL     1      14.833 -29.690  22.809  1.00  0.00    -0.000 C 
BRANCH  10  11
ATOM     11  C   UNL     1      13.729 -30.238  23.726  1.00  0.00    -0.003 C 
ATOM     12  C   UNL     1      12.739 -29.162  24.170  1.00  0.00     0.004 C 
ENDBRANCH  10  11
ENDBRANCH   9  10
ENDBRANCH   8   9
ENDBRANCH   7   8
ENDBRANCH   6   7
ENDBRANCH   5   6
ENDBRANCH   4   5
ENDBRANCH   3   4
ENDBRANCH   2   3
ENDBRANCH   1   2
BRANCH   1  13
ATOM     13  C   UNL     1      18.845 -31.996  22.603  1.00  0.00     0.000 C 
BRANCH  13  14
ATOM     14  C   UNL     1      18.074 -31.480  23.832  1.00  0.00     0.000 C 
BRANCH  14  15
ATOM     15  C   UNL     1      16.819 -32.325  24.137  1.00  0.00     0.000 C 
BRANCH  15  16
ATOM     16  C   UNL     1      17.113 -33.617  24.924  1.00  0.00     0.000 C 
BRANCH  16  17
ATOM     17  C   UNL     1      17.178 -34.895  24.071  1.00  0.00     0.000 C 
BRANCH  17  18
ATOM     18  C   UNL     1      18.431 -35.737  24.354  1.00  0.00     0.000 C 
BRANCH  18  19
ATOM     19  C   UNL     1      18.605 -35.973  25.861  1.00  0.00     0.000 C 
BRANCH  19  20
ATOM     20  C   UNL     1      17.979 -37.298  26.334  1.00  0.00     0.006 C 
BRANCH  20  21
ATOM     21  C   UNL     1      16.567 -37.156  26.923  1.00  0.00     0.053 C 
BRANCH  21  22
ATOM     22  C   UNL     1      16.495 -37.652  28.334  1.00  0.00     0.041 C 
ATOM     23  O   UNL     1      15.416 -38.113  28.791  1.00  0.00    -0.550 OA
ATOM     24  O   UNL     1      17.628 -37.628  29.138  1.00  0.00    -0.550 OA
ENDBRANCH  21  22
ENDBRANCH  20  21
ENDBRANCH  19  20
ENDBRANCH  18  19
ENDBRANCH  17  18
ENDBRANCH  16  17
ENDBRANCH  15  16
ENDBRANCH  14  15
ENDBRANCH  13  14
ENDBRANCH   1  13
TORSDOF 20
ENDMDL
MODEL 2
REMARK VINA RESULT:    -4.916      3.172      6.015
REMARK INTER + INTRA:         -13.894
REMARK INTER:                 -10.268
REMARK INTRA:                  -3.626
REMARK UNBOUND:                -3.229
REMARK SMILES CCCCCCCCCCCCCCCCCCCCCC(=O)[O-]
REMARK SMILES IDX 12 1 11 2 10 3 9 4 8 5 7 6 6 7 5 8 4 9 3 10 2 11 1 12 13 13
REMARK SMILES IDX 14 14 15 15 16 16 17 17 18 18 19 19 20 20 21 21 22 22 23 23
REMARK SMILES IDX 24 24
REMARK H PARENT
REMARK Flexibility Score: inf
ROOT
ATOM      1  C   UNL     1      17.437 -29.871  21.990  1.00  0.00     0.000 C 
ENDROOT
BRANCH   1   2
ATOM      2  C   UNL     1      17.268 -30.903  20.861  1.00  0.00     0.000 C 
BRANCH   2   3
ATOM      3  C   UNL     1      18.575 -31.648  20.529  1.00  0.00     0.000 C 
BRANCH   3   4
ATOM      4  C   UNL     1      19.343 -32.194  21.748  1.00  0.00    -0.000 C 
BRANCH   4   5
ATOM      5  C   UNL     1      18.542 -33.239  22.544  1.00  0.00    -0.000 C 
BRANCH   5   6
ATOM      6  C   UNL     1      19.087 -34.670  22.373  1.00  0.00    -0.000 C 
BRANCH   6   7
ATOM      7  C   UNL     1      18.270 -35.772  23.073  1.00  0.00    -0.000 C 
BRANCH   7   8
ATOM      8  C   UNL     1      18.274 -35.641  24.604  1.00  0.00    -0.000 C 
BRANCH   8   9
ATOM      9  C   UNL     1      16.896 -35.210  25.123  1.00  0.00    -0.000 C 
BRANCH   9  10
ATOM     10  C   UNL     1      16.939 -33.775  25.668  1.00  0.00    -0.000 C 
BRANCH  10  11
ATOM     11  C   UNL     1      18.373 -33.270  25.893  1.00  0.00    -0.003 C 
ATOM     12  C   UNL     1      18.471 -31.745  25.896  1.00  0.00     0.004 C 
ENDBRANCH  10  11
ENDBRANCH   9  10
ENDBRANCH   8   9
ENDBRANCH   7   8
ENDBRANCH   6   7
ENDBRANCH   5   6
ENDBRANCH   4   5
ENDBRANCH   3   4
ENDBRANCH   2   3
ENDBRANCH   1   2
BRANCH   1  13
ATOM     13  C   UNL     1      16.478 -30.117  23.164  1.00  0.00     0.000 C 
BRANCH  13  14
ATOM     14  C   UNL     1      15.085 -29.504  22.929  1.00  0.00     0.000 C 
BRANCH  14  15
ATOM     15  C   UNL     1      13.990 -30.191  23.772  1.00  0.00     0.000 C 
BRANCH  15  16
ATOM     16  C   UNL     1      13.253 -31.326  23.032  1.00  0.00     0.000 C 
BRANCH  16  17
ATOM     17  C   UNL     1      13.214 -31.185  21.502  1.00  0.00     0.000 C 
BRANCH  17  18
ATOM     18  C   UNL     1      13.894 -32.357  20.778  1.00  0.00     0.000 C 
BRANCH  18  19
ATOM     19  C   UNL     1      14.749 -33.181  21.751  1.00  0.00     0.000 C 
BRANCH  19  20
ATOM     20  C   UNL     1      15.290 -34.478  21.120  1.00  0.00     0.006 C 
BRANCH  20  21
ATOM     21  C   UNL     1      15.876 -34.299  19.711  1.00  0.00     0.053 C 
BRANCH  21  22
ATOM     22  C   UNL     1      16.957 -35.295  19.422  1.00  0.00     0.041 C 
ATOM     23  O   UNL     1      16.722 -36.529  19.507  1.00  0.00    -0.550 OA
ATOM     24  O   UNL     1      18.217 -34.859  19.034  1.00  0.00    -0.550 OA
ENDBRANCH  21  22
ENDBRANCH  20  21
ENDBRANCH  19  20
ENDBRANCH  18  19
ENDBRANCH  17  18
ENDBRANCH  16  17
ENDBRANCH  15  16
ENDBRANCH  14  15
ENDBRANCH  13  14
ENDBRANCH   1  13
TORSDOF 20
ENDMDL
MODEL 3
REMARK VINA RESULT:    -4.893      3.756      7.233
REMARK INTER + INTRA:         -13.843
REMARK INTER:                 -10.908
REMARK INTRA:                  -2.935
REMARK UNBOUND:                -3.229
REMARK SMILES CCCCCCCCCCCCCCCCCCCCCC(=O)[O-]
REMARK SMILES IDX 12 1 11 2 10 3 9 4 8 5 7 6 6 7 5 8 4 9 3 10 2 11 1 12 13 13
REMARK SMILES IDX 14 14 15 15 16 16 17 17 18 18 19 19 20 20 21 21 22 22 23 23
REMARK SMILES IDX 24 24
REMARK H PARENT
REMARK Flexibility Score: inf
ROOT
ATOM      1  C   UNL     1      14.466 -31.481  21.051  1.00  0.00     0.000 C 
ENDROOT
BRANCH   1   2
ATOM      2  C   UNL     1      13.497 -31.019  22.154  1.00  0.00     0.000 C 
BRANCH   2   3
ATOM      3  C   UNL     1      14.131 -31.039  23.557  1.00  0.00     0.000 C 
BRANCH   3   4
ATOM      4  C   UNL     1      13.829 -32.296  24.394  1.00  0.00    -0.000 C 
BRANCH   4   5
ATOM      5  C   UNL     1      14.918 -33.377  24.269  1.00  0.00    -0.000 C 
BRANCH   5   6
ATOM      6  C   UNL     1      16.345 -32.801  24.334  1.00  0.00    -0.000 C 
BRANCH   6   7
ATOM      7  C   UNL     1      17.418 -33.618  23.591  1.00  0.00    -0.000 C 
BRANCH   7   8
ATOM      8  C   UNL     1      17.431 -35.100  23.996  1.00  0.00    -0.000 C 
BRANCH   8   9
ATOM      9  C   UNL     1      17.815 -35.263  25.472  1.00  0.00    -0.000 C 
BRANCH   9  10
ATOM     10  C   UNL     1      16.740 -36.051  26.235  1.00  0.00    -0.000 C 
BRANCH  10  11
ATOM     11  C   UNL     1      17.223 -37.442  26.671  1.00  0.00    -0.003 C 
ATOM     12  C   UNL     1      16.467 -37.978  27.886  1.00  0.00     0.004 C 
ENDBRANCH  10  11
ENDBRANCH   9  10
ENDBRANCH   8   9
ENDBRANCH   7   8
ENDBRANCH   6   7
ENDBRANCH   5   6
ENDBRANCH   4   5
ENDBRANCH   3   4
ENDBRANCH   2   3
ENDBRANCH   1   2
BRANCH   1  13
ATOM     13  C   UNL     1      14.053 -32.821  20.424  1.00  0.00     0.000 C 
BRANCH  13  14
ATOM     14  C   UNL     1      14.882 -34.004  20.958  1.00  0.00     0.000 C 
BRANCH  14  15
ATOM     15  C   UNL     1      15.488 -34.857  19.824  1.00  0.00     0.000 C 
BRANCH  15  16
ATOM     16  C   UNL     1      16.673 -35.737  20.270  1.00  0.00     0.000 C 
BRANCH  16  17
ATOM     17  C   UNL     1      18.062 -35.132  20.014  1.00  0.00     0.000 C 
BRANCH  17  18
ATOM     18  C   UNL     1      17.995 -33.697  19.467  1.00  0.00     0.000 C 
BRANCH  18  19
ATOM     19  C   UNL     1      18.648 -32.707  20.442  1.00  0.00     0.000 C 
BRANCH  19  20
ATOM     20  C   UNL     1      17.817 -31.426  20.638  1.00  0.00     0.006 C 
BRANCH  20  21
ATOM     21  C   UNL     1      18.525 -30.331  21.451  1.00  0.00     0.053 C 
BRANCH  21  22
ATOM     22  C   UNL     1      17.965 -28.971  21.167  1.00  0.00     0.041 C 
ATOM     23  O   UNL     1      18.658 -28.112  20.560  1.00  0.00    -0.550 OA
ATOM     24  O   UNL     1      16.666 -28.661  21.550  1.00  0.00    -0.550 OA
ENDBRANCH  21  22
ENDBRANCH  20  21
ENDBRANCH  19  20
ENDBRANCH  18  19
ENDBRANCH  17  18
ENDBRANCH  16  17
ENDBRANCH  15  16
ENDBRANCH  14  15
ENDBRANCH  13  14
ENDBRANCH   1  13
TORSDOF 20
ENDMDL
MODEL 4
REMARK VINA RESULT:    -4.847      2.967      4.926
REMARK INTER + INTRA:         -13.743
REMARK INTER:                  -9.765
REMARK INTRA:                  -3.978
REMARK UNBOUND:                -3.229
REMARK SMILES CCCCCCCCCCCCCCCCCCCCCC(=O)[O-]
REMARK SMILES IDX 12 1 11 2 10 3 9 4 8 5 7 6 6 7 5 8 4 9 3 10 2 11 1 12 13 13
REMARK SMILES IDX 14 14 15 15 16 16 17 17 18 18 19 19 20 20 21 21 22 22 23 23
REMARK SMILES IDX 24 24
REMARK H PARENT
REMARK Flexibility Score: inf
ROOT
ATOM      1  C   UNL     1      16.694 -35.418  19.375  1.00  0.00     0.000 C 
ENDROOT
BRANCH   1   2
ATOM      2  C   UNL     1      15.426 -35.041  20.162  1.00  0.00     0.000 C 
BRANCH   2   3
ATOM      3  C   UNL     1      15.066 -33.549  20.042  1.00  0.00     0.000 C 
BRANCH   3   4
ATOM      4  C   UNL     1      14.246 -32.978  21.215  1.00  0.00    -0.000 C 
BRANCH   4   5
ATOM      5  C   UNL     1      13.402 -31.754  20.818  1.00  0.00    -0.000 C 
BRANCH   5   6
ATOM      6  C   UNL     1      13.402 -30.651  21.894  1.00  0.00    -0.000 C 
BRANCH   6   7
ATOM      7  C   UNL     1      14.313 -30.916  23.106  1.00  0.00    -0.000 C 
BRANCH   7   8
ATOM      8  C   UNL     1      15.440 -29.882  23.247  1.00  0.00    -0.000 C 
BRANCH   8   9
ATOM      9  C   UNL     1      15.982 -29.466  21.873  1.00  0.00    -0.000 C 
BRANCH   9  10
ATOM     10  C   UNL     1      17.445 -29.902  21.705  1.00  0.00    -0.000 C 
BRANCH  10  11
ATOM     11  C   UNL     1      17.579 -31.372  21.278  1.00  0.00    -0.003 C 
ATOM     12  C   UNL     1      19.017 -31.761  20.939  1.00  0.00     0.004 C 
ENDBRANCH  10  11
ENDBRANCH   9  10
ENDBRANCH   8   9
ENDBRANCH   7   8
ENDBRANCH   6   7
ENDBRANCH   5   6
ENDBRANCH   4   5
ENDBRANCH   3   4
ENDBRANCH   2   3
ENDBRANCH   1   2
BRANCH   1  13
ATOM     13  C   UNL     1      17.240 -36.800  19.761  1.00  0.00     0.000 C 
BRANCH  13  14
ATOM     14  C   UNL     1      17.994 -36.785  21.104  1.00  0.00     0.000 C 
BRANCH  14  15
ATOM     15  C   UNL     1      18.704 -35.441  21.364  1.00  0.00     0.000 C 
BRANCH  15  16
ATOM     16  C   UNL     1      19.071 -35.204  22.843  1.00  0.00     0.000 C 
BRANCH  16  17
ATOM     17  C   UNL     1      17.883 -35.240  23.819  1.00  0.00     0.000 C 
BRANCH  17  18
ATOM     18  C   UNL     1      16.811 -34.189  23.490  1.00  0.00     0.000 C 
BRANCH  18  19
ATOM     19  C   UNL     1      16.492 -33.328  24.721  1.00  0.00     0.000 C 
BRANCH  19  20
ATOM     20  C   UNL     1      17.755 -32.877  25.478  1.00  0.00     0.006 C 
BRANCH  20  21
ATOM     21  C   UNL     1      18.287 -31.499  25.056  1.00  0.00     0.053 C 
BRANCH  21  22
ATOM     22  C   UNL     1      19.719 -31.561  24.621  1.00  0.00     0.041 C 
ATOM     23  O   UNL     1      20.401 -32.599  24.827  1.00  0.00    -0.550 OA
ATOM     24  O   UNL     1      20.293 -30.480  23.964  1.00  0.00    -0.550 OA
ENDBRANCH  21  22
ENDBRANCH  20  21
ENDBRANCH  19  20
ENDBRANCH  18  19
ENDBRANCH  17  18
ENDBRANCH  16  17
ENDBRANCH  15  16
ENDBRANCH  14  15
ENDBRANCH  13  14
ENDBRANCH   1  13
TORSDOF 20
ENDMDL
MODEL 5
REMARK VINA RESULT:    -4.827      2.955      6.387
REMARK INTER + INTRA:         -13.699
REMARK INTER:                 -10.013
REMARK INTRA:                  -3.687
REMARK UNBOUND:                -3.229
REMARK SMILES CCCCCCCCCCCCCCCCCCCCCC(=O)[O-]
REMARK SMILES IDX 12 1 11 2 10 3 9 4 8 5 7 6 6 7 5 8 4 9 3 10 2 11 1 12 13 13
REMARK SMILES IDX 14 14 15 15 16 16 17 17 18 18 19 19 20 20 21 21 22 22 23 23
REMARK SMILES IDX 24 24
REMARK H PARENT
REMARK Flexibility Score: inf
ROOT
ATOM      1  C   UNL     1      16.472 -35.397  19.516  1.00  0.00     0.000 C 
ENDROOT
BRANCH   1   2
ATOM      2  C   UNL     1      17.651 -36.385  19.587  1.00  0.00     0.000 C 
BRANCH   2   3
ATOM      3  C   UNL     1      17.855 -36.974  20.995  1.00  0.00     0.000 C 
BRANCH   3   4
ATOM      4  C   UNL     1      18.075 -35.936  22.112  1.00  0.00    -0.000 C 
BRANCH   4   5
ATOM      5  C   UNL     1      19.550 -35.809  22.533  1.00  0.00    -0.000 C 
BRANCH   5   6
ATOM      6  C   UNL     1      19.830 -34.539  23.359  1.00  0.00    -0.000 C 
BRANCH   6   7
ATOM      7  C   UNL     1      18.583 -33.733  23.767  1.00  0.00    -0.000 C 
BRANCH   7   8
ATOM      8  C   UNL     1      18.363 -33.695  25.287  1.00  0.00    -0.000 C 
BRANCH   8   9
ATOM      9  C   UNL     1      16.949 -34.165  25.651  1.00  0.00    -0.000 C 
BRANCH   9  10
ATOM     10  C   UNL     1      16.874 -35.698  25.694  1.00  0.00    -0.000 C 
BRANCH  10  11
ATOM     11  C   UNL     1      18.080 -36.330  26.406  1.00  0.00    -0.003 C 
ATOM     12  C   UNL     1      18.615 -37.565  25.683  1.00  0.00     0.004 C 
ENDBRANCH  10  11
ENDBRANCH   9  10
ENDBRANCH   8   9
ENDBRANCH   7   8
ENDBRANCH   6   7
ENDBRANCH   5   6
ENDBRANCH   4   5
ENDBRANCH   3   4
ENDBRANCH   2   3
ENDBRANCH   1   2
BRANCH   1  13
ATOM     13  C   UNL     1      16.872 -34.043  18.911  1.00  0.00     0.000 C 
BRANCH  13  14
ATOM     14  C   UNL     1      18.128 -33.447  19.574  1.00  0.00     0.000 C 
BRANCH  14  15
ATOM     15  C   UNL     1      17.781 -32.457  20.705  1.00  0.00     0.000 C 
BRANCH  15  16
ATOM     16  C   UNL     1      18.810 -31.322  20.879  1.00  0.00     0.000 C 
BRANCH  16  17
ATOM     17  C   UNL     1      18.326 -30.132  21.723  1.00  0.00     0.000 C 
BRANCH  17  18
ATOM     18  C   UNL     1      16.813 -29.894  21.605  1.00  0.00     0.000 C 
BRANCH  18  19
ATOM     19  C   UNL     1      16.167 -29.764  22.992  1.00  0.00     0.000 C 
BRANCH  19  20
ATOM     20  C   UNL     1      15.968 -31.124  23.688  1.00  0.00     0.006 C 
BRANCH  20  21
ATOM     21  C   UNL     1      14.593 -31.765  23.441  1.00  0.00     0.053 C 
BRANCH  21  22
ATOM     22  C   UNL     1      14.633 -32.764  22.326  1.00  0.00     0.041 C 
ATOM     23  O   UNL     1      15.149 -33.898  22.508  1.00  0.00    -0.550 OA
ATOM     24  O   UNL     1      14.075 -32.452  21.093  1.00  0.00    -0.550 OA
ENDBRANCH  21  22
ENDBRANCH  20  21
ENDBRANCH  19  20
ENDBRANCH  18  19
ENDBRANCH  17  18
ENDBRANCH  16  17
ENDBRANCH  15  16
ENDBRANCH  14  15
ENDBRANCH  13  14
ENDBRANCH   1  13
TORSDOF 20
ENDMDL
MODEL 6
REMARK VINA RESULT:    -4.822      2.316      5.001
REMARK INTER + INTRA:         -13.689
REMARK INTER:                 -10.049
REMARK INTRA:                  -3.640
REMARK UNBOUND:                -3.229
REMARK SMILES CCCCCCCCCCCCCCCCCCCCCC(=O)[O-]
REMARK SMILES IDX 12 1 11 2 10 3 9 4 8 5 7 6 6 7 5 8 4 9 3 10 2 11 1 12 13 13
REMARK SMILES IDX 14 14 15 15 16 16 17 17 18 18 19 19 20 20 21 21 22 22 23 23
REMARK SMILES IDX 24 24
REMARK H PARENT
REMARK Flexibility Score: inf
ROOT
ATOM      1  C   UNL     1      16.431 -30.226  23.127  1.00  0.00     0.000 C 
ENDROOT
BRANCH   1   2
ATOM      2  C   UNL     1      15.064 -29.523  23.058  1.00  0.00     0.000 C 
BRANCH   2   3
ATOM      3  C   UNL     1      13.935 -30.341  23.711  1.00  0.00     0.000 C 
BRANCH   3   4
ATOM      4  C   UNL     1      13.260 -31.376  22.790  1.00  0.00    -0.000 C 
BRANCH   4   5
ATOM      5  C   UNL     1      13.514 -31.107  21.296  1.00  0.00    -0.000 C 
BRANCH   5   6
ATOM      6  C   UNL     1      13.846 -32.386  20.505  1.00  0.00    -0.000 C 
BRANCH   6   7
ATOM      7  C   UNL     1      14.721 -33.411  21.250  1.00  0.00    -0.000 C 
BRANCH   7   8
ATOM      8  C   UNL     1      15.155 -34.588  20.363  1.00  0.00    -0.000 C 
BRANCH   8   9
ATOM      9  C   UNL     1      16.374 -34.214  19.510  1.00  0.00    -0.000 C 
BRANCH   9  10
ATOM     10  C   UNL     1      17.186 -35.462  19.135  1.00  0.00    -0.000 C 
BRANCH  10  11
ATOM     11  C   UNL     1      16.880 -36.662  20.045  1.00  0.00    -0.003 C 
ATOM     12  C   UNL     1      17.997 -36.943  21.050  1.00  0.00     0.004 C 
ENDBRANCH  10  11
ENDBRANCH   9  10
ENDBRANCH   8   9
ENDBRANCH   7   8
ENDBRANCH   6   7
ENDBRANCH   5   6
ENDBRANCH   4   5
ENDBRANCH   3   4
ENDBRANCH   2   3
ENDBRANCH   1   2
BRANCH   1  13
ATOM     13  C   UNL     1      17.352 -29.844  21.959  1.00  0.00     0.000 C 
BRANCH  13  14
ATOM     14  C   UNL     1      17.429 -30.943  20.882  1.00  0.00     0.000 C 
BRANCH  14  15
ATOM     15  C   UNL     1      18.730 -31.767  20.976  1.00  0.00     0.000 C 
BRANCH  15  16
ATOM     16  C   UNL     1      19.858 -31.068  21.761  1.00  0.00     0.000 C 
BRANCH  16  17
ATOM     17  C   UNL     1      20.392 -31.856  22.968  1.00  0.00     0.000 C 
BRANCH  17  18
ATOM     18  C   UNL     1      19.691 -31.481  24.282  1.00  0.00     0.000 C 
BRANCH  18  19
ATOM     19  C   UNL     1      19.016 -32.708  24.914  1.00  0.00     0.000 C 
BRANCH  19  20
ATOM     20  C   UNL     1      18.906 -33.896  23.940  1.00  0.00     0.006 C 
BRANCH  20  21
ATOM     21  C   UNL     1      17.482 -34.170  23.435  1.00  0.00     0.053 C 
BRANCH  21  22
ATOM     22  C   UNL     1      16.514 -34.360  24.562  1.00  0.00     0.041 C 
ATOM     23  O   UNL     1      16.695 -35.277  25.406  1.00  0.00    -0.550 OA
ATOM     24  O   UNL     1      15.425 -33.508  24.694  1.00  0.00    -0.550 OA
ENDBRANCH  21  22
ENDBRANCH  20  21
ENDBRANCH  19  20
ENDBRANCH  18  19
ENDBRANCH  17  18
ENDBRANCH  16  17
ENDBRANCH  15  16
ENDBRANCH  14  15
ENDBRANCH  13  14
ENDBRANCH   1  13
TORSDOF 20
ENDMDL
MODEL 7
REMARK VINA RESULT:    -4.795      2.181      5.137
REMARK INTER + INTRA:         -13.632
REMARK INTER:                  -9.878
REMARK INTRA:                  -3.754
REMARK UNBOUND:                -3.229
REMARK SMILES CCCCCCCCCCCCCCCCCCCCCC(=O)[O-]
REMARK SMILES IDX 12 1 11 2 10 3 9 4 8 5 7 6 6 7 5 8 4 9 3 10 2 11 1 12 13 13
REMARK SMILES IDX 14 14 15 15 16 16 17 17 18 18 19 19 20 20 21 21 22 22 23 23
REMARK SMILES IDX 24 24
REMARK H PARENT
REMARK Flexibility Score: inf
ROOT
ATOM      1  C   UNL     1      14.419 -32.908  23.715  1.00  0.00     0.000 C 
ENDROOT
BRANCH   1   2
ATOM      2  C   UNL     1      13.437 -31.762  23.410  1.00  0.00     0.000 C 
BRANCH   2   3
ATOM      3  C   UNL     1      13.966 -30.385  23.852  1.00  0.00     0.000 C 
BRANCH   3   4
ATOM      4  C   UNL     1      14.430 -29.464  22.707  1.00  0.00    -0.000 C 
BRANCH   4   5
ATOM      5  C   UNL     1      15.903 -29.684  22.319  1.00  0.00    -0.000 C 
BRANCH   5   6
ATOM      6  C   UNL     1      16.751 -30.241  23.478  1.00  0.00    -0.000 C 
BRANCH   6   7
ATOM      7  C   UNL     1      17.924 -31.146  23.057  1.00  0.00    -0.000 C 
BRANCH   7   8
ATOM      8  C   UNL     1      17.886 -31.525  21.569  1.00  0.00    -0.000 C 
BRANCH   8   9
ATOM      9  C   UNL     1      19.266 -31.350  20.921  1.00  0.00    -0.000 C 
BRANCH   9  10
ATOM     10  C   UNL     1      20.106 -30.319  21.689  1.00  0.00    -0.000 C 
BRANCH  10  11
ATOM     11  C   UNL     1      20.369 -29.044  20.874  1.00  0.00    -0.003 C 
ATOM     12  C   UNL     1      19.139 -28.144  20.768  1.00  0.00     0.004 C 
ENDBRANCH  10  11
ENDBRANCH   9  10
ENDBRANCH   8   9
ENDBRANCH   7   8
ENDBRANCH   6   7
ENDBRANCH   5   6
ENDBRANCH   4   5
ENDBRANCH   3   4
ENDBRANCH   2   3
ENDBRANCH   1   2
BRANCH   1  13
ATOM     13  C   UNL     1      15.024 -33.522  22.445  1.00  0.00     0.000 C 
BRANCH  13  14
ATOM     14  C   UNL     1      14.443 -32.909  21.157  1.00  0.00     0.000 C 
BRANCH  14  15
ATOM     15  C   UNL     1      14.646 -33.820  19.928  1.00  0.00     0.000 C 
BRANCH  15  16
ATOM     16  C   UNL     1      16.097 -34.310  19.747  1.00  0.00     0.000 C 
BRANCH  16  17
ATOM     17  C   UNL     1      16.282 -35.834  19.835  1.00  0.00     0.000 C 
BRANCH  17  18
ATOM     18  C   UNL     1      17.634 -36.235  20.446  1.00  0.00     0.000 C 
BRANCH  18  19
ATOM     19  C   UNL     1      18.325 -35.026  21.092  1.00  0.00     0.000 C 
BRANCH  19  20
ATOM     20  C   UNL     1      18.788 -35.303  22.535  1.00  0.00     0.006 C 
BRANCH  20  21
ATOM     21  C   UNL     1      17.643 -35.470  23.545  1.00  0.00     0.053 C 
BRANCH  21  22
ATOM     22  C   UNL     1      18.008 -34.942  24.899  1.00  0.00     0.041 C 
ATOM     23  O   UNL     1      17.595 -33.813  25.273  1.00  0.00    -0.550 OA
ATOM     24  O   UNL     1      18.784 -35.710  25.758  1.00  0.00    -0.550 OA
ENDBRANCH  21  22
ENDBRANCH  20  21
ENDBRANCH  19  20
ENDBRANCH  18  19
ENDBRANCH  17  18
ENDBRANCH  16  17
ENDBRANCH  15  16
ENDBRANCH  14  15
ENDBRANCH  13  14
ENDBRANCH   1  13
TORSDOF 20
ENDMDL
MODEL 8
REMARK VINA RESULT:    -4.775      3.243      5.394
REMARK INTER + INTRA:         -13.586
REMARK INTER:                  -9.808
REMARK INTRA:                  -3.778
REMARK UNBOUND:                -3.229
REMARK SMILES CCCCCCCCCCCCCCCCCCCCCC(=O)[O-]
REMARK SMILES IDX 12 1 11 2 10 3 9 4 8 5 7 6 6 7 5 8 4 9 3 10 2 11 1 12 13 13
REMARK SMILES IDX 14 14 15 15 16 16 17 17 18 18 19 19 20 20 21 21 22 22 23 23
REMARK SMILES IDX 24 24
REMARK H PARENT
REMARK Flexibility Score: inf
ROOT
ATOM      1  C   UNL     1      17.268 -30.488  21.267  1.00  0.00     0.000 C 
ENDROOT
BRANCH   1   2
ATOM      2  C   UNL     1      16.260 -29.481  21.848  1.00  0.00     0.000 C 
BRANCH   2   3
ATOM      3  C   UNL     1      15.589 -29.982  23.141  1.00  0.00     0.000 C 
BRANCH   3   4
ATOM      4  C   UNL     1      14.052 -29.878  23.163  1.00  0.00    -0.000 C 
BRANCH   4   5
ATOM      5  C   UNL     1      13.354 -31.223  22.893  1.00  0.00    -0.000 C 
BRANCH   5   6
ATOM      6  C   UNL     1      13.577 -31.736  21.458  1.00  0.00    -0.000 C 
BRANCH   6   7
ATOM      7  C   UNL     1      14.533 -32.936  21.331  1.00  0.00    -0.000 C 
BRANCH   7   8
ATOM      8  C   UNL     1      14.473 -33.608  19.950  1.00  0.00    -0.000 C 
BRANCH   8   9
ATOM      9  C   UNL     1      15.854 -34.127  19.530  1.00  0.00    -0.000 C 
BRANCH   9  10
ATOM     10  C   UNL     1      15.966 -35.641  19.766  1.00  0.00    -0.000 C 
BRANCH  10  11
ATOM     11  C   UNL     1      17.415 -36.146  19.684  1.00  0.00    -0.003 C 
ATOM     12  C   UNL     1      17.765 -37.124  20.805  1.00  0.00     0.004 C 
ENDBRANCH  10  11
ENDBRANCH   9  10
ENDBRANCH   8   9
ENDBRANCH   7   8
ENDBRANCH   6   7
ENDBRANCH   5   6
ENDBRANCH   4   5
ENDBRANCH   3   4
ENDBRANCH   2   3
ENDBRANCH   1   2
BRANCH   1  13
ATOM     13  C   UNL     1      18.689 -30.283  21.811  1.00  0.00     0.000 C 
BRANCH  13  14
ATOM     14  C   UNL     1      19.556 -31.551  21.695  1.00  0.00     0.000 C 
BRANCH  14  15
ATOM     15  C   UNL     1      18.717 -32.812  21.401  1.00  0.00     0.000 C 
BRANCH  15  16
ATOM     16  C   UNL     1      18.676 -33.820  22.567  1.00  0.00     0.000 C 
BRANCH  16  17
ATOM     17  C   UNL     1      17.266 -34.176  23.067  1.00  0.00     0.000 C 
BRANCH  17  18
ATOM     18  C   UNL     1      16.818 -33.305  24.251  1.00  0.00     0.000 C 
BRANCH  18  19
ATOM     19  C   UNL     1      18.015 -32.913  25.129  1.00  0.00     0.000 C 
BRANCH  19  20
ATOM     20  C   UNL     1      18.126 -31.392  25.343  1.00  0.00     0.006 C 
BRANCH  20  21
ATOM     21  C   UNL     1      19.568 -30.869  25.425  1.00  0.00     0.053 C 
BRANCH  21  22
ATOM     22  C   UNL     1      19.874 -30.276  26.766  1.00  0.00     0.041 C 
ATOM     23  O   UNL     1      19.431 -29.138  27.073  1.00  0.00    -0.550 OA
ATOM     24  O   UNL     1      20.628 -30.992  27.686  1.00  0.00    -0.550 OA
ENDBRANCH  21  22
ENDBRANCH  20  21
ENDBRANCH  19  20
ENDBRANCH  18  19
ENDBRANCH  17  18
ENDBRANCH  16  17
ENDBRANCH  15  16
ENDBRANCH  14  15
ENDBRANCH  13  14
ENDBRANCH   1  13
TORSDOF 20
ENDMDL
MODEL 9
REMARK VINA RESULT:    -4.749      1.729      4.776
REMARK INTER + INTRA:         -13.530
REMARK INTER:                  -9.628
REMARK INTRA:                  -3.902
REMARK UNBOUND:                -3.229
REMARK SMILES CCCCCCCCCCCCCCCCCCCCCC(=O)[O-]
REMARK SMILES IDX 12 1 11 2 10 3 9 4 8 5 7 6 6 7 5 8 4 9 3 10 2 11 1 12 13 13
REMARK SMILES IDX 14 14 15 15 16 16 17 17 18 18 19 19 20 20 21 21 22 22 23 23
REMARK SMILES IDX 24 24
REMARK H PARENT
REMARK Flexibility Score: inf
ROOT
ATOM      1  C   UNL     1      14.621 -30.619  21.416  1.00  0.00     0.000 C 
ENDROOT
BRANCH   1   2
ATOM      2  C   UNL     1      13.975 -32.016  21.406  1.00  0.00     0.000 C 
BRANCH   2   3
ATOM      3  C   UNL     1      14.603 -32.974  22.436  1.00  0.00     0.000 C 
BRANCH   3   4
ATOM      4  C   UNL     1      15.553 -34.035  21.847  1.00  0.00    -0.000 C 
BRANCH   4   5
ATOM      5  C   UNL     1      15.309 -34.296  20.350  1.00  0.00    -0.000 C 
BRANCH   5   6
ATOM      6  C   UNL     1      16.538 -33.977  19.478  1.00  0.00    -0.000 C 
BRANCH   6   7
ATOM      7  C   UNL     1      17.554 -35.125  19.330  1.00  0.00    -0.000 C 
BRANCH   7   8
ATOM      8  C   UNL     1      16.918 -36.514  19.493  1.00  0.00    -0.000 C 
BRANCH   8   9
ATOM      9  C   UNL     1      17.649 -37.332  20.565  1.00  0.00    -0.000 C 
BRANCH   9  10
ATOM     10  C   UNL     1      17.992 -36.459  21.782  1.00  0.00    -0.000 C 
BRANCH  10  11
ATOM     11  C   UNL     1      19.457 -36.605  22.220  1.00  0.00    -0.003 C 
ATOM     12  C   UNL     1      19.602 -37.252  23.597  1.00  0.00     0.004 C 
ENDBRANCH  10  11
ENDBRANCH   9  10
ENDBRANCH   8   9
ENDBRANCH   7   8
ENDBRANCH   6   7
ENDBRANCH   5   6
ENDBRANCH   4   5
ENDBRANCH   3   4
ENDBRANCH   2   3
ENDBRANCH   1   2
BRANCH   1  13
ATOM     13  C   UNL     1      15.724 -30.486  22.476  1.00  0.00     0.000 C 
BRANCH  13  14
ATOM     14  C   UNL     1      17.015 -29.865  21.911  1.00  0.00     0.000 C 
BRANCH  14  15
ATOM     15  C   UNL     1      17.755 -30.820  20.950  1.00  0.00     0.000 C 
BRANCH  15  16
ATOM     16  C   UNL     1      19.061 -31.400  21.529  1.00  0.00     0.000 C 
BRANCH  16  17
ATOM     17  C   UNL     1      18.994 -32.884  21.921  1.00  0.00     0.000 C 
BRANCH  17  18
ATOM     18  C   UNL     1      19.415 -33.136  23.377  1.00  0.00     0.000 C 
BRANCH  18  19
ATOM     19  C   UNL     1      18.206 -33.060  24.320  1.00  0.00     0.000 C 
BRANCH  19  20
ATOM     20  C   UNL     1      18.224 -34.153  25.404  1.00  0.00     0.006 C 
BRANCH  20  21
ATOM     21  C   UNL     1      17.064 -35.156  25.310  1.00  0.00     0.053 C 
BRANCH  21  22
ATOM     22  C   UNL     1      17.238 -36.305  26.256  1.00  0.00     0.041 C 
ATOM     23  O   UNL     1      16.275 -37.080  26.498  1.00  0.00    -0.550 OA
ATOM     24  O   UNL     1      18.472 -36.535  26.850  1.00  0.00    -0.550 OA
ENDBRANCH  21  22
ENDBRANCH  20  21
ENDBRANCH  19  20
ENDBRANCH  18  19
ENDBRANCH  17  18
ENDBRANCH  16  17
ENDBRANCH  15  16
ENDBRANCH  14  15
ENDBRANCH  13  14
ENDBRANCH   1  13
TORSDOF 20
ENDMDL
