MODEL 1
REMARK VINA RESULT:    -3.900      0.000      0.000
REMARK INTER + INTRA:         -12.325
REMARK INTER:                  -8.917
REMARK INTRA:                  -3.408
REMARK UNBOUND:                -3.408
REMARK SMILES CCCCCCCCCCCCCCCCCCCCCCCC(=O)[O-]
REMARK SMILES IDX 13 1 14 2 15 3 16 4 17 5 18 6 19 7 20 8 21 9 22 10 23 11
REMARK SMILES IDX 24 12 25 13 26 14 12 15 11 16 10 17 9 18 8 19 7 20 6 21 5 22
REMARK SMILES IDX 4 23 3 24 2 25 1 26
REMARK H PARENT
REMARK Flexibility Score: inf
ROOT
ATOM      1  C   UNL     1      12.790  62.798   7.194  1.00  0.00     0.000 C 
ENDROOT
BRANCH   1   2
ATOM      2  C   UNL     1      11.522  62.188   7.812  1.00  0.00     0.000 C 
BRANCH   2   3
ATOM      3  C   UNL     1      10.951  63.103   8.905  1.00  0.00     0.000 C 
BRANCH   3   4
ATOM      4  C   UNL     1       9.466  63.433   8.681  1.00  0.00     0.000 C 
BRANCH   4   5
ATOM      5  C   UNL     1       9.179  64.942   8.767  1.00  0.00     0.000 C 
BRANCH   5   6
ATOM      6  C   UNL     1       7.673  65.259   8.828  1.00  0.00     0.000 C 
BRANCH   6   7
ATOM      7  C   UNL     1       6.742  64.036   8.714  1.00  0.00     0.000 C 
BRANCH   7   8
ATOM      8  C   UNL     1       5.253  64.367   8.496  1.00  0.00     0.000 C 
BRANCH   8   9
ATOM      9  C   UNL     1       4.811  65.741   9.024  1.00  0.00     0.000 C 
BRANCH   9  10
ATOM     10  C   UNL     1       4.247  66.650   7.922  1.00  0.00     0.006 C 
BRANCH  10  11
ATOM     11  C   UNL     1       4.742  66.209   6.541  1.00  0.00     0.053 C 
BRANCH  11  12
ATOM     12  C   UNL     1       3.886  66.799   5.463  1.00  0.00     0.041 C 
ATOM     13  O   UNL     1       2.768  67.304   5.745  1.00  0.00    -0.550 OA
ATOM     14  O   UNL     1       4.338  66.818   4.148  1.00  0.00    -0.550 OA
ENDBRANCH  11  12
ENDBRANCH  10  11
ENDBRANCH   9  10
ENDBRANCH   8   9
ENDBRANCH   7   8
ENDBRANCH   6   7
ENDBRANCH   5   6
ENDBRANCH   4   5
ENDBRANCH   3   4
ENDBRANCH   2   3
ENDBRANCH   1   2
BRANCH   1  15
ATOM     15  C   UNL     1      13.468  63.818   8.121  1.00  0.00     0.000 C 
BRANCH  15  16
ATOM     16  C   UNL     1      13.702  65.175   7.438  1.00  0.00     0.000 C 
BRANCH  16  17
ATOM     17  C   UNL     1      12.635  66.194   7.862  1.00  0.00     0.000 C 
BRANCH  17  18
ATOM     18  C   UNL     1      11.854  66.772   6.668  1.00  0.00    -0.000 C 
BRANCH  18  19
ATOM     19  C   UNL     1      11.235  65.722   5.724  1.00  0.00    -0.000 C 
BRANCH  19  20
ATOM     20  C   UNL     1      11.775  65.744   4.283  1.00  0.00    -0.000 C 
BRANCH  20  21
ATOM     21  C   UNL     1      10.657  65.713   3.228  1.00  0.00    -0.000 C 
BRANCH  21  22
ATOM     22  C   UNL     1      10.537  67.033   2.450  1.00  0.00    -0.000 C 
BRANCH  22  23
ATOM     23  C   UNL     1       9.139  67.668   2.567  1.00  0.00    -0.000 C 
BRANCH  23  24
ATOM     24  C   UNL     1       8.989  68.510   3.852  1.00  0.00    -0.000 C 
BRANCH  24  25
ATOM     25  C   UNL     1       7.800  68.083   4.727  1.00  0.00    -0.003 C 
ATOM     26  C   UNL     1       8.212  67.708   6.150  1.00  0.00     0.004 C 
ENDBRANCH  24  25
ENDBRANCH  23  24
ENDBRANCH  22  23
ENDBRANCH  21  22
ENDBRANCH  20  21
ENDBRANCH  19  20
ENDBRANCH  18  19
ENDBRANCH  17  18
ENDBRANCH  16  17
ENDBRANCH  15  16
ENDBRANCH   1  15
TORSDOF 22
ENDMDL
MODEL 2
REMARK VINA RESULT:    -3.816      2.194      6.050
REMARK INTER + INTRA:         -12.133
REMARK INTER:                  -8.913
REMARK INTRA:                  -3.220
REMARK UNBOUND:                -3.408
REMARK SMILES CCCCCCCCCCCCCCCCCCCCCCCC(=O)[O-]
REMARK SMILES IDX 13 1 14 2 15 3 16 4 17 5 18 6 19 7 20 8 21 9 22 10 23 11
REMARK SMILES IDX 24 12 25 13 26 14 12 15 11 16 10 17 9 18 8 19 7 20 6 21 5 22
REMARK SMILES IDX 4 23 3 24 2 25 1 26
REMARK H PARENT
REMARK Flexibility Score: inf
ROOT
ATOM      1  C   UNL     1       8.932  64.944   8.736  1.00  0.00     0.000 C 
ENDROOT
BRANCH   1   2
ATOM      2  C   UNL     1       9.225  63.440   8.624  1.00  0.00     0.000 C 
BRANCH   2   3
ATOM      3  C   UNL     1      10.457  63.059   9.459  1.00  0.00     0.000 C 
BRANCH   3   4
ATOM      4  C   UNL     1      11.773  63.241   8.685  1.00  0.00     0.000 C 
BRANCH   4   5
ATOM      5  C   UNL     1      11.885  62.290   7.481  1.00  0.00     0.000 C 
BRANCH   5   6
ATOM      6  C   UNL     1      12.934  62.751   6.453  1.00  0.00     0.000 C 
BRANCH   6   7
ATOM      7  C   UNL     1      13.390  64.216   6.596  1.00  0.00     0.000 C 
BRANCH   7   8
ATOM      8  C   UNL     1      12.663  65.219   5.679  1.00  0.00     0.000 C 
BRANCH   8   9
ATOM      9  C   UNL     1      11.701  66.177   6.400  1.00  0.00     0.000 C 
BRANCH   9  10
ATOM     10  C   UNL     1      10.358  66.332   5.671  1.00  0.00     0.006 C 
BRANCH  10  11
ATOM     11  C   UNL     1      10.538  66.204   4.155  1.00  0.00     0.053 C 
BRANCH  11  12
ATOM     12  C   UNL     1      10.557  67.555   3.512  1.00  0.00     0.041 C 
ATOM     13  O   UNL     1      10.970  67.690   2.330  1.00  0.00    -0.550 OA
ATOM     14  O   UNL     1      10.090  68.664   4.209  1.00  0.00    -0.550 OA
ENDBRANCH  11  12
ENDBRANCH  10  11
ENDBRANCH   9  10
ENDBRANCH   8   9
ENDBRANCH   7   8
ENDBRANCH   6   7
ENDBRANCH   5   6
ENDBRANCH   4   5
ENDBRANCH   3   4
ENDBRANCH   2   3
ENDBRANCH   1   2
BRANCH   1  15
ATOM     15  C   UNL     1       7.445  65.241   8.985  1.00  0.00     0.000 C 
BRANCH  15  16
ATOM     16  C   UNL     1       6.521  64.145   8.430  1.00  0.00     0.000 C 
BRANCH  16  17
ATOM     17  C   UNL     1       5.052  64.451   8.751  1.00  0.00     0.000 C 
BRANCH  17  18
ATOM     18  C   UNL     1       4.739  65.958   8.736  1.00  0.00    -0.000 C 
BRANCH  18  19
ATOM     19  C   UNL     1       4.302  66.520   7.368  1.00  0.00    -0.000 C 
BRANCH  19  20
ATOM     20  C   UNL     1       5.107  67.738   6.879  1.00  0.00    -0.000 C 
BRANCH  20  21
ATOM     21  C   UNL     1       6.408  67.342   6.162  1.00  0.00    -0.000 C 
BRANCH  21  22
ATOM     22  C   UNL     1       6.592  68.068   4.820  1.00  0.00    -0.000 C 
BRANCH  22  23
ATOM     23  C   UNL     1       6.579  67.106   3.618  1.00  0.00    -0.000 C 
BRANCH  23  24
ATOM     24  C   UNL     1       5.311  66.227   3.589  1.00  0.00    -0.000 C 
BRANCH  24  25
ATOM     25  C   UNL     1       4.025  67.017   3.296  1.00  0.00    -0.003 C 
ATOM     26  C   UNL     1       2.794  66.428   3.984  1.00  0.00     0.004 C 
ENDBRANCH  24  25
ENDBRANCH  23  24
ENDBRANCH  22  23
ENDBRANCH  21  22
ENDBRANCH  20  21
ENDBRANCH  19  20
ENDBRANCH  18  19
ENDBRANCH  17  18
ENDBRANCH  16  17
ENDBRANCH  15  16
ENDBRANCH   1  15
TORSDOF 22
ENDMDL
MODEL 3
REMARK VINA RESULT:    -3.808      3.337      6.203
REMARK INTER + INTRA:         -12.115
REMARK INTER:                  -8.493
REMARK INTRA:                  -3.622
REMARK UNBOUND:                -3.408
REMARK SMILES CCCCCCCCCCCCCCCCCCCCCCCC(=O)[O-]
REMARK SMILES IDX 13 1 14 2 15 3 16 4 17 5 18 6 19 7 20 8 21 9 22 10 23 11
REMARK SMILES IDX 24 12 25 13 26 14 12 15 11 16 10 17 9 18 8 19 7 20 6 21 5 22
REMARK SMILES IDX 4 23 3 24 2 25 1 26
REMARK H PARENT
REMARK Flexibility Score: inf
ROOT
ATOM      1  C   UNL     1      12.316  64.976   5.277  1.00  0.00     0.000 C 
ENDROOT
BRANCH   1   2
ATOM      2  C   UNL     1      13.248  65.262   6.464  1.00  0.00     0.000 C 
BRANCH   2   3
ATOM      3  C   UNL     1      13.434  64.006   7.329  1.00  0.00     0.000 C 
BRANCH   3   4
ATOM      4  C   UNL     1      12.818  62.752   6.686  1.00  0.00     0.000 C 
BRANCH   4   5
ATOM      5  C   UNL     1      11.815  62.046   7.616  1.00  0.00     0.000 C 
BRANCH   5   6
ATOM      6  C   UNL     1      11.244  62.982   8.696  1.00  0.00     0.000 C 
BRANCH   6   7
ATOM      7  C   UNL     1       9.810  63.484   8.434  1.00  0.00     0.000 C 
BRANCH   7   8
ATOM      8  C   UNL     1       9.662  65.014   8.332  1.00  0.00     0.000 C 
BRANCH   8   9
ATOM      9  C   UNL     1      10.401  65.810   9.421  1.00  0.00     0.000 C 
BRANCH   9  10
ATOM     10  C   UNL     1      10.976  67.137   8.902  1.00  0.00     0.006 C 
BRANCH  10  11
ATOM     11  C   UNL     1      12.476  67.236   9.192  1.00  0.00     0.053 C 
BRANCH  11  12
ATOM     12  C   UNL     1      12.796  66.627  10.522  1.00  0.00     0.041 C 
ATOM     13  O   UNL     1      12.353  67.144  11.580  1.00  0.00    -0.550 OA
ATOM     14  O   UNL     1      13.561  65.468  10.590  1.00  0.00    -0.550 OA
ENDBRANCH  11  12
ENDBRANCH  10  11
ENDBRANCH   9  10
ENDBRANCH   8   9
ENDBRANCH   7   8
ENDBRANCH   6   7
ENDBRANCH   5   6
ENDBRANCH   4   5
ENDBRANCH   3   4
ENDBRANCH   2   3
ENDBRANCH   1   2
BRANCH   1  15
ATOM     15  C   UNL     1      11.213  66.035   5.122  1.00  0.00     0.000 C 
BRANCH  15  16
ATOM     16  C   UNL     1      10.563  66.014   3.729  1.00  0.00     0.000 C 
BRANCH  16  17
ATOM     17  C   UNL     1       9.517  67.128   3.595  1.00  0.00     0.000 C 
BRANCH  17  18
ATOM     18  C   UNL     1       9.074  67.699   4.954  1.00  0.00    -0.000 C 
BRANCH  18  19
ATOM     19  C   UNL     1       7.732  68.459   4.937  1.00  0.00    -0.000 C 
BRANCH  19  20
ATOM     20  C   UNL     1       6.724  68.023   6.015  1.00  0.00    -0.000 C 
BRANCH  20  21
ATOM     21  C   UNL     1       7.375  67.202   7.141  1.00  0.00    -0.000 C 
BRANCH  21  22
ATOM     22  C   UNL     1       6.929  67.656   8.540  1.00  0.00    -0.000 C 
BRANCH  22  23
ATOM     23  C   UNL     1       6.307  66.514   9.364  1.00  0.00    -0.000 C 
BRANCH  23  24
ATOM     24  C   UNL     1       4.990  65.998   8.744  1.00  0.00    -0.000 C 
BRANCH  24  25
ATOM     25  C   UNL     1       4.822  64.474   8.847  1.00  0.00    -0.003 C 
ATOM     26  C   UNL     1       6.074  63.707   8.425  1.00  0.00     0.004 C 
ENDBRANCH  24  25
ENDBRANCH  23  24
ENDBRANCH  22  23
ENDBRANCH  21  22
ENDBRANCH  20  21
ENDBRANCH  19  20
ENDBRANCH  18  19
ENDBRANCH  17  18
ENDBRANCH  16  17
ENDBRANCH  15  16
ENDBRANCH   1  15
TORSDOF 22
ENDMDL
MODEL 4
REMARK VINA RESULT:    -3.787      2.104      5.854
REMARK INTER + INTRA:         -12.065
REMARK INTER:                  -7.846
REMARK INTRA:                  -4.219
REMARK UNBOUND:                -3.408
REMARK SMILES CCCCCCCCCCCCCCCCCCCCCCCC(=O)[O-]
REMARK SMILES IDX 13 1 14 2 15 3 16 4 17 5 18 6 19 7 20 8 21 9 22 10 23 11
REMARK SMILES IDX 24 12 25 13 26 14 12 15 11 16 10 17 9 18 8 19 7 20 6 21 5 22
REMARK SMILES IDX 4 23 3 24 2 25 1 26
REMARK H PARENT
REMARK Flexibility Score: inf
ROOT
ATOM      1  C   UNL     1       9.867  64.848   8.285  1.00  0.00     0.000 C 
ENDROOT
BRANCH   1   2
ATOM      2  C   UNL     1       9.751  63.371   8.694  1.00  0.00     0.000 C 
BRANCH   2   3
ATOM      3  C   UNL     1      11.140  62.755   8.917  1.00  0.00     0.000 C 
BRANCH   3   4
ATOM      4  C   UNL     1      11.781  62.260   7.609  1.00  0.00     0.000 C 
BRANCH   4   5
ATOM      5  C   UNL     1      13.019  63.084   7.212  1.00  0.00     0.000 C 
BRANCH   5   6
ATOM      6  C   UNL     1      13.612  63.874   8.393  1.00  0.00     0.000 C 
BRANCH   6   7
ATOM      7  C   UNL     1      14.021  65.325   8.069  1.00  0.00     0.000 C 
BRANCH   7   8
ATOM      8  C   UNL     1      13.501  65.865   6.723  1.00  0.00     0.000 C 
BRANCH   8   9
ATOM      9  C   UNL     1      12.764  67.211   6.806  1.00  0.00     0.000 C 
BRANCH   9  10
ATOM     10  C   UNL     1      11.513  67.261   5.916  1.00  0.00     0.006 C 
BRANCH  10  11
ATOM     11  C   UNL     1      11.333  65.948   5.148  1.00  0.00     0.053 C 
BRANCH  11  12
ATOM     12  C   UNL     1      10.474  66.160   3.941  1.00  0.00     0.041 C 
ATOM     13  O   UNL     1       9.692  67.145   3.882  1.00  0.00    -0.550 OA
ATOM     14  O   UNL     1      10.559  65.284   2.864  1.00  0.00    -0.550 OA
ENDBRANCH  11  12
ENDBRANCH  10  11
ENDBRANCH   9  10
ENDBRANCH   8   9
ENDBRANCH   7   8
ENDBRANCH   6   7
ENDBRANCH   5   6
ENDBRANCH   4   5
ENDBRANCH   3   4
ENDBRANCH   2   3
ENDBRANCH   1   2
BRANCH   1  15
ATOM     15  C   UNL     1      10.489  65.720   9.387  1.00  0.00     0.000 C 
BRANCH  15  16
ATOM     16  C   UNL     1       9.972  67.168   9.359  1.00  0.00     0.000 C 
BRANCH  16  17
ATOM     17  C   UNL     1       8.703  67.281   8.503  1.00  0.00     0.000 C 
BRANCH  17  18
ATOM     18  C   UNL     1       7.444  67.573   9.339  1.00  0.00    -0.000 C 
BRANCH  18  19
ATOM     19  C   UNL     1       6.764  66.331   9.950  1.00  0.00    -0.000 C 
BRANCH  19  20
ATOM     20  C   UNL     1       6.400  65.227   8.942  1.00  0.00    -0.000 C 
BRANCH  20  21
ATOM     21  C   UNL     1       4.882  65.088   8.733  1.00  0.00    -0.000 C 
BRANCH  21  22
ATOM     22  C   UNL     1       4.286  66.250   7.923  1.00  0.00    -0.000 C 
BRANCH  22  23
ATOM     23  C   UNL     1       4.787  66.279   6.468  1.00  0.00    -0.000 C 
BRANCH  23  24
ATOM     24  C   UNL     1       5.156  67.706   6.009  1.00  0.00    -0.000 C 
BRANCH  24  25
ATOM     25  C   UNL     1       6.568  67.809   5.408  1.00  0.00    -0.003 C 
ATOM     26  C   UNL     1       7.249  69.142   5.714  1.00  0.00     0.004 C 
ENDBRANCH  24  25
ENDBRANCH  23  24
ENDBRANCH  22  23
ENDBRANCH  21  22
ENDBRANCH  20  21
ENDBRANCH  19  20
ENDBRANCH  18  19
ENDBRANCH  17  18
ENDBRANCH  16  17
ENDBRANCH  15  16
ENDBRANCH   1  15
TORSDOF 22
ENDMDL
MODEL 5
REMARK VINA RESULT:    -3.775      2.392      4.626
REMARK INTER + INTRA:         -12.038
REMARK INTER:                  -7.918
REMARK INTRA:                  -4.120
REMARK UNBOUND:                -3.408
REMARK SMILES CCCCCCCCCCCCCCCCCCCCCCCC(=O)[O-]
REMARK SMILES IDX 13 1 14 2 15 3 16 4 17 5 18 6 19 7 20 8 21 9 22 10 23 11
REMARK SMILES IDX 24 12 25 13 26 14 12 15 11 16 10 17 9 18 8 19 7 20 6 21 5 22
REMARK SMILES IDX 4 23 3 24 2 25 1 26
REMARK H PARENT
REMARK Flexibility Score: inf
ROOT
ATOM      1  C   UNL     1       9.764  63.525   8.735  1.00  0.00     0.000 C 
ENDROOT
BRANCH   1   2
ATOM      2  C   UNL     1       9.793  64.992   8.281  1.00  0.00     0.000 C 
BRANCH   2   3
ATOM      3  C   UNL     1       8.638  65.783   8.914  1.00  0.00     0.000 C 
BRANCH   3   4
ATOM      4  C   UNL     1       8.745  67.295   8.650  1.00  0.00     0.000 C 
BRANCH   4   5
ATOM      5  C   UNL     1       8.961  67.619   7.161  1.00  0.00     0.000 C 
BRANCH   5   6
ATOM      6  C   UNL     1       7.785  68.398   6.544  1.00  0.00     0.000 C 
BRANCH   6   7
ATOM      7  C   UNL     1       6.749  67.534   5.798  1.00  0.00     0.000 C 
BRANCH   7   8
ATOM      8  C   UNL     1       5.305  67.645   6.326  1.00  0.00     0.000 C 
BRANCH   8   9
ATOM      9  C   UNL     1       5.187  67.965   7.825  1.00  0.00     0.000 C 
BRANCH   9  10
ATOM     10  C   UNL     1       4.792  66.742   8.666  1.00  0.00     0.006 C 
BRANCH  10  11
ATOM     11  C   UNL     1       4.820  65.464   7.823  1.00  0.00     0.053 C 
BRANCH  11  12
ATOM     12  C   UNL     1       5.109  64.273   8.683  1.00  0.00     0.041 C 
ATOM     13  O   UNL     1       6.080  63.518   8.417  1.00  0.00    -0.550 OA
ATOM     14  O   UNL     1       4.321  64.013   9.799  1.00  0.00    -0.550 OA
ENDBRANCH  11  12
ENDBRANCH  10  11
ENDBRANCH   9  10
ENDBRANCH   8   9
ENDBRANCH   7   8
ENDBRANCH   6   7
ENDBRANCH   5   6
ENDBRANCH   4   5
ENDBRANCH   3   4
ENDBRANCH   2   3
ENDBRANCH   1   2
BRANCH   1  15
ATOM     15  C   UNL     1      11.171  62.933   8.914  1.00  0.00     0.000 C 
BRANCH  15  16
ATOM     16  C   UNL     1      11.580  62.014   7.752  1.00  0.00     0.000 C 
BRANCH  16  17
ATOM     17  C   UNL     1      12.711  62.642   6.928  1.00  0.00     0.000 C 
BRANCH  17  18
ATOM     18  C   UNL     1      13.564  63.632   7.741  1.00  0.00    -0.000 C 
BRANCH  18  19
ATOM     19  C   UNL     1      14.047  64.871   6.960  1.00  0.00    -0.000 C 
BRANCH  19  20
ATOM     20  C   UNL     1      12.955  65.602   6.160  1.00  0.00    -0.000 C 
BRANCH  20  21
ATOM     21  C   UNL     1      12.430  66.857   6.879  1.00  0.00    -0.000 C 
BRANCH  21  22
ATOM     22  C   UNL     1      13.291  67.252   8.088  1.00  0.00    -0.000 C 
BRANCH  22  23
ATOM     23  C   UNL     1      12.493  67.274   9.404  1.00  0.00    -0.000 C 
BRANCH  23  24
ATOM     24  C   UNL     1      12.780  66.035  10.279  1.00  0.00    -0.000 C 
BRANCH  24  25
ATOM     25  C   UNL     1      11.736  65.813  11.385  1.00  0.00    -0.003 C 
ATOM     26  C   UNL     1      10.895  67.056  11.668  1.00  0.00     0.004 C 
ENDBRANCH  24  25
ENDBRANCH  23  24
ENDBRANCH  22  23
ENDBRANCH  21  22
ENDBRANCH  20  21
ENDBRANCH  19  20
ENDBRANCH  18  19
ENDBRANCH  17  18
ENDBRANCH  16  17
ENDBRANCH  15  16
ENDBRANCH   1  15
TORSDOF 22
ENDMDL
MODEL 6
REMARK VINA RESULT:    -3.717      2.457      6.131
REMARK INTER + INTRA:         -11.905
REMARK INTER:                  -7.842
REMARK INTRA:                  -4.063
REMARK UNBOUND:                -3.408
REMARK SMILES CCCCCCCCCCCCCCCCCCCCCCCC(=O)[O-]
REMARK SMILES IDX 13 1 14 2 15 3 16 4 17 5 18 6 19 7 20 8 21 9 22 10 23 11
REMARK SMILES IDX 24 12 25 13 26 14 12 15 11 16 10 17 9 18 8 19 7 20 6 21 5 22
REMARK SMILES IDX 4 23 3 24 2 25 1 26
REMARK H PARENT
REMARK Flexibility Score: inf
ROOT
ATOM      1  C   UNL     1       9.757  63.500   8.509  1.00  0.00     0.000 C 
ENDROOT
BRANCH   1   2
ATOM      2  C   UNL     1      11.180  63.060   8.884  1.00  0.00     0.000 C 
BRANCH   2   3
ATOM      3  C   UNL     1      11.998  62.725   7.628  1.00  0.00     0.000 C 
BRANCH   3   4
ATOM      4  C   UNL     1      13.334  63.486   7.574  1.00  0.00     0.000 C 
BRANCH   4   5
ATOM      5  C   UNL     1      13.631  64.247   8.878  1.00  0.00     0.000 C 
BRANCH   5   6
ATOM      6  C   UNL     1      14.125  65.684   8.630  1.00  0.00     0.000 C 
BRANCH   6   7
ATOM      7  C   UNL     1      13.013  66.728   8.409  1.00  0.00     0.000 C 
BRANCH   7   8
ATOM      8  C   UNL     1      12.860  67.221   6.957  1.00  0.00     0.000 C 
BRANCH   8   9
ATOM      9  C   UNL     1      11.425  67.174   6.405  1.00  0.00     0.000 C 
BRANCH   9  10
ATOM     10  C   UNL     1      11.067  65.811   5.795  1.00  0.00     0.006 C 
BRANCH  10  11
ATOM     11  C   UNL     1      12.081  65.405   4.721  1.00  0.00     0.053 C 
BRANCH  11  12
ATOM     12  C   UNL     1      11.790  66.109   3.432  1.00  0.00     0.041 C 
ATOM     13  O   UNL     1      10.817  65.751   2.719  1.00  0.00    -0.550 OA
ATOM     14  O   UNL     1      12.579  67.182   3.032  1.00  0.00    -0.550 OA
ENDBRANCH  11  12
ENDBRANCH  10  11
ENDBRANCH   9  10
ENDBRANCH   8   9
ENDBRANCH   7   8
ENDBRANCH   6   7
ENDBRANCH   5   6
ENDBRANCH   4   5
ENDBRANCH   3   4
ENDBRANCH   2   3
ENDBRANCH   1   2
BRANCH   1  15
ATOM     15  C   UNL     1       9.495  64.983   8.814  1.00  0.00     0.000 C 
BRANCH  15  16
ATOM     16  C   UNL     1       8.002  65.345   8.757  1.00  0.00     0.000 C 
BRANCH  16  17
ATOM     17  C   UNL     1       7.132  64.082   8.717  1.00  0.00     0.000 C 
BRANCH  17  18
ATOM     18  C   UNL     1       5.656  64.382   8.402  1.00  0.00    -0.000 C 
BRANCH  18  19
ATOM     19  C   UNL     1       5.107  65.679   9.028  1.00  0.00    -0.000 C 
BRANCH  19  20
ATOM     20  C   UNL     1       4.394  66.625   8.045  1.00  0.00    -0.000 C 
BRANCH  20  21
ATOM     21  C   UNL     1       4.462  66.132   6.589  1.00  0.00    -0.000 C 
BRANCH  21  22
ATOM     22  C   UNL     1       5.215  67.103   5.668  1.00  0.00    -0.000 C 
BRANCH  22  23
ATOM     23  C   UNL     1       5.957  68.206   6.447  1.00  0.00    -0.000 C 
BRANCH  23  24
ATOM     24  C   UNL     1       7.490  68.037   6.376  1.00  0.00    -0.000 C 
BRANCH  24  25
ATOM     25  C   UNL     1       8.236  68.749   7.515  1.00  0.00    -0.003 C 
ATOM     26  C   UNL     1       7.358  68.991   8.742  1.00  0.00     0.004 C 
ENDBRANCH  24  25
ENDBRANCH  23  24
ENDBRANCH  22  23
ENDBRANCH  21  22
ENDBRANCH  20  21
ENDBRANCH  19  20
ENDBRANCH  18  19
ENDBRANCH  17  18
ENDBRANCH  16  17
ENDBRANCH  15  16
ENDBRANCH   1  15
TORSDOF 22
ENDMDL
MODEL 7
REMARK VINA RESULT:    -3.689      2.350      5.704
REMARK INTER + INTRA:         -11.841
REMARK INTER:                  -8.227
REMARK INTRA:                  -3.614
REMARK UNBOUND:                -3.408
REMARK SMILES CCCCCCCCCCCCCCCCCCCCCCCC(=O)[O-]
REMARK SMILES IDX 13 1 14 2 15 3 16 4 17 5 18 6 19 7 20 8 21 9 22 10 23 11
REMARK SMILES IDX 24 12 25 13 26 14 12 15 11 16 10 17 9 18 8 19 7 20 6 21 5 22
REMARK SMILES IDX 4 23 3 24 2 25 1 26
REMARK H PARENT
REMARK Flexibility Score: inf
ROOT
ATOM      1  C   UNL     1       9.718  65.159   8.179  1.00  0.00     0.000 C 
ENDROOT
BRANCH   1   2
ATOM      2  C   UNL     1       9.628  63.645   8.424  1.00  0.00     0.000 C 
BRANCH   2   3
ATOM      3  C   UNL     1      10.963  63.095   8.949  1.00  0.00     0.000 C 
BRANCH   3   4
ATOM      4  C   UNL     1      11.548  62.002   8.038  1.00  0.00     0.000 C 
BRANCH   4   5
ATOM      5  C   UNL     1      12.598  62.552   7.058  1.00  0.00     0.000 C 
BRANCH   5   6
ATOM      6  C   UNL     1      13.383  63.745   7.633  1.00  0.00     0.000 C 
BRANCH   6   7
ATOM      7  C   UNL     1      13.516  64.957   6.690  1.00  0.00     0.000 C 
BRANCH   7   8
ATOM      8  C   UNL     1      12.513  64.987   5.520  1.00  0.00     0.000 C 
BRANCH   8   9
ATOM      9  C   UNL     1      11.901  66.367   5.227  1.00  0.00     0.000 C 
BRANCH   9  10
ATOM     10  C   UNL     1      10.504  66.277   4.597  1.00  0.00     0.006 C 
BRANCH  10  11
ATOM     11  C   UNL     1      10.593  65.912   3.112  1.00  0.00     0.053 C 
BRANCH  11  12
ATOM     12  C   UNL     1      10.698  67.147   2.272  1.00  0.00     0.041 C 
ATOM     13  O   UNL     1      10.301  68.255   2.720  1.00  0.00    -0.550 OA
ATOM     14  O   UNL     1      11.262  67.080   1.004  1.00  0.00    -0.550 OA
ENDBRANCH  11  12
ENDBRANCH  10  11
ENDBRANCH   9  10
ENDBRANCH   8   9
ENDBRANCH   7   8
ENDBRANCH   6   7
ENDBRANCH   5   6
ENDBRANCH   4   5
ENDBRANCH   3   4
ENDBRANCH   2   3
ENDBRANCH   1   2
BRANCH   1  15
ATOM     15  C   UNL     1      10.493  65.893   9.284  1.00  0.00     0.000 C 
BRANCH  15  16
ATOM     16  C   UNL     1      11.333  67.062   8.744  1.00  0.00     0.000 C 
BRANCH  16  17
ATOM     17  C   UNL     1      10.913  68.386   9.395  1.00  0.00     0.000 C 
BRANCH  17  18
ATOM     18  C   UNL     1       9.739  69.065   8.668  1.00  0.00    -0.000 C 
BRANCH  18  19
ATOM     19  C   UNL     1       9.610  68.716   7.171  1.00  0.00    -0.000 C 
BRANCH  19  20
ATOM     20  C   UNL     1       8.173  68.732   6.621  1.00  0.00    -0.000 C 
BRANCH  20  21
ATOM     21  C   UNL     1       7.310  67.587   7.177  1.00  0.00    -0.000 C 
BRANCH  21  22
ATOM     22  C   UNL     1       5.837  67.694   6.754  1.00  0.00    -0.000 C 
BRANCH  22  23
ATOM     23  C   UNL     1       5.091  66.351   6.853  1.00  0.00    -0.000 C 
BRANCH  23  24
ATOM     24  C   UNL     1       4.389  66.175   8.217  1.00  0.00    -0.000 C 
BRANCH  24  25
ATOM     25  C   UNL     1       5.155  65.258   9.185  1.00  0.00    -0.003 C 
ATOM     26  C   UNL     1       5.673  63.986   8.515  1.00  0.00     0.004 C 
ENDBRANCH  24  25
ENDBRANCH  23  24
ENDBRANCH  22  23
ENDBRANCH  21  22
ENDBRANCH  20  21
ENDBRANCH  19  20
ENDBRANCH  18  19
ENDBRANCH  17  18
ENDBRANCH  16  17
ENDBRANCH  15  16
ENDBRANCH   1  15
TORSDOF 22
ENDMDL
MODEL 8
REMARK VINA RESULT:    -3.680      2.098      5.097
REMARK INTER + INTRA:         -11.822
REMARK INTER:                  -8.751
REMARK INTRA:                  -3.071
REMARK UNBOUND:                -3.408
REMARK SMILES CCCCCCCCCCCCCCCCCCCCCCCC(=O)[O-]
REMARK SMILES IDX 13 1 14 2 15 3 16 4 17 5 18 6 19 7 20 8 21 9 22 10 23 11
REMARK SMILES IDX 24 12 25 13 26 14 12 15 11 16 10 17 9 18 8 19 7 20 6 21 5 22
REMARK SMILES IDX 4 23 3 24 2 25 1 26
REMARK H PARENT
REMARK Flexibility Score: inf
ROOT
ATOM      1  C   UNL     1       7.420  64.346   8.745  1.00  0.00     0.000 C 
ENDROOT
BRANCH   1   2
ATOM      2  C   UNL     1       6.120  63.607   8.393  1.00  0.00     0.000 C 
BRANCH   2   3
ATOM      3  C   UNL     1       4.893  64.422   8.828  1.00  0.00     0.000 C 
BRANCH   3   4
ATOM      4  C   UNL     1       5.127  65.939   8.728  1.00  0.00     0.000 C 
BRANCH   4   5
ATOM      5  C   UNL     1       4.203  66.611   7.698  1.00  0.00     0.000 C 
BRANCH   5   6
ATOM      6  C   UNL     1       4.741  66.510   6.259  1.00  0.00     0.000 C 
BRANCH   6   7
ATOM      7  C   UNL     1       4.708  67.825   5.454  1.00  0.00     0.000 C 
BRANCH   7   8
ATOM      8  C   UNL     1       6.038  68.602   5.418  1.00  0.00     0.000 C 
BRANCH   8   9
ATOM      9  C   UNL     1       7.299  67.735   5.566  1.00  0.00     0.000 C 
BRANCH   9  10
ATOM     10  C   UNL     1       8.432  68.166   4.623  1.00  0.00     0.006 C 
BRANCH  10  11
ATOM     11  C   UNL     1       8.312  67.469   3.264  1.00  0.00     0.053 C 
BRANCH  11  12
ATOM     12  C   UNL     1       9.635  66.912   2.840  1.00  0.00     0.041 C 
ATOM     13  O   UNL     1      10.547  67.680   2.437  1.00  0.00    -0.550 OA
ATOM     14  O   UNL     1       9.871  65.545   2.918  1.00  0.00    -0.550 OA
ENDBRANCH  11  12
ENDBRANCH  10  11
ENDBRANCH   9  10
ENDBRANCH   8   9
ENDBRANCH   7   8
ENDBRANCH   6   7
ENDBRANCH   5   6
ENDBRANCH   4   5
ENDBRANCH   3   4
ENDBRANCH   2   3
ENDBRANCH   1   2
BRANCH   1  15
ATOM     15  C   UNL     1       8.651  63.426   8.717  1.00  0.00     0.000 C 
BRANCH  15  16
ATOM     16  C   UNL     1       9.974  64.207   8.667  1.00  0.00     0.000 C 
BRANCH  16  17
ATOM     17  C   UNL     1      11.157  63.307   9.049  1.00  0.00     0.000 C 
BRANCH  17  18
ATOM     18  C   UNL     1      11.520  62.298   7.946  1.00  0.00    -0.000 C 
BRANCH  18  19
ATOM     19  C   UNL     1      12.715  62.703   7.059  1.00  0.00    -0.000 C 
BRANCH  19  20
ATOM     20  C   UNL     1      13.506  63.927   7.554  1.00  0.00    -0.000 C 
BRANCH  20  21
ATOM     21  C   UNL     1      13.547  65.066   6.520  1.00  0.00    -0.000 C 
BRANCH  21  22
ATOM     22  C   UNL     1      12.287  65.118   5.644  1.00  0.00    -0.000 C 
BRANCH  22  23
ATOM     23  C   UNL     1      11.342  66.271   6.030  1.00  0.00    -0.000 C 
BRANCH  23  24
ATOM     24  C   UNL     1      11.906  67.122   7.187  1.00  0.00    -0.000 C 
BRANCH  24  25
ATOM     25  C   UNL     1      10.817  67.756   8.067  1.00  0.00    -0.003 C 
ATOM     26  C   UNL     1      11.089  67.595   9.562  1.00  0.00     0.004 C 
ENDBRANCH  24  25
ENDBRANCH  23  24
ENDBRANCH  22  23
ENDBRANCH  21  22
ENDBRANCH  20  21
ENDBRANCH  19  20
ENDBRANCH  18  19
ENDBRANCH  17  18
ENDBRANCH  16  17
ENDBRANCH  15  16
ENDBRANCH   1  15
TORSDOF 22
ENDMDL
MODEL 9
REMARK VINA RESULT:    -3.615      1.761      4.287
REMARK INTER + INTRA:         -11.672
REMARK INTER:                  -8.383
REMARK INTRA:                  -3.290
REMARK UNBOUND:                -3.408
REMARK SMILES CCCCCCCCCCCCCCCCCCCCCCCC(=O)[O-]
REMARK SMILES IDX 13 1 14 2 15 3 16 4 17 5 18 6 19 7 20 8 21 9 22 10 23 11
REMARK SMILES IDX 24 12 25 13 26 14 12 15 11 16 10 17 9 18 8 19 7 20 6 21 5 22
REMARK SMILES IDX 4 23 3 24 2 25 1 26
REMARK H PARENT
REMARK Flexibility Score: inf
ROOT
ATOM      1  C   UNL     1       7.252  64.430   8.724  1.00  0.00     0.000 C 
ENDROOT
BRANCH   1   2
ATOM      2  C   UNL     1       5.881  63.836   8.370  1.00  0.00     0.000 C 
BRANCH   2   3
ATOM      3  C   UNL     1       4.759  64.555   9.135  1.00  0.00     0.000 C 
BRANCH   3   4
ATOM      4  C   UNL     1       5.270  65.776   9.918  1.00  0.00     0.000 C 
BRANCH   4   5
ATOM      5  C   UNL     1       4.405  67.028   9.687  1.00  0.00     0.000 C 
BRANCH   5   6
ATOM      6  C   UNL     1       4.881  67.868   8.487  1.00  0.00     0.000 C 
BRANCH   6   7
ATOM      7  C   UNL     1       3.778  68.256   7.482  1.00  0.00     0.000 C 
BRANCH   7   8
ATOM      8  C   UNL     1       3.433  67.173   6.442  1.00  0.00     0.000 C 
BRANCH   8   9
ATOM      9  C   UNL     1       4.637  66.373   5.915  1.00  0.00     0.000 C 
BRANCH   9  10
ATOM     10  C   UNL     1       4.776  66.443   4.388  1.00  0.00     0.006 C 
BRANCH  10  11
ATOM     11  C   UNL     1       6.023  67.237   3.986  1.00  0.00     0.053 C 
BRANCH  11  12
ATOM     12  C   UNL     1       5.650  68.624   3.565  1.00  0.00     0.041 C 
ATOM     13  O   UNL     1       5.585  68.922   2.344  1.00  0.00    -0.550 OA
ATOM     14  O   UNL     1       5.343  69.583   4.524  1.00  0.00    -0.550 OA
ENDBRANCH  11  12
ENDBRANCH  10  11
ENDBRANCH   9  10
ENDBRANCH   8   9
ENDBRANCH   7   8
ENDBRANCH   6   7
ENDBRANCH   5   6
ENDBRANCH   4   5
ENDBRANCH   3   4
ENDBRANCH   2   3
ENDBRANCH   1   2
BRANCH   1  15
ATOM     15  C   UNL     1       8.375  63.381   8.703  1.00  0.00     0.000 C 
BRANCH  15  16
ATOM     16  C   UNL     1       9.776  64.013   8.681  1.00  0.00     0.000 C 
BRANCH  16  17
ATOM     17  C   UNL     1      10.838  63.009   9.150  1.00  0.00     0.000 C 
BRANCH  17  18
ATOM     18  C   UNL     1      11.594  62.349   7.983  1.00  0.00    -0.000 C 
BRANCH  18  19
ATOM     19  C   UNL     1      12.874  63.084   7.537  1.00  0.00    -0.000 C 
BRANCH  19  20
ATOM     20  C   UNL     1      12.971  63.360   6.026  1.00  0.00    -0.000 C 
BRANCH  20  21
ATOM     21  C   UNL     1      12.635  64.817   5.664  1.00  0.00    -0.000 C 
BRANCH  21  22
ATOM     22  C   UNL     1      12.741  65.767   6.866  1.00  0.00    -0.000 C 
BRANCH  22  23
ATOM     23  C   UNL     1      11.527  66.705   6.992  1.00  0.00    -0.000 C 
BRANCH  23  24
ATOM     24  C   UNL     1      10.432  66.382   5.952  1.00  0.00    -0.000 C 
BRANCH  24  25
ATOM     25  C   UNL     1       9.368  67.483   5.823  1.00  0.00    -0.003 C 
ATOM     26  C   UNL     1       8.318  67.429   6.931  1.00  0.00     0.004 C 
ENDBRANCH  24  25
ENDBRANCH  23  24
ENDBRANCH  22  23
ENDBRANCH  21  22
ENDBRANCH  20  21
ENDBRANCH  19  20
ENDBRANCH  18  19
ENDBRANCH  17  18
ENDBRANCH  16  17
ENDBRANCH  15  16
ENDBRANCH   1  15
TORSDOF 22
ENDMDL
