MODEL 1
REMARK VINA RESULT:    -1.275      0.000      0.000
REMARK INTER + INTRA:          -0.434
REMARK INTER:                  -1.499
REMARK INTRA:                   1.064
REMARK UNBOUND:                 1.064
REMARK SMILES COc1cc2ccc(=O)oc2c(OC)c1OC
REMARK SMILES IDX 3 1 15 2 12 3 11 4 5 5 4 6 6 7 7 8 8 9 9 10 10 11 2 12 1 13
REMARK SMILES IDX 16 14 17 15 13 16 14 17
REMARK H PARENT
REMARK Flexibility Score: inf
ROOT
ATOM      1  C   UNL     1      -0.098  25.836  29.838  1.00  0.00     0.165 A 
ATOM      2  C   UNL     1      -0.108  27.086  29.155  1.00  0.00     0.207 A 
ATOM      3  C   UNL     1      -0.101  28.293  29.909  1.00  0.00     0.208 A 
ATOM      4  C   UNL     1      -0.084  28.238  31.309  1.00  0.00     0.184 A 
ATOM      5  C   UNL     1      -0.075  27.001  31.977  1.00  0.00     0.025 A 
ATOM      6  C   UNL     1      -0.082  25.814  31.245  1.00  0.00     0.062 A 
ATOM      7  C   UNL     1      -0.058  26.992  33.377  1.00  0.00     0.020 A 
ATOM      8  C   UNL     1      -0.053  28.201  34.069  1.00  0.00     0.094 A 
ATOM      9  C   UNL     1      -0.063  29.394  33.342  1.00  0.00     0.336 A 
ATOM     10  O   UNL     1      -0.057  30.498  33.947  1.00  0.00    -0.246 OA
ATOM     11  O   UNL     1      -0.078  29.371  32.013  1.00  0.00    -0.419 OA
ENDROOT
BRANCH   1  12
ATOM     12  O   UNL     1      -0.105  24.638  29.107  1.00  0.00    -0.493 OA
ATOM     13  C   UNL     1      -0.050  23.330  29.671  1.00  0.00     0.278 C 
ENDBRANCH   1  12
BRANCH   2  14
ATOM     14  O   UNL     1      -0.125  27.179  27.750  1.00  0.00    -0.490 OA
ATOM     15  C   UNL     1      -0.099  26.108  26.812  1.00  0.00     0.278 C 
ENDBRANCH   2  14
BRANCH   3  16
ATOM     16  O   UNL     1      -0.110  29.580  29.335  1.00  0.00    -0.490 OA
ATOM     17  C   UNL     1       0.026  29.905  27.955  1.00  0.00     0.278 C 
ENDBRANCH   3  16
TORSDOF 3
ENDMDL
MODEL 2
REMARK VINA RESULT:    -0.903      1.555      3.478
REMARK INTER + INTRA:           0.003
REMARK INTER:                  -1.481
REMARK INTRA:                   1.484
REMARK UNBOUND:                 1.064
REMARK SMILES COc1cc2ccc(=O)oc2c(OC)c1OC
REMARK SMILES IDX 3 1 15 2 12 3 11 4 5 5 4 6 6 7 7 8 8 9 9 10 10 11 2 12 1 13
REMARK SMILES IDX 16 14 17 15 13 16 14 17
REMARK H PARENT
REMARK Flexibility Score: inf
ROOT
ATOM      1  C   UNL     1      -0.040  27.623  29.885  1.00  0.00     0.165 A 
ATOM      2  C   UNL     1      -0.071  26.592  30.866  1.00  0.00     0.207 A 
ATOM      3  C   UNL     1      -0.093  26.941  32.246  1.00  0.00     0.208 A 
ATOM      4  C   UNL     1      -0.084  28.292  32.621  1.00  0.00     0.184 A 
ATOM      5  C   UNL     1      -0.052  29.305  31.646  1.00  0.00     0.025 A 
ATOM      6  C   UNL     1      -0.031  28.970  30.293  1.00  0.00     0.062 A 
ATOM      7  C   UNL     1      -0.044  30.641  32.065  1.00  0.00     0.020 A 
ATOM      8  C   UNL     1      -0.065  30.932  33.428  1.00  0.00     0.094 A 
ATOM      9  C   UNL     1      -0.096  29.875  34.342  1.00  0.00     0.336 A 
ATOM     10  O   UNL     1      -0.116  30.114  35.577  1.00  0.00    -0.246 OA
ATOM     11  O   UNL     1      -0.103  28.616  33.914  1.00  0.00    -0.419 OA
ENDROOT
BRANCH   1  12
ATOM     12  O   UNL     1      -0.019  27.293  28.521  1.00  0.00    -0.493 OA
ATOM     13  C   UNL     1      -0.028  28.229  27.447  1.00  0.00     0.278 C 
ENDBRANCH   1  12
BRANCH   2  14
ATOM     14  O   UNL     1      -0.082  25.225  30.526  1.00  0.00    -0.490 OA
ATOM     15  C   UNL     1       0.067  24.656  29.230  1.00  0.00     0.278 C 
ENDBRANCH   2  14
BRANCH   3  16
ATOM     16  O   UNL     1      -0.124  26.002  33.296  1.00  0.00    -0.490 OA
ATOM     17  C   UNL     1       0.085  26.259  34.681  1.00  0.00     0.278 C 
ENDBRANCH   3  16
TORSDOF 3
ENDMDL
