MODEL 1
REMARK VINA RESULT:    -5.255      0.000      0.000
REMARK INTER + INTRA:          -7.871
REMARK INTER:                  -7.252
REMARK INTRA:                  -0.620
REMARK UNBOUND:                -0.620
REMARK SMILES C[C@H]1OC(=O)[C@H](C)[C@@H]1C[C@@H](O)[C@](C)(O)[C@@H]1CC[C@]2(O)C3=CC(=O)[C@H]4C[C@H](O)[C@@H](O)C[C@]4(C)[C@@H]3CC[C@]12C
REMARK SMILES IDX 12 1 13 2 10 3 9 4 8 5 7 6 6 7 4 8 2 9 3 10 5 11 1 12 11 13
REMARK SMILES IDX 15 15 16 16 36 17 17 18 18 19 35 20 37 21 20 22 34 23 33 24
REMARK SMILES IDX 21 25 31 26 22 27 24 28 30 29 32 30 23 31 25 32 28 33 26 34
REMARK SMILES IDX 19 35 29 37 27 39 14 41
REMARK H PARENT 11 14 19 36 29 38 27 40 14 42
REMARK Flexibility Score: inf
ROOT
ATOM      1  C   UNL     1       8.813  27.216  14.444  1.00  0.00     0.091 C 
ATOM      2  C   UNL     1       8.377  25.887  15.125  1.00  0.00     0.045 C 
ENDROOT
BRANCH   1   3
ATOM      3  C   UNL     1      10.319  27.484  14.810  1.00  0.00     0.146 C 
BRANCH   3   4
ATOM      4  C   UNL     1      11.315  26.923  13.745  1.00  0.00     0.043 C 
BRANCH   4   5
ATOM      5  C   UNL     1      12.486  26.114  14.359  1.00  0.00     0.046 C 
ATOM      6  C   UNL     1      13.869  28.339  14.188  1.00  0.00     0.020 C 
ATOM      7  C   UNL     1      13.885  26.799  14.245  1.00  0.00     0.103 C 
ATOM      8  C   UNL     1      14.525  26.362  15.510  1.00  0.00     0.309 C 
ATOM      9  C   UNL     1      12.316  25.802  15.881  1.00  0.00     0.177 C 
ATOM     10  O   UNL     1      13.629  25.821  16.407  1.00  0.00    -0.462 OA
ATOM     11  O   UNL     1      15.756  26.464  15.752  1.00  0.00    -0.252 OA
ATOM     12  C   UNL     1      11.681  24.441  16.164  1.00  0.00     0.053 C 
ENDBRANCH   4   5
ENDBRANCH   3   4
BRANCH   3  13
ATOM     13  O   UNL     1      10.524  28.864  14.971  1.00  0.00    -0.390 OA
ATOM     14  H   UNL     1       9.669  29.315  14.733  1.00  0.00     0.211 HD
ENDBRANCH   3  13
ENDBRANCH   1   3
BRANCH   1  15
ATOM     15  C   UNL     1       7.888  28.440  14.871  1.00  0.00     0.032 C 
ATOM     16  C   UNL     1       7.577  28.526  16.381  1.00  0.00     0.010 C 
ATOM     17  C   UNL     1       6.508  28.718  14.116  1.00  0.00     0.006 C 
ATOM     18  C   UNL     1       6.278  29.297  16.500  1.00  0.00     0.041 C 
ATOM     19  C   UNL     1       5.438  28.900  15.273  1.00  0.00     0.092 C 
ATOM     20  C   UNL     1       6.046  27.607  13.095  1.00  0.00     0.011 C 
ATOM     21  C   UNL     1       6.669  30.042  13.308  1.00  0.00     0.015 C 
ATOM     22  C   UNL     1       4.620  27.597  15.414  1.00  0.00    -0.031 C 
ATOM     23  C   UNL     1       4.526  27.617  12.884  1.00  0.00     0.009 C 
ATOM     24  C   UNL     1       3.755  27.231  14.188  1.00  0.00     0.025 C 
ATOM     25  C   UNL     1       4.777  26.746  16.451  1.00  0.00     0.050 C 
ATOM     26  C   UNL     1       3.059  25.789  14.274  1.00  0.00    -0.013 C 
ATOM     27  C   UNL     1       4.347  25.351  16.361  1.00  0.00     0.159 C 
ATOM     28  C   UNL     1       4.003  24.794  15.010  1.00  0.00     0.070 C 
ATOM     29  C   UNL     1       2.726  25.176  12.875  1.00  0.00     0.042 C 
ATOM     30  C   UNL     1       1.730  25.987  15.075  1.00  0.00     0.013 C 
ATOM     31  O   UNL     1       4.346  24.627  17.393  1.00  0.00    -0.295 OA
ATOM     32  C   UNL     1       3.453  23.351  15.088  1.00  0.00     0.047 C 
ATOM     33  C   UNL     1       2.175  23.734  12.909  1.00  0.00     0.143 C 
ATOM     34  C   UNL     1       3.109  22.789  13.695  1.00  0.00     0.143 C 
BRANCH  19  35
ATOM     35  O   UNL     1       4.545  29.955  14.985  1.00  0.00    -0.385 OA
ATOM     36  H   UNL     1       4.697  30.228  14.041  1.00  0.00     0.211 HD
ENDBRANCH  19  35
BRANCH  33  37
ATOM     37  O   UNL     1       0.875  23.710  13.438  1.00  0.00    -0.390 OA
ATOM     38  H   UNL     1       0.742  22.819  13.845  1.00  0.00     0.211 HD
ENDBRANCH  33  37
BRANCH  34  39
ATOM     39  O   UNL     1       4.300  22.574  12.982  1.00  0.00    -0.390 OA
ATOM     40  H   UNL     1       4.050  22.377  12.042  1.00  0.00     0.211 HD
ENDBRANCH  34  39
ENDBRANCH   1  15
BRANCH   1  41
ATOM     41  O   UNL     1       8.748  27.044  13.047  1.00  0.00    -0.387 OA
ATOM     42  H   UNL     1       8.162  27.751  12.662  1.00  0.00     0.211 HD
ENDBRANCH   1  41
TORSDOF 9
ENDMDL
MODEL 2
REMARK VINA RESULT:    -4.875      1.942      3.460
REMARK INTER + INTRA:          -7.348
REMARK INTER:                  -6.456
REMARK INTRA:                  -0.891
REMARK UNBOUND:                -0.620
REMARK SMILES C[C@H]1OC(=O)[C@H](C)[C@@H]1C[C@@H](O)[C@](C)(O)[C@@H]1CC[C@]2(O)C3=CC(=O)[C@H]4C[C@H](O)[C@@H](O)C[C@]4(C)[C@@H]3CC[C@]12C
REMARK SMILES IDX 12 1 13 2 10 3 9 4 8 5 7 6 6 7 4 8 2 9 3 10 5 11 1 12 11 13
REMARK SMILES IDX 15 15 16 16 36 17 17 18 18 19 35 20 37 21 20 22 34 23 33 24
REMARK SMILES IDX 21 25 31 26 22 27 24 28 30 29 32 30 23 31 25 32 28 33 26 34
REMARK SMILES IDX 19 35 29 37 27 39 14 41
REMARK H PARENT 11 14 19 36 29 38 27 40 14 42
REMARK Flexibility Score: inf
ROOT
ATOM      1  C   UNL     1       5.875  29.055  15.405  1.00  0.00     0.091 C 
ATOM      2  C   UNL     1       6.552  29.785  14.210  1.00  0.00     0.045 C 
ENDROOT
BRANCH   1   3
ATOM      3  C   UNL     1       6.278  27.536  15.344  1.00  0.00     0.146 C 
BRANCH   3   4
ATOM      4  C   UNL     1       7.432  27.250  14.329  1.00  0.00     0.043 C 
BRANCH   4   5
ATOM      5  C   UNL     1       8.828  27.148  14.994  1.00  0.00     0.046 C 
ATOM      6  C   UNL     1       9.103  24.914  13.641  1.00  0.00     0.020 C 
ATOM      7  C   UNL     1       9.509  25.747  14.874  1.00  0.00     0.103 C 
ATOM      8  C   UNL     1      10.938  26.129  14.758  1.00  0.00     0.309 C 
ATOM      9  C   UNL     1       9.880  28.154  14.425  1.00  0.00     0.177 C 
ATOM     10  O   UNL     1      11.117  27.470  14.498  1.00  0.00    -0.462 OA
ATOM     11  O   UNL     1      11.897  25.325  14.886  1.00  0.00    -0.252 OA
ATOM     12  C   UNL     1       9.979  29.456  15.219  1.00  0.00     0.053 C 
ENDBRANCH   4   5
ENDBRANCH   3   4
BRANCH   3  13
ATOM     13  O   UNL     1       6.652  27.097  16.624  1.00  0.00    -0.390 OA
ATOM     14  H   UNL     1       6.848  27.910  17.165  1.00  0.00     0.211 HD
ENDBRANCH   3  13
ENDBRANCH   1   3
BRANCH   1  15
ATOM     15  C   UNL     1       4.293  29.234  15.400  1.00  0.00     0.032 C 
ATOM     16  C   UNL     1       3.607  29.005  16.764  1.00  0.00     0.010 C 
ATOM     17  C   UNL     1       3.393  28.476  14.318  1.00  0.00     0.006 C 
ATOM     18  C   UNL     1       2.177  28.614  16.456  1.00  0.00     0.041 C 
ATOM     19  C   UNL     1       2.236  27.790  15.157  1.00  0.00     0.092 C 
ATOM     20  C   UNL     1       4.142  27.415  13.423  1.00  0.00     0.011 C 
ATOM     21  C   UNL     1       2.805  29.554  13.356  1.00  0.00     0.015 C 
ATOM     22  C   UNL     1       2.557  26.289  15.329  1.00  0.00    -0.031 C 
ATOM     23  C   UNL     1       3.183  26.347  12.876  1.00  0.00     0.009 C 
ATOM     24  C   UNL     1       2.577  25.470  14.019  1.00  0.00     0.025 C 
ATOM     25  C   UNL     1       2.964  25.760  16.503  1.00  0.00     0.050 C 
ATOM     26  C   UNL     1       3.092  23.961  14.189  1.00  0.00    -0.013 C 
ATOM     27  C   UNL     1       3.672  24.482  16.555  1.00  0.00     0.159 C 
ATOM     28  C   UNL     1       4.205  23.906  15.275  1.00  0.00     0.070 C 
ATOM     29  C   UNL     1       3.685  23.356  12.875  1.00  0.00     0.042 C 
ATOM     30  C   UNL     1       1.850  23.117  14.626  1.00  0.00     0.013 C 
ATOM     31  O   UNL     1       3.887  23.929  17.668  1.00  0.00    -0.295 OA
ATOM     32  C   UNL     1       4.820  22.501  15.471  1.00  0.00     0.047 C 
ATOM     33  C   UNL     1       4.311  21.953  13.028  1.00  0.00     0.143 C 
ATOM     34  C   UNL     1       5.368  21.923  14.152  1.00  0.00     0.143 C 
BRANCH  19  35
ATOM     35  O   UNL     1       0.990  27.905  14.501  1.00  0.00    -0.385 OA
ATOM     36  H   UNL     1       0.848  28.866  14.291  1.00  0.00     0.211 HD
ENDBRANCH  19  35
BRANCH  33  37
ATOM     37  O   UNL     1       3.316  20.986  13.247  1.00  0.00    -0.390 OA
ATOM     38  H   UNL     1       2.708  21.012  12.467  1.00  0.00     0.211 HD
ENDBRANCH  33  37
BRANCH  34  39
ATOM     39  O   UNL     1       6.507  22.653  13.771  1.00  0.00    -0.390 OA
ATOM     40  H   UNL     1       7.282  22.035  13.813  1.00  0.00     0.211 HD
ENDBRANCH  34  39
ENDBRANCH   1  15
BRANCH   1  41
ATOM     41  O   UNL     1       6.402  29.577  16.603  1.00  0.00    -0.387 OA
ATOM     42  H   UNL     1       6.906  28.860  17.073  1.00  0.00     0.211 HD
ENDBRANCH   1  41
TORSDOF 9
ENDMDL
MODEL 3
REMARK VINA RESULT:    -4.233      2.119      2.975
REMARK INTER + INTRA:          -6.462
REMARK INTER:                  -6.121
REMARK INTRA:                  -0.340
REMARK UNBOUND:                -0.620
REMARK SMILES C[C@H]1OC(=O)[C@H](C)[C@@H]1C[C@@H](O)[C@](C)(O)[C@@H]1CC[C@]2(O)C3=CC(=O)[C@H]4C[C@H](O)[C@@H](O)C[C@]4(C)[C@@H]3CC[C@]12C
REMARK SMILES IDX 12 1 13 2 10 3 9 4 8 5 7 6 6 7 4 8 2 9 3 10 5 11 1 12 11 13
REMARK SMILES IDX 15 15 16 16 36 17 17 18 18 19 35 20 37 21 20 22 34 23 33 24
REMARK SMILES IDX 21 25 31 26 22 27 24 28 30 29 32 30 23 31 25 32 28 33 26 34
REMARK SMILES IDX 19 35 29 37 27 39 14 41
REMARK H PARENT 11 14 19 36 29 38 27 40 14 42
REMARK Flexibility Score: inf
ROOT
ATOM      1  C   UNL     1       6.769  28.561  15.827  1.00  0.00     0.091 C 
ATOM      2  C   UNL     1       7.177  28.581  17.328  1.00  0.00     0.045 C 
ENDROOT
BRANCH   1   3
ATOM      3  C   UNL     1       7.778  29.467  15.031  1.00  0.00     0.146 C 
BRANCH   3   4
ATOM      4  C   UNL     1       8.060  28.943  13.586  1.00  0.00     0.043 C 
BRANCH   4   5
ATOM      5  C   UNL     1       9.528  28.495  13.367  1.00  0.00     0.046 C 
ATOM      6  C   UNL     1      10.106  31.056  13.310  1.00  0.00     0.020 C 
ATOM      7  C   UNL     1      10.491  29.626  12.884  1.00  0.00     0.103 C 
ATOM      8  C   UNL     1      11.755  29.237  13.558  1.00  0.00     0.309 C 
ATOM      9  C   UNL     1      10.212  27.905  14.642  1.00  0.00     0.177 C 
ATOM     10  O   UNL     1      11.570  28.287  14.539  1.00  0.00    -0.462 OA
ATOM     11  O   UNL     1      12.884  29.713  13.273  1.00  0.00    -0.252 OA
ATOM     12  C   UNL     1      10.123  26.383  14.739  1.00  0.00     0.053 C 
ENDBRANCH   4   5
ENDBRANCH   3   4
BRANCH   3  13
ATOM     13  O   UNL     1       7.283  30.780  14.971  1.00  0.00    -0.390 OA
ATOM     14  H   UNL     1       6.934  30.918  14.049  1.00  0.00     0.211 HD
ENDBRANCH   3  13
ENDBRANCH   1   3
BRANCH   1  15
ATOM     15  C   UNL     1       5.266  29.038  15.607  1.00  0.00     0.032 C 
ATOM     16  C   UNL     1       4.364  28.948  16.857  1.00  0.00     0.010 C 
ATOM     17  C   UNL     1       4.400  28.465  14.393  1.00  0.00     0.006 C 
ATOM     18  C   UNL     1       2.943  28.836  16.344  1.00  0.00     0.041 C 
ATOM     19  C   UNL     1       3.027  28.015  15.045  1.00  0.00     0.092 C 
ATOM     20  C   UNL     1       5.052  27.278  13.583  1.00  0.00     0.011 C 
ATOM     21  C   UNL     1       4.169  29.633  13.385  1.00  0.00     0.015 C 
ATOM     22  C   UNL     1       3.030  26.480  15.222  1.00  0.00    -0.031 C 
ATOM     23  C   UNL     1       3.996  26.413  12.882  1.00  0.00     0.009 C 
ATOM     24  C   UNL     1       3.079  25.670  13.908  1.00  0.00     0.025 C 
ATOM     25  C   UNL     1       3.161  25.885  16.428  1.00  0.00     0.050 C 
ATOM     26  C   UNL     1       3.270  24.090  14.110  1.00  0.00    -0.013 C 
ATOM     27  C   UNL     1       3.599  24.495  16.545  1.00  0.00     0.159 C 
ATOM     28  C   UNL     1       4.188  23.826  15.338  1.00  0.00     0.070 C 
ATOM     29  C   UNL     1       3.916  23.381  12.876  1.00  0.00     0.042 C 
ATOM     30  C   UNL     1       1.841  23.500  14.348  1.00  0.00     0.013 C 
ATOM     31  O   UNL     1       3.546  23.914  17.663  1.00  0.00    -0.295 OA
ATOM     32  C   UNL     1       4.492  22.329  15.581  1.00  0.00     0.047 C 
ATOM     33  C   UNL     1       4.237  21.884  13.078  1.00  0.00     0.143 C 
ATOM     34  C   UNL     1       5.101  21.655  14.337  1.00  0.00     0.143 C 
BRANCH  19  35
ATOM     35  O   UNL     1       1.930  28.364  14.226  1.00  0.00    -0.385 OA
ATOM     36  H   UNL     1       1.980  29.343  14.059  1.00  0.00     0.211 HD
ENDBRANCH  19  35
BRANCH  33  37
ATOM     37  O   UNL     1       3.057  21.126  13.133  1.00  0.00    -0.390 OA
ATOM     38  H   UNL     1       2.680  21.239  14.041  1.00  0.00     0.211 HD
ENDBRANCH  33  37
BRANCH  34  39
ATOM     39  O   UNL     1       6.400  22.153  14.136  1.00  0.00    -0.390 OA
ATOM     40  H   UNL     1       6.840  21.567  13.467  1.00  0.00     0.211 HD
ENDBRANCH  34  39
ENDBRANCH   1  15
BRANCH   1  41
ATOM     41  O   UNL     1       6.918  27.246  15.342  1.00  0.00    -0.387 OA
ATOM     42  H   UNL     1       6.317  26.642  15.856  1.00  0.00     0.211 HD
ENDBRANCH   1  41
TORSDOF 9
ENDMDL
MODEL 4
REMARK VINA RESULT:    -3.994      3.467      8.544
REMARK INTER + INTRA:          -6.132
REMARK INTER:                  -6.005
REMARK INTRA:                  -0.127
REMARK UNBOUND:                -0.620
REMARK SMILES C[C@H]1OC(=O)[C@H](C)[C@@H]1C[C@@H](O)[C@](C)(O)[C@@H]1CC[C@]2(O)C3=CC(=O)[C@H]4C[C@H](O)[C@@H](O)C[C@]4(C)[C@@H]3CC[C@]12C
REMARK SMILES IDX 12 1 13 2 10 3 9 4 8 5 7 6 6 7 4 8 2 9 3 10 5 11 1 12 11 13
REMARK SMILES IDX 15 15 16 16 36 17 17 18 18 19 35 20 37 21 20 22 34 23 33 24
REMARK SMILES IDX 21 25 31 26 22 27 24 28 30 29 32 30 23 31 25 32 28 33 26 34
REMARK SMILES IDX 19 35 29 37 27 39 14 41
REMARK H PARENT 11 14 19 36 29 38 27 40 14 42
REMARK Flexibility Score: inf
ROOT
ATOM      1  C   UNL     1       3.933  22.707  13.936  1.00  0.00     0.091 C 
ATOM      2  C   UNL     1       4.465  23.714  12.877  1.00  0.00     0.045 C 
ENDROOT
BRANCH   1   3
ATOM      3  C   UNL     1       3.660  21.336  13.216  1.00  0.00     0.146 C 
BRANCH   3   4
ATOM      4  C   UNL     1       4.216  20.109  14.008  1.00  0.00     0.043 C 
BRANCH   4   5
ATOM      5  C   UNL     1       3.691  18.747  13.488  1.00  0.00     0.046 C 
ATOM      6  C   UNL     1       6.198  17.969  13.541  1.00  0.00     0.020 C 
ATOM      7  C   UNL     1       4.793  17.789  12.933  1.00  0.00     0.103 C 
ATOM      8  C   UNL     1       4.253  16.465  13.330  1.00  0.00     0.309 C 
ATOM      9  C   UNL     1       2.932  17.903  14.563  1.00  0.00     0.177 C 
ATOM     10  O   UNL     1       3.226  16.556  14.245  1.00  0.00    -0.462 OA
ATOM     11  O   UNL     1       4.674  15.367  12.885  1.00  0.00    -0.252 OA
ATOM     12  C   UNL     1       1.417  18.104  14.546  1.00  0.00     0.053 C 
ENDBRANCH   4   5
ENDBRANCH   3   4
BRANCH   3  13
ATOM     13  O   UNL     1       2.280  21.181  13.010  1.00  0.00    -0.390 OA
ATOM     14  H   UNL     1       2.169  20.569  12.232  1.00  0.00     0.211 HD
ENDBRANCH   3  13
ENDBRANCH   1   3
BRANCH   1  15
ATOM     15  C   UNL     1       2.627  23.243  14.672  1.00  0.00     0.032 C 
ATOM     16  C   UNL     1       1.666  24.060  13.781  1.00  0.00     0.010 C 
ATOM     17  C   UNL     1       2.741  24.043  16.051  1.00  0.00     0.006 C 
ATOM     18  C   UNL     1       0.881  24.954  14.719  1.00  0.00     0.041 C 
ATOM     19  C   UNL     1       1.854  25.341  15.847  1.00  0.00     0.092 C 
ATOM     20  C   UNL     1       4.203  24.428  16.504  1.00  0.00     0.011 C 
ATOM     21  C   UNL     1       2.139  23.140  17.172  1.00  0.00     0.015 C 
ATOM     22  C   UNL     1       2.777  26.543  15.553  1.00  0.00    -0.031 C 
ATOM     23  C   UNL     1       4.212  25.647  17.437  1.00  0.00     0.009 C 
ATOM     24  C   UNL     1       3.723  26.940  16.709  1.00  0.00     0.025 C 
ATOM     25  C   UNL     1       2.884  27.098  14.326  1.00  0.00     0.050 C 
ATOM     26  C   UNL     1       4.800  28.065  16.326  1.00  0.00    -0.013 C 
ATOM     27  C   UNL     1       4.043  27.911  13.959  1.00  0.00     0.159 C 
ATOM     28  C   UNL     1       5.251  27.879  14.849  1.00  0.00     0.070 C 
ATOM     29  C   UNL     1       6.082  28.024  17.220  1.00  0.00     0.042 C 
ATOM     30  C   UNL     1       4.087  29.444  16.519  1.00  0.00     0.013 C 
ATOM     31  O   UNL     1       4.038  28.556  12.875  1.00  0.00    -0.295 OA
ATOM     32  C   UNL     1       6.344  28.875  14.398  1.00  0.00     0.047 C 
ATOM     33  C   UNL     1       7.200  29.004  16.802  1.00  0.00     0.143 C 
ATOM     34  C   UNL     1       7.581  28.829  15.316  1.00  0.00     0.143 C 
BRANCH  19  35
ATOM     35  O   UNL     1       1.099  25.634  17.004  1.00  0.00    -0.385 OA
ATOM     36  H   UNL     1       1.726  25.988  17.690  1.00  0.00     0.211 HD
ENDBRANCH  19  35
BRANCH  33  37
ATOM     37  O   UNL     1       6.826  30.330  17.072  1.00  0.00    -0.390 OA
ATOM     38  H   UNL     1       7.168  30.887  16.330  1.00  0.00     0.211 HD
ENDBRANCH  33  37
BRANCH  34  39
ATOM     39  O   UNL     1       8.249  27.608  15.123  1.00  0.00    -0.390 OA
ATOM     40  H   UNL     1       7.774  26.923  15.662  1.00  0.00     0.211 HD
ENDBRANCH  34  39
ENDBRANCH   1  15
BRANCH   1  41
ATOM     41  O   UNL     1       4.949  22.483  14.888  1.00  0.00    -0.387 OA
ATOM     42  H   UNL     1       4.563  22.581  15.799  1.00  0.00     0.211 HD
ENDBRANCH   1  41
TORSDOF 9
ENDMDL
MODEL 5
REMARK VINA RESULT:    -3.821      1.603      2.120
REMARK INTER + INTRA:          -5.892
REMARK INTER:                  -5.560
REMARK INTRA:                  -0.332
REMARK UNBOUND:                -0.620
REMARK SMILES C[C@H]1OC(=O)[C@H](C)[C@@H]1C[C@@H](O)[C@](C)(O)[C@@H]1CC[C@]2(O)C3=CC(=O)[C@H]4C[C@H](O)[C@@H](O)C[C@]4(C)[C@@H]3CC[C@]12C
REMARK SMILES IDX 12 1 13 2 10 3 9 4 8 5 7 6 6 7 4 8 2 9 3 10 5 11 1 12 11 13
REMARK SMILES IDX 15 15 16 16 36 17 17 18 18 19 35 20 37 21 20 22 34 23 33 24
REMARK SMILES IDX 21 25 31 26 22 27 24 28 30 29 32 30 23 31 25 32 28 33 26 34
REMARK SMILES IDX 19 35 29 37 27 39 14 41
REMARK H PARENT 11 14 19 36 29 38 27 40 14 42
REMARK Flexibility Score: inf
ROOT
ATOM      1  C   UNL     1       9.942  26.787  13.850  1.00  0.00     0.091 C 
ATOM      2  C   UNL     1      10.163  25.813  15.043  1.00  0.00     0.045 C 
ENDROOT
BRANCH   1   3
ATOM      3  C   UNL     1      11.244  26.787  12.968  1.00  0.00     0.146 C 
BRANCH   3   4
ATOM      4  C   UNL     1      12.200  27.981  13.292  1.00  0.00     0.043 C 
BRANCH   4   5
ATOM      5  C   UNL     1      13.575  27.537  13.854  1.00  0.00     0.046 C 
ATOM      6  C   UNL     1      14.495  29.793  12.875  1.00  0.00     0.020 C 
ATOM      7  C   UNL     1      14.796  28.345  13.309  1.00  0.00     0.103 C 
ATOM      8  C   UNL     1      15.684  28.363  14.498  1.00  0.00     0.309 C 
ATOM      9  C   UNL     1      13.691  27.637  15.409  1.00  0.00     0.177 C 
ATOM     10  O   UNL     1      15.042  27.976  15.654  1.00  0.00    -0.462 OA
ATOM     11  O   UNL     1      16.898  28.692  14.469  1.00  0.00    -0.252 OA
ATOM     12  C   UNL     1      13.359  26.335  16.137  1.00  0.00     0.053 C 
ENDBRANCH   4   5
ENDBRANCH   3   4
BRANCH   3  13
ATOM     13  O   UNL     1      11.927  25.573  13.138  1.00  0.00    -0.390 OA
ATOM     14  H   UNL     1      11.308  24.848  12.851  1.00  0.00     0.211 HD
ENDBRANCH   3  13
ENDBRANCH   1   3
BRANCH   1  15
ATOM     15  C   UNL     1       9.573  28.258  14.336  1.00  0.00     0.032 C 
ATOM     16  C   UNL     1       9.537  28.447  15.868  1.00  0.00     0.010 C 
ATOM     17  C   UNL     1       8.280  29.002  13.766  1.00  0.00     0.006 C 
ATOM     18  C   UNL     1       8.620  29.625  16.125  1.00  0.00     0.041 C 
ATOM     19  C   UNL     1       7.523  29.547  15.048  1.00  0.00     0.092 C 
ATOM     20  C   UNL     1       7.316  28.123  12.878  1.00  0.00     0.011 C 
ATOM     21  C   UNL     1       8.770  30.186  12.876  1.00  0.00     0.015 C 
ATOM     22  C   UNL     1       6.334  28.615  15.369  1.00  0.00    -0.031 C 
ATOM     23  C   UNL     1       5.880  28.667  12.878  1.00  0.00     0.009 C 
ATOM     24  C   UNL     1       5.225  28.576  14.294  1.00  0.00     0.025 C 
ATOM     25  C   UNL     1       6.337  27.762  16.417  1.00  0.00     0.050 C 
ATOM     26  C   UNL     1       4.093  27.469  14.550  1.00  0.00    -0.013 C 
ATOM     27  C   UNL     1       5.441  26.607  16.459  1.00  0.00     0.159 C 
ATOM     28  C   UNL     1       4.730  26.207  15.199  1.00  0.00     0.070 C 
ATOM     29  C   UNL     1       3.365  27.012  13.244  1.00  0.00     0.042 C 
ATOM     30  C   UNL     1       3.049  28.121  15.516  1.00  0.00     0.013 C 
ATOM     31  O   UNL     1       5.342  25.930  17.518  1.00  0.00    -0.295 OA
ATOM     32  C   UNL     1       3.732  25.048  15.427  1.00  0.00     0.047 C 
ATOM     33  C   UNL     1       2.360  25.855  13.428  1.00  0.00     0.143 C 
ATOM     34  C   UNL     1       3.013  24.643  14.126  1.00  0.00     0.143 C 
BRANCH  19  35
ATOM     35  O   UNL     1       7.019  30.849  14.832  1.00  0.00    -0.385 OA
ATOM     36  H   UNL     1       7.787  31.432  14.591  1.00  0.00     0.211 HD
ENDBRANCH  19  35
BRANCH  33  37
ATOM     37  O   UNL     1       1.225  26.289  14.132  1.00  0.00    -0.390 OA
ATOM     38  H   UNL     1       0.603  25.521  14.185  1.00  0.00     0.211 HD
ENDBRANCH  33  37
BRANCH  34  39
ATOM     39  O   UNL     1       3.936  24.023  13.266  1.00  0.00    -0.390 OA
ATOM     40  H   UNL     1       3.465  23.835  12.413  1.00  0.00     0.211 HD
ENDBRANCH  34  39
ENDBRANCH   1  15
BRANCH   1  41
ATOM     41  O   UNL     1       8.897  26.282  13.050  1.00  0.00    -0.387 OA
ATOM     42  H   UNL     1       8.798  26.861  12.247  1.00  0.00     0.211 HD
ENDBRANCH   1  41
TORSDOF 9
ENDMDL
MODEL 6
REMARK VINA RESULT:    -3.819      2.996      6.368
REMARK INTER + INTRA:          -5.890
REMARK INTER:                  -5.389
REMARK INTRA:                  -0.500
REMARK UNBOUND:                -0.620
REMARK SMILES C[C@H]1OC(=O)[C@H](C)[C@@H]1C[C@@H](O)[C@](C)(O)[C@@H]1CC[C@]2(O)C3=CC(=O)[C@H]4C[C@H](O)[C@@H](O)C[C@]4(C)[C@@H]3CC[C@]12C
REMARK SMILES IDX 12 1 13 2 10 3 9 4 8 5 7 6 6 7 4 8 2 9 3 10 5 11 1 12 11 13
REMARK SMILES IDX 15 15 16 16 36 17 17 18 18 19 35 20 37 21 20 22 34 23 33 24
REMARK SMILES IDX 21 25 31 26 22 27 24 28 30 29 32 30 23 31 25 32 28 33 26 34
REMARK SMILES IDX 19 35 29 37 27 39 14 41
REMARK H PARENT 11 14 19 36 29 38 27 40 14 42
REMARK Flexibility Score: inf
ROOT
ATOM      1  C   UNL     1      13.502  26.937  15.616  1.00  0.00     0.091 C 
ATOM      2  C   UNL     1      12.588  28.192  15.523  1.00  0.00     0.045 C 
ENDROOT
BRANCH   1   3
ATOM      3  C   UNL     1      14.926  27.325  15.073  1.00  0.00     0.146 C 
BRANCH   3   4
ATOM      4  C   UNL     1      15.795  26.081  14.697  1.00  0.00     0.043 C 
BRANCH   4   5
ATOM      5  C   UNL     1      17.295  26.246  15.049  1.00  0.00     0.046 C 
ATOM      6  C   UNL     1      17.454  23.638  14.777  1.00  0.00     0.020 C 
ATOM      7  C   UNL     1      18.030  24.917  15.417  1.00  0.00     0.103 C 
ATOM      8  C   UNL     1      19.384  25.174  14.868  1.00  0.00     0.309 C 
ATOM      9  C   UNL     1      18.154  26.874  13.904  1.00  0.00     0.177 C 
ATOM     10  O   UNL     1      19.424  26.261  14.021  1.00  0.00    -0.462 OA
ATOM     11  O   UNL     1      20.400  24.483  15.139  1.00  0.00    -0.252 OA
ATOM     12  C   UNL     1      18.315  28.389  14.016  1.00  0.00     0.053 C 
ENDBRANCH   4   5
ENDBRANCH   3   4
BRANCH   3  13
ATOM     13  O   UNL     1      14.790  28.164  13.955  1.00  0.00    -0.390 OA
ATOM     14  H   UNL     1      14.581  27.579  13.176  1.00  0.00     0.211 HD
ENDBRANCH   3  13
ENDBRANCH   1   3
BRANCH   1  15
ATOM     15  C   UNL     1      12.899  25.696  14.822  1.00  0.00     0.032 C 
ATOM     16  C   UNL     1      12.699  25.926  13.308  1.00  0.00     0.010 C 
ATOM     17  C   UNL     1      11.575  24.966  15.338  1.00  0.00     0.006 C 
ATOM     18  C   UNL     1      11.614  24.961  12.875  1.00  0.00     0.041 C 
ATOM     19  C   UNL     1      10.640  24.863  14.062  1.00  0.00     0.092 C 
ATOM     20  C   UNL     1      10.821  25.671  16.531  1.00  0.00     0.011 C 
ATOM     21  C   UNL     1      11.982  23.543  15.832  1.00  0.00     0.015 C 
ATOM     22  C   UNL     1       9.560  25.966  14.136  1.00  0.00    -0.031 C 
ATOM     23  C   UNL     1       9.332  25.300  16.569  1.00  0.00     0.009 C 
ATOM     24  C   UNL     1       8.568  25.833  15.313  1.00  0.00     0.025 C 
ATOM     25  C   UNL     1       9.582  27.062  13.346  1.00  0.00     0.050 C 
ATOM     26  C   UNL     1       7.574  27.080  15.485  1.00  0.00    -0.013 C 
ATOM     27  C   UNL     1       8.847  28.273  13.708  1.00  0.00     0.159 C 
ATOM     28  C   UNL     1       8.312  28.395  15.105  1.00  0.00     0.070 C 
ATOM     29  C   UNL     1       7.035  27.245  16.943  1.00  0.00     0.042 C 
ATOM     30  C   UNL     1       6.370  26.821  14.521  1.00  0.00     0.013 C 
ATOM     31  O   UNL     1       8.742  29.214  12.875  1.00  0.00    -0.295 OA
ATOM     32  C   UNL     1       7.460  29.670  15.302  1.00  0.00     0.047 C 
ATOM     33  C   UNL     1       6.179  28.508  17.182  1.00  0.00     0.143 C 
ATOM     34  C   UNL     1       6.921  29.788  16.740  1.00  0.00     0.143 C 
BRANCH  19  35
ATOM     35  O   UNL     1       9.989  23.611  14.001  1.00  0.00    -0.385 OA
ATOM     36  H   UNL     1      10.690  22.906  14.041  1.00  0.00     0.211 HD
ENDBRANCH  19  35
BRANCH  33  37
ATOM     37  O   UNL     1       4.938  28.398  16.535  1.00  0.00    -0.390 OA
ATOM     38  H   UNL     1       5.077  28.664  15.593  1.00  0.00     0.211 HD
ENDBRANCH  33  37
BRANCH  34  39
ATOM     39  O   UNL     1       7.993  30.056  17.610  1.00  0.00    -0.390 OA
ATOM     40  H   UNL     1       7.605  30.314  18.486  1.00  0.00     0.211 HD
ENDBRANCH  34  39
ENDBRANCH   1  15
BRANCH   1  41
ATOM     41  O   UNL     1      13.653  26.596  16.975  1.00  0.00    -0.387 OA
ATOM     42  H   UNL     1      14.461  27.052  17.334  1.00  0.00     0.211 HD
ENDBRANCH   1  41
TORSDOF 9
ENDMDL
MODEL 7
REMARK VINA RESULT:    -3.721      1.815      2.438
REMARK INTER + INTRA:          -5.754
REMARK INTER:                  -5.209
REMARK INTRA:                  -0.545
REMARK UNBOUND:                -0.620
REMARK SMILES C[C@H]1OC(=O)[C@H](C)[C@@H]1C[C@@H](O)[C@](C)(O)[C@@H]1CC[C@]2(O)C3=CC(=O)[C@H]4C[C@H](O)[C@@H](O)C[C@]4(C)[C@@H]3CC[C@]12C
REMARK SMILES IDX 12 1 13 2 10 3 9 4 8 5 7 6 6 7 4 8 2 9 3 10 5 11 1 12 11 13
REMARK SMILES IDX 15 15 16 16 36 17 17 18 18 19 35 20 37 21 20 22 34 23 33 24
REMARK SMILES IDX 21 25 31 26 22 27 24 28 30 29 32 30 23 31 25 32 28 33 26 34
REMARK SMILES IDX 19 35 29 37 27 39 14 41
REMARK H PARENT 11 14 19 36 29 38 27 40 14 42
REMARK Flexibility Score: inf
ROOT
ATOM      1  C   UNL     1      10.222  26.983  14.266  1.00  0.00     0.091 C 
ATOM      2  C   UNL     1       9.356  25.887  14.950  1.00  0.00     0.045 C 
ENDROOT
BRANCH   1   3
ATOM      3  C   UNL     1      11.709  26.806  14.749  1.00  0.00     0.146 C 
BRANCH   3   4
ATOM      4  C   UNL     1      12.489  25.721  13.939  1.00  0.00     0.043 C 
BRANCH   4   5
ATOM      5  C   UNL     1      13.469  24.889  14.804  1.00  0.00     0.046 C 
ATOM      6  C   UNL     1      12.855  22.876  13.233  1.00  0.00     0.020 C 
ATOM      7  C   UNL     1      13.358  23.343  14.614  1.00  0.00     0.103 C 
ATOM      8  C   UNL     1      14.772  22.927  14.786  1.00  0.00     0.309 C 
ATOM      9  C   UNL     1      14.976  25.215  14.554  1.00  0.00     0.177 C 
ATOM     10  O   UNL     1      15.652  23.987  14.738  1.00  0.00    -0.462 OA
ATOM     11  O   UNL     1      15.144  21.738  14.962  1.00  0.00    -0.252 OA
ATOM     12  C   UNL     1      15.550  26.254  15.517  1.00  0.00     0.053 C 
ENDBRANCH   4   5
ENDBRANCH   3   4
BRANCH   3  13
ATOM     13  O   UNL     1      12.380  28.037  14.663  1.00  0.00    -0.390 OA
ATOM     14  H   UNL     1      11.800  28.716  15.104  1.00  0.00     0.211 HD
ENDBRANCH   3  13
ENDBRANCH   1   3
BRANCH   1  15
ATOM     15  C   UNL     1       9.686  28.450  14.573  1.00  0.00     0.032 C 
ATOM     16  C   UNL     1       9.531  28.787  16.072  1.00  0.00     0.010 C 
ATOM     17  C   UNL     1       8.369  29.001  13.856  1.00  0.00     0.006 C 
ATOM     18  C   UNL     1       8.492  29.887  16.151  1.00  0.00     0.041 C 
ATOM     19  C   UNL     1       7.481  29.593  15.029  1.00  0.00     0.092 C 
ATOM     20  C   UNL     1       7.552  27.946  13.013  1.00  0.00     0.011 C 
ATOM     21  C   UNL     1       8.803  30.133  12.875  1.00  0.00     0.015 C 
ATOM     22  C   UNL     1       6.366  28.583  15.379  1.00  0.00    -0.031 C 
ATOM     23  C   UNL     1       6.075  28.340  12.875  1.00  0.00     0.009 C 
ATOM     24  C   UNL     1       5.339  28.326  14.254  1.00  0.00     0.025 C 
ATOM     25  C   UNL     1       6.380  27.843  16.510  1.00  0.00     0.050 C 
ATOM     26  C   UNL     1       4.301  27.142  14.562  1.00  0.00    -0.013 C 
ATOM     27  C   UNL     1       5.596  26.615  16.623  1.00  0.00     0.159 C 
ATOM     28  C   UNL     1       5.010  26.021  15.375  1.00  0.00     0.070 C 
ATOM     29  C   UNL     1       3.708  26.487  13.273  1.00  0.00     0.042 C 
ATOM     30  C   UNL     1       3.139  27.779  15.393  1.00  0.00     0.013 C 
ATOM     31  O   UNL     1       5.490  26.039  17.741  1.00  0.00    -0.295 OA
ATOM     32  C   UNL     1       4.112  24.797  15.668  1.00  0.00     0.047 C 
ATOM     33  C   UNL     1       2.805  25.259  13.522  1.00  0.00     0.143 C 
ATOM     34  C   UNL     1       3.521  24.194  14.379  1.00  0.00     0.143 C 
BRANCH  19  35
ATOM     35  O   UNL     1       6.873  30.810  14.649  1.00  0.00    -0.385 OA
ATOM     36  H   UNL     1       6.044  30.587  14.146  1.00  0.00     0.211 HD
ENDBRANCH  19  35
BRANCH  33  37
ATOM     37  O   UNL     1       1.591  25.646  14.111  1.00  0.00    -0.390 OA
ATOM     38  H   UNL     1       0.875  25.119  13.676  1.00  0.00     0.211 HD
ENDBRANCH  33  37
BRANCH  34  39
ATOM     39  O   UNL     1       4.554  23.587  13.643  1.00  0.00    -0.390 OA
ATOM     40  H   UNL     1       4.317  22.629  13.537  1.00  0.00     0.211 HD
ENDBRANCH  34  39
ENDBRANCH   1  15
BRANCH   1  41
ATOM     41  O   UNL     1      10.207  26.759  12.875  1.00  0.00    -0.387 OA
ATOM     42  H   UNL     1       9.644  25.962  12.683  1.00  0.00     0.211 HD
ENDBRANCH   1  41
TORSDOF 9
ENDMDL
