MODEL 1
REMARK VINA RESULT:    -4.260      0.000      0.000
REMARK INTER + INTRA:          -5.396
REMARK INTER:                  -5.132
REMARK INTRA:                  -0.264
REMARK UNBOUND:                -0.264
REMARK SMILES NC(=O)C[C@@H]([NH3+])C(=O)[O-]
REMARK SMILES IDX 4 1 5 2 6 3 7 7 8 8 9 9 2 10 3 11 1 12
REMARK H PARENT 6 4 6 5 6 6 1 13 1 14
REMARK Flexibility Score: inf
ROOT
ATOM      1  C   UNL     1      -6.182  -0.630  -0.453  1.00  0.00     0.171 C 
ENDROOT
BRANCH   1   2
ATOM      2  C   UNL     1      -6.130   0.789   0.149  1.00  0.00     0.237 C 
BRANCH   2   3
ATOM      3  N   UNL     1      -5.045   1.566  -0.461  1.00  0.00    -0.350 N 
ATOM      4  H   UNL     1      -4.188   1.508   0.137  1.00  0.00     0.345 HD
ATOM      5  H   UNL     1      -5.325   2.572  -0.533  1.00  0.00     0.345 HD
ATOM      6  H   UNL     1      -4.820   1.202  -1.416  1.00  0.00     0.345 HD
ENDBRANCH   2   3
BRANCH   2   7
ATOM      7  C   UNL     1      -7.444   1.502  -0.037  1.00  0.00     0.100 C 
ATOM      8  O   UNL     1      -8.383   1.323   0.783  1.00  0.00    -0.544 OA
ATOM      9  O   UNL     1      -7.633   2.351  -1.122  1.00  0.00    -0.544 OA
ENDBRANCH   2   7
ENDBRANCH   1   2
BRANCH   1  10
ATOM     10  C   UNL     1      -4.835  -1.294  -0.422  1.00  0.00     0.223 C 
ATOM     11  O   UNL     1      -3.988  -1.030  -1.317  1.00  0.00    -0.275 OA
ATOM     12  N   UNL     1      -4.493  -2.191   0.634  1.00  0.00    -0.369 N 
ATOM     13  H   UNL     1      -3.550  -2.640   0.659  1.00  0.00     0.159 HD
ATOM     14  H   UNL     1      -5.176  -2.406   1.394  1.00  0.00     0.159 HD
ENDBRANCH   1  10
TORSDOF 4
ENDMDL
MODEL 2
REMARK VINA RESULT:    -4.185      1.226      4.036
REMARK INTER + INTRA:          -5.306
REMARK INTER:                  -5.090
REMARK INTRA:                  -0.216
REMARK UNBOUND:                -0.264
REMARK SMILES NC(=O)C[C@@H]([NH3+])C(=O)[O-]
REMARK SMILES IDX 4 1 5 2 6 3 7 7 8 8 9 9 2 10 3 11 1 12
REMARK H PARENT 6 4 6 5 6 6 1 13 1 14
REMARK Flexibility Score: inf
ROOT
ATOM      1  C   UNL     1      -6.783  -0.034   0.307  1.00  0.00     0.171 C 
ENDROOT
BRANCH   1   2
ATOM      2  C   UNL     1      -5.436  -0.658   0.724  1.00  0.00     0.237 C 
BRANCH   2   3
ATOM      3  N   UNL     1      -5.594  -1.444   1.953  1.00  0.00    -0.350 N 
ATOM      4  H   UNL     1      -4.961  -2.277   1.925  1.00  0.00     0.345 HD
ATOM      5  H   UNL     1      -6.579  -1.786   2.033  1.00  0.00     0.345 HD
ATOM      6  H   UNL     1      -5.360  -0.867   2.794  1.00  0.00     0.345 HD
ENDBRANCH   2   3
BRANCH   2   7
ATOM      7  C   UNL     1      -4.881  -1.527  -0.376  1.00  0.00     0.100 C 
ATOM      8  O   UNL     1      -4.104  -1.038  -1.237  1.00  0.00    -0.544 OA
ATOM      9  O   UNL     1      -5.233  -2.869  -0.454  1.00  0.00    -0.544 OA
ENDBRANCH   2   7
ENDBRANCH   1   2
BRANCH   1  10
ATOM     10  C   UNL     1      -6.591   1.291  -0.374  1.00  0.00     0.223 C 
ATOM     11  O   UNL     1      -7.587   1.897  -0.852  1.00  0.00    -0.275 OA
ATOM     12  N   UNL     1      -5.297   1.888  -0.449  1.00  0.00    -0.369 N 
ATOM     13  H   UNL     1      -5.171   2.816  -0.911  1.00  0.00     0.159 HD
ATOM     14  H   UNL     1      -4.463   1.408  -0.041  1.00  0.00     0.159 HD
ENDBRANCH   1  10
TORSDOF 4
ENDMDL
MODEL 3
REMARK VINA RESULT:    -4.167      2.838      4.166
REMARK INTER + INTRA:          -5.283
REMARK INTER:                  -4.766
REMARK INTRA:                  -0.517
REMARK UNBOUND:                -0.264
REMARK SMILES NC(=O)C[C@@H]([NH3+])C(=O)[O-]
REMARK SMILES IDX 4 1 5 2 6 3 7 7 8 8 9 9 2 10 3 11 1 12
REMARK H PARENT 6 4 6 5 6 6 1 13 1 14
REMARK Flexibility Score: inf
ROOT
ATOM      1  C   UNL     1      -7.250   2.913  -0.360  1.00  0.00     0.171 C 
ENDROOT
BRANCH   1   2
ATOM      2  C   UNL     1      -6.434   1.694   0.114  1.00  0.00     0.237 C 
BRANCH   2   3
ATOM      3  N   UNL     1      -5.095   1.708  -0.487  1.00  0.00    -0.350 N 
ATOM      4  H   UNL     1      -4.695   0.741  -0.483  1.00  0.00     0.345 HD
ATOM      5  H   UNL     1      -4.461   2.325   0.072  1.00  0.00     0.345 HD
ATOM      6  H   UNL     1      -5.135   2.057  -1.473  1.00  0.00     0.345 HD
ENDBRANCH   2   3
BRANCH   2   7
ATOM      7  C   UNL     1      -6.324   1.669   1.617  1.00  0.00     0.100 C 
ATOM      8  O   UNL     1      -6.902   0.767   2.278  1.00  0.00    -0.544 OA
ATOM      9  O   UNL     1      -5.598   2.650   2.283  1.00  0.00    -0.544 OA
ENDBRANCH   2   7
ENDBRANCH   1   2
BRANCH   1  10
ATOM     10  C   UNL     1      -6.360   4.056  -0.755  1.00  0.00     0.223 C 
ATOM     11  O   UNL     1      -6.015   4.192  -1.960  1.00  0.00    -0.275 OA
ATOM     12  N   UNL     1      -5.932   5.012   0.215  1.00  0.00    -0.369 N 
ATOM     13  H   UNL     1      -5.325   5.813  -0.067  1.00  0.00     0.159 HD
ATOM     14  H   UNL     1      -6.225   4.926   1.214  1.00  0.00     0.159 HD
ENDBRANCH   1  10
TORSDOF 4
ENDMDL
MODEL 4
REMARK VINA RESULT:    -4.089      2.431      4.058
REMARK INTER + INTRA:          -5.189
REMARK INTER:                  -4.920
REMARK INTRA:                  -0.270
REMARK UNBOUND:                -0.264
REMARK SMILES NC(=O)C[C@@H]([NH3+])C(=O)[O-]
REMARK SMILES IDX 4 1 5 2 6 3 7 7 8 8 9 9 2 10 3 11 1 12
REMARK H PARENT 6 4 6 5 6 6 1 13 1 14
REMARK Flexibility Score: inf
ROOT
ATOM      1  C   UNL     1      -7.317   2.993  -0.360  1.00  0.00     0.171 C 
ENDROOT
BRANCH   1   2
ATOM      2  C   UNL     1      -6.675   1.598  -0.496  1.00  0.00     0.237 C 
BRANCH   2   3
ATOM      3  N   UNL     1      -5.213   1.697  -0.423  1.00  0.00    -0.350 N 
ATOM      4  H   UNL     1      -4.816   1.798  -1.387  1.00  0.00     0.345 HD
ATOM      5  H   UNL     1      -4.818   0.825   0.001  1.00  0.00     0.345 HD
ATOM      6  H   UNL     1      -4.925   2.521   0.153  1.00  0.00     0.345 HD
ENDBRANCH   2   3
BRANCH   2   7
ATOM      7  C   UNL     1      -7.183   0.663   0.572  1.00  0.00     0.100 C 
ATOM      8  O   UNL     1      -6.382  -0.084   1.192  1.00  0.00    -0.544 OA
ATOM      9  O   UNL     1      -8.540   0.611   0.870  1.00  0.00    -0.544 OA
ENDBRANCH   2   7
ENDBRANCH   1   2
BRANCH   1  10
ATOM     10  C   UNL     1      -6.361   4.083  -0.750  1.00  0.00     0.223 C 
ATOM     11  O   UNL     1      -5.981   4.181  -1.948  1.00  0.00    -0.275 OA
ATOM     12  N   UNL     1      -5.909   5.032   0.215  1.00  0.00    -0.369 N 
ATOM     13  H   UNL     1      -5.255   5.797  -0.064  1.00  0.00     0.159 HD
ATOM     14  H   UNL     1      -6.229   4.977   1.207  1.00  0.00     0.159 HD
ENDBRANCH   1  10
TORSDOF 4
ENDMDL
MODEL 5
REMARK VINA RESULT:    -3.969      2.786      4.329
REMARK INTER + INTRA:          -5.045
REMARK INTER:                  -4.922
REMARK INTRA:                  -0.123
REMARK UNBOUND:                -0.264
REMARK SMILES NC(=O)C[C@@H]([NH3+])C(=O)[O-]
REMARK SMILES IDX 4 1 5 2 6 3 7 7 8 8 9 9 2 10 3 11 1 12
REMARK H PARENT 6 4 6 5 6 6 1 13 1 14
REMARK Flexibility Score: inf
ROOT
ATOM      1  C   UNL     1      -5.842   2.822   1.299  1.00  0.00     0.171 C 
ENDROOT
BRANCH   1   2
ATOM      2  C   UNL     1      -5.959   2.503  -0.205  1.00  0.00     0.237 C 
BRANCH   2   3
ATOM      3  N   UNL     1      -5.063   1.399  -0.567  1.00  0.00    -0.350 N 
ATOM      4  H   UNL     1      -5.552   0.745  -1.222  1.00  0.00     0.345 HD
ATOM      5  H   UNL     1      -4.798   0.861   0.291  1.00  0.00     0.345 HD
ATOM      6  H   UNL     1      -4.197   1.760  -1.029  1.00  0.00     0.345 HD
ENDBRANCH   2   3
BRANCH   2   7
ATOM      7  C   UNL     1      -7.379   2.157  -0.575  1.00  0.00     0.100 C 
ATOM      8  O   UNL     1      -8.087   1.470   0.208  1.00  0.00    -0.544 OA
ATOM      9  O   UNL     1      -7.911   2.581  -1.786  1.00  0.00    -0.544 OA
ENDBRANCH   2   7
ENDBRANCH   1   2
BRANCH   1  10
ATOM     10  C   UNL     1      -6.106   4.274   1.578  1.00  0.00     0.223 C 
ATOM     11  O   UNL     1      -6.521   4.625   2.715  1.00  0.00    -0.275 OA
ATOM     12  N   UNL     1      -5.852   5.263   0.581  1.00  0.00    -0.369 N 
ATOM     13  H   UNL     1      -6.023   6.272   0.785  1.00  0.00     0.159 HD
ATOM     14  H   UNL     1      -5.489   4.991  -0.360  1.00  0.00     0.159 HD
ENDBRANCH   1  10
TORSDOF 4
ENDMDL
MODEL 6
REMARK VINA RESULT:    -3.947      1.671      4.048
REMARK INTER + INTRA:          -5.018
REMARK INTER:                  -4.739
REMARK INTRA:                  -0.279
REMARK UNBOUND:                -0.264
REMARK SMILES NC(=O)C[C@@H]([NH3+])C(=O)[O-]
REMARK SMILES IDX 4 1 5 2 6 3 7 7 8 8 9 9 2 10 3 11 1 12
REMARK H PARENT 6 4 6 5 6 6 1 13 1 14
REMARK Flexibility Score: inf
ROOT
ATOM      1  C   UNL     1      -6.828   0.233   0.753  1.00  0.00     0.171 C 
ENDROOT
BRANCH   1   2
ATOM      2  C   UNL     1      -5.925   0.336  -0.494  1.00  0.00     0.237 C 
BRANCH   2   3
ATOM      3  N   UNL     1      -5.142   1.576  -0.459  1.00  0.00    -0.350 N 
ATOM      4  H   UNL     1      -5.785   2.401  -0.459  1.00  0.00     0.345 HD
ATOM      5  H   UNL     1      -4.534   1.637  -1.308  1.00  0.00     0.345 HD
ATOM      6  H   UNL     1      -4.542   1.611   0.398  1.00  0.00     0.345 HD
ENDBRANCH   2   3
BRANCH   2   7
ATOM      7  C   UNL     1      -5.004  -0.854  -0.592  1.00  0.00     0.100 C 
ATOM      8  O   UNL     1      -4.086  -0.873  -1.453  1.00  0.00    -0.544 OA
ATOM      9  O   UNL     1      -5.172  -1.942   0.256  1.00  0.00    -0.544 OA
ENDBRANCH   2   7
ENDBRANCH   1   2
BRANCH   1  10
ATOM     10  C   UNL     1      -7.692   1.450   0.912  1.00  0.00     0.223 C 
ATOM     11  O   UNL     1      -8.178   2.008  -0.108  1.00  0.00    -0.275 OA
ATOM     12  N   UNL     1      -8.000   1.957   2.210  1.00  0.00    -0.369 N 
ATOM     13  H   UNL     1      -8.613   2.796   2.316  1.00  0.00     0.159 HD
ATOM     14  H   UNL     1      -7.621   1.496   3.067  1.00  0.00     0.159 HD
ENDBRANCH   1  10
TORSDOF 4
ENDMDL
MODEL 7
REMARK VINA RESULT:    -3.825      3.325      3.878
REMARK INTER + INTRA:          -4.872
REMARK INTER:                  -4.465
REMARK INTRA:                  -0.407
REMARK UNBOUND:                -0.264
REMARK SMILES NC(=O)C[C@@H]([NH3+])C(=O)[O-]
REMARK SMILES IDX 4 1 5 2 6 3 7 7 8 8 9 9 2 10 3 11 1 12
REMARK H PARENT 6 4 6 5 6 6 1 13 1 14
REMARK Flexibility Score: inf
ROOT
ATOM      1  C   UNL     1      -7.489   3.389   1.336  1.00  0.00     0.171 C 
ENDROOT
BRANCH   1   2
ATOM      2  C   UNL     1      -7.121   4.414   0.244  1.00  0.00     0.237 C 
BRANCH   2   3
ATOM      3  N   UNL     1      -5.872   5.103   0.588  1.00  0.00    -0.350 N 
ATOM      4  H   UNL     1      -5.056   4.567   0.208  1.00  0.00     0.345 HD
ATOM      5  H   UNL     1      -5.770   5.157   1.628  1.00  0.00     0.345 HD
ATOM      6  H   UNL     1      -5.860   6.070   0.189  1.00  0.00     0.345 HD
ENDBRANCH   2   3
BRANCH   2   7
ATOM      7  C   UNL     1      -6.989   3.746  -1.100  1.00  0.00     0.100 C 
ATOM      8  O   UNL     1      -7.773   2.816  -1.424  1.00  0.00    -0.544 OA
ATOM      9  O   UNL     1      -5.993   4.143  -1.985  1.00  0.00    -0.544 OA
ENDBRANCH   2   7
ENDBRANCH   1   2
BRANCH   1  10
ATOM     10  C   UNL     1      -6.358   2.440   1.608  1.00  0.00     0.223 C 
ATOM     11  O   UNL     1      -5.422   2.789   2.377  1.00  0.00    -0.275 OA
ATOM     12  N   UNL     1      -6.353   1.133   1.036  1.00  0.00    -0.369 N 
ATOM     13  H   UNL     1      -5.571   0.472   1.239  1.00  0.00     0.159 HD
ATOM     14  H   UNL     1      -7.130   0.821   0.412  1.00  0.00     0.159 HD
ENDBRANCH   1  10
TORSDOF 4
ENDMDL
MODEL 8
REMARK VINA RESULT:    -3.787      3.078      4.198
REMARK INTER + INTRA:          -4.825
REMARK INTER:                  -4.513
REMARK INTRA:                  -0.313
REMARK UNBOUND:                -0.264
REMARK SMILES NC(=O)C[C@@H]([NH3+])C(=O)[O-]
REMARK SMILES IDX 4 1 5 2 6 3 7 7 8 8 9 9 2 10 3 11 1 12
REMARK H PARENT 6 4 6 5 6 6 1 13 1 14
REMARK Flexibility Score: inf
ROOT
ATOM      1  C   UNL     1      -5.908   2.876   1.504  1.00  0.00     0.171 C 
ENDROOT
BRANCH   1   2
ATOM      2  C   UNL     1      -5.984   4.416   1.499  1.00  0.00     0.237 C 
BRANCH   2   3
ATOM      3  N   UNL     1      -5.820   4.932   0.135  1.00  0.00    -0.350 N 
ATOM      4  H   UNL     1      -6.759   5.065  -0.309  1.00  0.00     0.345 HD
ATOM      5  H   UNL     1      -5.281   4.246  -0.443  1.00  0.00     0.345 HD
ATOM      6  H   UNL     1      -5.314   5.848   0.143  1.00  0.00     0.345 HD
ENDBRANCH   2   3
BRANCH   2   7
ATOM      7  C   UNL     1      -7.291   4.893   2.078  1.00  0.00     0.100 C 
ATOM      8  O   UNL     1      -8.045   5.642   1.404  1.00  0.00    -0.544 OA
ATOM      9  O   UNL     1      -7.664   4.522   3.364  1.00  0.00    -0.544 OA
ENDBRANCH   2   7
ENDBRANCH   1   2
BRANCH   1  10
ATOM     10  C   UNL     1      -6.139   2.305   0.135  1.00  0.00     0.223 C 
ATOM     11  O   UNL     1      -7.268   2.427  -0.411  1.00  0.00    -0.275 OA
ATOM     12  N   UNL     1      -5.079   1.659  -0.571  1.00  0.00    -0.369 N 
ATOM     13  H   UNL     1      -5.240   1.277  -1.529  1.00  0.00     0.159 HD
ATOM     14  H   UNL     1      -4.131   1.566  -0.142  1.00  0.00     0.159 HD
ENDBRANCH   1  10
TORSDOF 4
ENDMDL
MODEL 9
REMARK VINA RESULT:    -3.752      3.043      4.717
REMARK INTER + INTRA:          -4.783
REMARK INTER:                  -4.427
REMARK INTRA:                  -0.356
REMARK UNBOUND:                -0.264
REMARK SMILES NC(=O)C[C@@H]([NH3+])C(=O)[O-]
REMARK SMILES IDX 4 1 5 2 6 3 7 7 8 8 9 9 2 10 3 11 1 12
REMARK H PARENT 6 4 6 5 6 6 1 13 1 14
REMARK Flexibility Score: inf
ROOT
ATOM      1  C   UNL     1      -6.002   3.186   1.602  1.00  0.00     0.171 C 
ENDROOT
BRANCH   1   2
ATOM      2  C   UNL     1      -7.034   2.123   1.174  1.00  0.00     0.237 C 
BRANCH   2   3
ATOM      3  N   UNL     1      -8.395   2.661   1.271  1.00  0.00    -0.350 N 
ATOM      4  H   UNL     1      -8.667   3.103   0.362  1.00  0.00     0.345 HD
ATOM      5  H   UNL     1      -8.435   3.396   2.015  1.00  0.00     0.345 HD
ATOM      6  H   UNL     1      -9.078   1.902   1.499  1.00  0.00     0.345 HD
ENDBRANCH   2   3
BRANCH   2   7
ATOM      7  C   UNL     1      -6.766   1.647  -0.231  1.00  0.00     0.100 C 
ATOM      8  O   UNL     1      -7.521   2.002  -1.174  1.00  0.00    -0.544 OA
ATOM      9  O   UNL     1      -5.693   0.803  -0.493  1.00  0.00    -0.544 OA
ENDBRANCH   2   7
ENDBRANCH   1   2
BRANCH   1  10
ATOM     10  C   UNL     1      -6.323   4.534   1.023  1.00  0.00     0.223 C 
ATOM     11  O   UNL     1      -7.160   5.278   1.601  1.00  0.00    -0.275 OA
ATOM     12  N   UNL     1      -5.661   4.995  -0.154  1.00  0.00    -0.369 N 
ATOM     13  H   UNL     1      -5.877   5.939  -0.545  1.00  0.00     0.159 HD
ATOM     14  H   UNL     1      -4.951   4.399  -0.635  1.00  0.00     0.159 HD
ENDBRANCH   1  10
TORSDOF 4
ENDMDL
