MODEL 1
REMARK VINA RESULT:    -2.541      0.000      0.000
REMARK INTER + INTRA:          -3.002
REMARK INTER:                  -2.912
REMARK INTRA:                  -0.090
REMARK UNBOUND:                -0.090
REMARK SMILES COc1cc(C(=O)[O-])ccc1O
REMARK SMILES IDX 5 1 9 2 4 3 10 4 3 5 11 6 6 7 7 8 8 9 2 10 1 11 12 12
REMARK H PARENT 12 13
REMARK Flexibility Score: inf
ROOT
ATOM      1  C   UNL     1      -6.169  -1.926   3.233  1.00  0.00     0.001 A 
ATOM      2  C   UNL     1      -4.897  -2.497   3.390  1.00  0.00     0.014 A 
ATOM      3  C   UNL     1      -6.605  -1.569   1.944  1.00  0.00     0.060 A 
ATOM      4  C   UNL     1      -4.075  -2.708   2.281  1.00  0.00     0.051 A 
ATOM      5  C   UNL     1      -5.780  -1.781   0.820  1.00  0.00     0.161 A 
ATOM      6  C   UNL     1      -4.508  -2.354   1.000  1.00  0.00     0.157 A 
ENDROOT
BRANCH   1   7
ATOM      7  C   UNL     1      -7.036  -1.704   4.413  1.00  0.00     0.072 C 
ATOM      8  O   UNL     1      -7.175  -2.603   5.284  1.00  0.00    -0.545 OA
ATOM      9  O   UNL     1      -7.708  -0.498   4.577  1.00  0.00    -0.545 OA
ENDBRANCH   1   7
BRANCH   5  10
ATOM     10  O   UNL     1      -6.188  -1.435  -0.478  1.00  0.00    -0.493 OA
ATOM     11  C   UNL     1      -7.371  -1.914  -1.109  1.00  0.00     0.278 C 
ENDBRANCH   5  10
BRANCH   6  12
ATOM     12  O   UNL     1      -3.659  -2.580  -0.083  1.00  0.00    -0.504 OA
ATOM     13  H   UNL     1      -2.796  -2.065  -0.209  1.00  0.00     0.293 HD
ENDBRANCH   6  12
TORSDOF 3
ENDMDL
MODEL 2
REMARK VINA RESULT:    -2.433      2.723      6.321
REMARK INTER + INTRA:          -2.878
REMARK INTER:                  -2.781
REMARK INTRA:                  -0.097
REMARK UNBOUND:                -0.090
REMARK SMILES COc1cc(C(=O)[O-])ccc1O
REMARK SMILES IDX 5 1 9 2 4 3 10 4 3 5 11 6 6 7 7 8 8 9 2 10 1 11 12 12
REMARK H PARENT 12 13
REMARK Flexibility Score: inf
ROOT
ATOM      1  C   UNL     1      -8.100  -2.065  -2.880  1.00  0.00     0.001 A 
ATOM      2  C   UNL     1      -9.300  -2.460  -2.268  1.00  0.00     0.014 A 
ATOM      3  C   UNL     1      -6.994  -1.742  -2.073  1.00  0.00     0.060 A 
ATOM      4  C   UNL     1      -9.393  -2.530  -0.876  1.00  0.00     0.051 A 
ATOM      5  C   UNL     1      -7.082  -1.813  -0.668  1.00  0.00     0.161 A 
ATOM      6  C   UNL     1      -8.295  -2.210  -0.075  1.00  0.00     0.157 A 
ENDROOT
BRANCH   1   7
ATOM      7  C   UNL     1      -8.007  -1.992  -4.356  1.00  0.00     0.072 C 
ATOM      8  O   UNL     1      -7.022  -2.491  -4.962  1.00  0.00    -0.545 OA
ATOM      9  O   UNL     1      -9.008  -1.371  -5.095  1.00  0.00    -0.545 OA
ENDBRANCH   1   7
BRANCH   5  10
ATOM     10  O   UNL     1      -5.995  -1.497   0.162  1.00  0.00    -0.493 OA
ATOM     11  C   UNL     1      -4.961  -2.406   0.523  1.00  0.00     0.278 C 
ENDBRANCH   5  10
BRANCH   6  12
ATOM     12  O   UNL     1      -8.426  -2.292   1.311  1.00  0.00    -0.504 OA
ATOM     13  H   UNL     1      -7.640  -2.161   1.937  1.00  0.00     0.293 HD
ENDBRANCH   6  12
TORSDOF 3
ENDMDL
MODEL 3
REMARK VINA RESULT:    -2.424      8.691     10.135
REMARK INTER + INTRA:          -2.868
REMARK INTER:                  -2.785
REMARK INTRA:                  -0.082
REMARK UNBOUND:                -0.090
REMARK SMILES COc1cc(C(=O)[O-])ccc1O
REMARK SMILES IDX 5 1 9 2 4 3 10 4 3 5 11 6 6 7 7 8 8 9 2 10 1 11 12 12
REMARK H PARENT 12 13
REMARK Flexibility Score: inf
ROOT
ATOM      1  C   UNL     1      -5.918   6.376  -3.181  1.00  0.00     0.001 A 
ATOM      2  C   UNL     1      -5.228   6.828  -4.318  1.00  0.00     0.014 A 
ATOM      3  C   UNL     1      -5.188   5.817  -2.116  1.00  0.00     0.060 A 
ATOM      4  C   UNL     1      -3.838   6.723  -4.389  1.00  0.00     0.051 A 
ATOM      5  C   UNL     1      -3.784   5.709  -2.183  1.00  0.00     0.161 A 
ATOM      6  C   UNL     1      -3.113   6.167  -3.331  1.00  0.00     0.157 A 
ENDROOT
BRANCH   1   7
ATOM      7  C   UNL     1      -7.392   6.490  -3.112  1.00  0.00     0.072 C 
ATOM      8  O   UNL     1      -7.979   7.510  -3.561  1.00  0.00    -0.545 OA
ATOM      9  O   UNL     1      -8.151   5.470  -2.550  1.00  0.00    -0.545 OA
ENDBRANCH   1   7
BRANCH   5  10
ATOM     10  O   UNL     1      -3.031   5.156  -1.135  1.00  0.00    -0.493 OA
ATOM     11  C   UNL     1      -3.290   5.367   0.249  1.00  0.00     0.278 C 
ENDBRANCH   5  10
BRANCH   6  12
ATOM     12  O   UNL     1      -1.726   6.080  -3.439  1.00  0.00    -0.504 OA
ATOM     13  H   UNL     1      -1.189   5.380  -2.941  1.00  0.00     0.293 HD
ENDBRANCH   6  12
TORSDOF 3
ENDMDL
MODEL 4
REMARK VINA RESULT:    -2.387      2.622      4.802
REMARK INTER + INTRA:          -2.826
REMARK INTER:                  -2.745
REMARK INTRA:                  -0.081
REMARK UNBOUND:                -0.090
REMARK SMILES COc1cc(C(=O)[O-])ccc1O
REMARK SMILES IDX 5 1 9 2 4 3 10 4 3 5 11 6 6 7 7 8 8 9 2 10 1 11 12 12
REMARK H PARENT 12 13
REMARK Flexibility Score: inf
ROOT
ATOM      1  C   UNL     1      -8.922  -2.256  -1.043  1.00  0.00     0.001 A 
ATOM      2  C   UNL     1      -8.620  -2.396  -2.406  1.00  0.00     0.014 A 
ATOM      3  C   UNL     1      -7.878  -2.013  -0.132  1.00  0.00     0.060 A 
ATOM      4  C   UNL     1      -7.300  -2.297  -2.851  1.00  0.00     0.051 A 
ATOM      5  C   UNL     1      -6.544  -1.910  -0.576  1.00  0.00     0.161 A 
ATOM      6  C   UNL     1      -6.263  -2.055  -1.946  1.00  0.00     0.157 A 
ENDROOT
BRANCH   1   7
ATOM      7  C   UNL     1     -10.323  -2.364  -0.576  1.00  0.00     0.072 C 
ATOM      8  O   UNL     1     -11.279  -2.089  -1.350  1.00  0.00    -0.545 OA
ATOM      9  O   UNL     1     -10.604  -2.770   0.722  1.00  0.00    -0.545 OA
ENDBRANCH   1   7
BRANCH   5  10
ATOM     10  O   UNL     1      -5.482  -1.668   0.310  1.00  0.00    -0.493 OA
ATOM     11  C   UNL     1      -5.477  -2.031   1.687  1.00  0.00     0.278 C 
ENDBRANCH   5  10
BRANCH   6  12
ATOM     12  O   UNL     1      -4.958  -1.961  -2.429  1.00  0.00    -0.504 OA
ATOM     13  H   UNL     1      -4.732  -1.467  -3.284  1.00  0.00     0.293 HD
ENDBRANCH   6  12
TORSDOF 3
ENDMDL
MODEL 5
REMARK VINA RESULT:    -2.354      1.093      4.402
REMARK INTER + INTRA:          -2.787
REMARK INTER:                  -2.696
REMARK INTRA:                  -0.092
REMARK UNBOUND:                -0.090
REMARK SMILES COc1cc(C(=O)[O-])ccc1O
REMARK SMILES IDX 5 1 9 2 4 3 10 4 3 5 11 6 6 7 7 8 8 9 2 10 1 11 12 12
REMARK H PARENT 12 13
REMARK Flexibility Score: inf
ROOT
ATOM      1  C   UNL     1      -5.451  -2.152   1.744  1.00  0.00     0.001 A 
ATOM      2  C   UNL     1      -4.457  -2.789   2.504  1.00  0.00     0.014 A 
ATOM      3  C   UNL     1      -6.504  -1.496   2.407  1.00  0.00     0.060 A 
ATOM      4  C   UNL     1      -4.516  -2.772   3.899  1.00  0.00     0.051 A 
ATOM      5  C   UNL     1      -6.568  -1.476   3.815  1.00  0.00     0.161 A 
ATOM      6  C   UNL     1      -5.562  -2.121   4.558  1.00  0.00     0.157 A 
ENDROOT
BRANCH   1   7
ATOM      7  C   UNL     1      -5.384  -2.173   0.265  1.00  0.00     0.072 C 
ATOM      8  O   UNL     1      -6.159  -1.454  -0.422  1.00  0.00    -0.545 OA
ATOM      9  O   UNL     1      -4.465  -2.986  -0.387  1.00  0.00    -0.545 OA
ENDBRANCH   1   7
BRANCH   5  10
ATOM     10  O   UNL     1      -7.607  -0.829   4.503  1.00  0.00    -0.493 OA
ATOM     11  C   UNL     1      -8.835  -1.444   4.877  1.00  0.00     0.278 C 
ENDBRANCH   5  10
BRANCH   6  12
ATOM     12  O   UNL     1      -5.586  -2.126   5.952  1.00  0.00    -0.504 OA
ATOM     13  H   UNL     1      -5.857  -1.311   6.490  1.00  0.00     0.293 HD
ENDBRANCH   6  12
TORSDOF 3
ENDMDL
MODEL 6
REMARK VINA RESULT:    -2.352      8.180      8.498
REMARK INTER + INTRA:          -2.785
REMARK INTER:                  -2.708
REMARK INTRA:                  -0.077
REMARK UNBOUND:                -0.090
REMARK SMILES COc1cc(C(=O)[O-])ccc1O
REMARK SMILES IDX 5 1 9 2 4 3 10 4 3 5 11 6 6 7 7 8 8 9 2 10 1 11 12 12
REMARK H PARENT 12 13
REMARK Flexibility Score: inf
ROOT
ATOM      1  C   UNL     1      -3.672   6.493   2.014  1.00  0.00     0.001 A 
ATOM      2  C   UNL     1      -2.446   5.986   2.472  1.00  0.00     0.014 A 
ATOM      3  C   UNL     1      -4.106   6.165   0.717  1.00  0.00     0.060 A 
ATOM      4  C   UNL     1      -1.668   5.168   1.650  1.00  0.00     0.051 A 
ATOM      5  C   UNL     1      -3.326   5.338  -0.117  1.00  0.00     0.161 A 
ATOM      6  C   UNL     1      -2.100   4.841   0.362  1.00  0.00     0.157 A 
ENDROOT
BRANCH   1   7
ATOM      7  C   UNL     1      -4.492   7.361   2.889  1.00  0.00     0.072 C 
ATOM      8  O   UNL     1      -4.426   8.616   2.792  1.00  0.00    -0.545 OA
ATOM      9  O   UNL     1      -5.348   6.804   3.831  1.00  0.00    -0.545 OA
ENDBRANCH   1   7
BRANCH   5  10
ATOM     10  O   UNL     1      -3.734   4.994  -1.415  1.00  0.00    -0.493 OA
ATOM     11  C   UNL     1      -4.449   5.857  -2.294  1.00  0.00     0.278 C 
ENDBRANCH   5  10
BRANCH   6  12
ATOM     12  O   UNL     1      -1.296   4.021  -0.429  1.00  0.00    -0.504 OA
ATOM     13  H   UNL     1      -0.595   4.396  -1.057  1.00  0.00     0.293 HD
ENDBRANCH   6  12
TORSDOF 3
ENDMDL
MODEL 7
REMARK VINA RESULT:    -2.323      1.621      2.975
REMARK INTER + INTRA:          -2.752
REMARK INTER:                  -2.673
REMARK INTRA:                  -0.079
REMARK UNBOUND:                -0.090
REMARK SMILES COc1cc(C(=O)[O-])ccc1O
REMARK SMILES IDX 5 1 9 2 4 3 10 4 3 5 11 6 6 7 7 8 8 9 2 10 1 11 12 12
REMARK H PARENT 12 13
REMARK Flexibility Score: inf
ROOT
ATOM      1  C   UNL     1      -5.146  -2.517   3.698  1.00  0.00     0.001 A 
ATOM      2  C   UNL     1      -6.337  -1.948   3.220  1.00  0.00     0.014 A 
ATOM      3  C   UNL     1      -4.101  -2.777   2.793  1.00  0.00     0.060 A 
ATOM      4  C   UNL     1      -6.482  -1.647   1.864  1.00  0.00     0.051 A 
ATOM      5  C   UNL     1      -4.241  -2.474   1.423  1.00  0.00     0.161 A 
ATOM      6  C   UNL     1      -5.444  -1.905   0.965  1.00  0.00     0.157 A 
ENDROOT
BRANCH   1   7
ATOM      7  C   UNL     1      -4.999  -2.835   5.136  1.00  0.00     0.072 C 
ATOM      8  O   UNL     1      -4.166  -2.212   5.849  1.00  0.00    -0.545 OA
ATOM      9  O   UNL     1      -5.778  -3.825   5.722  1.00  0.00    -0.545 OA
ENDBRANCH   1   7
BRANCH   5  10
ATOM     10  O   UNL     1      -3.215  -2.723   0.498  1.00  0.00    -0.493 OA
ATOM     11  C   UNL     1      -1.834  -2.469   0.733  1.00  0.00     0.278 C 
ENDBRANCH   5  10
BRANCH   6  12
ATOM     12  O   UNL     1      -5.625  -1.590  -0.381  1.00  0.00    -0.504 OA
ATOM     13  H   UNL     1      -5.904  -0.665  -0.686  1.00  0.00     0.293 HD
ENDBRANCH   6  12
TORSDOF 3
ENDMDL
MODEL 8
REMARK VINA RESULT:    -2.311      1.755      4.032
REMARK INTER + INTRA:          -2.738
REMARK INTER:                  -2.646
REMARK INTRA:                  -0.092
REMARK UNBOUND:                -0.090
REMARK SMILES COc1cc(C(=O)[O-])ccc1O
REMARK SMILES IDX 5 1 9 2 4 3 10 4 3 5 11 6 6 7 7 8 8 9 2 10 1 11 12 12
REMARK H PARENT 12 13
REMARK Flexibility Score: inf
ROOT
ATOM      1  C   UNL     1      -3.677  -3.486   1.468  1.00  0.00     0.001 A 
ATOM      2  C   UNL     1      -4.051  -3.162   2.782  1.00  0.00     0.014 A 
ATOM      3  C   UNL     1      -4.385  -2.914   0.395  1.00  0.00     0.060 A 
ATOM      4  C   UNL     1      -5.111  -2.286   3.019  1.00  0.00     0.051 A 
ATOM      5  C   UNL     1      -5.456  -2.028   0.629  1.00  0.00     0.161 A 
ATOM      6  C   UNL     1      -5.814  -1.718   1.954  1.00  0.00     0.157 A 
ENDROOT
BRANCH   1   7
ATOM      7  C   UNL     1      -2.552  -4.416   1.222  1.00  0.00     0.072 C 
ATOM      8  O   UNL     1      -2.632  -5.625   1.569  1.00  0.00    -0.545 OA
ATOM      9  O   UNL     1      -1.390  -3.970   0.604  1.00  0.00    -0.545 OA
ENDBRANCH   1   7
BRANCH   5  10
ATOM     10  O   UNL     1      -6.180  -1.442  -0.422  1.00  0.00    -0.493 OA
ATOM     11  C   UNL     1      -7.305  -2.037  -1.059  1.00  0.00     0.278 C 
ENDBRANCH   5  10
BRANCH   6  12
ATOM     12  O   UNL     1      -6.867  -0.847   2.231  1.00  0.00    -0.504 OA
ATOM     13  H   UNL     1      -7.216  -0.702   3.171  1.00  0.00     0.293 HD
ENDBRANCH   6  12
TORSDOF 3
ENDMDL
MODEL 9
REMARK VINA RESULT:    -2.300      2.772      4.071
REMARK INTER + INTRA:          -2.726
REMARK INTER:                  -2.627
REMARK INTRA:                  -0.099
REMARK UNBOUND:                -0.090
REMARK SMILES COc1cc(C(=O)[O-])ccc1O
REMARK SMILES IDX 5 1 9 2 4 3 10 4 3 5 11 6 6 7 7 8 8 9 2 10 1 11 12 12
REMARK H PARENT 12 13
REMARK Flexibility Score: inf
ROOT
ATOM      1  C   UNL     1      -9.024  -3.167   0.799  1.00  0.00     0.001 A 
ATOM      2  C   UNL     1      -9.228  -2.900  -0.564  1.00  0.00     0.014 A 
ATOM      3  C   UNL     1      -7.834  -2.732   1.411  1.00  0.00     0.060 A 
ATOM      4  C   UNL     1      -8.261  -2.212  -1.301  1.00  0.00     0.051 A 
ATOM      5  C   UNL     1      -6.856  -2.036   0.672  1.00  0.00     0.161 A 
ATOM      6  C   UNL     1      -7.080  -1.779  -0.693  1.00  0.00     0.157 A 
ENDROOT
BRANCH   1   7
ATOM      7  C   UNL     1     -10.051  -3.897   1.575  1.00  0.00     0.072 C 
ATOM      8  O   UNL     1     -10.517  -4.990   1.154  1.00  0.00    -0.545 OA
ATOM      9  O   UNL     1     -10.515  -3.389   2.783  1.00  0.00    -0.545 OA
ENDBRANCH   1   7
BRANCH   5  10
ATOM     10  O   UNL     1      -5.660  -1.589   1.256  1.00  0.00    -0.493 OA
ATOM     11  C   UNL     1      -4.501  -2.395   1.445  1.00  0.00     0.278 C 
ENDBRANCH   5  10
BRANCH   6  12
ATOM     12  O   UNL     1      -6.139  -1.095  -1.462  1.00  0.00    -0.504 OA
ATOM     13  H   UNL     1      -6.311  -0.163  -1.822  1.00  0.00     0.293 HD
ENDBRANCH   6  12
TORSDOF 3
ENDMDL
