MODEL 1
REMARK VINA RESULT:    -2.132      0.000      0.000
REMARK INTER + INTRA:          -2.132
REMARK INTER:                  -2.132
REMARK INTRA:                   0.000
REMARK UNBOUND:                 0.000
REMARK SMILES CC(=O)[O-]
REMARK SMILES IDX 1 1 2 2 3 3 4 4
REMARK H PARENT
REMARK Flexibility Score: inf
ROOT
ATOM      1  C   UNL     1      17.138  26.738  11.708  1.00  0.00     0.063 C 
ATOM      2  C   UNL     1      16.588  26.310  13.026  1.00  0.00     0.038 C 
ATOM      3  O   UNL     1      15.416  25.857  13.103  1.00  0.00    -0.550 OA
ATOM      4  O   UNL     1      17.384  26.359  14.162  1.00  0.00    -0.550 OA
ENDROOT
TORSDOF 0
ENDMDL
MODEL 2
REMARK VINA RESULT:    -2.132     23.719     24.176
REMARK INTER + INTRA:          -2.132
REMARK INTER:                  -2.132
REMARK INTRA:                   0.000
REMARK UNBOUND:                 0.000
REMARK SMILES CC(=O)[O-]
REMARK SMILES IDX 1 1 2 2 3 3 4 4
REMARK H PARENT
REMARK Flexibility Score: inf
ROOT
ATOM      1  C   UNL     1      32.945  37.570  -2.537  1.00  0.00     0.063 C 
ATOM      2  C   UNL     1      32.476  36.192  -2.213  1.00  0.00     0.038 C 
ATOM      3  O   UNL     1      32.686  35.706  -1.070  1.00  0.00    -0.550 OA
ATOM      4  O   UNL     1      31.760  35.461  -3.151  1.00  0.00    -0.550 OA
ENDROOT
TORSDOF 0
ENDMDL
MODEL 3
REMARK VINA RESULT:    -2.069     21.776     22.365
REMARK INTER + INTRA:          -2.069
REMARK INTER:                  -2.069
REMARK INTRA:                   0.000
REMARK UNBOUND:                 0.000
REMARK SMILES CC(=O)[O-]
REMARK SMILES IDX 1 1 2 2 3 3 4 4
REMARK H PARENT
REMARK Flexibility Score: inf
ROOT
ATOM      1  C   UNL     1      32.921  37.009   2.190  1.00  0.00     0.063 C 
ATOM      2  C   UNL     1      32.893  35.940   1.151  1.00  0.00     0.038 C 
ATOM      3  O   UNL     1      33.529  36.088   0.075  1.00  0.00    -0.550 OA
ATOM      4  O   UNL     1      32.210  34.755   1.391  1.00  0.00    -0.550 OA
ENDROOT
TORSDOF 0
ENDMDL
MODEL 4
REMARK VINA RESULT:    -2.032     21.824     22.440
REMARK INTER + INTRA:          -2.032
REMARK INTER:                  -2.032
REMARK INTRA:                   0.000
REMARK UNBOUND:                 0.000
REMARK SMILES CC(=O)[O-]
REMARK SMILES IDX 1 1 2 2 3 3 4 4
REMARK H PARENT
REMARK Flexibility Score: inf
ROOT
ATOM      1  C   UNL     1      32.442  35.040   1.180  1.00  0.00     0.063 C 
ATOM      2  C   UNL     1      33.142  36.286   1.604  1.00  0.00     0.038 C 
ATOM      3  O   UNL     1      34.283  36.556   1.145  1.00  0.00    -0.550 OA
ATOM      4  O   UNL     1      32.515  37.178   2.463  1.00  0.00    -0.550 OA
ENDROOT
TORSDOF 0
ENDMDL
MODEL 5
REMARK VINA RESULT:    -2.032      1.414      1.977
REMARK INTER + INTRA:          -2.032
REMARK INTER:                  -2.032
REMARK INTRA:                   0.000
REMARK UNBOUND:                 0.000
REMARK SMILES CC(=O)[O-]
REMARK SMILES IDX 1 1 2 2 3 3 4 4
REMARK H PARENT
REMARK Flexibility Score: inf
ROOT
ATOM      1  C   UNL     1      17.440  26.744  13.708  1.00  0.00     0.063 C 
ATOM      2  C   UNL     1      16.486  26.328  12.641  1.00  0.00     0.038 C 
ATOM      3  O   UNL     1      16.840  26.353  11.433  1.00  0.00    -0.550 OA
ATOM      4  O   UNL     1      15.223  25.860  12.979  1.00  0.00    -0.550 OA
ENDROOT
TORSDOF 0
ENDMDL
MODEL 6
REMARK VINA RESULT:    -2.013     21.837     22.431
REMARK INTER + INTRA:          -2.013
REMARK INTER:                  -2.013
REMARK INTRA:                   0.000
REMARK UNBOUND:                 0.000
REMARK SMILES CC(=O)[O-]
REMARK SMILES IDX 1 1 2 2 3 3 4 4
REMARK H PARENT
REMARK Flexibility Score: inf
ROOT
ATOM      1  C   UNL     1      32.426  35.048   1.183  1.00  0.00     0.063 C 
ATOM      2  C   UNL     1      33.081  36.323   1.593  1.00  0.00     0.038 C 
ATOM      3  O   UNL     1      32.495  37.107   2.386  1.00  0.00    -0.550 OA
ATOM      4  O   UNL     1      34.359  36.625   1.145  1.00  0.00    -0.550 OA
ENDROOT
TORSDOF 0
ENDMDL
MODEL 7
REMARK VINA RESULT:    -2.001      1.830      2.261
REMARK INTER + INTRA:          -2.001
REMARK INTER:                  -2.001
REMARK INTRA:                   0.000
REMARK UNBOUND:                 0.000
REMARK SMILES CC(=O)[O-]
REMARK SMILES IDX 1 1 2 2 3 3 4 4
REMARK H PARENT
REMARK Flexibility Score: inf
ROOT
ATOM      1  C   UNL     1      15.224  27.557  10.736  1.00  0.00     0.063 C 
ATOM      2  C   UNL     1      16.048  26.722  11.657  1.00  0.00     0.038 C 
ATOM      3  O   UNL     1      17.302  26.711  11.546  1.00  0.00    -0.550 OA
ATOM      4  O   UNL     1      15.439  25.998  12.673  1.00  0.00    -0.550 OA
ENDROOT
TORSDOF 0
ENDMDL
MODEL 8
REMARK VINA RESULT:    -1.976     22.160     22.740
REMARK INTER + INTRA:          -1.976
REMARK INTER:                  -1.976
REMARK INTRA:                   0.000
REMARK UNBOUND:                 0.000
REMARK SMILES CC(=O)[O-]
REMARK SMILES IDX 1 1 2 2 3 3 4 4
REMARK H PARENT
REMARK Flexibility Score: inf
ROOT
ATOM      1  C   UNL     1      32.842  37.157   2.114  1.00  0.00     0.063 C 
ATOM      2  C   UNL     1      33.255  36.115   1.130  1.00  0.00     0.038 C 
ATOM      3  O   UNL     1      33.016  34.901   1.359  1.00  0.00    -0.550 OA
ATOM      4  O   UNL     1      33.856  36.487  -0.065  1.00  0.00    -0.550 OA
ENDROOT
TORSDOF 0
ENDMDL
MODEL 9
REMARK VINA RESULT:    -1.826      1.491      1.933
REMARK INTER + INTRA:          -1.826
REMARK INTER:                  -1.826
REMARK INTRA:                   0.000
REMARK UNBOUND:                 0.000
REMARK SMILES CC(=O)[O-]
REMARK SMILES IDX 1 1 2 2 3 3 4 4
REMARK H PARENT
REMARK Flexibility Score: inf
ROOT
ATOM      1  C   UNL     1      17.065  26.645  11.857  1.00  0.00     0.063 C 
ATOM      2  C   UNL     1      15.634  26.713  12.271  1.00  0.00     0.038 C 
ATOM      3  O   UNL     1      15.116  25.758  12.908  1.00  0.00    -0.550 OA
ATOM      4  O   UNL     1      14.885  27.850  12.002  1.00  0.00    -0.550 OA
ENDROOT
TORSDOF 0
ENDMDL
