MODEL 1
REMARK VINA RESULT:    -2.082      0.000      0.000
REMARK INTER + INTRA:          -2.082
REMARK INTER:                  -2.082
REMARK INTRA:                   0.000
REMARK UNBOUND:                 0.000
REMARK SMILES CC(=O)[O-]
REMARK SMILES IDX 1 1 2 2 3 3 4 4
REMARK H PARENT
REMARK Flexibility Score: inf
ROOT
ATOM      1  C   UNL     1       7.496  42.479  12.445  1.00  0.00     0.063 C 
ATOM      2  C   UNL     1       6.557  43.636  12.390  1.00  0.00     0.038 C 
ATOM      3  O   UNL     1       5.519  43.642  13.104  1.00  0.00    -0.550 OA
ATOM      4  O   UNL     1       6.850  44.734  11.592  1.00  0.00    -0.550 OA
ENDROOT
TORSDOF 0
ENDMDL
MODEL 2
REMARK VINA RESULT:    -2.060      0.133      1.624
REMARK INTER + INTRA:          -2.060
REMARK INTER:                  -2.060
REMARK INTRA:                   0.000
REMARK UNBOUND:                 0.000
REMARK SMILES CC(=O)[O-]
REMARK SMILES IDX 1 1 2 2 3 3 4 4
REMARK H PARENT
REMARK Flexibility Score: inf
ROOT
ATOM      1  C   UNL     1       7.487  42.478  12.480  1.00  0.00     0.063 C 
ATOM      2  C   UNL     1       6.536  43.626  12.434  1.00  0.00     0.038 C 
ATOM      3  O   UNL     1       6.744  44.587  11.648  1.00  0.00    -0.550 OA
ATOM      4  O   UNL     1       5.392  43.613  13.220  1.00  0.00    -0.550 OA
ENDROOT
TORSDOF 0
ENDMDL
MODEL 3
REMARK VINA RESULT:    -2.000      1.429      1.978
REMARK INTER + INTRA:          -2.000
REMARK INTER:                  -2.000
REMARK INTRA:                   0.000
REMARK UNBOUND:                 0.000
REMARK SMILES CC(=O)[O-]
REMARK SMILES IDX 1 1 2 2 3 3 4 4
REMARK H PARENT
REMARK Flexibility Score: inf
ROOT
ATOM      1  C   UNL     1       7.289  44.124  11.402  1.00  0.00     0.063 C 
ATOM      2  C   UNL     1       6.820  43.213  12.485  1.00  0.00     0.038 C 
ATOM      3  O   UNL     1       7.475  42.172  12.762  1.00  0.00    -0.550 OA
ATOM      4  O   UNL     1       5.692  43.535  13.226  1.00  0.00    -0.550 OA
ENDROOT
TORSDOF 0
ENDMDL
MODEL 4
REMARK VINA RESULT:    -1.995      2.044      2.228
REMARK INTER + INTRA:          -1.995
REMARK INTER:                  -1.995
REMARK INTRA:                   0.000
REMARK UNBOUND:                 0.000
REMARK SMILES CC(=O)[O-]
REMARK SMILES IDX 1 1 2 2 3 3 4 4
REMARK H PARENT
REMARK Flexibility Score: inf
ROOT
ATOM      1  C   UNL     1       6.450  44.832  11.776  1.00  0.00     0.063 C 
ATOM      2  C   UNL     1       5.319  44.137  12.454  1.00  0.00     0.038 C 
ATOM      3  O   UNL     1       4.159  44.194  11.965  1.00  0.00    -0.550 OA
ATOM      4  O   UNL     1       5.549  43.383  13.597  1.00  0.00    -0.550 OA
ENDROOT
TORSDOF 0
ENDMDL
MODEL 5
REMARK VINA RESULT:    -1.977      1.683      1.885
REMARK INTER + INTRA:          -1.977
REMARK INTER:                  -1.977
REMARK INTRA:                   0.000
REMARK UNBOUND:                 0.000
REMARK SMILES CC(=O)[O-]
REMARK SMILES IDX 1 1 2 2 3 3 4 4
REMARK H PARENT
REMARK Flexibility Score: inf
ROOT
ATOM      1  C   UNL     1       7.795  43.632  11.031  1.00  0.00     0.063 C 
ATOM      2  C   UNL     1       7.086  43.121  12.239  1.00  0.00     0.038 C 
ATOM      3  O   UNL     1       6.051  43.704  12.658  1.00  0.00    -0.550 OA
ATOM      4  O   UNL     1       7.534  41.971  12.875  1.00  0.00    -0.550 OA
ENDROOT
TORSDOF 0
ENDMDL
MODEL 6
REMARK VINA RESULT:    -1.959     21.259     21.902
REMARK INTER + INTRA:          -1.959
REMARK INTER:                  -1.959
REMARK INTRA:                   0.000
REMARK UNBOUND:                 0.000
REMARK SMILES CC(=O)[O-]
REMARK SMILES IDX 1 1 2 2 3 3 4 4
REMARK H PARENT
REMARK Flexibility Score: inf
ROOT
ATOM      1  C   UNL     1       5.842  30.052  30.125  1.00  0.00     0.063 C 
ATOM      2  C   UNL     1       4.625  29.976  29.267  1.00  0.00     0.038 C 
ATOM      3  O   UNL     1       4.292  30.961  28.556  1.00  0.00    -0.550 OA
ATOM      4  O   UNL     1       3.887  28.803  29.208  1.00  0.00    -0.550 OA
ENDROOT
TORSDOF 0
ENDMDL
MODEL 7
REMARK VINA RESULT:    -1.955      4.379      4.885
REMARK INTER + INTRA:          -1.955
REMARK INTER:                  -1.955
REMARK INTRA:                   0.000
REMARK UNBOUND:                 0.000
REMARK SMILES CC(=O)[O-]
REMARK SMILES IDX 1 1 2 2 3 3 4 4
REMARK H PARENT
REMARK Flexibility Score: inf
ROOT
ATOM      1  C   UNL     1       1.232  42.844  10.583  1.00  0.00     0.063 C 
ATOM      2  C   UNL     1       2.463  43.663  10.774  1.00  0.00     0.038 C 
ATOM      3  O   UNL     1       2.818  44.486   9.888  1.00  0.00    -0.550 OA
ATOM      4  O   UNL     1       3.193  43.559  11.950  1.00  0.00    -0.550 OA
ENDROOT
TORSDOF 0
ENDMDL
MODEL 8
REMARK VINA RESULT:    -1.913     12.488     12.985
REMARK INTER + INTRA:          -1.913
REMARK INTER:                  -1.913
REMARK INTRA:                   0.000
REMARK UNBOUND:                 0.000
REMARK SMILES CC(=O)[O-]
REMARK SMILES IDX 1 1 2 2 3 3 4 4
REMARK H PARENT
REMARK Flexibility Score: inf
ROOT
ATOM      1  C   UNL     1       8.351  32.328  11.422  1.00  0.00     0.063 C 
ATOM      2  C   UNL     1       8.062  30.867  11.490  1.00  0.00     0.038 C 
ATOM      3  O   UNL     1       6.987  30.413  11.016  1.00  0.00    -0.550 OA
ATOM      4  O   UNL     1       8.999  29.996  12.029  1.00  0.00    -0.550 OA
ENDROOT
TORSDOF 0
ENDMDL
MODEL 9
REMARK VINA RESULT:    -1.832     12.462     12.951
REMARK INTER + INTRA:          -1.832
REMARK INTER:                  -1.832
REMARK INTRA:                   0.000
REMARK UNBOUND:                 0.000
REMARK SMILES CC(=O)[O-]
REMARK SMILES IDX 1 1 2 2 3 3 4 4
REMARK H PARENT
REMARK Flexibility Score: inf
ROOT
ATOM      1  C   UNL     1       8.376  32.373  11.383  1.00  0.00     0.063 C 
ATOM      2  C   UNL     1       8.095  30.909  11.380  1.00  0.00     0.038 C 
ATOM      3  O   UNL     1       8.943  30.103  11.847  1.00  0.00    -0.550 OA
ATOM      4  O   UNL     1       6.878  30.435  10.912  1.00  0.00    -0.550 OA
ENDROOT
TORSDOF 0
ENDMDL
