MODEL 1
REMARK VINA RESULT:    -4.100      0.000      0.000
REMARK INTER + INTRA:          -5.469
REMARK INTER:                  -5.299
REMARK INTRA:                  -0.170
REMARK UNBOUND:                -0.170
REMARK SMILES C=CC(=O)CCCCC
REMARK SMILES IDX 6 1 7 2 8 3 9 4 5 5 3 6 4 7 2 8 1 9
REMARK H PARENT
REMARK Flexibility Score: inf
ROOT
ATOM      1  C   UNL     1     257.084 261.023 244.655  1.00  0.00     0.008 C 
ENDROOT
BRANCH   1   2
ATOM      2  C   UNL     1     258.183 262.084 244.495  1.00  0.00     0.000 C 
BRANCH   2   3
ATOM      3  C   UNL     1     257.943 263.269 245.439  1.00  0.00    -0.003 C 
ATOM      4  C   UNL     1     257.848 264.580 244.664  1.00  0.00     0.004 C 
ENDBRANCH   2   3
ENDBRANCH   1   2
BRANCH   1   5
ATOM      5  C   UNL     1     256.216 261.267 245.897  1.00  0.00     0.080 C 
BRANCH   5   6
ATOM      6  C   UNL     1     254.933 260.488 245.844  1.00  0.00     0.155 C 
ATOM      7  O   UNL     1     254.565 259.980 244.749  1.00  0.00    -0.295 OA
BRANCH   6   8
ATOM      8  C   UNL     1     254.098 260.347 247.054  1.00  0.00     0.039 C 
ATOM      9  C   UNL     1     253.093 261.175 247.329  1.00  0.00     0.012 C 
ENDBRANCH   6   8
ENDBRANCH   5   6
ENDBRANCH   1   5
TORSDOF 5
ENDMDL
MODEL 2
REMARK VINA RESULT:    -4.010      3.432      4.709
REMARK INTER + INTRA:          -5.352
REMARK INTER:                  -4.759
REMARK INTRA:                  -0.592
REMARK UNBOUND:                -0.170
REMARK SMILES C=CC(=O)CCCCC
REMARK SMILES IDX 6 1 7 2 8 3 9 4 5 5 3 6 4 7 2 8 1 9
REMARK H PARENT
REMARK Flexibility Score: inf
ROOT
ATOM      1  C   UNL     1     257.217 260.961 247.127  1.00  0.00     0.008 C 
ENDROOT
BRANCH   1   2
ATOM      2  C   UNL     1     256.800 261.702 245.848  1.00  0.00     0.000 C 
BRANCH   2   3
ATOM      3  C   UNL     1     257.646 261.249 244.651  1.00  0.00    -0.003 C 
ATOM      4  C   UNL     1     258.640 262.331 244.239  1.00  0.00     0.004 C 
ENDBRANCH   2   3
ENDBRANCH   1   2
BRANCH   1   5
ATOM      5  C   UNL     1     258.195 261.779 247.981  1.00  0.00     0.080 C 
BRANCH   5   6
ATOM      6  C   UNL     1     259.622 261.390 247.724  1.00  0.00     0.155 C 
ATOM      7  O   UNL     1     260.504 262.290 247.654  1.00  0.00    -0.295 OA
BRANCH   6   8
ATOM      8  C   UNL     1     259.982 259.971 247.527  1.00  0.00     0.039 C 
ATOM      9  C   UNL     1     260.609 259.538 246.435  1.00  0.00     0.012 C 
ENDBRANCH   6   8
ENDBRANCH   5   6
ENDBRANCH   1   5
TORSDOF 5
ENDMDL
MODEL 3
REMARK VINA RESULT:    -4.005      6.519      7.647
REMARK INTER + INTRA:          -5.345
REMARK INTER:                  -5.099
REMARK INTRA:                  -0.246
REMARK UNBOUND:                -0.170
REMARK SMILES C=CC(=O)CCCCC
REMARK SMILES IDX 6 1 7 2 8 3 9 4 5 5 3 6 4 7 2 8 1 9
REMARK H PARENT
REMARK Flexibility Score: inf
ROOT
ATOM      1  C   UNL     1     250.127 259.530 246.999  1.00  0.00     0.008 C 
ENDROOT
BRANCH   1   2
ATOM      2  C   UNL     1     249.305 260.798 246.725  1.00  0.00     0.000 C 
BRANCH   2   3
ATOM      3  C   UNL     1     250.183 262.051 246.816  1.00  0.00    -0.003 C 
ATOM      4  C   UNL     1     249.560 263.217 246.052  1.00  0.00     0.004 C 
ENDBRANCH   2   3
ENDBRANCH   1   2
BRANCH   1   5
ATOM      5  C   UNL     1     249.259 258.372 247.511  1.00  0.00     0.080 C 
BRANCH   5   6
ATOM      6  C   UNL     1     248.720 257.536 246.386  1.00  0.00     0.155 C 
ATOM      7  O   UNL     1     249.495 256.744 245.781  1.00  0.00    -0.295 OA
BRANCH   6   8
ATOM      8  C   UNL     1     247.308 257.663 245.975  1.00  0.00     0.039 C 
ATOM      9  C   UNL     1     246.894 258.595 245.118  1.00  0.00     0.012 C 
ENDBRANCH   6   8
ENDBRANCH   5   6
ENDBRANCH   1   5
TORSDOF 5
ENDMDL
MODEL 4
REMARK VINA RESULT:    -3.934      2.223      4.642
REMARK INTER + INTRA:          -5.254
REMARK INTER:                  -4.795
REMARK INTRA:                  -0.459
REMARK UNBOUND:                -0.170
REMARK SMILES C=CC(=O)CCCCC
REMARK SMILES IDX 6 1 7 2 8 3 9 4 5 5 3 6 4 7 2 8 1 9
REMARK H PARENT
REMARK Flexibility Score: inf
ROOT
ATOM      1  C   UNL     1     255.632 260.188 248.137  1.00  0.00     0.008 C 
ENDROOT
BRANCH   1   2
ATOM      2  C   UNL     1     254.254 260.862 248.066  1.00  0.00     0.000 C 
BRANCH   2   3
ATOM      3  C   UNL     1     253.713 260.855 246.631  1.00  0.00    -0.003 C 
ATOM      4  C   UNL     1     254.099 259.570 245.903  1.00  0.00     0.004 C 
ENDBRANCH   2   3
ENDBRANCH   1   2
BRANCH   1   5
ATOM      5  C   UNL     1     256.772 261.208 248.267  1.00  0.00     0.080 C 
BRANCH   5   6
ATOM      6  C   UNL     1     257.680 261.187 247.072  1.00  0.00     0.155 C 
ATOM      7  O   UNL     1     258.875 260.806 247.211  1.00  0.00    -0.295 OA
BRANCH   6   8
ATOM      8  C   UNL     1     257.187 261.637 245.755  1.00  0.00     0.039 C 
ATOM      9  C   UNL     1     257.831 261.371 244.621  1.00  0.00     0.012 C 
ENDBRANCH   6   8
ENDBRANCH   5   6
ENDBRANCH   1   5
TORSDOF 5
ENDMDL
MODEL 5
REMARK VINA RESULT:    -3.933      6.942      8.013
REMARK INTER + INTRA:          -5.252
REMARK INTER:                  -4.936
REMARK INTRA:                  -0.316
REMARK UNBOUND:                -0.170
REMARK SMILES C=CC(=O)CCCCC
REMARK SMILES IDX 6 1 7 2 8 3 9 4 5 5 3 6 4 7 2 8 1 9
REMARK H PARENT
REMARK Flexibility Score: inf
ROOT
ATOM      1  C   UNL     1     254.358 262.340 252.373  1.00  0.00     0.008 C 
ENDROOT
BRANCH   1   2
ATOM      2  C   UNL     1     255.394 261.630 251.490  1.00  0.00     0.000 C 
BRANCH   2   3
ATOM      3  C   UNL     1     256.737 262.370 251.517  1.00  0.00    -0.003 C 
ATOM      4  C   UNL     1     257.527 262.124 250.234  1.00  0.00     0.004 C 
ENDBRANCH   2   3
ENDBRANCH   1   2
BRANCH   1   5
ATOM      5  C   UNL     1     254.659 262.177 253.869  1.00  0.00     0.080 C 
BRANCH   5   6
ATOM      6  C   UNL     1     254.205 260.844 254.389  1.00  0.00     0.155 C 
ATOM      7  O   UNL     1     253.120 260.356 253.970  1.00  0.00    -0.295 OA
BRANCH   6   8
ATOM      8  C   UNL     1     255.007 260.128 255.402  1.00  0.00     0.039 C 
ATOM      9  C   UNL     1     256.334 260.217 255.456  1.00  0.00     0.012 C 
ENDBRANCH   6   8
ENDBRANCH   5   6
ENDBRANCH   1   5
TORSDOF 5
ENDMDL
MODEL 6
REMARK VINA RESULT:    -3.913      1.882      4.724
REMARK INTER + INTRA:          -5.226
REMARK INTER:                  -5.052
REMARK INTRA:                  -0.174
REMARK UNBOUND:                -0.170
REMARK SMILES C=CC(=O)CCCCC
REMARK SMILES IDX 6 1 7 2 8 3 9 4 5 5 3 6 4 7 2 8 1 9
REMARK H PARENT
REMARK Flexibility Score: inf
ROOT
ATOM      1  C   UNL     1     256.361 261.179 245.757  1.00  0.00     0.008 C 
ENDROOT
BRANCH   1   2
ATOM      2  C   UNL     1     255.074 260.479 245.297  1.00  0.00     0.000 C 
BRANCH   2   3
ATOM      3  C   UNL     1     254.320 259.877 246.490  1.00  0.00    -0.003 C 
ATOM      4  C   UNL     1     253.783 260.970 247.409  1.00  0.00     0.004 C 
ENDBRANCH   2   3
ENDBRANCH   1   2
BRANCH   1   5
ATOM      5  C   UNL     1     257.417 261.245 244.645  1.00  0.00     0.080 C 
BRANCH   5   6
ATOM      6  C   UNL     1     258.502 262.234 244.962  1.00  0.00     0.155 C 
ATOM      7  O   UNL     1     259.424 261.904 245.756  1.00  0.00    -0.295 OA
BRANCH   6   8
ATOM      8  C   UNL     1     258.469 263.587 244.372  1.00  0.00     0.039 C 
ATOM      9  C   UNL     1     257.681 264.552 244.840  1.00  0.00     0.012 C 
ENDBRANCH   6   8
ENDBRANCH   5   6
ENDBRANCH   1   5
TORSDOF 5
ENDMDL
MODEL 7
REMARK VINA RESULT:    -3.899      4.526      6.193
REMARK INTER + INTRA:          -5.209
REMARK INTER:                  -5.005
REMARK INTRA:                  -0.204
REMARK UNBOUND:                -0.170
REMARK SMILES C=CC(=O)CCCCC
REMARK SMILES IDX 6 1 7 2 8 3 9 4 5 5 3 6 4 7 2 8 1 9
REMARK H PARENT
REMARK Flexibility Score: inf
ROOT
ATOM      1  C   UNL     1     251.559 259.438 246.996  1.00  0.00     0.008 C 
ENDROOT
BRANCH   1   2
ATOM      2  C   UNL     1     252.251 258.209 247.603  1.00  0.00     0.000 C 
BRANCH   2   3
ATOM      3  C   UNL     1     253.637 257.997 246.981  1.00  0.00    -0.003 C 
ATOM      4  C   UNL     1     253.979 259.118 246.004  1.00  0.00     0.004 C 
ENDBRANCH   2   3
ENDBRANCH   1   2
BRANCH   1   5
ATOM      5  C   UNL     1     250.028 259.333 247.057  1.00  0.00     0.080 C 
BRANCH   5   6
ATOM      6  C   UNL     1     249.362 260.584 246.562  1.00  0.00     0.155 C 
ATOM      7  O   UNL     1     248.343 260.489 245.824  1.00  0.00    -0.295 OA
BRANCH   6   8
ATOM      8  C   UNL     1     249.913 261.909 246.912  1.00  0.00     0.039 C 
ATOM      9  C   UNL     1     249.661 263.000 246.192  1.00  0.00     0.012 C 
ENDBRANCH   6   8
ENDBRANCH   5   6
ENDBRANCH   1   5
TORSDOF 5
ENDMDL
MODEL 8
REMARK VINA RESULT:    -3.866      3.827      4.845
REMARK INTER + INTRA:          -5.166
REMARK INTER:                  -4.578
REMARK INTRA:                  -0.588
REMARK UNBOUND:                -0.170
REMARK SMILES C=CC(=O)CCCCC
REMARK SMILES IDX 6 1 7 2 8 3 9 4 5 5 3 6 4 7 2 8 1 9
REMARK H PARENT
REMARK Flexibility Score: inf
ROOT
ATOM      1  C   UNL     1     254.109 258.449 246.852  1.00  0.00     0.008 C 
ENDROOT
BRANCH   1   2
ATOM      2  C   UNL     1     254.149 259.537 245.769  1.00  0.00     0.000 C 
BRANCH   2   3
ATOM      3  C   UNL     1     253.841 260.916 246.365  1.00  0.00    -0.003 C 
ATOM      4  C   UNL     1     253.911 260.885 247.889  1.00  0.00     0.004 C 
ENDBRANCH   2   3
ENDBRANCH   1   2
BRANCH   1   5
ATOM      5  C   UNL     1     253.072 257.360 246.545  1.00  0.00     0.080 C 
BRANCH   5   6
ATOM      6  C   UNL     1     251.852 257.488 247.412  1.00  0.00     0.155 C 
ATOM      7  O   UNL     1     251.850 256.957 248.556  1.00  0.00    -0.295 OA
BRANCH   6   8
ATOM      8  C   UNL     1     250.659 258.204 246.915  1.00  0.00     0.039 C 
ATOM      9  C   UNL     1     250.450 259.496 247.155  1.00  0.00     0.012 C 
ENDBRANCH   6   8
ENDBRANCH   5   6
ENDBRANCH   1   5
TORSDOF 5
ENDMDL
MODEL 9
REMARK VINA RESULT:    -3.854      6.373      8.437
REMARK INTER + INTRA:          -5.150
REMARK INTER:                  -4.793
REMARK INTRA:                  -0.357
REMARK UNBOUND:                -0.170
REMARK SMILES C=CC(=O)CCCCC
REMARK SMILES IDX 6 1 7 2 8 3 9 4 5 5 3 6 4 7 2 8 1 9
REMARK H PARENT
REMARK Flexibility Score: inf
ROOT
ATOM      1  C   UNL     1     248.677 257.731 247.127  1.00  0.00     0.008 C 
ENDROOT
BRANCH   1   2
ATOM      2  C   UNL     1     248.363 256.851 245.908  1.00  0.00     0.000 C 
BRANCH   2   3
ATOM      3  C   UNL     1     246.996 257.207 245.313  1.00  0.00    -0.003 C 
ATOM      4  C   UNL     1     246.893 258.702 245.023  1.00  0.00     0.004 C 
ENDBRANCH   2   3
ENDBRANCH   1   2
BRANCH   1   5
ATOM      5  C   UNL     1     250.183 257.977 247.295  1.00  0.00     0.080 C 
BRANCH   5   6
ATOM      6  C   UNL     1     250.553 259.403 247.004  1.00  0.00     0.155 C 
ATOM      7  O   UNL     1     251.770 259.710 246.876  1.00  0.00    -0.295 OA
BRANCH   6   8
ATOM      8  C   UNL     1     249.504 260.437 246.899  1.00  0.00     0.039 C 
ATOM      9  C   UNL     1     249.783 261.739 246.883  1.00  0.00     0.012 C 
ENDBRANCH   6   8
ENDBRANCH   5   6
ENDBRANCH   1   5
TORSDOF 5
ENDMDL
