MODEL 1
REMARK VINA RESULT:    -5.166      0.000      0.000
REMARK INTER + INTRA:          -7.709
REMARK INTER:                  -6.978
REMARK INTRA:                  -0.731
REMARK UNBOUND:                -0.731
REMARK SMILES CC(=O)CCC=C(C)CCC=C(C)C
REMARK SMILES IDX 7 1 6 2 8 3 9 4 10 5 11 6 13 7 12 8 14 9 5 10 4 11 2 12 3 13
REMARK SMILES IDX 1 14
REMARK H PARENT
REMARK Flexibility Score: inf
ROOT
ATOM      1  C   UNL     1     -24.710  14.619 -30.750  1.00  0.00    -0.077 C 
ATOM      2  C   UNL     1     -25.622  15.610 -30.628  1.00  0.00    -0.028 C 
ATOM      3  C   UNL     1     -23.469  14.778 -31.597  1.00  0.00     0.039 C 
ENDROOT
BRANCH   1   4
ATOM      4  C   UNL     1     -24.947  13.309 -30.032  1.00  0.00     0.034 C 
BRANCH   4   5
ATOM      5  C   UNL     1     -25.941  12.434 -30.804  1.00  0.00     0.032 C 
BRANCH   5   6
ATOM      6  C   UNL     1     -27.067  11.985 -29.908  1.00  0.00    -0.028 C 
ATOM      7  C   UNL     1     -28.706  13.607 -30.886  1.00  0.00     0.039 C 
ATOM      8  C   UNL     1     -28.327  12.473 -29.966  1.00  0.00    -0.080 C 
ATOM      9  C   UNL     1     -29.380  11.933 -29.032  1.00  0.00     0.039 C 
ENDBRANCH   5   6
ENDBRANCH   4   5
ENDBRANCH   1   4
BRANCH   2  10
ATOM     10  C   UNL     1     -25.489  16.976 -31.253  1.00  0.00     0.035 C 
BRANCH  10  11
ATOM     11  C   UNL     1     -26.771  17.360 -31.997  1.00  0.00     0.079 C 
BRANCH  11  12
ATOM     12  C   UNL     1     -26.495  18.431 -33.019  1.00  0.00     0.130 C 
ATOM     13  O   UNL     1     -25.341  18.772 -33.235  1.00  0.00    -0.300 OA
ATOM     14  C   UNL     1     -27.607  19.102 -33.770  1.00  0.00     0.087 C 
ENDBRANCH  11  12
ENDBRANCH  10  11
ENDBRANCH   2  10
TORSDOF 6
ENDMDL
MODEL 2
REMARK VINA RESULT:    -5.140      2.282      4.599
REMARK INTER + INTRA:          -7.675
REMARK INTER:                  -7.076
REMARK INTRA:                  -0.598
REMARK UNBOUND:                -0.731
REMARK SMILES CC(=O)CCC=C(C)CCC=C(C)C
REMARK SMILES IDX 7 1 6 2 8 3 9 4 10 5 11 6 13 7 12 8 14 9 5 10 4 11 2 12 3 13
REMARK SMILES IDX 1 14
REMARK H PARENT
REMARK Flexibility Score: inf
ROOT
ATOM      1  C   UNL     1     -26.759  18.132 -32.845  1.00  0.00    -0.077 C 
ATOM      2  C   UNL     1     -25.504  18.565 -33.101  1.00  0.00    -0.028 C 
ATOM      3  C   UNL     1     -27.966  18.738 -33.524  1.00  0.00     0.039 C 
ENDROOT
BRANCH   1   4
ATOM      4  C   UNL     1     -26.964  17.022 -31.838  1.00  0.00     0.034 C 
BRANCH   4   5
ATOM      5  C   UNL     1     -25.686  16.775 -31.029  1.00  0.00     0.032 C 
BRANCH   5   6
ATOM      6  C   UNL     1     -25.663  15.371 -30.478  1.00  0.00    -0.028 C 
ATOM      7  C   UNL     1     -23.493  14.799 -31.590  1.00  0.00     0.039 C 
ATOM      8  C   UNL     1     -24.660  14.488 -30.687  1.00  0.00    -0.080 C 
ATOM      9  C   UNL     1     -24.735  13.116 -30.068  1.00  0.00     0.039 C 
ENDBRANCH   5   6
ENDBRANCH   4   5
ENDBRANCH   1   4
BRANCH   2  10
ATOM     10  C   UNL     1     -25.156  19.632 -34.108  1.00  0.00     0.035 C 
BRANCH  10  11
ATOM     11  C   UNL     1     -23.638  19.781 -34.239  1.00  0.00     0.079 C 
BRANCH  11  12
ATOM     12  C   UNL     1     -23.049  20.362 -32.981  1.00  0.00     0.130 C 
ATOM     13  O   UNL     1     -23.151  21.561 -32.767  1.00  0.00    -0.300 OA
ATOM     14  C   UNL     1     -22.324  19.502 -31.987  1.00  0.00     0.087 C 
ENDBRANCH  11  12
ENDBRANCH  10  11
ENDBRANCH   2  10
TORSDOF 6
ENDMDL
MODEL 3
REMARK VINA RESULT:    -5.135      1.581      2.798
REMARK INTER + INTRA:          -7.667
REMARK INTER:                  -6.838
REMARK INTRA:                  -0.830
REMARK UNBOUND:                -0.731
REMARK SMILES CC(=O)CCC=C(C)CCC=C(C)C
REMARK SMILES IDX 7 1 6 2 8 3 9 4 10 5 11 6 13 7 12 8 14 9 5 10 4 11 2 12 3 13
REMARK SMILES IDX 1 14
REMARK H PARENT
REMARK Flexibility Score: inf
ROOT
ATOM      1  C   UNL     1     -25.899  17.360 -31.723  1.00  0.00    -0.077 C 
ATOM      2  C   UNL     1     -27.168  17.362 -32.191  1.00  0.00    -0.028 C 
ATOM      3  C   UNL     1     -24.786  18.098 -32.430  1.00  0.00     0.039 C 
ENDROOT
BRANCH   1   4
ATOM      4  C   UNL     1     -25.580  16.582 -30.465  1.00  0.00     0.034 C 
BRANCH   4   5
ATOM      5  C   UNL     1     -25.080  15.173 -30.806  1.00  0.00     0.032 C 
BRANCH   5   6
ATOM      6  C   UNL     1     -25.646  14.157 -29.846  1.00  0.00    -0.028 C 
ATOM      7  C   UNL     1     -27.696  13.757 -31.228  1.00  0.00     0.039 C 
ATOM      8  C   UNL     1     -26.800  13.481 -30.046  1.00  0.00    -0.080 C 
ATOM      9  C   UNL     1     -27.259  12.471 -29.026  1.00  0.00     0.039 C 
ENDBRANCH   5   6
ENDBRANCH   4   5
ENDBRANCH   1   4
BRANCH   2  10
ATOM     10  C   UNL     1     -27.629  18.128 -33.405  1.00  0.00     0.035 C 
BRANCH  10  11
ATOM     11  C   UNL     1     -28.285  19.450 -32.996  1.00  0.00     0.079 C 
BRANCH  11  12
ATOM     12  C   UNL     1     -27.541  20.619 -33.585  1.00  0.00     0.130 C 
ATOM     13  O   UNL     1     -27.746  21.743 -33.150  1.00  0.00    -0.300 OA
ATOM     14  C   UNL     1     -26.562  20.439 -34.708  1.00  0.00     0.087 C 
ENDBRANCH  11  12
ENDBRANCH  10  11
ENDBRANCH   2  10
TORSDOF 6
ENDMDL
MODEL 4
REMARK VINA RESULT:    -5.121      1.677      2.080
REMARK INTER + INTRA:          -7.648
REMARK INTER:                  -7.190
REMARK INTRA:                  -0.458
REMARK UNBOUND:                -0.731
REMARK SMILES CC(=O)CCC=C(C)CCC=C(C)C
REMARK SMILES IDX 7 1 6 2 8 3 9 4 10 5 11 6 13 7 12 8 14 9 5 10 4 11 2 12 3 13
REMARK SMILES IDX 1 14
REMARK H PARENT
REMARK Flexibility Score: inf
ROOT
ATOM      1  C   UNL     1     -24.822  15.441 -30.882  1.00  0.00    -0.077 C 
ATOM      2  C   UNL     1     -25.093  16.742 -31.133  1.00  0.00    -0.028 C 
ATOM      3  C   UNL     1     -23.614  14.750 -31.470  1.00  0.00     0.039 C 
ENDROOT
BRANCH   1   4
ATOM      4  C   UNL     1     -25.765  14.649 -30.002  1.00  0.00     0.034 C 
BRANCH   4   5
ATOM      5  C   UNL     1     -26.147  13.322 -30.666  1.00  0.00     0.032 C 
BRANCH   5   6
ATOM      6  C   UNL     1     -27.625  13.278 -30.964  1.00  0.00    -0.028 C 
ATOM      7  C   UNL     1     -28.187  12.128 -28.811  1.00  0.00     0.039 C 
ATOM      8  C   UNL     1     -28.558  12.783 -30.119  1.00  0.00    -0.080 C 
ATOM      9  C   UNL     1     -30.011  12.810 -30.514  1.00  0.00     0.039 C 
ENDBRANCH   5   6
ENDBRANCH   4   5
ENDBRANCH   1   4
BRANCH   2  10
ATOM     10  C   UNL     1     -24.217  17.653 -31.955  1.00  0.00     0.035 C 
BRANCH  10  11
ATOM     11  C   UNL     1     -25.063  18.519 -32.893  1.00  0.00     0.079 C 
BRANCH  11  12
ATOM     12  C   UNL     1     -24.185  19.362 -33.779  1.00  0.00     0.130 C 
ATOM     13  O   UNL     1     -24.443  19.453 -34.970  1.00  0.00    -0.300 OA
ATOM     14  C   UNL     1     -22.986  20.083 -33.234  1.00  0.00     0.087 C 
ENDBRANCH  11  12
ENDBRANCH  10  11
ENDBRANCH   2  10
TORSDOF 6
ENDMDL
MODEL 5
REMARK VINA RESULT:    -5.055      2.465      6.918
REMARK INTER + INTRA:          -7.559
REMARK INTER:                  -6.983
REMARK INTRA:                  -0.576
REMARK UNBOUND:                -0.731
REMARK SMILES CC(=O)CCC=C(C)CCC=C(C)C
REMARK SMILES IDX 7 1 6 2 8 3 9 4 10 5 11 6 13 7 12 8 14 9 5 10 4 11 2 12 3 13
REMARK SMILES IDX 1 14
REMARK H PARENT
REMARK Flexibility Score: inf
ROOT
ATOM      1  C   UNL     1     -27.670  17.899 -32.969  1.00  0.00    -0.077 C 
ATOM      2  C   UNL     1     -26.770  17.565 -32.016  1.00  0.00    -0.028 C 
ATOM      3  C   UNL     1     -28.636  16.889 -33.544  1.00  0.00     0.039 C 
ENDROOT
BRANCH   1   4
ATOM      4  C   UNL     1     -27.699  19.321 -33.488  1.00  0.00     0.034 C 
BRANCH   4   5
ATOM      5  C   UNL     1     -26.496  19.596 -34.397  1.00  0.00     0.032 C 
BRANCH   5   6
ATOM      6  C   UNL     1     -25.395  20.287 -33.633  1.00  0.00    -0.028 C 
ATOM      7  C   UNL     1     -23.595  18.845 -34.609  1.00  0.00     0.039 C 
ATOM      8  C   UNL     1     -24.081  19.988 -33.754  1.00  0.00    -0.080 C 
ATOM      9  C   UNL     1     -23.064  20.762 -32.955  1.00  0.00     0.039 C 
ENDBRANCH   5   6
ENDBRANCH   4   5
ENDBRANCH   1   4
BRANCH   2  10
ATOM     10  C   UNL     1     -26.662  16.200 -31.384  1.00  0.00     0.035 C 
BRANCH  10  11
ATOM     11  C   UNL     1     -25.273  15.992 -30.776  1.00  0.00     0.079 C 
BRANCH  11  12
ATOM     12  C   UNL     1     -25.008  14.528 -30.539  1.00  0.00     0.130 C 
ATOM     13  O   UNL     1     -23.950  14.042 -30.909  1.00  0.00    -0.300 OA
ATOM     14  C   UNL     1     -26.023  13.648 -29.872  1.00  0.00     0.087 C 
ENDBRANCH  11  12
ENDBRANCH  10  11
ENDBRANCH   2  10
TORSDOF 6
ENDMDL
MODEL 6
REMARK VINA RESULT:    -4.996      2.470      6.499
REMARK INTER + INTRA:          -7.480
REMARK INTER:                  -6.658
REMARK INTRA:                  -0.821
REMARK UNBOUND:                -0.731
REMARK SMILES CC(=O)CCC=C(C)CCC=C(C)C
REMARK SMILES IDX 7 1 6 2 8 3 9 4 10 5 11 6 13 7 12 8 14 9 5 10 4 11 2 12 3 13
REMARK SMILES IDX 1 14
REMARK H PARENT
REMARK Flexibility Score: inf
ROOT
ATOM      1  C   UNL     1     -23.653  18.902 -32.885  1.00  0.00    -0.077 C 
ATOM      2  C   UNL     1     -24.519  17.959 -32.450  1.00  0.00    -0.028 C 
ATOM      3  C   UNL     1     -22.617  19.516 -31.972  1.00  0.00     0.039 C 
ENDROOT
BRANCH   1   4
ATOM      4  C   UNL     1     -23.734  19.369 -34.322  1.00  0.00     0.034 C 
BRANCH   4   5
ATOM      5  C   UNL     1     -25.183  19.348 -34.822  1.00  0.00     0.032 C 
BRANCH   5   6
ATOM      6  C   UNL     1     -25.939  20.555 -34.326  1.00  0.00    -0.028 C 
ATOM      7  C   UNL     1     -27.862  19.198 -33.469  1.00  0.00     0.039 C 
ATOM      8  C   UNL     1     -27.124  20.497 -33.676  1.00  0.00    -0.080 C 
ATOM      9  C   UNL     1     -27.779  21.770 -33.206  1.00  0.00     0.039 C 
ENDBRANCH   5   6
ENDBRANCH   4   5
ENDBRANCH   1   4
BRANCH   2  10
ATOM     10  C   UNL     1     -24.519  17.376 -31.059  1.00  0.00     0.035 C 
BRANCH  10  11
ATOM     11  C   UNL     1     -25.751  16.494 -30.840  1.00  0.00     0.079 C 
BRANCH  11  12
ATOM     12  C   UNL     1     -25.362  15.040 -30.775  1.00  0.00     0.130 C 
ATOM     13  O   UNL     1     -24.198  14.721 -30.968  1.00  0.00    -0.300 OA
ATOM     14  C   UNL     1     -26.376  13.971 -30.495  1.00  0.00     0.087 C 
ENDBRANCH  11  12
ENDBRANCH  10  11
ENDBRANCH   2  10
TORSDOF 6
ENDMDL
MODEL 7
REMARK VINA RESULT:    -4.991      2.022      4.284
REMARK INTER + INTRA:          -7.473
REMARK INTER:                  -6.972
REMARK INTRA:                  -0.501
REMARK UNBOUND:                -0.731
REMARK SMILES CC(=O)CCC=C(C)CCC=C(C)C
REMARK SMILES IDX 7 1 6 2 8 3 9 4 10 5 11 6 13 7 12 8 14 9 5 10 4 11 2 12 3 13
REMARK SMILES IDX 1 14
REMARK H PARENT
REMARK Flexibility Score: inf
ROOT
ATOM      1  C   UNL     1     -28.161  18.202 -33.418  1.00  0.00    -0.077 C 
ATOM      2  C   UNL     1     -26.855  18.551 -33.376  1.00  0.00    -0.028 C 
ATOM      3  C   UNL     1     -29.246  19.207 -33.731  1.00  0.00     0.039 C 
ENDROOT
BRANCH   1   4
ATOM      4  C   UNL     1     -28.550  16.769 -33.129  1.00  0.00     0.034 C 
BRANCH   4   5
ATOM      5  C   UNL     1     -27.643  16.164 -32.051  1.00  0.00     0.032 C 
BRANCH   5   6
ATOM      6  C   UNL     1     -28.141  14.803 -31.633  1.00  0.00    -0.028 C 
ATOM      7  C   UNL     1     -25.982  14.175 -30.530  1.00  0.00     0.039 C 
ATOM      8  C   UNL     1     -27.419  13.917 -30.910  1.00  0.00    -0.080 C 
ATOM      9  C   UNL     1     -28.028  12.593 -30.531  1.00  0.00     0.039 C 
ENDBRANCH   5   6
ENDBRANCH   4   5
ENDBRANCH   1   4
BRANCH   2  10
ATOM     10  C   UNL     1     -26.329  19.930 -33.685  1.00  0.00     0.035 C 
BRANCH  10  11
ATOM     11  C   UNL     1     -25.326  19.882 -34.841  1.00  0.00     0.079 C 
BRANCH  11  12
ATOM     12  C   UNL     1     -23.933  19.628 -34.328  1.00  0.00     0.130 C 
ATOM     13  O   UNL     1     -23.272  18.719 -34.809  1.00  0.00    -0.300 OA
ATOM     14  C   UNL     1     -23.342  20.457 -33.226  1.00  0.00     0.087 C 
ENDBRANCH  11  12
ENDBRANCH  10  11
ENDBRANCH   2  10
TORSDOF 6
ENDMDL
MODEL 8
REMARK VINA RESULT:    -4.973      2.703      6.020
REMARK INTER + INTRA:          -7.448
REMARK INTER:                  -6.936
REMARK INTRA:                  -0.512
REMARK UNBOUND:                -0.731
REMARK SMILES CC(=O)CCC=C(C)CCC=C(C)C
REMARK SMILES IDX 7 1 6 2 8 3 9 4 10 5 11 6 13 7 12 8 14 9 5 10 4 11 2 12 3 13
REMARK SMILES IDX 1 14
REMARK H PARENT
REMARK Flexibility Score: inf
ROOT
ATOM      1  C   UNL     1     -25.291  14.773 -30.494  1.00  0.00    -0.077 C 
ATOM      2  C   UNL     1     -26.207  13.831 -30.173  1.00  0.00    -0.028 C 
ATOM      3  C   UNL     1     -23.949  14.412 -31.087  1.00  0.00     0.039 C 
ENDROOT
BRANCH   1   4
ATOM      4  C   UNL     1     -25.612  16.229 -30.236  1.00  0.00     0.034 C 
BRANCH   4   5
ATOM      5  C   UNL     1     -25.582  17.035 -31.539  1.00  0.00     0.032 C 
BRANCH   5   6
ATOM      6  C   UNL     1     -26.979  17.280 -32.050  1.00  0.00    -0.028 C 
ATOM      7  C   UNL     1     -26.264  19.119 -33.593  1.00  0.00     0.039 C 
ATOM      8  C   UNL     1     -27.292  18.184 -33.006  1.00  0.00    -0.080 C 
ATOM      9  C   UNL     1     -28.723  18.329 -33.455  1.00  0.00     0.039 C 
ENDBRANCH   5   6
ENDBRANCH   4   5
ENDBRANCH   1   4
BRANCH   2  10
ATOM     10  C   UNL     1     -26.033  12.353 -30.416  1.00  0.00     0.035 C 
BRANCH  10  11
ATOM     11  C   UNL     1     -27.386  11.635 -30.385  1.00  0.00     0.079 C 
BRANCH  11  12
ATOM     12  C   UNL     1     -27.919  11.562 -28.979  1.00  0.00     0.130 C 
ATOM     13  O   UNL     1     -27.197  11.151 -28.083  1.00  0.00    -0.300 OA
ATOM     14  C   UNL     1     -29.326  11.969 -28.653  1.00  0.00     0.087 C 
ENDBRANCH  11  12
ENDBRANCH  10  11
ENDBRANCH   2  10
TORSDOF 6
ENDMDL
MODEL 9
REMARK VINA RESULT:    -4.970      2.801      6.486
REMARK INTER + INTRA:          -7.445
REMARK INTER:                  -6.962
REMARK INTRA:                  -0.482
REMARK UNBOUND:                -0.731
REMARK SMILES CC(=O)CCC=C(C)CCC=C(C)C
REMARK SMILES IDX 7 1 6 2 8 3 9 4 10 5 11 6 13 7 12 8 14 9 5 10 4 11 2 12 3 13
REMARK SMILES IDX 1 14
REMARK H PARENT
REMARK Flexibility Score: inf
ROOT
ATOM      1  C   UNL     1     -24.856  15.220 -30.826  1.00  0.00    -0.077 C 
ATOM      2  C   UNL     1     -25.610  14.360 -30.106  1.00  0.00    -0.028 C 
ATOM      3  C   UNL     1     -23.582  14.783 -31.511  1.00  0.00     0.039 C 
ENDROOT
BRANCH   1   4
ATOM      4  C   UNL     1     -25.289  16.666 -30.935  1.00  0.00     0.034 C 
BRANCH   4   5
ATOM      5  C   UNL     1     -24.212  17.508 -31.628  1.00  0.00     0.032 C 
BRANCH   5   6
ATOM      6  C   UNL     1     -24.776  18.209 -32.839  1.00  0.00    -0.028 C 
ATOM      7  C   UNL     1     -22.880  19.839 -32.977  1.00  0.00     0.039 C 
ATOM      8  C   UNL     1     -24.164  19.230 -33.481  1.00  0.00    -0.080 C 
ATOM      9  C   UNL     1     -24.813  19.841 -34.696  1.00  0.00     0.039 C 
ENDBRANCH   5   6
ENDBRANCH   4   5
ENDBRANCH   1   4
BRANCH   2  10
ATOM     10  C   UNL     1     -25.317  12.889 -29.951  1.00  0.00     0.035 C 
BRANCH  10  11
ATOM     11  C   UNL     1     -26.503  12.046 -30.430  1.00  0.00     0.079 C 
BRANCH  11  12
ATOM     12  C   UNL     1     -27.738  12.358 -29.627  1.00  0.00     0.130 C 
ATOM     13  O   UNL     1     -27.714  12.224 -28.412  1.00  0.00    -0.300 OA
ATOM     14  C   UNL     1     -29.005  12.815 -30.286  1.00  0.00     0.087 C 
ENDBRANCH  11  12
ENDBRANCH  10  11
ENDBRANCH   2  10
TORSDOF 6
ENDMDL
