MODEL 1
REMARK VINA RESULT:    -4.187      0.000      0.000
REMARK INTER + INTRA:          -8.806
REMARK INTER:                  -7.615
REMARK INTRA:                  -1.192
REMARK UNBOUND:                -1.192
REMARK SMILES CCCCCCCCCCCCCC[C@@H](C)C(=O)[O-]
REMARK SMILES IDX 9 1 10 2 11 3 12 4 13 5 14 6 15 7 16 8 17 9 18 10 19 11 8 12
REMARK SMILES IDX 7 13 6 14 5 15 4 16 3 17 2 18 1 19
REMARK H PARENT
REMARK Flexibility Score: inf
ROOT
ATOM      1  C   UNL     1      32.569  -0.289  43.026  1.00  0.00     0.000 C 
ENDROOT
BRANCH   1   2
ATOM      2  C   UNL     1      31.252  -0.741  42.369  1.00  0.00     0.000 C 
BRANCH   2   3
ATOM      3  C   UNL     1      30.300  -1.434  43.357  1.00  0.00     0.000 C 
BRANCH   3   4
ATOM      4  C   UNL     1      31.003  -1.883  44.652  1.00  0.00     0.000 C 
BRANCH   4   5
ATOM      5  C   UNL     1      30.448  -3.171  45.285  1.00  0.00     0.001 C 
BRANCH   5   6
ATOM      6  C   UNL     1      28.912  -3.261  45.215  1.00  0.00     0.009 C 
BRANCH   6   7
ATOM      7  C   UNL     1      28.219  -2.535  46.388  1.00  0.00     0.032 C 
ATOM      8  C   UNL     1      27.508  -1.252  45.938  1.00  0.00     0.014 C 
BRANCH   7   9
ATOM      9  C   UNL     1      27.233  -3.457  47.052  1.00  0.00     0.044 C 
ATOM     10  O   UNL     1      26.184  -2.999  47.579  1.00  0.00    -0.550 OA
ATOM     11  O   UNL     1      27.474  -4.825  47.084  1.00  0.00    -0.550 OA
ENDBRANCH   7   9
ENDBRANCH   6   7
ENDBRANCH   5   6
ENDBRANCH   4   5
ENDBRANCH   3   4
ENDBRANCH   2   3
ENDBRANCH   1   2
BRANCH   1  12
ATOM     12  C   UNL     1      33.853  -0.752  42.310  1.00  0.00     0.000 C 
BRANCH  12  13
ATOM     13  C   UNL     1      35.173  -0.337  42.991  1.00  0.00    -0.000 C 
BRANCH  13  14
ATOM     14  C   UNL     1      36.452  -0.709  42.220  1.00  0.00    -0.000 C 
BRANCH  14  15
ATOM     15  C   UNL     1      37.392  -1.619  43.028  1.00  0.00    -0.000 C 
BRANCH  15  16
ATOM     16  C   UNL     1      37.815  -2.881  42.254  1.00  0.00    -0.000 C 
BRANCH  16  17
ATOM     17  C   UNL     1      37.451  -4.220  42.928  1.00  0.00    -0.000 C 
BRANCH  17  18
ATOM     18  C   UNL     1      36.471  -4.111  44.108  1.00  0.00    -0.003 C 
ATOM     19  C   UNL     1      35.008  -4.121  43.669  1.00  0.00     0.004 C 
ENDBRANCH  17  18
ENDBRANCH  16  17
ENDBRANCH  15  16
ENDBRANCH  14  15
ENDBRANCH  13  14
ENDBRANCH  12  13
ENDBRANCH   1  12
TORSDOF 14
ENDMDL
MODEL 2
REMARK VINA RESULT:    -4.013      4.170      8.514
REMARK INTER + INTRA:          -8.489
REMARK INTER:                  -7.514
REMARK INTRA:                  -0.975
REMARK UNBOUND:                -1.192
REMARK SMILES CCCCCCCCCCCCCC[C@@H](C)C(=O)[O-]
REMARK SMILES IDX 9 1 10 2 11 3 12 4 13 5 14 6 15 7 16 8 17 9 18 10 19 11 8 12
REMARK SMILES IDX 7 13 6 14 5 15 4 16 3 17 2 18 1 19
REMARK H PARENT
REMARK Flexibility Score: inf
ROOT
ATOM      1  C   UNL     1      30.954  -1.218  43.485  1.00  0.00     0.000 C 
ENDROOT
BRANCH   1   2
ATOM      2  C   UNL     1      31.960  -0.627  42.480  1.00  0.00     0.000 C 
BRANCH   2   3
ATOM      3  C   UNL     1      33.162   0.046  43.165  1.00  0.00     0.000 C 
BRANCH   3   4
ATOM      4  C   UNL     1      34.403   0.123  42.257  1.00  0.00     0.000 C 
BRANCH   4   5
ATOM      5  C   UNL     1      35.706  -0.403  42.885  1.00  0.00     0.001 C 
BRANCH   5   6
ATOM      6  C   UNL     1      36.102  -1.798  42.368  1.00  0.00     0.009 C 
BRANCH   6   7
ATOM      7  C   UNL     1      36.604  -2.730  43.492  1.00  0.00     0.032 C 
ATOM      8  C   UNL     1      35.739  -3.990  43.631  1.00  0.00     0.014 C 
BRANCH   7   9
ATOM      9  C   UNL     1      38.034  -3.118  43.238  1.00  0.00     0.044 C 
ATOM     10  O   UNL     1      38.976  -2.496  43.798  1.00  0.00    -0.550 OA
ATOM     11  O   UNL     1      38.325  -4.172  42.380  1.00  0.00    -0.550 OA
ENDBRANCH   7   9
ENDBRANCH   6   7
ENDBRANCH   5   6
ENDBRANCH   4   5
ENDBRANCH   3   4
ENDBRANCH   2   3
ENDBRANCH   1   2
BRANCH   1  12
ATOM     12  C   UNL     1      31.303  -0.997  44.970  1.00  0.00     0.000 C 
BRANCH  12  13
ATOM     13  C   UNL     1      30.700  -2.025  45.949  1.00  0.00    -0.000 C 
BRANCH  13  14
ATOM     14  C   UNL     1      30.170  -3.315  45.298  1.00  0.00    -0.000 C 
BRANCH  14  15
ATOM     15  C   UNL     1      28.660  -3.513  45.509  1.00  0.00    -0.000 C 
BRANCH  15  16
ATOM     16  C   UNL     1      27.882  -2.186  45.553  1.00  0.00    -0.000 C 
BRANCH  16  17
ATOM     17  C   UNL     1      26.924  -2.022  46.751  1.00  0.00    -0.000 C 
BRANCH  17  18
ATOM     18  C   UNL     1      26.360  -3.336  47.319  1.00  0.00    -0.003 C 
ATOM     19  C   UNL     1      27.013  -3.743  48.639  1.00  0.00     0.004 C 
ENDBRANCH  17  18
ENDBRANCH  16  17
ENDBRANCH  15  16
ENDBRANCH  14  15
ENDBRANCH  13  14
ENDBRANCH  12  13
ENDBRANCH   1  12
TORSDOF 14
ENDMDL
MODEL 3
REMARK VINA RESULT:    -3.939      1.276      1.963
REMARK INTER + INTRA:          -8.355
REMARK INTER:                  -6.983
REMARK INTRA:                  -1.372
REMARK UNBOUND:                -1.192
REMARK SMILES CCCCCCCCCCCCCC[C@@H](C)C(=O)[O-]
REMARK SMILES IDX 9 1 10 2 11 3 12 4 13 5 14 6 15 7 16 8 17 9 18 10 19 11 8 12
REMARK SMILES IDX 7 13 6 14 5 15 4 16 3 17 2 18 1 19
REMARK H PARENT
REMARK Flexibility Score: inf
ROOT
ATOM      1  C   UNL     1      32.549  -0.664  42.957  1.00  0.00     0.000 C 
ENDROOT
BRANCH   1   2
ATOM      2  C   UNL     1      31.334  -0.100  42.198  1.00  0.00     0.000 C 
BRANCH   2   3
ATOM      3  C   UNL     1      30.276  -1.172  41.886  1.00  0.00     0.000 C 
BRANCH   3   4
ATOM      4  C   UNL     1      28.838  -0.692  42.160  1.00  0.00     0.000 C 
BRANCH   4   5
ATOM      5  C   UNL     1      28.095  -1.454  43.271  1.00  0.00     0.001 C 
BRANCH   5   6
ATOM      6  C   UNL     1      28.627  -1.132  44.679  1.00  0.00     0.009 C 
BRANCH   6   7
ATOM      7  C   UNL     1      29.604  -2.206  45.206  1.00  0.00     0.032 C 
ATOM      8  C   UNL     1      30.525  -1.663  46.307  1.00  0.00     0.014 C 
BRANCH   7   9
ATOM      9  C   UNL     1      28.835  -3.390  45.724  1.00  0.00     0.044 C 
ATOM     10  O   UNL     1      29.036  -4.541  45.250  1.00  0.00    -0.550 OA
ATOM     11  O   UNL     1      27.895  -3.221  46.734  1.00  0.00    -0.550 OA
ENDBRANCH   7   9
ENDBRANCH   6   7
ENDBRANCH   5   6
ENDBRANCH   4   5
ENDBRANCH   3   4
ENDBRANCH   2   3
ENDBRANCH   1   2
BRANCH   1  12
ATOM     12  C   UNL     1      33.873  -0.662  42.169  1.00  0.00     0.000 C 
BRANCH  12  13
ATOM     13  C   UNL     1      35.066   0.004  42.885  1.00  0.00    -0.000 C 
BRANCH  13  14
ATOM     14  C   UNL     1      36.446  -0.581  42.539  1.00  0.00    -0.000 C 
BRANCH  14  15
ATOM     15  C   UNL     1      37.048  -1.410  43.686  1.00  0.00    -0.000 C 
BRANCH  15  16
ATOM     16  C   UNL     1      37.800  -2.659  43.192  1.00  0.00    -0.000 C 
BRANCH  16  17
ATOM     17  C   UNL     1      37.083  -4.002  43.443  1.00  0.00    -0.000 C 
BRANCH  17  18
ATOM     18  C   UNL     1      35.618  -4.056  42.974  1.00  0.00    -0.003 C 
ATOM     19  C   UNL     1      34.633  -4.262  44.124  1.00  0.00     0.004 C 
ENDBRANCH  17  18
ENDBRANCH  16  17
ENDBRANCH  15  16
ENDBRANCH  14  15
ENDBRANCH  13  14
ENDBRANCH  12  13
ENDBRANCH   1  12
TORSDOF 14
ENDMDL
MODEL 4
REMARK VINA RESULT:    -3.759      3.518      7.913
REMARK INTER + INTRA:          -8.028
REMARK INTER:                  -6.719
REMARK INTRA:                  -1.309
REMARK UNBOUND:                -1.192
REMARK SMILES CCCCCCCCCCCCCC[C@@H](C)C(=O)[O-]
REMARK SMILES IDX 9 1 10 2 11 3 12 4 13 5 14 6 15 7 16 8 17 9 18 10 19 11 8 12
REMARK SMILES IDX 7 13 6 14 5 15 4 16 3 17 2 18 1 19
REMARK H PARENT
REMARK Flexibility Score: inf
ROOT
ATOM      1  C   UNL     1      31.723  -0.064  41.911  1.00  0.00     0.000 C 
ENDROOT
BRANCH   1   2
ATOM      2  C   UNL     1      33.062  -0.621  42.429  1.00  0.00     0.000 C 
BRANCH   2   3
ATOM      3  C   UNL     1      33.994   0.477  42.969  1.00  0.00     0.000 C 
BRANCH   3   4
ATOM      4  C   UNL     1      35.313   0.583  42.180  1.00  0.00     0.000 C 
BRANCH   4   5
ATOM      5  C   UNL     1      36.070  -0.743  41.989  1.00  0.00     0.001 C 
BRANCH   5   6
ATOM      6  C   UNL     1      36.689  -1.275  43.295  1.00  0.00     0.009 C 
BRANCH   6   7
ATOM      7  C   UNL     1      37.685  -2.430  43.054  1.00  0.00     0.032 C 
ATOM      8  C   UNL     1      39.058  -2.153  43.682  1.00  0.00     0.014 C 
BRANCH   7   9
ATOM      9  C   UNL     1      37.125  -3.714  43.601  1.00  0.00     0.044 C 
ATOM     10  O   UNL     1      35.881  -3.861  43.743  1.00  0.00    -0.550 OA
ATOM     11  O   UNL     1      37.980  -4.751  43.953  1.00  0.00    -0.550 OA
ENDBRANCH   7   9
ENDBRANCH   6   7
ENDBRANCH   5   6
ENDBRANCH   4   5
ENDBRANCH   3   4
ENDBRANCH   2   3
ENDBRANCH   1   2
BRANCH   1  12
ATOM     12  C   UNL     1      30.561  -1.077  41.875  1.00  0.00     0.000 C 
BRANCH  12  13
ATOM     13  C   UNL     1      29.148  -0.458  41.875  1.00  0.00    -0.000 C 
BRANCH  13  14
ATOM     14  C   UNL     1      28.233  -0.919  43.023  1.00  0.00    -0.000 C 
BRANCH  14  15
ATOM     15  C   UNL     1      28.325  -2.430  43.290  1.00  0.00    -0.000 C 
BRANCH  15  16
ATOM     16  C   UNL     1      28.440  -2.768  44.788  1.00  0.00    -0.000 C 
BRANCH  16  17
ATOM     17  C   UNL     1      29.858  -3.131  45.275  1.00  0.00    -0.000 C 
BRANCH  17  18
ATOM     18  C   UNL     1      30.777  -1.930  45.558  1.00  0.00    -0.003 C 
ATOM     19  C   UNL     1      30.048  -0.771  46.236  1.00  0.00     0.004 C 
ENDBRANCH  17  18
ENDBRANCH  16  17
ENDBRANCH  15  16
ENDBRANCH  14  15
ENDBRANCH  13  14
ENDBRANCH  12  13
ENDBRANCH   1  12
TORSDOF 14
ENDMDL
MODEL 5
REMARK VINA RESULT:    -3.739      1.256      2.151
REMARK INTER + INTRA:          -7.992
REMARK INTER:                  -6.791
REMARK INTRA:                  -1.201
REMARK UNBOUND:                -1.192
REMARK SMILES CCCCCCCCCCCCCC[C@@H](C)C(=O)[O-]
REMARK SMILES IDX 9 1 10 2 11 3 12 4 13 5 14 6 15 7 16 8 17 9 18 10 19 11 8 12
REMARK SMILES IDX 7 13 6 14 5 15 4 16 3 17 2 18 1 19
REMARK H PARENT
REMARK Flexibility Score: inf
ROOT
ATOM      1  C   UNL     1      34.869   0.372  41.883  1.00  0.00     0.000 C 
ENDROOT
BRANCH   1   2
ATOM      2  C   UNL     1      33.538  -0.402  41.892  1.00  0.00     0.000 C 
BRANCH   2   3
ATOM      3  C   UNL     1      32.697  -0.128  43.150  1.00  0.00     0.000 C 
BRANCH   3   4
ATOM      4  C   UNL     1      31.751  -1.290  43.503  1.00  0.00     0.000 C 
BRANCH   4   5
ATOM      5  C   UNL     1      30.380  -1.254  42.804  1.00  0.00     0.001 C 
BRANCH   5   6
ATOM      6  C   UNL     1      29.201  -1.360  43.788  1.00  0.00     0.009 C 
BRANCH   6   7
ATOM      7  C   UNL     1      29.622  -1.924  45.162  1.00  0.00     0.032 C 
ATOM      8  C   UNL     1      29.640  -0.844  46.252  1.00  0.00     0.014 C 
BRANCH   7   9
ATOM      9  C   UNL     1      28.696  -3.039  45.566  1.00  0.00     0.044 C 
ATOM     10  O   UNL     1      28.986  -4.237  45.304  1.00  0.00    -0.550 OA
ATOM     11  O   UNL     1      27.512  -2.751  46.234  1.00  0.00    -0.550 OA
ENDBRANCH   7   9
ENDBRANCH   6   7
ENDBRANCH   5   6
ENDBRANCH   4   5
ENDBRANCH   3   4
ENDBRANCH   2   3
ENDBRANCH   1   2
BRANCH   1  12
ATOM     12  C   UNL     1      36.137  -0.502  41.925  1.00  0.00     0.000 C 
BRANCH  12  13
ATOM     13  C   UNL     1      36.727  -0.739  43.330  1.00  0.00    -0.000 C 
BRANCH  13  14
ATOM     14  C   UNL     1      38.028  -1.560  43.363  1.00  0.00    -0.000 C 
BRANCH  14  15
ATOM     15  C   UNL     1      38.218  -2.430  42.109  1.00  0.00    -0.000 C 
BRANCH  15  16
ATOM     16  C   UNL     1      37.732  -3.877  42.305  1.00  0.00    -0.000 C 
BRANCH  16  17
ATOM     17  C   UNL     1      37.487  -4.298  43.769  1.00  0.00    -0.000 C 
BRANCH  17  18
ATOM     18  C   UNL     1      36.008  -4.396  44.181  1.00  0.00    -0.003 C 
ATOM     19  C   UNL     1      35.061  -3.797  43.143  1.00  0.00     0.004 C 
ENDBRANCH  17  18
ENDBRANCH  16  17
ENDBRANCH  15  16
ENDBRANCH  14  15
ENDBRANCH  13  14
ENDBRANCH  12  13
ENDBRANCH   1  12
TORSDOF 14
ENDMDL
MODEL 6
REMARK VINA RESULT:    -3.699      3.724      8.490
REMARK INTER + INTRA:          -7.919
REMARK INTER:                  -7.189
REMARK INTRA:                  -0.730
REMARK UNBOUND:                -1.192
REMARK SMILES CCCCCCCCCCCCCC[C@@H](C)C(=O)[O-]
REMARK SMILES IDX 9 1 10 2 11 3 12 4 13 5 14 6 15 7 16 8 17 9 18 10 19 11 8 12
REMARK SMILES IDX 7 13 6 14 5 15 4 16 3 17 2 18 1 19
REMARK H PARENT
REMARK Flexibility Score: inf
ROOT
ATOM      1  C   UNL     1      32.453  -0.302  43.624  1.00  0.00     0.000 C 
ENDROOT
BRANCH   1   2
ATOM      2  C   UNL     1      32.880  -0.363  42.146  1.00  0.00     0.000 C 
BRANCH   2   3
ATOM      3  C   UNL     1      34.306  -0.909  41.960  1.00  0.00     0.000 C 
BRANCH   3   4
ATOM      4  C   UNL     1      35.370  -0.065  42.687  1.00  0.00     0.000 C 
BRANCH   4   5
ATOM      5  C   UNL     1      36.565  -0.858  43.246  1.00  0.00     0.001 C 
BRANCH   5   6
ATOM      6  C   UNL     1      36.967  -2.046  42.353  1.00  0.00     0.009 C 
BRANCH   6   7
ATOM      7  C   UNL     1      38.306  -2.686  42.780  1.00  0.00     0.032 C 
ATOM      8  C   UNL     1      39.125  -1.763  43.693  1.00  0.00     0.014 C 
BRANCH   7   9
ATOM      9  C   UNL     1      38.051  -3.995  43.475  1.00  0.00     0.044 C 
ATOM     10  O   UNL     1      36.892  -4.294  43.871  1.00  0.00    -0.550 OA
ATOM     11  O   UNL     1      39.097  -4.886  43.684  1.00  0.00    -0.550 OA
ENDBRANCH   7   9
ENDBRANCH   6   7
ENDBRANCH   5   6
ENDBRANCH   4   5
ENDBRANCH   3   4
ENDBRANCH   2   3
ENDBRANCH   1   2
BRANCH   1  12
ATOM     12  C   UNL     1      31.364  -1.312  44.035  1.00  0.00     0.000 C 
BRANCH  12  13
ATOM     13  C   UNL     1      30.130  -1.361  43.111  1.00  0.00    -0.000 C 
BRANCH  13  14
ATOM     14  C   UNL     1      28.791  -1.625  43.822  1.00  0.00    -0.000 C 
BRANCH  14  15
ATOM     15  C   UNL     1      28.819  -1.241  45.310  1.00  0.00    -0.000 C 
BRANCH  15  16
ATOM     16  C   UNL     1      29.143  -2.433  46.230  1.00  0.00    -0.000 C 
BRANCH  16  17
ATOM     17  C   UNL     1      28.379  -3.735  45.915  1.00  0.00    -0.000 C 
BRANCH  17  18
ATOM     18  C   UNL     1      27.486  -4.258  47.054  1.00  0.00    -0.003 C 
ATOM     19  C   UNL     1      26.394  -3.268  47.456  1.00  0.00     0.004 C 
ENDBRANCH  17  18
ENDBRANCH  16  17
ENDBRANCH  15  16
ENDBRANCH  14  15
ENDBRANCH  13  14
ENDBRANCH  12  13
ENDBRANCH   1  12
TORSDOF 14
ENDMDL
MODEL 7
REMARK VINA RESULT:    -3.542     11.519     14.947
REMARK INTER + INTRA:          -7.633
REMARK INTER:                  -5.955
REMARK INTRA:                  -1.677
REMARK UNBOUND:                -1.192
REMARK SMILES CCCCCCCCCCCCCC[C@@H](C)C(=O)[O-]
REMARK SMILES IDX 9 1 10 2 11 3 12 4 13 5 14 6 15 7 16 8 17 9 18 10 19 11 8 12
REMARK SMILES IDX 7 13 6 14 5 15 4 16 3 17 2 18 1 19
REMARK H PARENT
REMARK Flexibility Score: inf
ROOT
ATOM      1  C   UNL     1      19.178 -10.550  42.891  1.00  0.00     0.000 C 
ENDROOT
BRANCH   1   2
ATOM      2  C   UNL     1      20.331  -9.899  42.104  1.00  0.00     0.000 C 
BRANCH   2   3
ATOM      3  C   UNL     1      21.174  -8.943  42.965  1.00  0.00     0.000 C 
BRANCH   3   4
ATOM      4  C   UNL     1      20.401  -7.681  43.391  1.00  0.00     0.000 C 
BRANCH   4   5
ATOM      5  C   UNL     1      19.681  -6.938  42.251  1.00  0.00     0.001 C 
BRANCH   5   6
ATOM      6  C   UNL     1      19.574  -5.422  42.495  1.00  0.00     0.009 C 
BRANCH   6   7
ATOM      7  C   UNL     1      20.699  -4.884  43.406  1.00  0.00     0.032 C 
ATOM      8  C   UNL     1      21.774  -4.127  42.614  1.00  0.00     0.014 C 
BRANCH   7   9
ATOM      9  C   UNL     1      20.119  -3.987  44.464  1.00  0.00     0.044 C 
ATOM     10  O   UNL     1      20.754  -3.760  45.529  1.00  0.00    -0.550 OA
ATOM     11  O   UNL     1      18.875  -3.399  44.271  1.00  0.00    -0.550 OA
ENDBRANCH   7   9
ENDBRANCH   6   7
ENDBRANCH   5   6
ENDBRANCH   4   5
ENDBRANCH   3   4
ENDBRANCH   2   3
ENDBRANCH   1   2
BRANCH   1  12
ATOM     12  C   UNL     1      19.108 -12.087  42.800  1.00  0.00     0.000 C 
BRANCH  12  13
ATOM     13  C   UNL     1      20.389 -12.776  42.286  1.00  0.00    -0.000 C 
BRANCH  13  14
ATOM     14  C   UNL     1      21.131 -13.634  43.326  1.00  0.00    -0.000 C 
BRANCH  14  15
ATOM     15  C   UNL     1      20.210 -14.142  44.447  1.00  0.00    -0.000 C 
BRANCH  15  16
ATOM     16  C   UNL     1      20.765 -13.854  45.855  1.00  0.00    -0.000 C 
BRANCH  16  17
ATOM     17  C   UNL     1      21.606 -12.567  45.981  1.00  0.00    -0.000 C 
BRANCH  17  18
ATOM     18  C   UNL     1      20.795 -11.259  46.005  1.00  0.00    -0.003 C 
ATOM     19  C   UNL     1      19.592 -11.323  46.944  1.00  0.00     0.004 C 
ENDBRANCH  17  18
ENDBRANCH  16  17
ENDBRANCH  15  16
ENDBRANCH  14  15
ENDBRANCH  13  14
ENDBRANCH  12  13
ENDBRANCH   1  12
TORSDOF 14
ENDMDL
MODEL 8
REMARK VINA RESULT:    -3.140     12.355     14.710
REMARK INTER + INTRA:          -6.901
REMARK INTER:                  -5.744
REMARK INTRA:                  -1.158
REMARK UNBOUND:                -1.192
REMARK SMILES CCCCCCCCCCCCCC[C@@H](C)C(=O)[O-]
REMARK SMILES IDX 9 1 10 2 11 3 12 4 13 5 14 6 15 7 16 8 17 9 18 10 19 11 8 12
REMARK SMILES IDX 7 13 6 14 5 15 4 16 3 17 2 18 1 19
REMARK H PARENT
REMARK Flexibility Score: inf
ROOT
ATOM      1  C   UNL     1      21.393  -9.261  43.545  1.00  0.00     0.000 C 
ENDROOT
BRANCH   1   2
ATOM      2  C   UNL     1      20.258 -10.084  42.907  1.00  0.00     0.000 C 
BRANCH   2   3
ATOM      3  C   UNL     1      18.906  -9.880  43.612  1.00  0.00     0.000 C 
BRANCH   3   4
ATOM      4  C   UNL     1      18.919 -10.344  45.080  1.00  0.00     0.000 C 
BRANCH   4   5
ATOM      5  C   UNL     1      19.162 -11.849  45.288  1.00  0.00     0.001 C 
BRANCH   5   6
ATOM      6  C   UNL     1      20.223 -12.144  46.364  1.00  0.00     0.009 C 
BRANCH   6   7
ATOM      7  C   UNL     1      21.168 -13.299  45.969  1.00  0.00     0.032 C 
ATOM      8  C   UNL     1      20.438 -14.648  45.901  1.00  0.00     0.014 C 
BRANCH   7   9
ATOM      9  C   UNL     1      21.816 -13.003  44.645  1.00  0.00     0.044 C 
ATOM     10  O   UNL     1      22.733 -12.143  44.559  1.00  0.00    -0.550 OA
ATOM     11  O   UNL     1      21.406 -13.682  43.503  1.00  0.00    -0.550 OA
ENDBRANCH   7   9
ENDBRANCH   6   7
ENDBRANCH   5   6
ENDBRANCH   4   5
ENDBRANCH   3   4
ENDBRANCH   2   3
ENDBRANCH   1   2
BRANCH   1  12
ATOM     12  C   UNL     1      21.949  -8.122  42.669  1.00  0.00     0.000 C 
BRANCH  12  13
ATOM     13  C   UNL     1      20.888  -7.278  41.933  1.00  0.00    -0.000 C 
BRANCH  13  14
ATOM     14  C   UNL     1      20.161  -6.238  42.804  1.00  0.00    -0.000 C 
BRANCH  14  15
ATOM     15  C   UNL     1      19.657  -5.031  41.995  1.00  0.00    -0.000 C 
BRANCH  15  16
ATOM     16  C   UNL     1      20.590  -3.811  42.097  1.00  0.00    -0.000 C 
BRANCH  16  17
ATOM     17  C   UNL     1      20.152  -2.729  43.106  1.00  0.00    -0.000 C 
BRANCH  17  18
ATOM     18  C   UNL     1      19.604  -3.265  44.440  1.00  0.00    -0.003 C 
ATOM     19  C   UNL     1      20.704  -3.581  45.451  1.00  0.00     0.004 C 
ENDBRANCH  17  18
ENDBRANCH  16  17
ENDBRANCH  15  16
ENDBRANCH  14  15
ENDBRANCH  13  14
ENDBRANCH  12  13
ENDBRANCH   1  12
TORSDOF 14
ENDMDL
MODEL 9
REMARK VINA RESULT:    -3.070     11.544     14.950
REMARK INTER + INTRA:          -6.774
REMARK INTER:                  -5.231
REMARK INTRA:                  -1.543
REMARK UNBOUND:                -1.192
REMARK SMILES CCCCCCCCCCCCCC[C@@H](C)C(=O)[O-]
REMARK SMILES IDX 9 1 10 2 11 3 12 4 13 5 14 6 15 7 16 8 17 9 18 10 19 11 8 12
REMARK SMILES IDX 7 13 6 14 5 15 4 16 3 17 2 18 1 19
REMARK H PARENT
REMARK Flexibility Score: inf
ROOT
ATOM      1  C   UNL     1      21.057 -10.174  45.350  1.00  0.00     0.000 C 
ENDROOT
BRANCH   1   2
ATOM      2  C   UNL     1      21.951 -10.170  44.096  1.00  0.00     0.000 C 
BRANCH   2   3
ATOM      3  C   UNL     1      21.953  -8.814  43.370  1.00  0.00     0.000 C 
BRANCH   3   4
ATOM      4  C   UNL     1      20.747  -7.933  43.745  1.00  0.00     0.000 C 
BRANCH   4   5
ATOM      5  C   UNL     1      19.935  -7.394  42.554  1.00  0.00     0.001 C 
BRANCH   5   6
ATOM      6  C   UNL     1      19.775  -5.863  42.578  1.00  0.00     0.009 C 
BRANCH   6   7
ATOM      7  C   UNL     1      21.059  -5.138  43.039  1.00  0.00     0.032 C 
ATOM      8  C   UNL     1      22.023  -4.869  41.876  1.00  0.00     0.014 C 
BRANCH   7   9
ATOM      9  C   UNL     1      20.702  -3.843  43.715  1.00  0.00     0.044 C 
ATOM     10  O   UNL     1      20.411  -2.824  43.033  1.00  0.00    -0.550 OA
ATOM     11  O   UNL     1      20.690  -3.764  45.102  1.00  0.00    -0.550 OA
ENDBRANCH   7   9
ENDBRANCH   6   7
ENDBRANCH   5   6
ENDBRANCH   4   5
ENDBRANCH   3   4
ENDBRANCH   2   3
ENDBRANCH   1   2
BRANCH   1  12
ATOM     12  C   UNL     1      19.978 -11.274  45.383  1.00  0.00     0.000 C 
BRANCH  12  13
ATOM     13  C   UNL     1      18.875 -11.146  44.313  1.00  0.00    -0.000 C 
BRANCH  13  14
ATOM     14  C   UNL     1      19.324 -11.445  42.871  1.00  0.00    -0.000 C 
BRANCH  14  15
ATOM     15  C   UNL     1      19.264 -12.942  42.526  1.00  0.00    -0.000 C 
BRANCH  15  16
ATOM     16  C   UNL     1      20.658 -13.575  42.357  1.00  0.00    -0.000 C 
BRANCH  16  17
ATOM     17  C   UNL     1      21.256 -14.202  43.633  1.00  0.00    -0.000 C 
BRANCH  17  18
ATOM     18  C   UNL     1      20.253 -14.968  44.514  1.00  0.00    -0.003 C 
ATOM     19  C   UNL     1      20.376 -14.619  45.996  1.00  0.00     0.004 C 
ENDBRANCH  17  18
ENDBRANCH  16  17
ENDBRANCH  15  16
ENDBRANCH  14  15
ENDBRANCH  13  14
ENDBRANCH  12  13
ENDBRANCH   1  12
TORSDOF 14
ENDMDL
