MODEL 1
REMARK VINA RESULT:    -5.571      0.000      0.000
REMARK INTER + INTRA:          -9.342
REMARK INTER:                  -8.502
REMARK INTRA:                  -0.840
REMARK UNBOUND:                -0.840
REMARK SMILES CC(=O)CCC=C(C)CCC=C(C)CCC=C(C)C
REMARK SMILES IDX 10 1 11 2 12 3 13 4 14 5 15 6 16 7 18 8 17 9 19 10 9 11 7 12
REMARK SMILES IDX 6 13 8 14 5 15 4 16 2 17 3 18 1 19
REMARK H PARENT
REMARK Flexibility Score: inf
ROOT
ATOM      1  C   UNL     1      21.691  26.747  28.756  1.00  0.00     0.032 C 
ENDROOT
BRANCH   1   2
ATOM      2  C   UNL     1      20.867  27.954  28.383  1.00  0.00    -0.028 C 
ATOM      3  C   UNL     1      20.307  28.803  29.275  1.00  0.00    -0.077 C 
ATOM      4  C   UNL     1      20.507  28.644  30.765  1.00  0.00     0.039 C 
BRANCH   3   5
ATOM      5  C   UNL     1      19.463  29.951  28.764  1.00  0.00     0.034 C 
BRANCH   5   6
ATOM      6  C   UNL     1      18.254  30.188  29.677  1.00  0.00     0.032 C 
BRANCH   6   7
ATOM      7  C   UNL     1      17.746  31.601  29.535  1.00  0.00    -0.028 C 
ATOM      8  C   UNL     1      15.343  30.926  29.737  1.00  0.00     0.039 C 
ATOM      9  C   UNL     1      16.442  31.953  29.586  1.00  0.00    -0.080 C 
ATOM     10  C   UNL     1      16.085  33.411  29.469  1.00  0.00     0.039 C 
ENDBRANCH   6   7
ENDBRANCH   5   6
ENDBRANCH   3   5
ENDBRANCH   1   2
BRANCH   1  11
ATOM     11  C   UNL     1      20.788  25.552  29.078  1.00  0.00     0.034 C 
BRANCH  11  12
ATOM     12  C   UNL     1      20.268  24.915  27.809  1.00  0.00    -0.077 C 
ATOM     13  C   UNL     1      21.146  24.356  26.946  1.00  0.00    -0.028 C 
ATOM     14  C   UNL     1      18.783  24.937  27.532  1.00  0.00     0.039 C 
BRANCH  13  15
ATOM     15  C   UNL     1      20.759  23.647  25.672  1.00  0.00     0.035 C 
BRANCH  15  16
ATOM     16  C   UNL     1      21.446  24.297  24.463  1.00  0.00     0.079 C 
BRANCH  16  17
ATOM     17  C   UNL     1      21.887  23.320  23.395  1.00  0.00     0.130 C 
ATOM     18  O   UNL     1      23.085  23.184  23.193  1.00  0.00    -0.300 OA
ATOM     19  C   UNL     1      20.921  22.508  22.577  1.00  0.00     0.087 C 
ENDBRANCH  16  17
ENDBRANCH  15  16
ENDBRANCH  13  15
ENDBRANCH  11  12
ENDBRANCH   1  11
TORSDOF 9
ENDMDL
MODEL 2
REMARK VINA RESULT:    -5.426      3.634      8.233
REMARK INTER + INTRA:          -9.122
REMARK INTER:                  -6.981
REMARK INTRA:                  -2.141
REMARK UNBOUND:                -0.840
REMARK SMILES CC(=O)CCC=C(C)CCC=C(C)CCC=C(C)C
REMARK SMILES IDX 10 1 11 2 12 3 13 4 14 5 15 6 16 7 18 8 17 9 19 10 9 11 7 12
REMARK SMILES IDX 6 13 8 14 5 15 4 16 2 17 3 18 1 19
REMARK H PARENT
REMARK Flexibility Score: inf
ROOT
ATOM      1  C   UNL     1      20.480  29.803  29.641  1.00  0.00     0.032 C 
ENDROOT
BRANCH   1   2
ATOM      2  C   UNL     1      19.543  29.041  28.738  1.00  0.00    -0.028 C 
ATOM      3  C   UNL     1      18.417  28.417  29.155  1.00  0.00    -0.077 C 
ATOM      4  C   UNL     1      17.959  28.474  30.594  1.00  0.00     0.039 C 
BRANCH   3   5
ATOM      5  C   UNL     1      17.590  27.648  28.148  1.00  0.00     0.034 C 
BRANCH   5   6
ATOM      6  C   UNL     1      17.568  26.153  28.488  1.00  0.00     0.032 C 
BRANCH   6   7
ATOM      7  C   UNL     1      18.500  25.386  27.584  1.00  0.00    -0.028 C 
ATOM      8  C   UNL     1      20.369  25.382  29.251  1.00  0.00     0.039 C 
ATOM      9  C   UNL     1      19.753  25.009  27.922  1.00  0.00    -0.080 C 
ATOM     10  C   UNL     1      20.556  24.210  26.930  1.00  0.00     0.039 C 
ENDBRANCH   6   7
ENDBRANCH   5   6
ENDBRANCH   3   5
ENDBRANCH   1   2
BRANCH   1  11
ATOM     11  C   UNL     1      20.402  31.306  29.361  1.00  0.00     0.034 C 
BRANCH  11  12
ATOM     12  C   UNL     1      19.237  31.930  30.098  1.00  0.00    -0.077 C 
ATOM     13  C   UNL     1      18.285  32.581  29.391  1.00  0.00    -0.028 C 
ATOM     14  C   UNL     1      19.178  31.825  31.604  1.00  0.00     0.039 C 
BRANCH  13  15
ATOM     15  C   UNL     1      17.049  33.204  29.993  1.00  0.00     0.035 C 
BRANCH  15  16
ATOM     16  C   UNL     1      15.785  32.507  29.470  1.00  0.00     0.079 C 
BRANCH  16  17
ATOM     17  C   UNL     1      15.422  31.236  30.205  1.00  0.00     0.130 C 
ATOM     18  O   UNL     1      15.678  31.163  31.398  1.00  0.00    -0.300 OA
ATOM     19  C   UNL     1      14.758  30.063  29.537  1.00  0.00     0.087 C 
ENDBRANCH  16  17
ENDBRANCH  15  16
ENDBRANCH  13  15
ENDBRANCH  11  12
ENDBRANCH   1  11
TORSDOF 9
ENDMDL
MODEL 3
REMARK VINA RESULT:    -5.415      2.120      3.916
REMARK INTER + INTRA:          -9.105
REMARK INTER:                  -7.825
REMARK INTRA:                  -1.280
REMARK UNBOUND:                -0.840
REMARK SMILES CC(=O)CCC=C(C)CCC=C(C)CCC=C(C)C
REMARK SMILES IDX 10 1 11 2 12 3 13 4 14 5 15 6 16 7 18 8 17 9 19 10 9 11 7 12
REMARK SMILES IDX 6 13 8 14 5 15 4 16 2 17 3 18 1 19
REMARK H PARENT
REMARK Flexibility Score: inf
ROOT
ATOM      1  C   UNL     1      19.727  29.743  29.408  1.00  0.00     0.032 C 
ENDROOT
BRANCH   1   2
ATOM      2  C   UNL     1      19.098  31.059  29.026  1.00  0.00    -0.028 C 
ATOM      3  C   UNL     1      18.735  32.018  29.909  1.00  0.00    -0.077 C 
ATOM      4  C   UNL     1      18.982  31.873  31.393  1.00  0.00     0.039 C 
BRANCH   3   5
ATOM      5  C   UNL     1      18.070  33.276  29.392  1.00  0.00     0.034 C 
BRANCH   5   6
ATOM      6  C   UNL     1      16.669  32.968  28.848  1.00  0.00     0.032 C 
BRANCH   6   7
ATOM      7  C   UNL     1      15.673  32.849  29.974  1.00  0.00    -0.028 C 
ATOM      8  C   UNL     1      15.299  30.402  29.594  1.00  0.00     0.039 C 
ATOM      9  C   UNL     1      15.067  31.697  30.338  1.00  0.00    -0.080 C 
ATOM     10  C   UNL     1      14.122  31.720  31.510  1.00  0.00     0.039 C 
ENDBRANCH   6   7
ENDBRANCH   5   6
ENDBRANCH   3   5
ENDBRANCH   1   2
BRANCH   1  11
ATOM     11  C   UNL     1      21.255  29.839  29.365  1.00  0.00     0.034 C 
BRANCH  11  12
ATOM     12  C   UNL     1      21.860  28.541  28.876  1.00  0.00    -0.077 C 
ATOM     13  C   UNL     1      21.194  27.384  29.089  1.00  0.00    -0.028 C 
ATOM     14  C   UNL     1      23.200  28.573  28.179  1.00  0.00     0.039 C 
BRANCH  13  15
ATOM     15  C   UNL     1      21.658  26.030  28.612  1.00  0.00     0.035 C 
BRANCH  15  16
ATOM     16  C   UNL     1      20.536  24.992  28.758  1.00  0.00     0.079 C 
BRANCH  16  17
ATOM     17  C   UNL     1      19.896  24.576  27.453  1.00  0.00     0.130 C 
ATOM     18  O   UNL     1      18.678  24.621  27.365  1.00  0.00    -0.300 OA
ATOM     19  C   UNL     1      20.690  24.116  26.261  1.00  0.00     0.087 C 
ENDBRANCH  16  17
ENDBRANCH  15  16
ENDBRANCH  13  15
ENDBRANCH  11  12
ENDBRANCH   1  11
TORSDOF 9
ENDMDL
MODEL 4
REMARK VINA RESULT:    -5.372      4.040      8.944
REMARK INTER + INTRA:          -9.038
REMARK INTER:                  -7.404
REMARK INTRA:                  -1.634
REMARK UNBOUND:                -0.840
REMARK SMILES CC(=O)CCC=C(C)CCC=C(C)CCC=C(C)C
REMARK SMILES IDX 10 1 11 2 12 3 13 4 14 5 15 6 16 7 18 8 17 9 19 10 9 11 7 12
REMARK SMILES IDX 6 13 8 14 5 15 4 16 2 17 3 18 1 19
REMARK H PARENT
REMARK Flexibility Score: inf
ROOT
ATOM      1  C   UNL     1      16.071  29.146  30.434  1.00  0.00     0.032 C 
ENDROOT
BRANCH   1   2
ATOM      2  C   UNL     1      16.532  28.205  29.350  1.00  0.00    -0.028 C 
ATOM      3  C   UNL     1      17.652  28.380  28.612  1.00  0.00    -0.077 C 
ATOM      4  C   UNL     1      18.593  29.538  28.849  1.00  0.00     0.039 C 
BRANCH   3   5
ATOM      5  C   UNL     1      17.974  27.381  27.522  1.00  0.00     0.034 C 
BRANCH   5   6
ATOM      6  C   UNL     1      17.929  25.948  28.064  1.00  0.00     0.032 C 
BRANCH   6   7
ATOM      7  C   UNL     1      19.106  25.149  27.563  1.00  0.00    -0.028 C 
ATOM      8  C   UNL     1      20.591  25.855  29.453  1.00  0.00     0.039 C 
ATOM      9  C   UNL     1      20.301  25.076  28.190  1.00  0.00    -0.080 C 
ATOM     10  C   UNL     1      21.375  24.204  27.593  1.00  0.00     0.039 C 
ENDBRANCH   6   7
ENDBRANCH   5   6
ENDBRANCH   3   5
ENDBRANCH   1   2
BRANCH   1  11
ATOM     11  C   UNL     1      14.944  30.050  29.925  1.00  0.00     0.034 C 
BRANCH  11  12
ATOM     12  C   UNL     1      15.279  31.507  30.154  1.00  0.00    -0.077 C 
ATOM     13  C   UNL     1      15.999  32.170  29.220  1.00  0.00    -0.028 C 
ATOM     14  C   UNL     1      14.816  32.177  31.426  1.00  0.00     0.039 C 
BRANCH  13  15
ATOM     15  C   UNL     1      16.360  33.633  29.299  1.00  0.00     0.035 C 
BRANCH  15  16
ATOM     16  C   UNL     1      17.867  33.804  29.539  1.00  0.00     0.079 C 
BRANCH  16  17
ATOM     17  C   UNL     1      18.325  33.436  30.932  1.00  0.00     0.130 C 
ATOM     18  O   UNL     1      17.944  34.124  31.868  1.00  0.00    -0.300 OA
ATOM     19  C   UNL     1      19.220  32.261  31.218  1.00  0.00     0.087 C 
ENDBRANCH  16  17
ENDBRANCH  15  16
ENDBRANCH  13  15
ENDBRANCH  11  12
ENDBRANCH   1  11
TORSDOF 9
ENDMDL
MODEL 5
REMARK VINA RESULT:    -5.354      2.872      5.321
REMARK INTER + INTRA:          -9.012
REMARK INTER:                  -6.996
REMARK INTRA:                  -2.016
REMARK UNBOUND:                -0.840
REMARK SMILES CC(=O)CCC=C(C)CCC=C(C)CCC=C(C)C
REMARK SMILES IDX 10 1 11 2 12 3 13 4 14 5 15 6 16 7 18 8 17 9 19 10 9 11 7 12
REMARK SMILES IDX 6 13 8 14 5 15 4 16 2 17 3 18 1 19
REMARK H PARENT
REMARK Flexibility Score: inf
ROOT
ATOM      1  C   UNL     1      14.690  29.655  29.757  1.00  0.00     0.032 C 
ENDROOT
BRANCH   1   2
ATOM      2  C   UNL     1      15.384  30.936  29.370  1.00  0.00    -0.028 C 
ATOM      3  C   UNL     1      15.410  32.053  30.133  1.00  0.00    -0.077 C 
ATOM      4  C   UNL     1      14.774  32.099  31.503  1.00  0.00     0.039 C 
BRANCH   3   5
ATOM      5  C   UNL     1      16.105  33.287  29.602  1.00  0.00     0.034 C 
BRANCH   5   6
ATOM      6  C   UNL     1      17.433  33.523  30.331  1.00  0.00     0.032 C 
BRANCH   6   7
ATOM      7  C   UNL     1      18.555  32.779  29.651  1.00  0.00    -0.028 C 
ATOM      8  C   UNL     1      18.645  30.992  31.403  1.00  0.00     0.039 C 
ATOM      9  C   UNL     1      19.094  31.626  30.107  1.00  0.00    -0.080 C 
ATOM     10  C   UNL     1      20.185  30.973  29.299  1.00  0.00     0.039 C 
ENDBRANCH   6   7
ENDBRANCH   5   6
ENDBRANCH   3   5
ENDBRANCH   1   2
BRANCH   1  11
ATOM     11  C   UNL     1      15.669  28.691  30.435  1.00  0.00     0.034 C 
BRANCH  11  12
ATOM     12  C   UNL     1      16.423  27.879  29.404  1.00  0.00    -0.077 C 
ATOM     13  C   UNL     1      17.537  28.402  28.843  1.00  0.00    -0.028 C 
ATOM     14  C   UNL     1      15.901  26.515  29.018  1.00  0.00     0.039 C 
BRANCH  13  15
ATOM     15  C   UNL     1      18.408  27.684  27.842  1.00  0.00     0.035 C 
BRANCH  15  16
ATOM     16  C   UNL     1      19.721  27.233  28.496  1.00  0.00     0.079 C 
BRANCH  16  17
ATOM     17  C   UNL     1      19.966  25.742  28.444  1.00  0.00     0.130 C 
ATOM     18  O   UNL     1      20.763  25.257  29.234  1.00  0.00    -0.300 OA
ATOM     19  C   UNL     1      19.271  24.830  27.469  1.00  0.00     0.087 C 
ENDBRANCH  16  17
ENDBRANCH  15  16
ENDBRANCH  13  15
ENDBRANCH  11  12
ENDBRANCH   1  11
TORSDOF 9
ENDMDL
MODEL 6
REMARK VINA RESULT:    -5.305      3.140      4.703
REMARK INTER + INTRA:          -8.936
REMARK INTER:                  -7.186
REMARK INTRA:                  -1.751
REMARK UNBOUND:                -0.840
REMARK SMILES CC(=O)CCC=C(C)CCC=C(C)CCC=C(C)C
REMARK SMILES IDX 10 1 11 2 12 3 13 4 14 5 15 6 16 7 18 8 17 9 19 10 9 11 7 12
REMARK SMILES IDX 6 13 8 14 5 15 4 16 2 17 3 18 1 19
REMARK H PARENT
REMARK Flexibility Score: inf
ROOT
ATOM      1  C   UNL     1      15.608  26.514  29.723  1.00  0.00     0.032 C 
ENDROOT
BRANCH   1   2
ATOM      2  C   UNL     1      15.196  27.954  29.901  1.00  0.00    -0.028 C 
ATOM      3  C   UNL     1      15.898  28.868  30.609  1.00  0.00    -0.077 C 
ATOM      4  C   UNL     1      17.220  28.532  31.259  1.00  0.00     0.039 C 
BRANCH   3   5
ATOM      5  C   UNL     1      15.345  30.270  30.746  1.00  0.00     0.034 C 
BRANCH   5   6
ATOM      6  C   UNL     1      15.323  30.984  29.389  1.00  0.00     0.032 C 
BRANCH   6   7
ATOM      7  C   UNL     1      16.041  32.307  29.470  1.00  0.00    -0.028 C 
ATOM      8  C   UNL     1      18.286  31.298  29.006  1.00  0.00     0.039 C 
ATOM      9  C   UNL     1      17.369  32.469  29.274  1.00  0.00    -0.080 C 
ATOM     10  C   UNL     1      17.942  33.860  29.347  1.00  0.00     0.039 C 
ENDBRANCH   6   7
ENDBRANCH   5   6
ENDBRANCH   3   5
ENDBRANCH   1   2
BRANCH   1  11
ATOM     11  C   UNL     1      15.922  26.217  28.253  1.00  0.00     0.034 C 
BRANCH  11  12
ATOM     12  C   UNL     1      17.403  26.363  27.981  1.00  0.00    -0.077 C 
ATOM     13  C   UNL     1      18.200  25.275  28.082  1.00  0.00    -0.028 C 
ATOM     14  C   UNL     1      17.953  27.723  27.620  1.00  0.00     0.039 C 
BRANCH  13  15
ATOM     15  C   UNL     1      19.681  25.270  27.791  1.00  0.00     0.035 C 
BRANCH  15  16
ATOM     16  C   UNL     1      20.487  25.389  29.092  1.00  0.00     0.079 C 
BRANCH  16  17
ATOM     17  C   UNL     1      21.097  26.753  29.328  1.00  0.00     0.130 C 
ATOM     18  O   UNL     1      20.587  27.479  30.168  1.00  0.00    -0.300 OA
ATOM     19  C   UNL     1      22.303  27.251  28.580  1.00  0.00     0.087 C 
ENDBRANCH  16  17
ENDBRANCH  15  16
ENDBRANCH  13  15
ENDBRANCH  11  12
ENDBRANCH   1  11
TORSDOF 9
ENDMDL
MODEL 7
REMARK VINA RESULT:    -5.295      2.047      3.769
REMARK INTER + INTRA:          -8.921
REMARK INTER:                  -7.076
REMARK INTRA:                  -1.846
REMARK UNBOUND:                -0.840
REMARK SMILES CC(=O)CCC=C(C)CCC=C(C)CCC=C(C)C
REMARK SMILES IDX 10 1 11 2 12 3 13 4 14 5 15 6 16 7 18 8 17 9 19 10 9 11 7 12
REMARK SMILES IDX 6 13 8 14 5 15 4 16 2 17 3 18 1 19
REMARK H PARENT
REMARK Flexibility Score: inf
ROOT
ATOM      1  C   UNL     1      19.853  29.959  29.696  1.00  0.00     0.032 C 
ENDROOT
BRANCH   1   2
ATOM      2  C   UNL     1      18.961  31.044  29.147  1.00  0.00    -0.028 C 
ATOM      3  C   UNL     1      18.662  32.191  29.799  1.00  0.00    -0.077 C 
ATOM      4  C   UNL     1      19.254  32.520  31.150  1.00  0.00     0.039 C 
BRANCH   3   5
ATOM      5  C   UNL     1      17.713  33.176  29.152  1.00  0.00     0.034 C 
BRANCH   5   6
ATOM      6  C   UNL     1      16.387  33.241  29.918  1.00  0.00     0.032 C 
BRANCH   6   7
ATOM      7  C   UNL     1      15.473  32.116  29.501  1.00  0.00    -0.028 C 
ATOM      8  C   UNL     1      15.768  30.869  31.653  1.00  0.00     0.039 C 
ATOM      9  C   UNL     1      15.164  31.055  30.280  1.00  0.00    -0.080 C 
ATOM     10  C   UNL     1      14.203  30.026  29.746  1.00  0.00     0.039 C 
ENDBRANCH   6   7
ENDBRANCH   5   6
ENDBRANCH   3   5
ENDBRANCH   1   2
BRANCH   1  11
ATOM     11  C   UNL     1      19.031  28.904  30.440  1.00  0.00     0.034 C 
BRANCH  11  12
ATOM     12  C   UNL     1      18.414  27.921  29.470  1.00  0.00    -0.077 C 
ATOM     13  C   UNL     1      19.187  27.386  28.497  1.00  0.00    -0.028 C 
ATOM     14  C   UNL     1      16.949  27.578  29.603  1.00  0.00     0.039 C 
BRANCH  13  15
ATOM     15  C   UNL     1      18.713  26.360  27.497  1.00  0.00     0.035 C 
BRANCH  15  16
ATOM     16  C   UNL     1      19.191  24.957  27.896  1.00  0.00     0.079 C 
BRANCH  16  17
ATOM     17  C   UNL     1      20.570  24.599  27.388  1.00  0.00     0.130 C 
ATOM     18  O   UNL     1      21.515  24.698  28.157  1.00  0.00    -0.300 OA
ATOM     19  C   UNL     1      20.829  24.121  25.985  1.00  0.00     0.087 C 
ENDBRANCH  16  17
ENDBRANCH  15  16
ENDBRANCH  13  15
ENDBRANCH  11  12
ENDBRANCH   1  11
TORSDOF 9
ENDMDL
MODEL 8
REMARK VINA RESULT:    -5.282      4.299      6.852
REMARK INTER + INTRA:          -8.902
REMARK INTER:                  -6.436
REMARK INTRA:                  -2.466
REMARK UNBOUND:                -0.840
REMARK SMILES CC(=O)CCC=C(C)CCC=C(C)CCC=C(C)C
REMARK SMILES IDX 10 1 11 2 12 3 13 4 14 5 15 6 16 7 18 8 17 9 19 10 9 11 7 12
REMARK SMILES IDX 6 13 8 14 5 15 4 16 2 17 3 18 1 19
REMARK H PARENT
REMARK Flexibility Score: inf
ROOT
ATOM      1  C   UNL     1      16.518  33.059  28.996  1.00  0.00     0.032 C 
ENDROOT
BRANCH   1   2
ATOM      2  C   UNL     1      15.744  32.884  30.278  1.00  0.00    -0.028 C 
ATOM      3  C   UNL     1      14.986  31.803  30.572  1.00  0.00    -0.077 C 
ATOM      4  C   UNL     1      14.886  30.619  29.638  1.00  0.00     0.039 C 
BRANCH   3   5
ATOM      5  C   UNL     1      14.223  31.777  31.879  1.00  0.00     0.034 C 
BRANCH   5   6
ATOM      6  C   UNL     1      15.184  31.796  33.073  1.00  0.00     0.032 C 
BRANCH   6   7
ATOM      7  C   UNL     1      16.267  30.760  32.905  1.00  0.00    -0.028 C 
ATOM      8  C   UNL     1      18.120  32.430  33.125  1.00  0.00     0.039 C 
ATOM      9  C   UNL     1      17.592  31.025  32.952  1.00  0.00    -0.080 C 
ATOM     10  C   UNL     1      18.560  29.880  32.808  1.00  0.00     0.039 C 
ENDBRANCH   6   7
ENDBRANCH   5   6
ENDBRANCH   3   5
ENDBRANCH   1   2
BRANCH   1  11
ATOM     11  C   UNL     1      17.969  33.455  29.287  1.00  0.00     0.034 C 
BRANCH  11  12
ATOM     12  C   UNL     1      18.835  32.227  29.465  1.00  0.00    -0.077 C 
ATOM     13  C   UNL     1      18.364  31.026  29.058  1.00  0.00    -0.028 C 
ATOM     14  C   UNL     1      20.194  32.374  30.108  1.00  0.00     0.039 C 
BRANCH  13  15
ATOM     15  C   UNL     1      19.140  29.734  29.132  1.00  0.00     0.035 C 
BRANCH  15  16
ATOM     16  C   UNL     1      18.726  28.792  27.993  1.00  0.00     0.079 C 
BRANCH  16  17
ATOM     17  C   UNL     1      17.877  27.619  28.429  1.00  0.00     0.130 C 
ATOM     18  O   UNL     1      17.835  26.633  27.708  1.00  0.00    -0.300 OA
ATOM     19  C   UNL     1      17.088  27.610  29.710  1.00  0.00     0.087 C 
ENDBRANCH  16  17
ENDBRANCH  15  16
ENDBRANCH  13  15
ENDBRANCH  11  12
ENDBRANCH   1  11
TORSDOF 9
ENDMDL
MODEL 9
REMARK VINA RESULT:    -5.223      3.965      7.977
REMARK INTER + INTRA:          -8.812
REMARK INTER:                  -7.269
REMARK INTRA:                  -1.542
REMARK UNBOUND:                -0.840
REMARK SMILES CC(=O)CCC=C(C)CCC=C(C)CCC=C(C)C
REMARK SMILES IDX 10 1 11 2 12 3 13 4 14 5 15 6 16 7 18 8 17 9 19 10 9 11 7 12
REMARK SMILES IDX 6 13 8 14 5 15 4 16 2 17 3 18 1 19
REMARK H PARENT
REMARK Flexibility Score: inf
ROOT
ATOM      1  C   UNL     1      20.981  28.759  30.256  1.00  0.00     0.032 C 
ENDROOT
BRANCH   1   2
ATOM      2  C   UNL     1      20.699  27.349  29.803  1.00  0.00    -0.028 C 
ATOM      3  C   UNL     1      21.479  26.650  28.946  1.00  0.00    -0.077 C 
ATOM      4  C   UNL     1      22.765  27.217  28.393  1.00  0.00     0.039 C 
BRANCH   3   5
ATOM      5  C   UNL     1      21.052  25.256  28.539  1.00  0.00     0.034 C 
BRANCH   5   6
ATOM      6  C   UNL     1      20.060  25.308  27.372  1.00  0.00     0.032 C 
BRANCH   6   7
ATOM      7  C   UNL     1      18.647  25.109  27.862  1.00  0.00    -0.028 C 
ATOM      8  C   UNL     1      18.026  27.513  27.532  1.00  0.00     0.039 C 
ATOM      9  C   UNL     1      17.713  26.085  27.915  1.00  0.00    -0.080 C 
ATOM     10  C   UNL     1      16.329  25.730  28.391  1.00  0.00     0.039 C 
ENDBRANCH   6   7
ENDBRANCH   5   6
ENDBRANCH   3   5
ENDBRANCH   1   2
BRANCH   1  11
ATOM     11  C   UNL     1      20.399  29.774  29.266  1.00  0.00     0.034 C 
BRANCH  11  12
ATOM     12  C   UNL     1      19.127  30.385  29.810  1.00  0.00    -0.077 C 
ATOM     13  C   UNL     1      18.424  31.240  29.033  1.00  0.00    -0.028 C 
ATOM     14  C   UNL     1      18.685  30.037  31.212  1.00  0.00     0.039 C 
BRANCH  13  15
ATOM     15  C   UNL     1      17.117  31.880  29.431  1.00  0.00     0.035 C 
BRANCH  15  16
ATOM     16  C   UNL     1      17.212  33.409  29.326  1.00  0.00     0.079 C 
BRANCH  16  17
ATOM     17  C   UNL     1      18.274  34.032  30.205  1.00  0.00     0.130 C 
ATOM     18  O   UNL     1      18.082  34.063  31.412  1.00  0.00    -0.300 OA
ATOM     19  C   UNL     1      19.554  34.606  29.662  1.00  0.00     0.087 C 
ENDBRANCH  16  17
ENDBRANCH  15  16
ENDBRANCH  13  15
ENDBRANCH  11  12
ENDBRANCH   1  11
TORSDOF 9
ENDMDL
