MODEL 1
REMARK VINA RESULT:    -3.820      0.000      0.000
REMARK INTER + INTRA:          -3.820
REMARK INTER:                  -3.820
REMARK INTRA:                   0.000
REMARK UNBOUND:                 0.000
REMARK SMILES CC1=CC=CC(C)(C)[C@H]1C
REMARK SMILES IDX 10 1 9 2 2 3 3 4 4 5 5 6 6 7 7 8 8 9 1 10
REMARK H PARENT
REMARK Flexibility Score: inf
ROOT
ATOM      1  C   UNL     1      19.109  64.694  16.055  1.00  0.00     0.013 C 
ATOM      2  C   UNL     1      20.593  64.389  15.757  1.00  0.00     0.021 C 
ATOM      3  C   UNL     1      21.241  63.531  16.849  1.00  0.00    -0.070 C 
ATOM      4  C   UNL     1      22.400  62.903  16.587  1.00  0.00    -0.001 C 
ATOM      5  C   UNL     1      22.986  62.917  15.239  1.00  0.00    -0.004 C 
ATOM      6  C   UNL     1      22.289  63.364  14.191  1.00  0.00    -0.020 C 
ATOM      7  C   UNL     1      20.832  63.774  14.327  1.00  0.00    -0.011 C 
ATOM      8  C   UNL     1      20.528  64.811  13.222  1.00  0.00     0.016 C 
ATOM      9  C   UNL     1      19.963  62.518  14.091  1.00  0.00     0.016 C 
ATOM     10  C   UNL     1      20.698  63.512  18.256  1.00  0.00     0.040 C 
ENDROOT
TORSDOF 0
ENDMDL
MODEL 2
REMARK VINA RESULT:    -3.772      1.400      3.323
REMARK INTER + INTRA:          -3.772
REMARK INTER:                  -3.772
REMARK INTRA:                   0.000
REMARK UNBOUND:                 0.000
REMARK SMILES CC1=CC=CC(C)(C)[C@H]1C
REMARK SMILES IDX 10 1 9 2 2 3 3 4 4 5 5 6 6 7 7 8 8 9 1 10
REMARK H PARENT
REMARK Flexibility Score: inf
ROOT
ATOM      1  C   UNL     1      21.463  63.465  16.270  1.00  0.00     0.013 C 
ATOM      2  C   UNL     1      19.936  63.691  16.237  1.00  0.00     0.021 C 
ATOM      3  C   UNL     1      19.480  64.731  17.267  1.00  0.00    -0.070 C 
ATOM      4  C   UNL     1      18.262  65.284  17.142  1.00  0.00    -0.001 C 
ATOM      5  C   UNL     1      17.417  65.011  15.970  1.00  0.00    -0.004 C 
ATOM      6  C   UNL     1      17.910  64.385  14.899  1.00  0.00    -0.020 C 
ATOM      7  C   UNL     1      19.382  64.025  14.801  1.00  0.00    -0.011 C 
ATOM      8  C   UNL     1      19.509  62.803  13.863  1.00  0.00     0.016 C 
ATOM      9  C   UNL     1      20.122  65.225  14.167  1.00  0.00     0.016 C 
ATOM     10  C   UNL     1      20.294  65.018  18.504  1.00  0.00     0.040 C 
ENDROOT
TORSDOF 0
ENDMDL
MODEL 3
REMARK VINA RESULT:    -3.728      1.124      3.117
REMARK INTER + INTRA:          -3.728
REMARK INTER:                  -3.728
REMARK INTRA:                   0.000
REMARK UNBOUND:                 0.000
REMARK SMILES CC1=CC=CC(C)(C)[C@H]1C
REMARK SMILES IDX 10 1 9 2 2 3 3 4 4 5 5 6 6 7 7 8 8 9 1 10
REMARK H PARENT
REMARK Flexibility Score: inf
ROOT
ATOM      1  C   UNL     1      19.884  63.889  17.459  1.00  0.00     0.013 C 
ATOM      2  C   UNL     1      20.772  63.177  16.415  1.00  0.00     0.021 C 
ATOM      3  C   UNL     1      20.364  63.516  14.977  1.00  0.00    -0.070 C 
ATOM      4  C   UNL     1      21.224  63.261  13.976  1.00  0.00    -0.001 C 
ATOM      5  C   UNL     1      22.590  62.788  14.246  1.00  0.00    -0.004 C 
ATOM      6  C   UNL     1      23.090  62.804  15.484  1.00  0.00    -0.020 C 
ATOM      7  C   UNL     1      22.314  63.406  16.643  1.00  0.00    -0.011 C 
ATOM      8  C   UNL     1      22.788  62.712  17.940  1.00  0.00     0.016 C 
ATOM      9  C   UNL     1      22.666  64.909  16.718  1.00  0.00     0.016 C 
ATOM     10  C   UNL     1      18.965  63.969  14.645  1.00  0.00     0.040 C 
ENDROOT
TORSDOF 0
ENDMDL
MODEL 4
REMARK VINA RESULT:    -3.713      1.721      4.021
REMARK INTER + INTRA:          -3.713
REMARK INTER:                  -3.713
REMARK INTRA:                   0.000
REMARK UNBOUND:                 0.000
REMARK SMILES CC1=CC=CC(C)(C)[C@H]1C
REMARK SMILES IDX 10 1 9 2 2 3 3 4 4 5 5 6 6 7 7 8 8 9 1 10
REMARK H PARENT
REMARK Flexibility Score: inf
ROOT
ATOM      1  C   UNL     1      22.308  63.684  13.966  1.00  0.00     0.013 C 
ATOM      2  C   UNL     1      22.750  62.627  15.002  1.00  0.00     0.021 C 
ATOM      3  C   UNL     1      24.064  61.944  14.610  1.00  0.00    -0.070 C 
ATOM      4  C   UNL     1      24.750  61.261  15.543  1.00  0.00    -0.001 C 
ATOM      5  C   UNL     1      24.334  61.270  16.953  1.00  0.00    -0.004 C 
ATOM      6  C   UNL     1      23.400  62.119  17.388  1.00  0.00    -0.020 C 
ATOM      7  C   UNL     1      22.807  63.179  16.476  1.00  0.00    -0.011 C 
ATOM      8  C   UNL     1      21.391  63.512  16.996  1.00  0.00     0.016 C 
ATOM      9  C   UNL     1      23.692  64.442  16.581  1.00  0.00     0.016 C 
ATOM     10  C   UNL     1      24.515  61.876  13.172  1.00  0.00     0.040 C 
ENDROOT
TORSDOF 0
ENDMDL
MODEL 5
REMARK VINA RESULT:    -3.673      1.227      3.386
REMARK INTER + INTRA:          -3.673
REMARK INTER:                  -3.673
REMARK INTRA:                   0.000
REMARK UNBOUND:                 0.000
REMARK SMILES CC1=CC=CC(C)(C)[C@H]1C
REMARK SMILES IDX 10 1 9 2 2 3 3 4 4 5 5 6 6 7 7 8 8 9 1 10
REMARK H PARENT
REMARK Flexibility Score: inf
ROOT
ATOM      1  C   UNL     1      22.820  64.626  16.116  1.00  0.00     0.013 C 
ATOM      2  C   UNL     1      21.527  64.461  15.288  1.00  0.00     0.021 C 
ATOM      3  C   UNL     1      21.558  63.210  14.403  1.00  0.00    -0.070 C 
ATOM      4  C   UNL     1      20.407  62.743  13.890  1.00  0.00    -0.001 C 
ATOM      5  C   UNL     1      19.112  63.327  14.267  1.00  0.00    -0.004 C 
ATOM      6  C   UNL     1      19.016  64.187  15.284  1.00  0.00    -0.020 C 
ATOM      7  C   UNL     1      20.215  64.515  16.158  1.00  0.00    -0.011 C 
ATOM      8  C   UNL     1      19.999  65.929  16.744  1.00  0.00     0.016 C 
ATOM      9  C   UNL     1      20.251  63.491  17.315  1.00  0.00     0.016 C 
ATOM     10  C   UNL     1      22.862  62.597  13.959  1.00  0.00     0.040 C 
ENDROOT
TORSDOF 0
ENDMDL
MODEL 6
REMARK VINA RESULT:    -3.611      1.156      2.996
REMARK INTER + INTRA:          -3.611
REMARK INTER:                  -3.611
REMARK INTRA:                   0.000
REMARK UNBOUND:                 0.000
REMARK SMILES CC1=CC=CC(C)(C)[C@H]1C
REMARK SMILES IDX 10 1 9 2 2 3 3 4 4 5 5 6 6 7 7 8 8 9 1 10
REMARK H PARENT
REMARK Flexibility Score: inf
ROOT
ATOM      1  C   UNL     1      20.451  64.760  17.833  1.00  0.00     0.013 C 
ATOM      2  C   UNL     1      20.225  63.877  16.586  1.00  0.00     0.021 C 
ATOM      3  C   UNL     1      18.987  64.303  15.789  1.00  0.00    -0.070 C 
ATOM      4  C   UNL     1      18.843  63.871  14.524  1.00  0.00    -0.001 C 
ATOM      5  C   UNL     1      19.908  63.114  13.852  1.00  0.00    -0.004 C 
ATOM      6  C   UNL     1      21.126  63.016  14.390  1.00  0.00    -0.020 C 
ATOM      7  C   UNL     1      21.493  63.766  15.659  1.00  0.00    -0.011 C 
ATOM      8  C   UNL     1      22.624  62.981  16.362  1.00  0.00     0.016 C 
ATOM      9  C   UNL     1      22.027  65.157  15.248  1.00  0.00     0.016 C 
ATOM     10  C   UNL     1      17.851  65.048  16.444  1.00  0.00     0.040 C 
ENDROOT
TORSDOF 0
ENDMDL
MODEL 7
REMARK VINA RESULT:    -3.570      1.168      3.962
REMARK INTER + INTRA:          -3.570
REMARK INTER:                  -3.570
REMARK INTRA:                   0.000
REMARK UNBOUND:                 0.000
REMARK SMILES CC1=CC=CC(C)(C)[C@H]1C
REMARK SMILES IDX 10 1 9 2 2 3 3 4 4 5 5 6 6 7 7 8 8 9 1 10
REMARK H PARENT
REMARK Flexibility Score: inf
ROOT
ATOM      1  C   UNL     1      22.162  63.138  15.611  1.00  0.00     0.013 C 
ATOM      2  C   UNL     1      20.998  64.133  15.808  1.00  0.00     0.021 C 
ATOM      3  C   UNL     1      19.730  63.700  15.064  1.00  0.00    -0.070 C 
ATOM      4  C   UNL     1      18.554  64.257  15.397  1.00  0.00    -0.001 C 
ATOM      5  C   UNL     1      18.440  65.170  16.543  1.00  0.00    -0.004 C 
ATOM      6  C   UNL     1      19.443  65.307  17.414  1.00  0.00    -0.020 C 
ATOM      7  C   UNL     1      20.694  64.452  17.321  1.00  0.00    -0.011 C 
ATOM      8  C   UNL     1      21.857  65.243  17.962  1.00  0.00     0.016 C 
ATOM      9  C   UNL     1      20.450  63.164  18.140  1.00  0.00     0.016 C 
ATOM     10  C   UNL     1      19.799  62.795  13.860  1.00  0.00     0.040 C 
ENDROOT
TORSDOF 0
ENDMDL
MODEL 8
REMARK VINA RESULT:    -3.553      1.050      2.859
REMARK INTER + INTRA:          -3.553
REMARK INTER:                  -3.553
REMARK INTRA:                   0.000
REMARK UNBOUND:                 0.000
REMARK SMILES CC1=CC=CC(C)(C)[C@H]1C
REMARK SMILES IDX 10 1 9 2 2 3 3 4 4 5 5 6 6 7 7 8 8 9 1 10
REMARK H PARENT
REMARK Flexibility Score: inf
ROOT
ATOM      1  C   UNL     1      22.995  62.881  13.873  1.00  0.00     0.013 C 
ATOM      2  C   UNL     1      22.071  62.769  15.105  1.00  0.00     0.021 C 
ATOM      3  C   UNL     1      22.798  63.115  16.409  1.00  0.00    -0.070 C 
ATOM      4  C   UNL     1      22.074  63.392  17.507  1.00  0.00    -0.001 C 
ATOM      5  C   UNL     1      20.609  63.500  17.447  1.00  0.00    -0.004 C 
ATOM      6  C   UNL     1      19.970  63.540  16.274  1.00  0.00    -0.020 C 
ATOM      7  C   UNL     1      20.732  63.584  14.961  1.00  0.00    -0.011 C 
ATOM      8  C   UNL     1      19.826  62.968  13.869  1.00  0.00     0.016 C 
ATOM      9  C   UNL     1      20.997  65.067  14.617  1.00  0.00     0.016 C 
ATOM     10  C   UNL     1      24.295  62.984  16.532  1.00  0.00     0.040 C 
ENDROOT
TORSDOF 0
ENDMDL
MODEL 9
REMARK VINA RESULT:    -3.548      1.168      2.925
REMARK INTER + INTRA:          -3.548
REMARK INTER:                  -3.548
REMARK INTRA:                   0.000
REMARK UNBOUND:                 0.000
REMARK SMILES CC1=CC=CC(C)(C)[C@H]1C
REMARK SMILES IDX 10 1 9 2 2 3 3 4 4 5 5 6 6 7 7 8 8 9 1 10
REMARK H PARENT
REMARK Flexibility Score: inf
ROOT
ATOM      1  C   UNL     1      24.105  62.996  16.921  1.00  0.00     0.013 C 
ATOM      2  C   UNL     1      22.737  62.750  16.247  1.00  0.00     0.021 C 
ATOM      3  C   UNL     1      21.577  63.338  17.057  1.00  0.00    -0.070 C 
ATOM      4  C   UNL     1      20.384  63.509  16.461  1.00  0.00    -0.001 C 
ATOM      5  C   UNL     1      20.210  63.268  15.021  1.00  0.00    -0.004 C 
ATOM      6  C   UNL     1      21.265  63.083  14.223  1.00  0.00    -0.020 C 
ATOM      7  C   UNL     1      22.685  63.219  14.745  1.00  0.00    -0.011 C 
ATOM      8  C   UNL     1      23.600  62.341  13.861  1.00  0.00     0.016 C 
ATOM      9  C   UNL     1      23.106  64.698  14.592  1.00  0.00     0.016 C 
ATOM     10  C   UNL     1      21.694  63.568  18.543  1.00  0.00     0.040 C 
ENDROOT
TORSDOF 0
ENDMDL
