MODEL 1
REMARK VINA RESULT:    -4.848      0.000      0.000
REMARK INTER + INTRA:          -7.061
REMARK INTER:                  -6.831
REMARK INTRA:                  -0.229
REMARK UNBOUND:                -0.229
REMARK SMILES CCCCCCCCC(=O)[O-]
REMARK SMILES IDX 6 1 7 2 8 3 9 4 10 5 11 6 5 7 4 8 3 9 2 10 1 11
REMARK H PARENT
REMARK Flexibility Score: inf
ROOT
ATOM      1  C   UNL     1       1.138  -8.648  -1.471  1.00  0.00     0.000 C 
ENDROOT
BRANCH   1   2
ATOM      2  C   UNL     1       0.844  -9.287  -0.102  1.00  0.00     0.006 C 
BRANCH   2   3
ATOM      3  C   UNL     1      -0.442 -10.125  -0.119  1.00  0.00     0.053 C 
BRANCH   3   4
ATOM      4  C   UNL     1      -1.571  -9.430   0.577  1.00  0.00     0.041 C 
ATOM      5  O   UNL     1      -1.923  -9.793   1.731  1.00  0.00    -0.550 OA
ATOM      6  O   UNL     1      -2.255  -8.401  -0.058  1.00  0.00    -0.550 OA
ENDBRANCH   3   4
ENDBRANCH   2   3
ENDBRANCH   1   2
BRANCH   1   7
ATOM      7  C   UNL     1       1.663  -9.665  -2.497  1.00  0.00     0.000 C 
BRANCH   7   8
ATOM      8  C   UNL     1       2.922  -9.170  -3.230  1.00  0.00    -0.000 C 
BRANCH   8   9
ATOM      9  C   UNL     1       2.639  -8.777  -4.689  1.00  0.00    -0.000 C 
BRANCH   9  10
ATOM     10  C   UNL     1       3.882  -8.233  -5.408  1.00  0.00    -0.003 C 
ATOM     11  C   UNL     1       5.073  -8.146  -4.457  1.00  0.00     0.004 C 
ENDBRANCH   9  10
ENDBRANCH   8   9
ENDBRANCH   7   8
ENDBRANCH   1   7
TORSDOF 7
ENDMDL
MODEL 2
REMARK VINA RESULT:    -4.636      3.706      6.313
REMARK INTER + INTRA:          -6.762
REMARK INTER:                  -6.413
REMARK INTRA:                  -0.350
REMARK UNBOUND:                -0.229
REMARK SMILES CCCCCCCCC(=O)[O-]
REMARK SMILES IDX 6 1 7 2 8 3 9 4 10 5 11 6 5 7 4 8 3 9 2 10 1 11
REMARK H PARENT
REMARK Flexibility Score: inf
ROOT
ATOM      1  C   UNL     1       1.399  -9.908  -2.049  1.00  0.00     0.000 C 
ENDROOT
BRANCH   1   2
ATOM      2  C   UNL     1       1.925  -9.185  -3.302  1.00  0.00     0.006 C 
BRANCH   2   3
ATOM      3  C   UNL     1       3.459  -9.196  -3.374  1.00  0.00     0.053 C 
BRANCH   3   4
ATOM      4  C   UNL     1       3.970  -8.381  -4.522  1.00  0.00     0.041 C 
ATOM      5  O   UNL     1       5.175  -8.015  -4.552  1.00  0.00    -0.550 OA
ATOM      6  O   UNL     1       3.109  -7.999  -5.543  1.00  0.00    -0.550 OA
ENDBRANCH   3   4
ENDBRANCH   2   3
ENDBRANCH   1   2
BRANCH   1   7
ATOM      7  C   UNL     1       1.240  -8.964  -0.846  1.00  0.00     0.000 C 
BRANCH   7   8
ATOM      8  C   UNL     1       0.217  -7.845  -1.104  1.00  0.00    -0.000 C 
BRANCH   8   9
ATOM      9  C   UNL     1      -1.206  -8.384  -1.321  1.00  0.00    -0.000 C 
BRANCH   9  10
ATOM     10  C   UNL     1      -2.115  -8.166  -0.103  1.00  0.00    -0.003 C 
ATOM     11  C   UNL     1      -2.134  -9.400   0.796  1.00  0.00     0.004 C 
ENDBRANCH   9  10
ENDBRANCH   8   9
ENDBRANCH   7   8
ENDBRANCH   1   7
TORSDOF 7
ENDMDL
MODEL 3
REMARK VINA RESULT:    -4.441      1.561      2.279
REMARK INTER + INTRA:          -6.488
REMARK INTER:                  -6.000
REMARK INTRA:                  -0.489
REMARK UNBOUND:                -0.229
REMARK SMILES CCCCCCCCC(=O)[O-]
REMARK SMILES IDX 6 1 7 2 8 3 9 4 10 5 11 6 5 7 4 8 3 9 2 10 1 11
REMARK H PARENT
REMARK Flexibility Score: inf
ROOT
ATOM      1  C   UNL     1       1.509  -9.733  -3.080  1.00  0.00     0.000 C 
ENDROOT
BRANCH   1   2
ATOM      2  C   UNL     1       1.928  -8.981  -1.805  1.00  0.00     0.006 C 
BRANCH   2   3
ATOM      3  C   UNL     1       0.818  -8.977  -0.745  1.00  0.00     0.053 C 
BRANCH   3   4
ATOM      4  C   UNL     1      -0.253  -7.980  -1.061  1.00  0.00     0.041 C 
ATOM      5  O   UNL     1      -1.467  -8.300  -0.961  1.00  0.00    -0.550 OA
ATOM      6  O   UNL     1       0.087  -6.705  -1.497  1.00  0.00    -0.550 OA
ENDBRANCH   3   4
ENDBRANCH   2   3
ENDBRANCH   1   2
BRANCH   1   7
ATOM      7  C   UNL     1       2.684  -9.964  -4.044  1.00  0.00     0.000 C 
BRANCH   7   8
ATOM      8  C   UNL     1       3.918  -9.116  -3.686  1.00  0.00    -0.000 C 
BRANCH   8   9
ATOM      9  C   UNL     1       4.335  -8.172  -4.825  1.00  0.00    -0.000 C 
BRANCH   9  10
ATOM     10  C   UNL     1       3.325  -8.155  -5.982  1.00  0.00    -0.003 C 
ATOM     11  C   UNL     1       2.548  -6.842  -6.014  1.00  0.00     0.004 C 
ENDBRANCH   9  10
ENDBRANCH   8   9
ENDBRANCH   7   8
ENDBRANCH   1   7
TORSDOF 7
ENDMDL
MODEL 4
REMARK VINA RESULT:    -4.325     11.605     12.791
REMARK INTER + INTRA:          -6.324
REMARK INTER:                  -5.967
REMARK INTRA:                  -0.356
REMARK UNBOUND:                -0.229
REMARK SMILES CCCCCCCCC(=O)[O-]
REMARK SMILES IDX 6 1 7 2 8 3 9 4 10 5 11 6 5 7 4 8 3 9 2 10 1 11
REMARK H PARENT
REMARK Flexibility Score: inf
ROOT
ATOM      1  C   UNL     1      -1.566   4.117  -1.074  1.00  0.00     0.000 C 
ENDROOT
BRANCH   1   2
ATOM      2  C   UNL     1      -0.317   4.178  -1.971  1.00  0.00     0.006 C 
BRANCH   2   3
ATOM      3  C   UNL     1      -0.295   3.047  -3.008  1.00  0.00     0.053 C 
BRANCH   3   4
ATOM      4  C   UNL     1       0.961   3.060  -3.823  1.00  0.00     0.041 C 
ATOM      5  O   UNL     1       1.402   1.992  -4.325  1.00  0.00    -0.550 OA
ATOM      6  O   UNL     1       1.662   4.246  -4.004  1.00  0.00    -0.550 OA
ENDBRANCH   3   4
ENDBRANCH   2   3
ENDBRANCH   1   2
BRANCH   1   7
ATOM      7  C   UNL     1      -2.203   2.718  -1.040  1.00  0.00     0.000 C 
BRANCH   7   8
ATOM      8  C   UNL     1      -1.775   1.904   0.193  1.00  0.00    -0.000 C 
BRANCH   8   9
ATOM      9  C   UNL     1      -0.568   0.995  -0.090  1.00  0.00    -0.000 C 
BRANCH   9  10
ATOM     10  C   UNL     1       0.410   0.923   1.093  1.00  0.00    -0.003 C 
ATOM     11  C   UNL     1       0.836  -0.517   1.366  1.00  0.00     0.004 C 
ENDBRANCH   9  10
ENDBRANCH   8   9
ENDBRANCH   7   8
ENDBRANCH   1   7
TORSDOF 7
ENDMDL
MODEL 5
REMARK VINA RESULT:    -4.226     12.095     13.322
REMARK INTER + INTRA:          -6.184
REMARK INTER:                  -5.713
REMARK INTRA:                  -0.472
REMARK UNBOUND:                -0.229
REMARK SMILES CCCCCCCCC(=O)[O-]
REMARK SMILES IDX 6 1 7 2 8 3 9 4 10 5 11 6 5 7 4 8 3 9 2 10 1 11
REMARK H PARENT
REMARK Flexibility Score: inf
ROOT
ATOM      1  C   UNL     1      -0.777   4.508  -1.852  1.00  0.00     0.000 C 
ENDROOT
BRANCH   1   2
ATOM      2  C   UNL     1       0.425   3.555  -1.978  1.00  0.00     0.006 C 
BRANCH   2   3
ATOM      3  C   UNL     1       0.293   2.616  -3.185  1.00  0.00     0.053 C 
BRANCH   3   4
ATOM      4  C   UNL     1       1.053   3.122  -4.372  1.00  0.00     0.041 C 
ATOM      5  O   UNL     1       1.003   2.503  -5.468  1.00  0.00    -0.550 OA
ATOM      6  O   UNL     1       1.842   4.261  -4.262  1.00  0.00    -0.550 OA
ENDBRANCH   3   4
ENDBRANCH   2   3
ENDBRANCH   1   2
BRANCH   1   7
ATOM      7  C   UNL     1      -1.582   4.276  -0.563  1.00  0.00     0.000 C 
BRANCH   7   8
ATOM      8  C   UNL     1      -2.612   3.142  -0.705  1.00  0.00    -0.000 C 
BRANCH   8   9
ATOM      9  C   UNL     1      -2.308   1.950   0.216  1.00  0.00    -0.000 C 
BRANCH   9  10
ATOM     10  C   UNL     1      -1.102   1.126  -0.260  1.00  0.00    -0.003 C 
ATOM     11  C   UNL     1       0.028   1.163   0.765  1.00  0.00     0.004 C 
ENDBRANCH   9  10
ENDBRANCH   8   9
ENDBRANCH   7   8
ENDBRANCH   1   7
TORSDOF 7
ENDMDL
MODEL 6
REMARK VINA RESULT:    -4.214     11.985     13.194
REMARK INTER + INTRA:          -6.167
REMARK INTER:                  -5.523
REMARK INTRA:                  -0.645
REMARK UNBOUND:                -0.229
REMARK SMILES CCCCCCCCC(=O)[O-]
REMARK SMILES IDX 6 1 7 2 8 3 9 4 10 5 11 6 5 7 4 8 3 9 2 10 1 11
REMARK H PARENT
REMARK Flexibility Score: inf
ROOT
ATOM      1  C   UNL     1      -1.519   1.014  -2.274  1.00  0.00     0.000 C 
ENDROOT
BRANCH   1   2
ATOM      2  C   UNL     1      -1.123   2.262  -3.081  1.00  0.00     0.006 C 
BRANCH   2   3
ATOM      3  C   UNL     1       0.363   2.254  -3.466  1.00  0.00     0.053 C 
BRANCH   3   4
ATOM      4  C   UNL     1       0.993   3.602  -3.291  1.00  0.00     0.041 C 
ATOM      5  O   UNL     1       1.653   4.119  -4.230  1.00  0.00    -0.550 OA
ATOM      6  O   UNL     1       0.876   4.274  -2.080  1.00  0.00    -0.550 OA
ENDBRANCH   3   4
ENDBRANCH   2   3
ENDBRANCH   1   2
BRANCH   1   7
ATOM      7  C   UNL     1      -0.799   0.934  -0.918  1.00  0.00     0.000 C 
BRANCH   7   8
ATOM      8  C   UNL     1      -1.198   2.076   0.033  1.00  0.00    -0.000 C 
BRANCH   8   9
ATOM      9  C   UNL     1      -2.722   2.233   0.159  1.00  0.00    -0.000 C 
BRANCH   9  10
ATOM     10  C   UNL     1      -3.214   3.618  -0.285  1.00  0.00    -0.003 C 
ATOM     11  C   UNL     1      -2.050   4.595  -0.430  1.00  0.00     0.004 C 
ENDBRANCH   9  10
ENDBRANCH   8   9
ENDBRANCH   7   8
ENDBRANCH   1   7
TORSDOF 7
ENDMDL
MODEL 7
REMARK VINA RESULT:    -4.113     10.371     11.532
REMARK INTER + INTRA:          -6.026
REMARK INTER:                  -5.661
REMARK INTRA:                  -0.365
REMARK UNBOUND:                -0.229
REMARK SMILES CCCCCCCCC(=O)[O-]
REMARK SMILES IDX 6 1 7 2 8 3 9 4 10 5 11 6 5 7 4 8 3 9 2 10 1 11
REMARK H PARENT
REMARK Flexibility Score: inf
ROOT
ATOM      1  C   UNL     1      -1.310   2.164  -0.043  1.00  0.00     0.000 C 
ENDROOT
BRANCH   1   2
ATOM      2  C   UNL     1      -1.474   2.910  -1.379  1.00  0.00     0.006 C 
BRANCH   2   3
ATOM      3  C   UNL     1      -0.734   2.209  -2.527  1.00  0.00     0.053 C 
BRANCH   3   4
ATOM      4  C   UNL     1       0.441   3.005  -3.003  1.00  0.00     0.041 C 
ATOM      5  O   UNL     1       0.764   4.072  -2.417  1.00  0.00    -0.550 OA
ATOM      6  O   UNL     1       1.164   2.586  -4.114  1.00  0.00    -0.550 OA
ENDBRANCH   3   4
ENDBRANCH   2   3
ENDBRANCH   1   2
BRANCH   1   7
ATOM      7  C   UNL     1      -0.545   0.840  -0.195  1.00  0.00     0.000 C 
BRANCH   7   8
ATOM      8  C   UNL     1       0.480   0.616   0.931  1.00  0.00    -0.000 C 
BRANCH   8   9
ATOM      9  C   UNL     1       0.825  -0.868   1.128  1.00  0.00    -0.000 C 
BRANCH   9  10
ATOM     10  C   UNL     1       0.138  -1.779   0.100  1.00  0.00    -0.003 C 
ATOM     11  C   UNL     1       0.933  -3.065  -0.113  1.00  0.00     0.004 C 
ENDBRANCH   9  10
ENDBRANCH   8   9
ENDBRANCH   7   8
ENDBRANCH   1   7
TORSDOF 7
ENDMDL
MODEL 8
REMARK VINA RESULT:    -3.969     10.294     11.401
REMARK INTER + INTRA:          -5.823
REMARK INTER:                  -5.510
REMARK INTRA:                  -0.314
REMARK UNBOUND:                -0.229
REMARK SMILES CCCCCCCCC(=O)[O-]
REMARK SMILES IDX 6 1 7 2 8 3 9 4 10 5 11 6 5 7 4 8 3 9 2 10 1 11
REMARK H PARENT
REMARK Flexibility Score: inf
ROOT
ATOM      1  C   UNL     1      -0.374   1.955   0.299  1.00  0.00     0.000 C 
ENDROOT
BRANCH   1   2
ATOM      2  C   UNL     1      -1.669   2.390  -0.410  1.00  0.00     0.006 C 
BRANCH   2   3
ATOM      3  C   UNL     1      -1.476   3.674  -1.228  1.00  0.00     0.053 C 
BRANCH   3   4
ATOM      4  C   UNL     1      -0.399   3.524  -2.258  1.00  0.00     0.041 C 
ATOM      5  O   UNL     1      -0.602   2.830  -3.290  1.00  0.00    -0.550 OA
ATOM      6  O   UNL     1       0.839   4.125  -2.066  1.00  0.00    -0.550 OA
ENDBRANCH   3   4
ENDBRANCH   2   3
ENDBRANCH   1   2
BRANCH   1   7
ATOM      7  C   UNL     1      -0.107   0.446   0.169  1.00  0.00     0.000 C 
BRANCH   7   8
ATOM      8  C   UNL     1       0.733  -0.108   1.334  1.00  0.00    -0.000 C 
BRANCH   8   9
ATOM      9  C   UNL     1       1.011  -1.613   1.197  1.00  0.00    -0.000 C 
BRANCH   9  10
ATOM     10  C   UNL     1       0.189  -2.269   0.078  1.00  0.00    -0.003 C 
ATOM     11  C   UNL     1       0.987  -3.368  -0.619  1.00  0.00     0.004 C 
ENDBRANCH   9  10
ENDBRANCH   8   9
ENDBRANCH   7   8
ENDBRANCH   1   7
TORSDOF 7
ENDMDL
MODEL 9
REMARK VINA RESULT:    -3.960     11.739     12.270
REMARK INTER + INTRA:          -5.810
REMARK INTER:                  -5.365
REMARK INTRA:                  -0.444
REMARK UNBOUND:                -0.229
REMARK SMILES CCCCCCCCC(=O)[O-]
REMARK SMILES IDX 6 1 7 2 8 3 9 4 10 5 11 6 5 7 4 8 3 9 2 10 1 11
REMARK H PARENT
REMARK Flexibility Score: inf
ROOT
ATOM      1  C   UNL     1      -1.889   1.724  -2.278  1.00  0.00     0.000 C 
ENDROOT
BRANCH   1   2
ATOM      2  C   UNL     1      -1.507   1.431  -0.816  1.00  0.00     0.006 C 
BRANCH   2   3
ATOM      3  C   UNL     1      -1.314   2.716  -0.000  1.00  0.00     0.053 C 
BRANCH   3   4
ATOM      4  C   UNL     1      -2.309   3.771  -0.375  1.00  0.00     0.041 C 
ATOM      5  O   UNL     1      -1.917   4.913  -0.736  1.00  0.00    -0.550 OA
ATOM      6  O   UNL     1      -3.671   3.504  -0.298  1.00  0.00    -0.550 OA
ENDBRANCH   3   4
ENDBRANCH   2   3
ENDBRANCH   1   2
BRANCH   1   7
ATOM      7  C   UNL     1      -0.898   1.113  -3.282  1.00  0.00     0.000 C 
BRANCH   7   8
ATOM      8  C   UNL     1       0.525   1.678  -3.127  1.00  0.00    -0.000 C 
BRANCH   8   9
ATOM      9  C   UNL     1       0.993   2.448  -4.372  1.00  0.00    -0.000 C 
BRANCH   9  10
ATOM     10  C   UNL     1       1.155   3.953  -4.112  1.00  0.00    -0.003 C 
ATOM     11  C   UNL     1       0.750   4.311  -2.684  1.00  0.00     0.004 C 
ENDBRANCH   9  10
ENDBRANCH   8   9
ENDBRANCH   7   8
ENDBRANCH   1   7
TORSDOF 7
ENDMDL
