MODEL 1
REMARK VINA RESULT:    -3.224      0.000      0.000
REMARK INTER + INTRA:          -4.800
REMARK INTER:                  -4.355
REMARK INTRA:                  -0.444
REMARK UNBOUND:                -0.444
REMARK SMILES CCCCCCCC(=O)[O-]
REMARK SMILES IDX 5 1 6 2 7 3 8 4 9 5 10 6 4 7 3 8 2 9 1 10
REMARK H PARENT
REMARK Flexibility Score: inf
ROOT
ATOM      1  C   UNL     1       7.102 -30.623  16.038  1.00  0.00     0.000 C 
ENDROOT
BRANCH   1   2
ATOM      2  C   UNL     1       7.699 -29.920  14.806  1.00  0.00     0.006 C 
BRANCH   2   3
ATOM      3  C   UNL     1       9.163 -29.514  15.024  1.00  0.00     0.053 C 
BRANCH   3   4
ATOM      4  C   UNL     1       9.927 -29.465  13.736  1.00  0.00     0.041 C 
ATOM      5  O   UNL     1      11.181 -29.353  13.748  1.00  0.00    -0.550 OA
ATOM      6  O   UNL     1       9.252 -29.512  12.523  1.00  0.00    -0.550 OA
ENDBRANCH   3   4
ENDBRANCH   2   3
ENDBRANCH   1   2
BRANCH   1   7
ATOM      7  C   UNL     1       6.063 -29.757  16.768  1.00  0.00     0.000 C 
BRANCH   7   8
ATOM      8  C   UNL     1       6.518 -29.355  18.182  1.00  0.00    -0.000 C 
BRANCH   8   9
ATOM      9  C   UNL     1       7.887 -29.947  18.551  1.00  0.00    -0.003 C 
ATOM     10  C   UNL     1       8.958 -28.879  18.766  1.00  0.00     0.004 C 
ENDBRANCH   8   9
ENDBRANCH   7   8
ENDBRANCH   1   7
TORSDOF 6
ENDMDL
MODEL 2
REMARK VINA RESULT:    -3.208      0.933      1.636
REMARK INTER + INTRA:          -4.778
REMARK INTER:                  -4.341
REMARK INTRA:                  -0.437
REMARK UNBOUND:                -0.444
REMARK SMILES CCCCCCCC(=O)[O-]
REMARK SMILES IDX 5 1 6 2 7 3 8 4 9 5 10 6 4 7 3 8 2 9 1 10
REMARK H PARENT
REMARK Flexibility Score: inf
ROOT
ATOM      1  C   UNL     1       7.293 -30.165  15.798  1.00  0.00     0.000 C 
ENDROOT
BRANCH   1   2
ATOM      2  C   UNL     1       8.031 -29.812  14.495  1.00  0.00     0.006 C 
BRANCH   2   3
ATOM      3  C   UNL     1       9.515 -30.197  14.548  1.00  0.00     0.053 C 
BRANCH   3   4
ATOM      4  C   UNL     1      10.349 -29.334  13.651  1.00  0.00     0.041 C 
ATOM      5  O   UNL     1       9.995 -29.133  12.459  1.00  0.00    -0.550 OA
ATOM      6  O   UNL     1      11.531 -28.778  14.121  1.00  0.00    -0.550 OA
ENDBRANCH   3   4
ENDBRANCH   2   3
ENDBRANCH   1   2
BRANCH   1   7
ATOM      7  C   UNL     1       8.253 -30.430  16.969  1.00  0.00     0.000 C 
BRANCH   7   8
ATOM      8  C   UNL     1       7.968 -29.529  18.183  1.00  0.00    -0.000 C 
BRANCH   8   9
ATOM      9  C   UNL     1       9.216 -28.765  18.656  1.00  0.00    -0.003 C 
ATOM     10  C   UNL     1      10.070 -28.250  17.499  1.00  0.00     0.004 C 
ENDBRANCH   8   9
ENDBRANCH   7   8
ENDBRANCH   1   7
TORSDOF 6
ENDMDL
MODEL 3
REMARK VINA RESULT:    -3.190      2.509      4.520
REMARK INTER + INTRA:          -4.754
REMARK INTER:                  -4.373
REMARK INTRA:                  -0.381
REMARK UNBOUND:                -0.444
REMARK SMILES CCCCCCCC(=O)[O-]
REMARK SMILES IDX 5 1 6 2 7 3 8 4 9 5 10 6 4 7 3 8 2 9 1 10
REMARK H PARENT
REMARK Flexibility Score: inf
ROOT
ATOM      1  C   UNL     1       7.001 -29.864  15.892  1.00  0.00     0.000 C 
ENDROOT
BRANCH   1   2
ATOM      2  C   UNL     1       7.784 -30.415  17.097  1.00  0.00     0.006 C 
BRANCH   2   3
ATOM      3  C   UNL     1       7.749 -29.458  18.296  1.00  0.00     0.053 C 
BRANCH   3   4
ATOM      4  C   UNL     1       9.115 -28.948  18.644  1.00  0.00     0.041 C 
ATOM      5  O   UNL     1       9.535 -29.021  19.829  1.00  0.00    -0.550 OA
ATOM      6  O   UNL     1       9.911 -28.366  17.666  1.00  0.00    -0.550 OA
ENDBRANCH   3   4
ENDBRANCH   2   3
ENDBRANCH   1   2
BRANCH   1   7
ATOM      7  C   UNL     1       7.739 -30.072  14.561  1.00  0.00     0.000 C 
BRANCH   7   8
ATOM      8  C   UNL     1       9.208 -30.486  14.757  1.00  0.00    -0.000 C 
BRANCH   8   9
ATOM      9  C   UNL     1      10.188 -29.528  14.060  1.00  0.00    -0.003 C 
ATOM     10  C   UNL     1       9.811 -29.247  12.607  1.00  0.00     0.004 C 
ENDBRANCH   8   9
ENDBRANCH   7   8
ENDBRANCH   1   7
TORSDOF 6
ENDMDL
MODEL 4
REMARK VINA RESULT:    -3.166      2.937      4.789
REMARK INTER + INTRA:          -4.721
REMARK INTER:                  -4.274
REMARK INTRA:                  -0.447
REMARK UNBOUND:                -0.444
REMARK SMILES CCCCCCCC(=O)[O-]
REMARK SMILES IDX 5 1 6 2 7 3 8 4 9 5 10 6 4 7 3 8 2 9 1 10
REMARK H PARENT
REMARK Flexibility Score: inf
ROOT
ATOM      1  C   UNL     1       8.411 -30.704  14.454  1.00  0.00     0.000 C 
ENDROOT
BRANCH   1   2
ATOM      2  C   UNL     1       7.785 -30.165  15.752  1.00  0.00     0.006 C 
BRANCH   2   3
ATOM      3  C   UNL     1       8.823 -29.491  16.658  1.00  0.00     0.053 C 
BRANCH   3   4
ATOM      4  C   UNL     1       8.419 -29.534  18.101  1.00  0.00     0.041 C 
ATOM      5  O   UNL     1       7.420 -30.213  18.457  1.00  0.00    -0.550 OA
ATOM      6  O   UNL     1       9.126 -28.801  19.044  1.00  0.00    -0.550 OA
ENDBRANCH   3   4
ENDBRANCH   2   3
ENDBRANCH   1   2
BRANCH   1   7
ATOM      7  C   UNL     1       8.236 -29.741  13.268  1.00  0.00     0.000 C 
BRANCH   7   8
ATOM      8  C   UNL     1       9.576 -29.355  12.617  1.00  0.00    -0.000 C 
BRANCH   8   9
ATOM      9  C   UNL     1      10.787 -29.817  13.445  1.00  0.00    -0.003 C 
ATOM     10  C   UNL     1      11.516 -28.660  14.125  1.00  0.00     0.004 C 
ENDBRANCH   8   9
ENDBRANCH   7   8
ENDBRANCH   1   7
TORSDOF 6
ENDMDL
MODEL 5
REMARK VINA RESULT:    -3.038      3.014      5.178
REMARK INTER + INTRA:          -4.549
REMARK INTER:                  -4.269
REMARK INTRA:                  -0.280
REMARK UNBOUND:                -0.444
REMARK SMILES CCCCCCCC(=O)[O-]
REMARK SMILES IDX 5 1 6 2 7 3 8 4 9 5 10 6 4 7 3 8 2 9 1 10
REMARK H PARENT
REMARK Flexibility Score: inf
ROOT
ATOM      1  C   UNL     1       8.499 -29.871  14.571  1.00  0.00     0.000 C 
ENDROOT
BRANCH   1   2
ATOM      2  C   UNL     1       7.514 -29.865  15.753  1.00  0.00     0.006 C 
BRANCH   2   3
ATOM      3  C   UNL     1       8.127 -30.473  17.021  1.00  0.00     0.053 C 
BRANCH   3   4
ATOM      4  C   UNL     1       7.823 -29.654  18.238  1.00  0.00     0.041 C 
ATOM      5  O   UNL     1       6.631 -29.490  18.609  1.00  0.00    -0.550 OA
ATOM      6  O   UNL     1       8.854 -29.048  18.945  1.00  0.00    -0.550 OA
ENDBRANCH   3   4
ENDBRANCH   2   3
ENDBRANCH   1   2
BRANCH   1   7
ATOM      7  C   UNL     1       9.833 -29.186  14.908  1.00  0.00     0.000 C 
BRANCH   7   8
ATOM      8  C   UNL     1      10.829 -29.221  13.736  1.00  0.00    -0.000 C 
BRANCH   8   9
ATOM      9  C   UNL     1      10.466 -30.285  12.687  1.00  0.00    -0.003 C 
ATOM     10  C   UNL     1      11.323 -31.545  12.798  1.00  0.00     0.004 C 
ENDBRANCH   8   9
ENDBRANCH   7   8
ENDBRANCH   1   7
TORSDOF 6
ENDMDL
MODEL 6
REMARK VINA RESULT:    -3.033      2.692      5.012
REMARK INTER + INTRA:          -4.542
REMARK INTER:                  -4.212
REMARK INTRA:                  -0.330
REMARK UNBOUND:                -0.444
REMARK SMILES CCCCCCCC(=O)[O-]
REMARK SMILES IDX 5 1 6 2 7 3 8 4 9 5 10 6 4 7 3 8 2 9 1 10
REMARK H PARENT
REMARK Flexibility Score: inf
ROOT
ATOM      1  C   UNL     1       9.239 -30.771  14.886  1.00  0.00     0.000 C 
ENDROOT
BRANCH   1   2
ATOM      2  C   UNL     1       8.701 -29.538  15.634  1.00  0.00     0.006 C 
BRANCH   2   3
ATOM      3  C   UNL     1       8.480 -29.817  17.126  1.00  0.00     0.053 C 
BRANCH   3   4
ATOM      4  C   UNL     1       9.322 -28.930  17.992  1.00  0.00     0.041 C 
ATOM      5  O   UNL     1      10.114 -28.103  17.469  1.00  0.00    -0.550 OA
ATOM      6  O   UNL     1       9.254 -29.039  19.375  1.00  0.00    -0.550 OA
ENDBRANCH   3   4
ENDBRANCH   2   3
ENDBRANCH   1   2
BRANCH   1   7
ATOM      7  C   UNL     1      10.149 -30.397  13.705  1.00  0.00     0.000 C 
BRANCH   7   8
ATOM      8  C   UNL     1       9.512 -29.351  12.775  1.00  0.00    -0.000 C 
BRANCH   8   9
ATOM      9  C   UNL     1       8.419 -29.951  11.875  1.00  0.00    -0.003 C 
ATOM     10  C   UNL     1       7.014 -29.490  12.260  1.00  0.00     0.004 C 
ENDBRANCH   8   9
ENDBRANCH   7   8
ENDBRANCH   1   7
TORSDOF 6
ENDMDL
MODEL 7
REMARK VINA RESULT:    -2.887      1.228      2.615
REMARK INTER + INTRA:          -4.344
REMARK INTER:                  -3.894
REMARK INTRA:                  -0.450
REMARK UNBOUND:                -0.444
REMARK SMILES CCCCCCCC(=O)[O-]
REMARK SMILES IDX 5 1 6 2 7 3 8 4 9 5 10 6 4 7 3 8 2 9 1 10
REMARK H PARENT
REMARK Flexibility Score: inf
ROOT
ATOM      1  C   UNL     1       8.697 -29.989  17.261  1.00  0.00     0.000 C 
ENDROOT
BRANCH   1   2
ATOM      2  C   UNL     1       8.893 -29.225  15.940  1.00  0.00     0.006 C 
BRANCH   2   3
ATOM      3  C   UNL     1       9.454 -30.124  14.830  1.00  0.00     0.053 C 
BRANCH   3   4
ATOM      4  C   UNL     1      10.343 -29.365  13.892  1.00  0.00     0.041 C 
ATOM      5  O   UNL     1      10.117 -29.382  12.653  1.00  0.00    -0.550 OA
ATOM      6  O   UNL     1      11.437 -28.666  14.383  1.00  0.00    -0.550 OA
ENDBRANCH   3   4
ENDBRANCH   2   3
ENDBRANCH   1   2
BRANCH   1   7
ATOM      7  C   UNL     1       7.257 -29.896  17.791  1.00  0.00     0.000 C 
BRANCH   7   8
ATOM      8  C   UNL     1       6.242 -30.593  16.870  1.00  0.00    -0.000 C 
BRANCH   8   9
ATOM      9  C   UNL     1       6.591 -32.070  16.619  1.00  0.00    -0.003 C 
ATOM     10  C   UNL     1       6.308 -32.511  15.184  1.00  0.00     0.004 C 
ENDBRANCH   8   9
ENDBRANCH   7   8
ENDBRANCH   1   7
TORSDOF 6
ENDMDL
MODEL 8
REMARK VINA RESULT:    -2.869      1.422      2.078
REMARK INTER + INTRA:          -4.320
REMARK INTER:                  -4.035
REMARK INTRA:                  -0.286
REMARK UNBOUND:                -0.444
REMARK SMILES CCCCCCCC(=O)[O-]
REMARK SMILES IDX 5 1 6 2 7 3 8 4 9 5 10 6 4 7 3 8 2 9 1 10
REMARK H PARENT
REMARK Flexibility Score: inf
ROOT
ATOM      1  C   UNL     1       8.592 -29.852  15.379  1.00  0.00     0.000 C 
ENDROOT
BRANCH   1   2
ATOM      2  C   UNL     1       8.367 -30.096  13.877  1.00  0.00     0.006 C 
BRANCH   2   3
ATOM      3  C   UNL     1       9.386 -29.344  13.010  1.00  0.00     0.053 C 
BRANCH   3   4
ATOM      4  C   UNL     1      10.797 -29.702  13.367  1.00  0.00     0.041 C 
ATOM      5  O   UNL     1      11.540 -28.857  13.932  1.00  0.00    -0.550 OA
ATOM      6  O   UNL     1      11.298 -30.957  13.049  1.00  0.00    -0.550 OA
ENDBRANCH   3   4
ENDBRANCH   2   3
ENDBRANCH   1   2
BRANCH   1   7
ATOM      7  C   UNL     1       8.087 -31.014  16.250  1.00  0.00     0.000 C 
BRANCH   7   8
ATOM      8  C   UNL     1       6.551 -31.072  16.325  1.00  0.00    -0.000 C 
BRANCH   8   9
ATOM      9  C   UNL     1       5.934 -29.747  16.804  1.00  0.00    -0.003 C 
ATOM     10  C   UNL     1       6.355 -29.376  18.225  1.00  0.00     0.004 C 
ENDBRANCH   8   9
ENDBRANCH   7   8
ENDBRANCH   1   7
TORSDOF 6
ENDMDL
MODEL 9
REMARK VINA RESULT:    -2.846      3.032      5.237
REMARK INTER + INTRA:          -4.289
REMARK INTER:                  -3.839
REMARK INTRA:                  -0.450
REMARK UNBOUND:                -0.444
REMARK SMILES CCCCCCCC(=O)[O-]
REMARK SMILES IDX 5 1 6 2 7 3 8 4 9 5 10 6 4 7 3 8 2 9 1 10
REMARK H PARENT
REMARK Flexibility Score: inf
ROOT
ATOM      1  C   UNL     1       9.558 -30.378  14.398  1.00  0.00     0.000 C 
ENDROOT
BRANCH   1   2
ATOM      2  C   UNL     1       8.925 -29.507  15.497  1.00  0.00     0.006 C 
BRANCH   2   3
ATOM      3  C   UNL     1       7.412 -29.735  15.616  1.00  0.00     0.053 C 
BRANCH   3   4
ATOM      4  C   UNL     1       7.030 -30.262  16.966  1.00  0.00     0.041 C 
ATOM      5  O   UNL     1       7.105 -29.520  17.980  1.00  0.00    -0.550 OA
ATOM      6  O   UNL     1       6.622 -31.582  17.107  1.00  0.00    -0.550 OA
ENDBRANCH   3   4
ENDBRANCH   2   3
ENDBRANCH   1   2
BRANCH   1   7
ATOM      7  C   UNL     1       9.958 -29.566  13.156  1.00  0.00     0.000 C 
BRANCH   7   8
ATOM      8  C   UNL     1       9.180 -29.988  11.898  1.00  0.00    -0.000 C 
BRANCH   8   9
ATOM      9  C   UNL     1       7.748 -29.428  11.875  1.00  0.00    -0.003 C 
ATOM     10  C   UNL     1       6.683 -30.516  12.008  1.00  0.00     0.004 C 
ENDBRANCH   8   9
ENDBRANCH   7   8
ENDBRANCH   1   7
TORSDOF 6
ENDMDL
