MODEL 1
REMARK VINA RESULT:    -5.007      0.000      0.000
REMARK INTER + INTRA:          -6.415
REMARK INTER:                  -6.178
REMARK INTRA:                  -0.237
REMARK UNBOUND:                -0.237
REMARK SMILES CCCCC=CC(C)=O
REMARK SMILES IDX 4 1 3 2 2 3 1 4 5 5 6 6 7 7 9 8 8 9
REMARK H PARENT
REMARK Flexibility Score: inf
ROOT
ATOM      1  C   UNL     1       4.958  12.300  48.864  1.00  0.00     0.027 C 
ENDROOT
BRANCH   1   2
ATOM      2  C   UNL     1       5.870  13.466  48.464  1.00  0.00     0.004 C 
BRANCH   2   3
ATOM      3  C   UNL     1       5.636  13.868  47.003  1.00  0.00    -0.003 C 
ATOM      4  C   UNL     1       6.949  13.915  46.228  1.00  0.00     0.004 C 
ENDBRANCH   2   3
ENDBRANCH   1   2
BRANCH   1   5
ATOM      5  C   UNL     1       4.165  11.801  47.690  1.00  0.00    -0.023 C 
ATOM      6  C   UNL     1       2.950  11.264  47.844  1.00  0.00     0.042 C 
BRANCH   6   7
ATOM      7  C   UNL     1       2.150  10.781  46.704  1.00  0.00     0.152 C 
ATOM      8  O   UNL     1       0.894  10.903  46.698  1.00  0.00    -0.295 OA
ATOM      9  C   UNL     1       2.833  10.140  45.539  1.00  0.00     0.093 C 
ENDBRANCH   6   7
ENDBRANCH   1   5
TORSDOF 4
ENDMDL
MODEL 2
REMARK VINA RESULT:    -4.813      1.993      3.209
REMARK INTER + INTRA:          -6.175
REMARK INTER:                  -5.955
REMARK INTRA:                  -0.220
REMARK UNBOUND:                -0.237
REMARK SMILES CCCCC=CC(C)=O
REMARK SMILES IDX 4 1 3 2 2 3 1 4 5 5 6 6 7 7 9 8 8 9
REMARK H PARENT
REMARK Flexibility Score: inf
ROOT
ATOM      1  C   UNL     1       3.021  10.462  45.891  1.00  0.00     0.027 C 
ENDROOT
BRANCH   1   2
ATOM      2  C   UNL     1       3.903  11.127  46.956  1.00  0.00     0.004 C 
BRANCH   2   3
ATOM      3  C   UNL     1       3.568  12.617  47.093  1.00  0.00    -0.003 C 
ATOM      4  C   UNL     1       4.829  13.446  47.318  1.00  0.00     0.004 C 
ENDBRANCH   2   3
ENDBRANCH   1   2
BRANCH   1   5
ATOM      5  C   UNL     1       1.623  11.011  45.922  1.00  0.00    -0.023 C 
ATOM      6  C   UNL     1       0.625  10.346  46.514  1.00  0.00     0.042 C 
BRANCH   6   7
ATOM      7  C   UNL     1      -0.751  10.873  46.568  1.00  0.00     0.152 C 
ATOM      8  O   UNL     1      -1.656  10.254  47.191  1.00  0.00    -0.295 OA
ATOM      9  C   UNL     1      -1.079  12.158  45.878  1.00  0.00     0.093 C 
ENDBRANCH   6   7
ENDBRANCH   1   5
TORSDOF 4
ENDMDL
MODEL 3
REMARK VINA RESULT:    -4.803      2.267      5.073
REMARK INTER + INTRA:          -6.163
REMARK INTER:                  -5.998
REMARK INTRA:                  -0.165
REMARK UNBOUND:                -0.237
REMARK SMILES CCCCC=CC(C)=O
REMARK SMILES IDX 4 1 3 2 2 3 1 4 5 5 6 6 7 7 9 8 8 9
REMARK H PARENT
REMARK Flexibility Score: inf
ROOT
ATOM      1  C   UNL     1       2.550  10.301  45.856  1.00  0.00     0.027 C 
ENDROOT
BRANCH   1   2
ATOM      2  C   UNL     1       1.327  11.224  45.912  1.00  0.00     0.004 C 
BRANCH   2   3
ATOM      3  C   UNL     1       0.116  10.495  46.506  1.00  0.00    -0.003 C 
ATOM      4  C   UNL     1      -1.171  11.281  46.270  1.00  0.00     0.004 C 
ENDBRANCH   2   3
ENDBRANCH   1   2
BRANCH   1   5
ATOM      5  C   UNL     1       3.688  10.856  46.665  1.00  0.00    -0.023 C 
ATOM      6  C   UNL     1       3.732  12.147  47.014  1.00  0.00     0.042 C 
BRANCH   6   7
ATOM      7  C   UNL     1       4.832  12.709  47.819  1.00  0.00     0.152 C 
ATOM      8  O   UNL     1       5.106  12.238  48.957  1.00  0.00    -0.295 OA
ATOM      9  C   UNL     1       5.636  13.849  47.281  1.00  0.00     0.093 C 
ENDBRANCH   6   7
ENDBRANCH   1   5
TORSDOF 4
ENDMDL
MODEL 4
REMARK VINA RESULT:    -4.683      1.634      1.797
REMARK INTER + INTRA:          -6.015
REMARK INTER:                  -5.826
REMARK INTRA:                  -0.188
REMARK UNBOUND:                -0.237
REMARK SMILES CCCCC=CC(C)=O
REMARK SMILES IDX 4 1 3 2 2 3 1 4 5 5 6 6 7 7 9 8 8 9
REMARK H PARENT
REMARK Flexibility Score: inf
ROOT
ATOM      1  C   UNL     1       4.811  12.494  47.833  1.00  0.00     0.027 C 
ENDROOT
BRANCH   1   2
ATOM      2  C   UNL     1       5.233  13.908  47.415  1.00  0.00     0.004 C 
BRANCH   2   3
ATOM      3  C   UNL     1       6.536  13.875  46.607  1.00  0.00    -0.003 C 
ATOM      4  C   UNL     1       7.747  14.114  47.504  1.00  0.00     0.004 C 
ENDBRANCH   2   3
ENDBRANCH   1   2
BRANCH   1   5
ATOM      5  C   UNL     1       3.529  12.089  47.163  1.00  0.00    -0.023 C 
ATOM      6  C   UNL     1       2.688  12.998  46.656  1.00  0.00     0.042 C 
BRANCH   6   7
ATOM      7  C   UNL     1       1.432  12.621  45.984  1.00  0.00     0.152 C 
ATOM      8  O   UNL     1       0.746  13.482  45.367  1.00  0.00    -0.295 OA
ATOM      9  C   UNL     1       0.964  11.202  46.029  1.00  0.00     0.093 C 
ENDBRANCH   6   7
ENDBRANCH   1   5
TORSDOF 4
ENDMDL
MODEL 5
REMARK VINA RESULT:    -4.641      2.426      4.621
REMARK INTER + INTRA:          -5.964
REMARK INTER:                  -5.698
REMARK INTRA:                  -0.266
REMARK UNBOUND:                -0.237
REMARK SMILES CCCCC=CC(C)=O
REMARK SMILES IDX 4 1 3 2 2 3 1 4 5 5 6 6 7 7 9 8 8 9
REMARK H PARENT
REMARK Flexibility Score: inf
ROOT
ATOM      1  C   UNL     1       2.714  11.244  47.740  1.00  0.00     0.027 C 
ENDROOT
BRANCH   1   2
ATOM      2  C   UNL     1       2.424  10.949  46.263  1.00  0.00     0.004 C 
BRANCH   2   3
ATOM      3  C   UNL     1       1.030  11.451  45.867  1.00  0.00    -0.003 C 
ATOM      4  C   UNL     1       1.041  12.954  45.601  1.00  0.00     0.004 C 
ENDBRANCH   2   3
ENDBRANCH   1   2
BRANCH   1   5
ATOM      5  C   UNL     1       4.091  11.818  47.919  1.00  0.00    -0.023 C 
ATOM      6  C   UNL     1       4.441  12.980  47.357  1.00  0.00     0.042 C 
BRANCH   6   7
ATOM      7  C   UNL     1       5.782  13.568  47.532  1.00  0.00     0.152 C 
ATOM      8  O   UNL     1       6.257  13.763  48.684  1.00  0.00    -0.295 OA
ATOM      9  C   UNL     1       6.592  13.935  46.330  1.00  0.00     0.093 C 
ENDBRANCH   6   7
ENDBRANCH   1   5
TORSDOF 4
ENDMDL
MODEL 6
REMARK VINA RESULT:    -4.608      2.467      4.889
REMARK INTER + INTRA:          -5.923
REMARK INTER:                  -5.803
REMARK INTRA:                  -0.120
REMARK UNBOUND:                -0.237
REMARK SMILES CCCCC=CC(C)=O
REMARK SMILES IDX 4 1 3 2 2 3 1 4 5 5 6 6 7 7 9 8 8 9
REMARK H PARENT
REMARK Flexibility Score: inf
ROOT
ATOM      1  C   UNL     1       3.331  12.148  47.677  1.00  0.00     0.027 C 
ENDROOT
BRANCH   1   2
ATOM      2  C   UNL     1       2.257  12.364  46.604  1.00  0.00     0.004 C 
BRANCH   2   3
ATOM      3  C   UNL     1       1.574  11.040  46.237  1.00  0.00    -0.003 C 
ATOM      4  C   UNL     1       2.534  10.112  45.500  1.00  0.00     0.004 C 
ENDBRANCH   2   3
ENDBRANCH   1   2
BRANCH   1   5
ATOM      5  C   UNL     1       4.705  12.412  47.131  1.00  0.00    -0.023 C 
ATOM      6  C   UNL     1       5.307  13.596  47.296  1.00  0.00     0.042 C 
BRANCH   6   7
ATOM      7  C   UNL     1       6.660  13.871  46.781  1.00  0.00     0.152 C 
ATOM      8  O   UNL     1       6.895  13.857  45.541  1.00  0.00    -0.295 OA
ATOM      9  C   UNL     1       7.769  14.174  47.736  1.00  0.00     0.093 C 
ENDBRANCH   6   7
ENDBRANCH   1   5
TORSDOF 4
ENDMDL
MODEL 7
REMARK VINA RESULT:    -4.443      3.201      4.301
REMARK INTER + INTRA:          -5.719
REMARK INTER:                  -5.439
REMARK INTRA:                  -0.280
REMARK UNBOUND:                -0.237
REMARK SMILES CCCCC=CC(C)=O
REMARK SMILES IDX 4 1 3 2 2 3 1 4 5 5 6 6 7 7 9 8 8 9
REMARK H PARENT
REMARK Flexibility Score: inf
ROOT
ATOM      1  C   UNL     1       3.597  13.202  46.958  1.00  0.00     0.027 C 
ENDROOT
BRANCH   1   2
ATOM      2  C   UNL     1       3.192  11.776  47.351  1.00  0.00     0.004 C 
BRANCH   2   3
ATOM      3  C   UNL     1       3.721  10.756  46.336  1.00  0.00    -0.003 C 
ATOM      4  C   UNL     1       2.581  10.129  45.539  1.00  0.00     0.004 C 
ENDBRANCH   2   3
ENDBRANCH   1   2
BRANCH   1   5
ATOM      5  C   UNL     1       2.399  14.105  46.878  1.00  0.00    -0.023 C 
ATOM      6  C   UNL     1       1.362  13.821  46.082  1.00  0.00     0.042 C 
BRANCH   6   7
ATOM      7  C   UNL     1       0.171  14.687  45.999  1.00  0.00     0.152 C 
ATOM      8  O   UNL     1      -0.667  14.544  45.067  1.00  0.00    -0.295 OA
ATOM      9  C   UNL     1      -0.049  15.744  47.033  1.00  0.00     0.093 C 
ENDBRANCH   6   7
ENDBRANCH   1   5
TORSDOF 4
ENDMDL
MODEL 8
REMARK VINA RESULT:    -4.328      2.406      3.583
REMARK INTER + INTRA:          -5.576
REMARK INTER:                  -5.396
REMARK INTRA:                  -0.180
REMARK UNBOUND:                -0.237
REMARK SMILES CCCCC=CC(C)=O
REMARK SMILES IDX 4 1 3 2 2 3 1 4 5 5 6 6 7 7 9 8 8 9
REMARK H PARENT
REMARK Flexibility Score: inf
ROOT
ATOM      1  C   UNL     1       2.651  10.436  45.882  1.00  0.00     0.027 C 
ENDROOT
BRANCH   1   2
ATOM      2  C   UNL     1       3.978  10.860  46.523  1.00  0.00     0.004 C 
BRANCH   2   3
ATOM      3  C   UNL     1       3.751  11.925  47.602  1.00  0.00    -0.003 C 
ATOM      4  C   UNL     1       4.654  13.134  47.381  1.00  0.00     0.004 C 
ENDBRANCH   2   3
ENDBRANCH   1   2
BRANCH   1   5
ATOM      5  C   UNL     1       1.534  11.356  46.285  1.00  0.00    -0.023 C 
ATOM      6  C   UNL     1       1.000  12.227  45.421  1.00  0.00     0.042 C 
BRANCH   6   7
ATOM      7  C   UNL     1      -0.106  13.129  45.793  1.00  0.00     0.152 C 
ATOM      8  O   UNL     1       0.123  14.315  46.157  1.00  0.00    -0.295 OA
ATOM      9  C   UNL     1      -1.515  12.635  45.735  1.00  0.00     0.093 C 
ENDBRANCH   6   7
ENDBRANCH   1   5
TORSDOF 4
ENDMDL
MODEL 9
REMARK VINA RESULT:    -4.195      3.216      5.149
REMARK INTER + INTRA:          -5.413
REMARK INTER:                  -5.148
REMARK INTRA:                  -0.265
REMARK UNBOUND:                -0.237
REMARK SMILES CCCCC=CC(C)=O
REMARK SMILES IDX 4 1 3 2 2 3 1 4 5 5 6 6 7 7 9 8 8 9
REMARK H PARENT
REMARK Flexibility Score: inf
ROOT
ATOM      1  C   UNL     1       0.976  14.200  45.529  1.00  0.00     0.027 C 
ENDROOT
BRANCH   1   2
ATOM      2  C   UNL     1      -0.365  14.335  46.261  1.00  0.00     0.004 C 
BRANCH   2   3
ATOM      3  C   UNL     1      -1.491  13.657  45.472  1.00  0.00    -0.003 C 
ATOM      4  C   UNL     1      -1.615  12.183  45.844  1.00  0.00     0.004 C 
ENDBRANCH   2   3
ENDBRANCH   1   2
BRANCH   1   5
ATOM      5  C   UNL     1       1.965  13.415  46.343  1.00  0.00    -0.023 C 
ATOM      6  C   UNL     1       2.029  12.081  46.267  1.00  0.00     0.042 C 
BRANCH   6   7
ATOM      7  C   UNL     1       3.000  11.292  47.047  1.00  0.00     0.152 C 
ATOM      8  O   UNL     1       3.951  10.691  46.476  1.00  0.00    -0.295 OA
ATOM      9  C   UNL     1       2.860  11.206  48.533  1.00  0.00     0.093 C 
ENDBRANCH   6   7
ENDBRANCH   1   5
TORSDOF 4
ENDMDL
