MODEL 1
REMARK VINA RESULT:    -3.723      0.000      0.000
REMARK INTER + INTRA:          -9.066
REMARK INTER:                  -6.770
REMARK INTRA:                  -2.296
REMARK UNBOUND:                -2.296
REMARK SMILES CCCCCCCCCCCCCCCC(=O)[O-]
REMARK SMILES IDX 9 1 10 2 11 3 12 4 13 5 14 6 15 7 16 8 17 9 18 10 8 11 7 12
REMARK SMILES IDX 6 13 5 14 4 15 3 16 2 17 1 18
REMARK H PARENT
REMARK Flexibility Score: inf
ROOT
ATOM      1  C   UNL     1       4.013   0.748  -5.997  1.00  0.00     0.000 C 
ENDROOT
BRANCH   1   2
ATOM      2  C   UNL     1       5.248   0.860  -5.094  1.00  0.00     0.000 C 
BRANCH   2   3
ATOM      3  C   UNL     1       6.282  -0.217  -5.439  1.00  0.00     0.000 C 
BRANCH   3   4
ATOM      4  C   UNL     1       5.599  -1.541  -5.805  1.00  0.00     0.000 C 
BRANCH   4   5
ATOM      5  C   UNL     1       6.256  -2.175  -7.041  1.00  0.00     0.000 C 
BRANCH   5   6
ATOM      6  C   UNL     1       6.085  -3.704  -7.088  1.00  0.00     0.006 C 
BRANCH   6   7
ATOM      7  C   UNL     1       5.815  -4.354  -5.721  1.00  0.00     0.053 C 
BRANCH   7   8
ATOM      8  C   UNL     1       7.064  -4.912  -5.111  1.00  0.00     0.041 C 
ATOM      9  O   UNL     1       7.111  -5.160  -3.877  1.00  0.00    -0.550 OA
ATOM     10  O   UNL     1       8.188  -5.127  -5.900  1.00  0.00    -0.550 OA
ENDBRANCH   7   8
ENDBRANCH   6   7
ENDBRANCH   5   6
ENDBRANCH   4   5
ENDBRANCH   3   4
ENDBRANCH   2   3
ENDBRANCH   1   2
BRANCH   1  11
ATOM     11  C   UNL     1       4.182   1.597  -7.267  1.00  0.00     0.000 C 
BRANCH  11  12
ATOM     12  C   UNL     1       4.195   0.750  -8.550  1.00  0.00    -0.000 C 
BRANCH  12  13
ATOM     13  C   UNL     1       5.550   0.796  -9.276  1.00  0.00    -0.000 C 
BRANCH  13  14
ATOM     14  C   UNL     1       6.517   1.821  -8.658  1.00  0.00    -0.000 C 
BRANCH  14  15
ATOM     15  C   UNL     1       7.938   1.265  -8.484  1.00  0.00    -0.000 C 
BRANCH  15  16
ATOM     16  C   UNL     1       8.605   1.851  -7.229  1.00  0.00    -0.000 C 
BRANCH  16  17
ATOM     17  C   UNL     1       9.733   0.957  -6.688  1.00  0.00    -0.003 C 
ATOM     18  C   UNL     1       9.600  -0.499  -7.134  1.00  0.00     0.004 C 
ENDBRANCH  16  17
ENDBRANCH  15  16
ENDBRANCH  14  15
ENDBRANCH  13  14
ENDBRANCH  12  13
ENDBRANCH  11  12
ENDBRANCH   1  11
TORSDOF 14
ENDMDL
MODEL 2
REMARK VINA RESULT:    -3.544      1.200      3.368
REMARK INTER + INTRA:          -8.741
REMARK INTER:                  -6.562
REMARK INTRA:                  -2.179
REMARK UNBOUND:                -2.296
REMARK SMILES CCCCCCCCCCCCCCCC(=O)[O-]
REMARK SMILES IDX 9 1 10 2 11 3 12 4 13 5 14 6 15 7 16 8 17 9 18 10 8 11 7 12
REMARK SMILES IDX 6 13 5 14 4 15 3 16 2 17 1 18
REMARK H PARENT
REMARK Flexibility Score: inf
ROOT
ATOM      1  C   UNL     1       7.868   0.111  -7.280  1.00  0.00     0.000 C 
ENDROOT
BRANCH   1   2
ATOM      2  C   UNL     1       8.527  -0.666  -8.425  1.00  0.00     0.000 C 
BRANCH   2   3
ATOM      3  C   UNL     1       7.528  -1.619  -9.092  1.00  0.00     0.000 C 
BRANCH   3   4
ATOM      4  C   UNL     1       6.127  -1.459  -8.489  1.00  0.00     0.000 C 
BRANCH   4   5
ATOM      5  C   UNL     1       5.524  -2.825  -8.128  1.00  0.00     0.000 C 
BRANCH   5   6
ATOM      6  C   UNL     1       6.505  -3.725  -7.355  1.00  0.00     0.006 C 
BRANCH   6   7
ATOM      7  C   UNL     1       6.112  -3.981  -5.892  1.00  0.00     0.053 C 
BRANCH   7   8
ATOM      8  C   UNL     1       7.131  -4.812  -5.176  1.00  0.00     0.041 C 
ATOM      9  O   UNL     1       7.052  -4.978  -3.930  1.00  0.00    -0.550 OA
ATOM     10  O   UNL     1       8.188  -5.377  -5.880  1.00  0.00    -0.550 OA
ENDBRANCH   7   8
ENDBRANCH   6   7
ENDBRANCH   5   6
ENDBRANCH   4   5
ENDBRANCH   3   4
ENDBRANCH   2   3
ENDBRANCH   1   2
BRANCH   1  11
ATOM     11  C   UNL     1       8.452   1.528  -7.169  1.00  0.00     0.000 C 
BRANCH  11  12
ATOM     12  C   UNL     1       7.372   2.620  -7.202  1.00  0.00    -0.000 C 
BRANCH  12  13
ATOM     13  C   UNL     1       6.294   2.353  -8.267  1.00  0.00    -0.000 C 
BRANCH  13  14
ATOM     14  C   UNL     1       4.917   2.910  -7.868  1.00  0.00    -0.000 C 
BRANCH  14  15
ATOM     15  C   UNL     1       4.404   2.329  -6.542  1.00  0.00    -0.000 C 
BRANCH  15  16
ATOM     16  C   UNL     1       4.097   0.829  -6.684  1.00  0.00    -0.000 C 
BRANCH  16  17
ATOM     17  C   UNL     1       4.499   0.024  -5.439  1.00  0.00    -0.003 C 
ATOM     18  C   UNL     1       5.501   0.764  -4.552  1.00  0.00     0.004 C 
ENDBRANCH  16  17
ENDBRANCH  15  16
ENDBRANCH  14  15
ENDBRANCH  13  14
ENDBRANCH  12  13
ENDBRANCH  11  12
ENDBRANCH   1  11
TORSDOF 14
ENDMDL
MODEL 3
REMARK VINA RESULT:    -3.519      1.640      3.380
REMARK INTER + INTRA:          -8.695
REMARK INTER:                  -6.659
REMARK INTRA:                  -2.036
REMARK UNBOUND:                -2.296
REMARK SMILES CCCCCCCCCCCCCCCC(=O)[O-]
REMARK SMILES IDX 9 1 10 2 11 3 12 4 13 5 14 6 15 7 16 8 17 9 18 10 8 11 7 12
REMARK SMILES IDX 6 13 5 14 4 15 3 16 2 17 1 18
REMARK H PARENT
REMARK Flexibility Score: inf
ROOT
ATOM      1  C   UNL     1       6.955  -0.515  -6.364  1.00  0.00     0.000 C 
ENDROOT
BRANCH   1   2
ATOM      2  C   UNL     1       6.823  -0.986  -7.817  1.00  0.00     0.000 C 
BRANCH   2   3
ATOM      3  C   UNL     1       5.402  -1.481  -8.109  1.00  0.00     0.000 C 
BRANCH   3   4
ATOM      4  C   UNL     1       5.427  -2.813  -8.868  1.00  0.00     0.000 C 
BRANCH   4   5
ATOM      5  C   UNL     1       6.248  -3.865  -8.106  1.00  0.00     0.000 C 
BRANCH   5   6
ATOM      6  C   UNL     1       5.536  -4.378  -6.842  1.00  0.00     0.006 C 
BRANCH   6   7
ATOM      7  C   UNL     1       6.290  -4.100  -5.532  1.00  0.00     0.053 C 
BRANCH   7   8
ATOM      8  C   UNL     1       7.100  -5.280  -5.092  1.00  0.00     0.041 C 
ATOM      9  O   UNL     1       7.492  -6.130  -5.934  1.00  0.00    -0.550 OA
ATOM     10  O   UNL     1       7.394  -5.458  -3.745  1.00  0.00    -0.550 OA
ENDBRANCH   7   8
ENDBRANCH   6   7
ENDBRANCH   5   6
ENDBRANCH   4   5
ENDBRANCH   3   4
ENDBRANCH   2   3
ENDBRANCH   1   2
BRANCH   1  11
ATOM     11  C   UNL     1       5.599  -0.568  -5.643  1.00  0.00     0.000 C 
BRANCH  11  12
ATOM     12  C   UNL     1       5.269   0.738  -4.902  1.00  0.00    -0.000 C 
BRANCH  12  13
ATOM     13  C   UNL     1       5.161   1.944  -5.851  1.00  0.00    -0.000 C 
BRANCH  13  14
ATOM     14  C   UNL     1       3.900   1.892  -6.731  1.00  0.00    -0.000 C 
BRANCH  14  15
ATOM     15  C   UNL     1       4.214   2.053  -8.226  1.00  0.00    -0.000 C 
BRANCH  15  16
ATOM     16  C   UNL     1       5.695   2.407  -8.440  1.00  0.00    -0.000 C 
BRANCH  16  17
ATOM     17  C   UNL     1       5.883   3.783  -9.099  1.00  0.00    -0.003 C 
ATOM     18  C   UNL     1       5.845   4.932  -8.091  1.00  0.00     0.004 C 
ENDBRANCH  16  17
ENDBRANCH  15  16
ENDBRANCH  14  15
ENDBRANCH  13  14
ENDBRANCH  12  13
ENDBRANCH  11  12
ENDBRANCH   1  11
TORSDOF 14
ENDMDL
MODEL 4
REMARK VINA RESULT:    -3.466      1.439      3.697
REMARK INTER + INTRA:          -8.598
REMARK INTER:                  -6.596
REMARK INTRA:                  -2.002
REMARK UNBOUND:                -2.296
REMARK SMILES CCCCCCCCCCCCCCCC(=O)[O-]
REMARK SMILES IDX 9 1 10 2 11 3 12 4 13 5 14 6 15 7 16 8 17 9 18 10 8 11 7 12
REMARK SMILES IDX 6 13 5 14 4 15 3 16 2 17 1 18
REMARK H PARENT
REMARK Flexibility Score: inf
ROOT
ATOM      1  C   UNL     1       7.302   0.341  -8.705  1.00  0.00     0.000 C 
ENDROOT
BRANCH   1   2
ATOM      2  C   UNL     1       5.954  -0.362  -8.911  1.00  0.00     0.000 C 
BRANCH   2   3
ATOM      3  C   UNL     1       6.094  -1.557  -9.860  1.00  0.00     0.000 C 
BRANCH   3   4
ATOM      4  C   UNL     1       5.595  -2.847  -9.199  1.00  0.00     0.000 C 
BRANCH   4   5
ATOM      5  C   UNL     1       6.622  -3.382  -8.188  1.00  0.00     0.000 C 
BRANCH   5   6
ATOM      6  C   UNL     1       6.072  -4.537  -7.333  1.00  0.00     0.006 C 
BRANCH   6   7
ATOM      7  C   UNL     1       5.626  -4.124  -5.921  1.00  0.00     0.053 C 
BRANCH   7   8
ATOM      8  C   UNL     1       6.770  -4.112  -4.955  1.00  0.00     0.041 C 
ATOM      9  O   UNL     1       7.457  -3.068  -4.798  1.00  0.00    -0.550 OA
ATOM     10  O   UNL     1       7.098  -5.264  -4.250  1.00  0.00    -0.550 OA
ENDBRANCH   7   8
ENDBRANCH   6   7
ENDBRANCH   5   6
ENDBRANCH   4   5
ENDBRANCH   3   4
ENDBRANCH   2   3
ENDBRANCH   1   2
BRANCH   1  11
ATOM     11  C   UNL     1       7.607   0.518  -7.209  1.00  0.00     0.000 C 
BRANCH  11  12
ATOM     12  C   UNL     1       6.786  -0.428  -6.319  1.00  0.00    -0.000 C 
BRANCH  12  13
ATOM     13  C   UNL     1       5.960   0.323  -5.261  1.00  0.00    -0.000 C 
BRANCH  13  14
ATOM     14  C   UNL     1       4.449   0.074  -5.404  1.00  0.00    -0.000 C 
BRANCH  14  15
ATOM     15  C   UNL     1       3.791   0.996  -6.441  1.00  0.00    -0.000 C 
BRANCH  15  16
ATOM     16  C   UNL     1       4.414   2.400  -6.399  1.00  0.00    -0.000 C 
BRANCH  16  17
ATOM     17  C   UNL     1       4.725   2.951  -7.799  1.00  0.00    -0.003 C 
ATOM     18  C   UNL     1       5.989   3.811  -7.830  1.00  0.00     0.004 C 
ENDBRANCH  16  17
ENDBRANCH  15  16
ENDBRANCH  14  15
ENDBRANCH  13  14
ENDBRANCH  12  13
ENDBRANCH  11  12
ENDBRANCH   1  11
TORSDOF 14
ENDMDL
MODEL 5
REMARK VINA RESULT:    -3.423      1.332      2.387
REMARK INTER + INTRA:          -8.520
REMARK INTER:                  -6.620
REMARK INTRA:                  -1.900
REMARK UNBOUND:                -2.296
REMARK SMILES CCCCCCCCCCCCCCCC(=O)[O-]
REMARK SMILES IDX 9 1 10 2 11 3 12 4 13 5 14 6 15 7 16 8 17 9 18 10 8 11 7 12
REMARK SMILES IDX 6 13 5 14 4 15 3 16 2 17 1 18
REMARK H PARENT
REMARK Flexibility Score: inf
ROOT
ATOM      1  C   UNL     1       5.864  -0.855  -5.621  1.00  0.00     0.000 C 
ENDROOT
BRANCH   1   2
ATOM      2  C   UNL     1       5.381  -1.218  -7.030  1.00  0.00     0.000 C 
BRANCH   2   3
ATOM      3  C   UNL     1       6.402  -2.104  -7.753  1.00  0.00     0.000 C 
BRANCH   3   4
ATOM      4  C   UNL     1       5.737  -3.367  -8.313  1.00  0.00     0.000 C 
BRANCH   4   5
ATOM      5  C   UNL     1       6.704  -4.559  -8.280  1.00  0.00     0.000 C 
BRANCH   5   6
ATOM      6  C   UNL     1       7.760  -4.440  -7.166  1.00  0.00     0.006 C 
BRANCH   6   7
ATOM      7  C   UNL     1       7.730  -5.585  -6.140  1.00  0.00     0.053 C 
BRANCH   7   8
ATOM      8  C   UNL     1       7.057  -5.177  -4.867  1.00  0.00     0.041 C 
ATOM      9  O   UNL     1       7.427  -5.669  -3.768  1.00  0.00    -0.550 OA
ATOM     10  O   UNL     1       5.999  -4.277  -4.896  1.00  0.00    -0.550 OA
ENDBRANCH   7   8
ENDBRANCH   6   7
ENDBRANCH   5   6
ENDBRANCH   4   5
ENDBRANCH   3   4
ENDBRANCH   2   3
ENDBRANCH   1   2
BRANCH   1  11
ATOM     11  C   UNL     1       5.107   0.368  -5.078  1.00  0.00     0.000 C 
BRANCH  11  12
ATOM     12  C   UNL     1       4.164   0.992  -6.118  1.00  0.00    -0.000 C 
BRANCH  12  13
ATOM     13  C   UNL     1       4.501   2.464  -6.413  1.00  0.00    -0.000 C 
BRANCH  13  14
ATOM     14  C   UNL     1       4.895   2.697  -7.881  1.00  0.00    -0.000 C 
BRANCH  14  15
ATOM     15  C   UNL     1       6.244   3.419  -8.026  1.00  0.00    -0.000 C 
BRANCH  15  16
ATOM     16  C   UNL     1       7.330   2.721  -7.191  1.00  0.00    -0.000 C 
BRANCH  16  17
ATOM     17  C   UNL     1       7.802   1.401  -7.821  1.00  0.00    -0.003 C 
ATOM     18  C   UNL     1       9.037   0.823  -7.129  1.00  0.00     0.004 C 
ENDBRANCH  16  17
ENDBRANCH  15  16
ENDBRANCH  14  15
ENDBRANCH  13  14
ENDBRANCH  12  13
ENDBRANCH  11  12
ENDBRANCH   1  11
TORSDOF 14
ENDMDL
MODEL 6
REMARK VINA RESULT:    -3.417      1.324      3.191
REMARK INTER + INTRA:          -8.509
REMARK INTER:                  -6.102
REMARK INTRA:                  -2.407
REMARK UNBOUND:                -2.296
REMARK SMILES CCCCCCCCCCCCCCCC(=O)[O-]
REMARK SMILES IDX 9 1 10 2 11 3 12 4 13 5 14 6 15 7 16 8 17 9 18 10 8 11 7 12
REMARK SMILES IDX 6 13 5 14 4 15 3 16 2 17 1 18
REMARK H PARENT
REMARK Flexibility Score: inf
ROOT
ATOM      1  C   UNL     1       8.349   0.721  -6.987  1.00  0.00     0.000 C 
ENDROOT
BRANCH   1   2
ATOM      2  C   UNL     1       7.567  -0.520  -6.541  1.00  0.00     0.000 C 
BRANCH   2   3
ATOM      3  C   UNL     1       6.386  -0.134  -5.643  1.00  0.00     0.000 C 
BRANCH   3   4
ATOM      4  C   UNL     1       5.310  -1.226  -5.648  1.00  0.00     0.000 C 
BRANCH   4   5
ATOM      5  C   UNL     1       5.817  -2.495  -6.351  1.00  0.00     0.000 C 
BRANCH   5   6
ATOM      6  C   UNL     1       5.538  -3.776  -5.544  1.00  0.00     0.006 C 
BRANCH   6   7
ATOM      7  C   UNL     1       6.799  -4.477  -5.012  1.00  0.00     0.053 C 
BRANCH   7   8
ATOM      8  C   UNL     1       7.489  -5.270  -6.078  1.00  0.00     0.041 C 
ATOM      9  O   UNL     1       8.678  -5.653  -5.915  1.00  0.00    -0.550 OA
ATOM     10  O   UNL     1       6.830  -5.559  -7.267  1.00  0.00    -0.550 OA
ENDBRANCH   7   8
ENDBRANCH   6   7
ENDBRANCH   5   6
ENDBRANCH   4   5
ENDBRANCH   3   4
ENDBRANCH   2   3
ENDBRANCH   1   2
BRANCH   1  11
ATOM     11  C   UNL     1       8.031   1.075  -8.449  1.00  0.00     0.000 C 
BRANCH  11  12
ATOM     12  C   UNL     1       7.466  -0.116  -9.238  1.00  0.00    -0.000 C 
BRANCH  12  13
ATOM     13  C   UNL     1       6.177   0.238 -10.000  1.00  0.00    -0.000 C 
BRANCH  13  14
ATOM     14  C   UNL     1       4.949  -0.522  -9.470  1.00  0.00    -0.000 C 
BRANCH  14  15
ATOM     15  C   UNL     1       4.031   0.359  -8.610  1.00  0.00    -0.000 C 
BRANCH  15  16
ATOM     16  C   UNL     1       4.387   1.845  -8.777  1.00  0.00    -0.000 C 
BRANCH  16  17
ATOM     17  C   UNL     1       4.689   2.533  -7.436  1.00  0.00    -0.003 C 
ATOM     18  C   UNL     1       5.626   3.733  -7.585  1.00  0.00     0.004 C 
ENDBRANCH  16  17
ENDBRANCH  15  16
ENDBRANCH  14  15
ENDBRANCH  13  14
ENDBRANCH  12  13
ENDBRANCH  11  12
ENDBRANCH   1  11
TORSDOF 14
ENDMDL
MODEL 7
REMARK VINA RESULT:    -3.322      1.345      3.486
REMARK INTER + INTRA:          -8.337
REMARK INTER:                  -6.077
REMARK INTRA:                  -2.260
REMARK UNBOUND:                -2.296
REMARK SMILES CCCCCCCCCCCCCCCC(=O)[O-]
REMARK SMILES IDX 9 1 10 2 11 3 12 4 13 5 14 6 15 7 16 8 17 9 18 10 8 11 7 12
REMARK SMILES IDX 6 13 5 14 4 15 3 16 2 17 1 18
REMARK H PARENT
REMARK Flexibility Score: inf
ROOT
ATOM      1  C   UNL     1       7.729   1.663  -6.757  1.00  0.00     0.000 C 
ENDROOT
BRANCH   1   2
ATOM      2  C   UNL     1       8.036   0.167  -6.900  1.00  0.00     0.000 C 
BRANCH   2   3
ATOM      3  C   UNL     1       7.491  -0.384  -8.222  1.00  0.00     0.000 C 
BRANCH   3   4
ATOM      4  C   UNL     1       6.819  -1.746  -8.017  1.00  0.00     0.000 C 
BRANCH   4   5
ATOM      5  C   UNL     1       7.309  -2.412  -6.721  1.00  0.00     0.000 C 
BRANCH   5   6
ATOM      6  C   UNL     1       6.171  -3.077  -5.925  1.00  0.00     0.006 C 
BRANCH   6   7
ATOM      7  C   UNL     1       6.534  -4.444  -5.324  1.00  0.00     0.053 C 
BRANCH   7   8
ATOM      8  C   UNL     1       7.376  -5.259  -6.256  1.00  0.00     0.041 C 
ATOM      9  O   UNL     1       6.915  -5.627  -7.369  1.00  0.00    -0.550 OA
ATOM     10  O   UNL     1       8.658  -5.641  -5.882  1.00  0.00    -0.550 OA
ENDBRANCH   7   8
ENDBRANCH   6   7
ENDBRANCH   5   6
ENDBRANCH   4   5
ENDBRANCH   3   4
ENDBRANCH   2   3
ENDBRANCH   1   2
BRANCH   1  11
ATOM     11  C   UNL     1       6.396   1.883  -6.025  1.00  0.00     0.000 C 
BRANCH  11  12
ATOM     12  C   UNL     1       5.923   0.634  -5.264  1.00  0.00    -0.000 C 
BRANCH  12  13
ATOM     13  C   UNL     1       4.492   0.218  -5.643  1.00  0.00    -0.000 C 
BRANCH  13  14
ATOM     14  C   UNL     1       3.880   1.121  -6.727  1.00  0.00    -0.000 C 
BRANCH  14  15
ATOM     15  C   UNL     1       4.026   0.535  -8.140  1.00  0.00    -0.000 C 
BRANCH  15  16
ATOM     16  C   UNL     1       3.898   1.636  -9.205  1.00  0.00    -0.000 C 
BRANCH  16  17
ATOM     17  C   UNL     1       5.243   2.307  -9.526  1.00  0.00    -0.003 C 
ATOM     18  C   UNL     1       5.319   3.751  -9.030  1.00  0.00     0.004 C 
ENDBRANCH  16  17
ENDBRANCH  15  16
ENDBRANCH  14  15
ENDBRANCH  13  14
ENDBRANCH  12  13
ENDBRANCH  11  12
ENDBRANCH   1  11
TORSDOF 14
ENDMDL
MODEL 8
REMARK VINA RESULT:    -3.293      1.279      2.146
REMARK INTER + INTRA:          -8.284
REMARK INTER:                  -6.126
REMARK INTRA:                  -2.158
REMARK UNBOUND:                -2.296
REMARK SMILES CCCCCCCCCCCCCCCC(=O)[O-]
REMARK SMILES IDX 9 1 10 2 11 3 12 4 13 5 14 6 15 7 16 8 17 9 18 10 8 11 7 12
REMARK SMILES IDX 6 13 5 14 4 15 3 16 2 17 1 18
REMARK H PARENT
REMARK Flexibility Score: inf
ROOT
ATOM      1  C   UNL     1       4.084   2.021  -7.831  1.00  0.00     0.000 C 
ENDROOT
BRANCH   1   2
ATOM      2  C   UNL     1       3.987   1.218  -6.528  1.00  0.00     0.000 C 
BRANCH   2   3
ATOM      3  C   UNL     1       5.192   1.490  -5.622  1.00  0.00     0.000 C 
BRANCH   3   4
ATOM      4  C   UNL     1       5.883   0.183  -5.216  1.00  0.00     0.000 C 
BRANCH   4   5
ATOM      5  C   UNL     1       5.061  -1.036  -5.664  1.00  0.00     0.000 C 
BRANCH   5   6
ATOM      6  C   UNL     1       5.927  -2.138  -6.301  1.00  0.00     0.006 C 
BRANCH   6   7
ATOM      7  C   UNL     1       6.770  -2.940  -5.297  1.00  0.00     0.053 C 
BRANCH   7   8
ATOM      8  C   UNL     1       6.783  -4.402  -5.620  1.00  0.00     0.041 C 
ATOM      9  O   UNL     1       7.604  -5.170  -5.053  1.00  0.00    -0.550 OA
ATOM     10  O   UNL     1       5.909  -4.912  -6.573  1.00  0.00    -0.550 OA
ENDBRANCH   7   8
ENDBRANCH   6   7
ENDBRANCH   5   6
ENDBRANCH   4   5
ENDBRANCH   3   4
ENDBRANCH   2   3
ENDBRANCH   1   2
BRANCH   1  11
ATOM     11  C   UNL     1       3.800   1.128  -9.050  1.00  0.00     0.000 C 
BRANCH  11  12
ATOM     12  C   UNL     1       4.858   0.029  -9.240  1.00  0.00    -0.000 C 
BRANCH  12  13
ATOM     13  C   UNL     1       6.231   0.594  -9.644  1.00  0.00    -0.000 C 
BRANCH  13  14
ATOM     14  C   UNL     1       7.324   0.290  -8.605  1.00  0.00    -0.000 C 
BRANCH  14  15
ATOM     15  C   UNL     1       8.587   1.140  -8.808  1.00  0.00    -0.000 C 
BRANCH  15  16
ATOM     16  C   UNL     1       8.785   2.115  -7.637  1.00  0.00    -0.000 C 
BRANCH  16  17
ATOM     17  C   UNL     1       7.748   3.250  -7.633  1.00  0.00    -0.003 C 
ATOM     18  C   UNL     1       8.238   4.502  -8.362  1.00  0.00     0.004 C 
ENDBRANCH  16  17
ENDBRANCH  15  16
ENDBRANCH  14  15
ENDBRANCH  13  14
ENDBRANCH  12  13
ENDBRANCH  11  12
ENDBRANCH   1  11
TORSDOF 14
ENDMDL
MODEL 9
REMARK VINA RESULT:    -3.242      2.820      5.272
REMARK INTER + INTRA:          -8.191
REMARK INTER:                  -5.718
REMARK INTRA:                  -2.473
REMARK UNBOUND:                -2.296
REMARK SMILES CCCCCCCCCCCCCCCC(=O)[O-]
REMARK SMILES IDX 9 1 10 2 11 3 12 4 13 5 14 6 15 7 16 8 17 9 18 10 8 11 7 12
REMARK SMILES IDX 6 13 5 14 4 15 3 16 2 17 1 18
REMARK H PARENT
REMARK Flexibility Score: inf
ROOT
ATOM      1  C   UNL     1       4.090   0.722  -5.965  1.00  0.00     0.000 C 
ENDROOT
BRANCH   1   2
ATOM      2  C   UNL     1       4.071   2.077  -6.682  1.00  0.00     0.000 C 
BRANCH   2   3
ATOM      3  C   UNL     1       4.146   1.898  -8.202  1.00  0.00     0.000 C 
BRANCH   3   4
ATOM      4  C   UNL     1       4.177   0.412  -8.581  1.00  0.00     0.000 C 
BRANCH   4   5
ATOM      5  C   UNL     1       5.524   0.034  -9.215  1.00  0.00     0.000 C 
BRANCH   5   6
ATOM      6  C   UNL     1       6.522   1.206  -9.239  1.00  0.00     0.006 C 
BRANCH   6   7
ATOM      7  C   UNL     1       7.817   0.951  -8.450  1.00  0.00     0.053 C 
BRANCH   7   8
ATOM      8  C   UNL     1       8.135   2.079  -7.519  1.00  0.00     0.041 C 
ATOM      9  O   UNL     1       9.103   1.988  -6.718  1.00  0.00    -0.550 OA
ATOM     10  O   UNL     1       7.342   3.221  -7.511  1.00  0.00    -0.550 OA
ENDBRANCH   7   8
ENDBRANCH   6   7
ENDBRANCH   5   6
ENDBRANCH   4   5
ENDBRANCH   3   4
ENDBRANCH   2   3
ENDBRANCH   1   2
BRANCH   1  11
ATOM     11  C   UNL     1       5.297   0.617  -5.019  1.00  0.00     0.000 C 
BRANCH  11  12
ATOM     12  C   UNL     1       6.288  -0.479  -5.440  1.00  0.00    -0.000 C 
BRANCH  12  13
ATOM     13  C   UNL     1       5.584  -1.759  -5.923  1.00  0.00    -0.000 C 
BRANCH  13  14
ATOM     14  C   UNL     1       6.351  -3.036  -5.541  1.00  0.00    -0.000 C 
BRANCH  14  15
ATOM     15  C   UNL     1       6.238  -4.137  -6.607  1.00  0.00    -0.000 C 
BRANCH  15  16
ATOM     16  C   UNL     1       5.733  -3.558  -7.939  1.00  0.00    -0.000 C 
BRANCH  16  17
ATOM     17  C   UNL     1       6.773  -3.675  -9.065  1.00  0.00    -0.003 C 
ATOM     18  C   UNL     1       7.986  -2.770  -8.847  1.00  0.00     0.004 C 
ENDBRANCH  16  17
ENDBRANCH  15  16
ENDBRANCH  14  15
ENDBRANCH  13  14
ENDBRANCH  12  13
ENDBRANCH  11  12
ENDBRANCH   1  11
TORSDOF 14
ENDMDL
