MODEL 1
REMARK VINA RESULT:    -2.425      0.000      0.000
REMARK INTER + INTRA:          -3.103
REMARK INTER:                  -2.992
REMARK INTRA:                  -0.111
REMARK UNBOUND:                -0.111
REMARK SMILES CCCCCC(=O)[O-]
REMARK SMILES IDX 4 1 5 2 6 3 7 4 8 5 3 6 2 7 1 8
REMARK H PARENT
REMARK Flexibility Score: inf
ROOT
ATOM      1  C   UNL     1      73.746  88.903  92.113  1.00  0.00     0.006 C 
ENDROOT
BRANCH   1   2
ATOM      2  C   UNL     1      74.367  90.161  92.747  1.00  0.00     0.053 C 
BRANCH   2   3
ATOM      3  C   UNL     1      75.856  90.210  92.592  1.00  0.00     0.041 C 
ATOM      4  O   UNL     1      76.545  89.164  92.726  1.00  0.00    -0.550 OA
ATOM      5  O   UNL     1      76.482  91.407  92.268  1.00  0.00    -0.550 OA
ENDBRANCH   2   3
ENDBRANCH   1   2
BRANCH   1   6
ATOM      6  C   UNL     1      73.063  87.965  93.125  1.00  0.00     0.000 C 
BRANCH   6   7
ATOM      7  C   UNL     1      72.258  86.842  92.455  1.00  0.00    -0.003 C 
ATOM      8  C   UNL     1      72.409  86.888  90.937  1.00  0.00     0.004 C 
ENDBRANCH   6   7
ENDBRANCH   1   6
TORSDOF 4
ENDMDL
MODEL 2
REMARK VINA RESULT:    -2.393     15.438     16.331
REMARK INTER + INTRA:          -3.064
REMARK INTER:                  -2.946
REMARK INTRA:                  -0.118
REMARK UNBOUND:                -0.111
REMARK SMILES CCCCCC(=O)[O-]
REMARK SMILES IDX 4 1 5 2 6 3 7 4 8 5 3 6 2 7 1 8
REMARK H PARENT
REMARK Flexibility Score: inf
ROOT
ATOM      1  C   UNL     1      75.233  72.741  92.012  1.00  0.00     0.006 C 
ENDROOT
BRANCH   1   2
ATOM      2  C   UNL     1      76.413  71.975  92.639  1.00  0.00     0.053 C 
BRANCH   2   3
ATOM      3  C   UNL     1      77.744  72.486  92.179  1.00  0.00     0.041 C 
ATOM      4  O   UNL     1      78.807  71.945  92.585  1.00  0.00    -0.550 OA
ATOM      5  O   UNL     1      77.809  73.539  91.276  1.00  0.00    -0.550 OA
ENDBRANCH   2   3
ENDBRANCH   1   2
BRANCH   1   6
ATOM      6  C   UNL     1      74.432  73.586  93.018  1.00  0.00     0.000 C 
BRANCH   6   7
ATOM      7  C   UNL     1      72.945  73.706  92.652  1.00  0.00    -0.003 C 
ATOM      8  C   UNL     1      72.397  72.377  92.140  1.00  0.00     0.004 C 
ENDBRANCH   6   7
ENDBRANCH   1   6
TORSDOF 4
ENDMDL
MODEL 3
REMARK VINA RESULT:    -2.361     10.704     11.490
REMARK INTER + INTRA:          -3.024
REMARK INTER:                  -2.902
REMARK INTRA:                  -0.122
REMARK UNBOUND:                -0.111
REMARK SMILES CCCCCC(=O)[O-]
REMARK SMILES IDX 4 1 5 2 6 3 7 4 8 5 3 6 2 7 1 8
REMARK H PARENT
REMARK Flexibility Score: inf
ROOT
ATOM      1  C   UNL     1      72.404  90.008  80.726  1.00  0.00     0.006 C 
ENDROOT
BRANCH   1   2
ATOM      2  C   UNL     1      73.054  91.362  80.384  1.00  0.00     0.053 C 
BRANCH   2   3
ATOM      3  C   UNL     1      74.462  91.218  79.891  1.00  0.00     0.041 C 
ATOM      4  O   UNL     1      75.279  90.483  80.506  1.00  0.00    -0.550 OA
ATOM      5  O   UNL     1      74.863  91.873  78.734  1.00  0.00    -0.550 OA
ENDBRANCH   2   3
ENDBRANCH   1   2
BRANCH   1   6
ATOM      6  C   UNL     1      71.883  89.913  82.171  1.00  0.00     0.000 C 
BRANCH   6   7
ATOM      7  C   UNL     1      72.863  89.207  83.118  1.00  0.00    -0.003 C 
ATOM      8  C   UNL     1      72.188  88.845  84.438  1.00  0.00     0.004 C 
ENDBRANCH   6   7
ENDBRANCH   1   6
TORSDOF 4
ENDMDL
MODEL 4
REMARK VINA RESULT:    -2.354      2.759      4.461
REMARK INTER + INTRA:          -3.015
REMARK INTER:                  -2.908
REMARK INTRA:                  -0.107
REMARK UNBOUND:                -0.111
REMARK SMILES CCCCCC(=O)[O-]
REMARK SMILES IDX 4 1 5 2 6 3 7 4 8 5 3 6 2 7 1 8
REMARK H PARENT
REMARK Flexibility Score: inf
ROOT
ATOM      1  C   UNL     1      74.008  89.490  92.441  1.00  0.00     0.006 C 
ENDROOT
BRANCH   1   2
ATOM      2  C   UNL     1      74.726  88.411  91.607  1.00  0.00     0.053 C 
BRANCH   2   3
ATOM      3  C   UNL     1      73.849  87.826  90.543  1.00  0.00     0.041 C 
ATOM      4  O   UNL     1      74.262  87.742  89.355  1.00  0.00    -0.550 OA
ATOM      5  O   UNL     1      72.588  87.344  90.868  1.00  0.00    -0.550 OA
ENDBRANCH   2   3
ENDBRANCH   1   2
BRANCH   1   6
ATOM      6  C   UNL     1      74.912  90.667  92.850  1.00  0.00     0.000 C 
BRANCH   6   7
ATOM      7  C   UNL     1      76.352  90.525  92.338  1.00  0.00    -0.003 C 
ATOM      8  C   UNL     1      76.961  91.889  92.024  1.00  0.00     0.004 C 
ENDBRANCH   6   7
ENDBRANCH   1   6
TORSDOF 4
ENDMDL
MODEL 5
REMARK VINA RESULT:    -2.351     15.633     16.455
REMARK INTER + INTRA:          -3.012
REMARK INTER:                  -2.908
REMARK INTRA:                  -0.104
REMARK UNBOUND:                -0.111
REMARK SMILES CCCCCC(=O)[O-]
REMARK SMILES IDX 4 1 5 2 6 3 7 4 8 5 3 6 2 7 1 8
REMARK H PARENT
REMARK Flexibility Score: inf
ROOT
ATOM      1  C   UNL     1      75.210  72.631  91.772  1.00  0.00     0.006 C 
ENDROOT
BRANCH   1   2
ATOM      2  C   UNL     1      74.216  73.294  92.743  1.00  0.00     0.053 C 
BRANCH   2   3
ATOM      3  C   UNL     1      72.788  73.007  92.394  1.00  0.00     0.041 C 
ATOM      4  O   UNL     1      71.876  73.805  92.740  1.00  0.00    -0.550 OA
ATOM      5  O   UNL     1      72.466  71.875  91.657  1.00  0.00    -0.550 OA
ENDBRANCH   2   3
ENDBRANCH   1   2
BRANCH   1   6
ATOM      6  C   UNL     1      76.594  72.355  92.386  1.00  0.00     0.000 C 
BRANCH   6   7
ATOM      7  C   UNL     1      77.615  73.463  92.088  1.00  0.00    -0.003 C 
ATOM      8  C   UNL     1      77.374  74.076  90.711  1.00  0.00     0.004 C 
ENDBRANCH   6   7
ENDBRANCH   1   6
TORSDOF 4
ENDMDL
MODEL 6
REMARK VINA RESULT:    -2.237      2.476      4.754
REMARK INTER + INTRA:          -2.871
REMARK INTER:                  -2.821
REMARK INTRA:                  -0.049
REMARK UNBOUND:                -0.111
REMARK SMILES CCCCCC(=O)[O-]
REMARK SMILES IDX 4 1 5 2 6 3 7 4 8 5 3 6 2 7 1 8
REMARK H PARENT
REMARK Flexibility Score: inf
ROOT
ATOM      1  C   UNL     1      75.312  89.616  92.345  1.00  0.00     0.006 C 
ENDROOT
BRANCH   1   2
ATOM      2  C   UNL     1      74.068  89.080  93.077  1.00  0.00     0.053 C 
BRANCH   2   3
ATOM      3  C   UNL     1      73.311  88.072  92.268  1.00  0.00     0.041 C 
ATOM      4  O   UNL     1      72.464  87.319  92.820  1.00  0.00    -0.550 OA
ATOM      5  O   UNL     1      73.517  87.984  90.898  1.00  0.00    -0.550 OA
ENDBRANCH   2   3
ENDBRANCH   1   2
BRANCH   1   6
ATOM      6  C   UNL     1      75.746  91.022  92.798  1.00  0.00     0.000 C 
BRANCH   6   7
ATOM      7  C   UNL     1      76.835  91.631  91.904  1.00  0.00    -0.003 C 
ATOM      8  C   UNL     1      78.025  92.106  92.734  1.00  0.00     0.004 C 
ENDBRANCH   6   7
ENDBRANCH   1   6
TORSDOF 4
ENDMDL
MODEL 7
REMARK VINA RESULT:    -2.217     17.977     18.751
REMARK INTER + INTRA:          -2.847
REMARK INTER:                  -2.798
REMARK INTRA:                  -0.049
REMARK UNBOUND:                -0.111
REMARK SMILES CCCCCC(=O)[O-]
REMARK SMILES IDX 4 1 5 2 6 3 7 4 8 5 3 6 2 7 1 8
REMARK H PARENT
REMARK Flexibility Score: inf
ROOT
ATOM      1  C   UNL     1      74.946  89.391  73.743  1.00  0.00     0.006 C 
ENDROOT
BRANCH   1   2
ATOM      2  C   UNL     1      74.418  90.635  73.005  1.00  0.00     0.053 C 
BRANCH   2   3
ATOM      3  C   UNL     1      73.804  91.640  73.931  1.00  0.00     0.041 C 
ATOM      4  O   UNL     1      74.452  92.072  74.921  1.00  0.00    -0.550 OA
ATOM      5  O   UNL     1      72.526  92.123  73.682  1.00  0.00    -0.550 OA
ENDBRANCH   2   3
ENDBRANCH   1   2
BRANCH   1   6
ATOM      6  C   UNL     1      74.519  88.057  73.104  1.00  0.00     0.000 C 
BRANCH   6   7
ATOM      7  C   UNL     1      75.301  86.853  73.648  1.00  0.00    -0.003 C 
ATOM      8  C   UNL     1      74.442  86.025  74.600  1.00  0.00     0.004 C 
ENDBRANCH   6   7
ENDBRANCH   1   6
TORSDOF 4
ENDMDL
MODEL 8
REMARK VINA RESULT:    -2.181     18.052     19.065
REMARK INTER + INTRA:          -2.801
REMARK INTER:                  -2.710
REMARK INTRA:                  -0.091
REMARK UNBOUND:                -0.111
REMARK SMILES CCCCCC(=O)[O-]
REMARK SMILES IDX 4 1 5 2 6 3 7 4 8 5 3 6 2 7 1 8
REMARK H PARENT
REMARK Flexibility Score: inf
ROOT
ATOM      1  C   UNL     1      74.706  89.461  73.402  1.00  0.00     0.006 C 
ENDROOT
BRANCH   1   2
ATOM      2  C   UNL     1      74.495  88.030  72.875  1.00  0.00     0.053 C 
BRANCH   2   3
ATOM      3  C   UNL     1      74.895  86.983  73.869  1.00  0.00     0.041 C 
ATOM      4  O   UNL     1      74.867  87.234  75.103  1.00  0.00    -0.550 OA
ATOM      5  O   UNL     1      75.268  85.718  73.434  1.00  0.00    -0.550 OA
ENDBRANCH   2   3
ENDBRANCH   1   2
BRANCH   1   6
ATOM      6  C   UNL     1      73.678  90.479  72.875  1.00  0.00     0.000 C 
BRANCH   6   7
ATOM      7  C   UNL     1      73.696  91.805  73.648  1.00  0.00    -0.003 C 
ATOM      8  C   UNL     1      74.772  91.796  74.731  1.00  0.00     0.004 C 
ENDBRANCH   6   7
ENDBRANCH   1   6
TORSDOF 4
ENDMDL
