MODEL 1
REMARK VINA RESULT:    -5.954      0.000      0.000
REMARK INTER + INTRA:          -8.683
REMARK INTER:                  -7.521
REMARK INTRA:                  -1.163
REMARK UNBOUND:                -1.163
REMARK SMILES O=C(C=Cc1ccc(O)cc1)c1ccc(O)cc1O
REMARK SMILES IDX 4 1 3 2 5 3 6 4 7 5 8 6 11 7 10 8 9 9 2 11 1 12 12 13 18 14
REMARK SMILES IDX 13 15 17 16 14 17 15 18 19 19 16 21
REMARK H PARENT 9 10 19 20 16 22
REMARK Flexibility Score: inf
ROOT
ATOM      1  C   UNL     1     254.859 -24.498  49.601  1.00  0.00     0.012 C 
ATOM      2  C   UNL     1     254.187 -23.618  48.841  1.00  0.00     0.053 C 
ENDROOT
BRANCH   1   3
ATOM      3  C   UNL     1     254.425 -25.001  50.919  1.00  0.00    -0.025 A 
ATOM      4  C   UNL     1     254.565 -24.216  52.077  1.00  0.00     0.012 A 
ATOM      5  C   UNL     1     254.196 -24.729  53.324  1.00  0.00     0.047 A 
ATOM      6  C   UNL     1     253.708 -26.035  53.431  1.00  0.00     0.115 A 
ATOM      7  C   UNL     1     253.964 -26.321  51.035  1.00  0.00     0.012 A 
ATOM      8  C   UNL     1     253.596 -26.831  52.283  1.00  0.00     0.047 A 
BRANCH   6   9
ATOM      9  O   UNL     1     253.343 -26.533  54.680  1.00  0.00    -0.508 OA
ATOM     10  H   UNL     1     252.582 -26.127  55.211  1.00  0.00     0.293 HD
ENDBRANCH   6   9
ENDBRANCH   1   3
BRANCH   2  11
ATOM     11  C   UNL     1     252.810 -23.126  49.099  1.00  0.00     0.189 C 
ATOM     12  O   UNL     1     251.828 -23.597  48.464  1.00  0.00    -0.289 OA
BRANCH  11  13
ATOM     13  C   UNL     1     252.563 -22.069  50.101  1.00  0.00     0.064 A 
ATOM     14  C   UNL     1     251.512 -22.162  51.038  1.00  0.00     0.130 A 
ATOM     15  C   UNL     1     253.418 -20.955  50.139  1.00  0.00     0.020 A 
ATOM     16  C   UNL     1     251.308 -21.126  51.963  1.00  0.00     0.093 A 
ATOM     17  C   UNL     1     253.212 -19.933  51.067  1.00  0.00     0.047 A 
ATOM     18  C   UNL     1     252.153 -20.013  51.978  1.00  0.00     0.119 A 
BRANCH  14  19
ATOM     19  O   UNL     1     250.691 -23.289  51.072  1.00  0.00    -0.507 OA
ATOM     20  H   UNL     1     249.692 -23.215  51.222  1.00  0.00     0.293 HD
ENDBRANCH  14  19
BRANCH  18  21
ATOM     21  O   UNL     1     251.935 -18.997  52.906  1.00  0.00    -0.508 OA
ATOM     22  H   UNL     1     252.649 -18.308  53.115  1.00  0.00     0.293 HD
ENDBRANCH  18  21
ENDBRANCH  11  13
ENDBRANCH   2  11
TORSDOF 6
ENDMDL
MODEL 2
REMARK VINA RESULT:    -5.863      2.141      2.742
REMARK INTER + INTRA:          -8.568
REMARK INTER:                  -7.504
REMARK INTRA:                  -1.064
REMARK UNBOUND:                -1.163
REMARK SMILES O=C(C=Cc1ccc(O)cc1)c1ccc(O)cc1O
REMARK SMILES IDX 4 1 3 2 5 3 6 4 7 5 8 6 11 7 10 8 9 9 2 11 1 12 12 13 18 14
REMARK SMILES IDX 13 15 17 16 14 17 15 18 19 19 16 21
REMARK H PARENT 9 10 19 20 16 22
REMARK Flexibility Score: inf
ROOT
ATOM      1  C   UNL     1     252.639 -25.952  49.860  1.00  0.00     0.012 C 
ATOM      2  C   UNL     1     253.045 -25.281  48.769  1.00  0.00     0.053 C 
ENDROOT
BRANCH   1   3
ATOM      3  C   UNL     1     253.032 -25.648  51.249  1.00  0.00    -0.025 A 
ATOM      4  C   UNL     1     254.053 -26.372  51.890  1.00  0.00     0.012 A 
ATOM      5  C   UNL     1     254.375 -26.104  53.224  1.00  0.00     0.047 A 
ATOM      6  C   UNL     1     253.668 -25.132  53.937  1.00  0.00     0.115 A 
ATOM      7  C   UNL     1     252.305 -24.694  51.978  1.00  0.00     0.012 A 
ATOM      8  C   UNL     1     252.629 -24.430  53.312  1.00  0.00     0.047 A 
BRANCH   6   9
ATOM      9  O   UNL     1     254.000 -24.875  55.265  1.00  0.00    -0.508 OA
ATOM     10  H   UNL     1     253.785 -23.987  55.703  1.00  0.00     0.293 HD
ENDBRANCH   6   9
ENDBRANCH   1   3
BRANCH   2  11
ATOM     11  C   UNL     1     253.814 -24.011  48.771  1.00  0.00     0.189 C 
ATOM     12  O   UNL     1     255.071 -24.020  48.867  1.00  0.00    -0.289 OA
BRANCH  11  13
ATOM     13  C   UNL     1     253.122 -22.710  48.667  1.00  0.00     0.064 A 
ATOM     14  C   UNL     1     253.212 -21.735  49.684  1.00  0.00     0.130 A 
ATOM     15  C   UNL     1     252.379 -22.426  47.509  1.00  0.00     0.020 A 
ATOM     16  C   UNL     1     252.526 -20.518  49.546  1.00  0.00     0.093 A 
ATOM     17  C   UNL     1     251.706 -21.209  47.378  1.00  0.00     0.047 A 
ATOM     18  C   UNL     1     251.774 -20.255  48.399  1.00  0.00     0.119 A 
BRANCH  14  19
ATOM     19  O   UNL     1     254.000 -21.960  50.812  1.00  0.00    -0.507 OA
ATOM     20  H   UNL     1     253.641 -21.817  51.749  1.00  0.00     0.293 HD
ENDBRANCH  14  19
BRANCH  18  21
ATOM     21  O   UNL     1     251.102 -19.039  48.281  1.00  0.00    -0.508 OA
ATOM     22  H   UNL     1     250.233 -18.865  48.772  1.00  0.00     0.293 HD
ENDBRANCH  18  21
ENDBRANCH  11  13
ENDBRANCH   2  11
TORSDOF 6
ENDMDL
MODEL 3
REMARK VINA RESULT:    -5.741      1.788      5.020
REMARK INTER + INTRA:          -8.414
REMARK INTER:                  -7.173
REMARK INTRA:                  -1.241
REMARK UNBOUND:                -1.163
REMARK SMILES O=C(C=Cc1ccc(O)cc1)c1ccc(O)cc1O
REMARK SMILES IDX 4 1 3 2 5 3 6 4 7 5 8 6 11 7 10 8 9 9 2 11 1 12 12 13 18 14
REMARK SMILES IDX 13 15 17 16 14 17 15 18 19 19 16 21
REMARK H PARENT 9 10 19 20 16 22
REMARK Flexibility Score: inf
ROOT
ATOM      1  C   UNL     1     254.661 -23.639  49.334  1.00  0.00     0.012 C 
ATOM      2  C   UNL     1     254.494 -24.889  49.798  1.00  0.00     0.053 C 
ENDROOT
BRANCH   1   3
ATOM      3  C   UNL     1     253.636 -22.578  49.341  1.00  0.00    -0.025 A 
ATOM      4  C   UNL     1     252.701 -22.465  48.297  1.00  0.00     0.012 A 
ATOM      5  C   UNL     1     251.771 -21.422  48.295  1.00  0.00     0.047 A 
ATOM      6  C   UNL     1     251.780 -20.468  49.317  1.00  0.00     0.115 A 
ATOM      7  C   UNL     1     253.662 -21.602  50.349  1.00  0.00     0.012 A 
ATOM      8  C   UNL     1     252.731 -20.559  50.343  1.00  0.00     0.047 A 
BRANCH   6   9
ATOM      9  O   UNL     1     250.847 -19.434  49.302  1.00  0.00    -0.508 OA
ATOM     10  H   UNL     1     250.679 -18.860  50.120  1.00  0.00     0.293 HD
ENDBRANCH   6   9
ENDBRANCH   1   3
BRANCH   2  11
ATOM     11  C   UNL     1     253.317 -25.379  50.558  1.00  0.00     0.189 C 
ATOM     12  O   UNL     1     252.386 -25.998  49.975  1.00  0.00    -0.289 OA
BRANCH  11  13
ATOM     13  C   UNL     1     253.209 -25.147  52.013  1.00  0.00     0.064 A 
ATOM     14  C   UNL     1     252.216 -24.306  52.561  1.00  0.00     0.130 A 
ATOM     15  C   UNL     1     254.101 -25.806  52.875  1.00  0.00     0.020 A 
ATOM     16  C   UNL     1     252.161 -24.106  53.950  1.00  0.00     0.093 A 
ATOM     17  C   UNL     1     254.034 -25.606  54.255  1.00  0.00     0.047 A 
ATOM     18  C   UNL     1     253.067 -24.751  54.796  1.00  0.00     0.119 A 
BRANCH  14  19
ATOM     19  O   UNL     1     251.272 -23.696  51.738  1.00  0.00    -0.507 OA
ATOM     20  H   UNL     1     251.206 -22.687  51.660  1.00  0.00     0.293 HD
ENDBRANCH  14  19
BRANCH  18  21
ATOM     21  O   UNL     1     252.993 -24.541  56.171  1.00  0.00    -0.508 OA
ATOM     22  H   UNL     1     252.119 -24.638  56.675  1.00  0.00     0.293 HD
ENDBRANCH  18  21
ENDBRANCH  11  13
ENDBRANCH   2  11
TORSDOF 6
ENDMDL
MODEL 4
REMARK VINA RESULT:    -5.725     12.028     13.805
REMARK INTER + INTRA:          -8.394
REMARK INTER:                  -7.217
REMARK INTRA:                  -1.177
REMARK UNBOUND:                -1.163
REMARK SMILES O=C(C=Cc1ccc(O)cc1)c1ccc(O)cc1O
REMARK SMILES IDX 4 1 3 2 5 3 6 4 7 5 8 6 11 7 10 8 9 9 2 11 1 12 12 13 18 14
REMARK SMILES IDX 13 15 17 16 14 17 15 18 19 19 16 21
REMARK H PARENT 9 10 19 20 16 22
REMARK Flexibility Score: inf
ROOT
ATOM      1  C   UNL     1     265.667 -27.067  59.062  1.00  0.00     0.012 C 
ATOM      2  C   UNL     1     264.605 -26.365  59.489  1.00  0.00     0.053 C 
ENDROOT
BRANCH   1   3
ATOM      3  C   UNL     1     265.703 -27.922  57.859  1.00  0.00    -0.025 A 
ATOM      4  C   UNL     1     265.862 -27.365  56.578  1.00  0.00     0.012 A 
ATOM      5  C   UNL     1     265.840 -28.185  55.446  1.00  0.00     0.047 A 
ATOM      6  C   UNL     1     265.636 -29.562  55.579  1.00  0.00     0.115 A 
ATOM      7  C   UNL     1     265.467 -29.299  57.985  1.00  0.00     0.012 A 
ATOM      8  C   UNL     1     265.445 -30.117  56.852  1.00  0.00     0.047 A 
BRANCH   6   9
ATOM      9  O   UNL     1     265.618 -30.368  54.442  1.00  0.00    -0.508 OA
ATOM     10  H   UNL     1     265.609 -29.970  53.511  1.00  0.00     0.293 HD
ENDBRANCH   6   9
ENDBRANCH   1   3
BRANCH   2  11
ATOM     11  C   UNL     1     263.334 -26.179  58.745  1.00  0.00     0.189 C 
ATOM     12  O   UNL     1     263.232 -25.291  57.856  1.00  0.00    -0.289 OA
BRANCH  11  13
ATOM     13  C   UNL     1     262.159 -27.027  59.035  1.00  0.00     0.064 A 
ATOM     14  C   UNL     1     261.653 -27.947  58.092  1.00  0.00     0.130 A 
ATOM     15  C   UNL     1     261.548 -26.933  60.297  1.00  0.00     0.020 A 
ATOM     16  C   UNL     1     260.526 -28.722  58.409  1.00  0.00     0.093 A 
ATOM     17  C   UNL     1     260.432 -27.713  60.605  1.00  0.00     0.047 A 
ATOM     18  C   UNL     1     259.915 -28.606  59.660  1.00  0.00     0.119 A 
BRANCH  14  19
ATOM     19  O   UNL     1     262.281 -28.114  56.859  1.00  0.00    -0.507 OA
ATOM     20  H   UNL     1     261.911 -28.741  56.153  1.00  0.00     0.293 HD
ENDBRANCH  14  19
BRANCH  18  21
ATOM     21  O   UNL     1     258.799 -29.386  59.955  1.00  0.00    -0.508 OA
ATOM     22  H   UNL     1     258.657 -30.291  59.521  1.00  0.00     0.293 HD
ENDBRANCH  18  21
ENDBRANCH  11  13
ENDBRANCH   2  11
TORSDOF 6
ENDMDL
MODEL 5
REMARK VINA RESULT:    -5.724      4.956      7.680
REMARK INTER + INTRA:          -8.393
REMARK INTER:                  -7.289
REMARK INTRA:                  -1.103
REMARK UNBOUND:                -1.163
REMARK SMILES O=C(C=Cc1ccc(O)cc1)c1ccc(O)cc1O
REMARK SMILES IDX 4 1 3 2 5 3 6 4 7 5 8 6 11 7 10 8 9 9 2 11 1 12 12 13 18 14
REMARK SMILES IDX 13 15 17 16 14 17 15 18 19 19 16 21
REMARK H PARENT 9 10 19 20 16 22
REMARK Flexibility Score: inf
ROOT
ATOM      1  C   UNL     1     251.482 -24.407  45.760  1.00  0.00     0.012 C 
ATOM      2  C   UNL     1     251.848 -24.190  44.486  1.00  0.00     0.053 C 
ENDROOT
BRANCH   1   3
ATOM      3  C   UNL     1     252.253 -24.007  46.953  1.00  0.00    -0.025 A 
ATOM      4  C   UNL     1     252.099 -22.730  47.522  1.00  0.00     0.012 A 
ATOM      5  C   UNL     1     252.876 -22.350  48.620  1.00  0.00     0.047 A 
ATOM      6  C   UNL     1     253.828 -23.227  49.145  1.00  0.00     0.115 A 
ATOM      7  C   UNL     1     253.231 -24.872  47.464  1.00  0.00     0.012 A 
ATOM      8  C   UNL     1     254.007 -24.489  48.562  1.00  0.00     0.047 A 
BRANCH   6   9
ATOM      9  O   UNL     1     254.595 -22.836  50.241  1.00  0.00    -0.508 OA
ATOM     10  H   UNL     1     255.213 -22.035  50.196  1.00  0.00     0.293 HD
ENDBRANCH   6   9
ENDBRANCH   1   3
BRANCH   2  11
ATOM     11  C   UNL     1     252.997 -23.361  44.044  1.00  0.00     0.189 C 
ATOM     12  O   UNL     1     252.931 -22.102  44.072  1.00  0.00    -0.289 OA
BRANCH  11  13
ATOM     13  C   UNL     1     254.240 -23.993  43.557  1.00  0.00     0.064 A 
ATOM     14  C   UNL     1     255.002 -23.429  42.511  1.00  0.00     0.130 A 
ATOM     15  C   UNL     1     254.690 -25.172  44.174  1.00  0.00     0.020 A 
ATOM     16  C   UNL     1     256.170 -24.074  42.074  1.00  0.00     0.093 A 
ATOM     17  C   UNL     1     255.857 -25.802  43.736  1.00  0.00     0.047 A 
ATOM     18  C   UNL     1     256.597 -25.257  42.682  1.00  0.00     0.119 A 
BRANCH  14  19
ATOM     19  O   UNL     1     254.620 -22.222  41.928  1.00  0.00    -0.507 OA
ATOM     20  H   UNL     1     254.582 -22.105  40.922  1.00  0.00     0.293 HD
ENDBRANCH  14  19
BRANCH  18  21
ATOM     21  O   UNL     1     257.760 -25.879  42.233  1.00  0.00    -0.508 OA
ATOM     22  H   UNL     1     258.559 -25.342  41.916  1.00  0.00     0.293 HD
ENDBRANCH  18  21
ENDBRANCH  11  13
ENDBRANCH   2  11
TORSDOF 6
ENDMDL
MODEL 6
REMARK VINA RESULT:    -5.705      9.295     11.204
REMARK INTER + INTRA:          -8.368
REMARK INTER:                  -7.545
REMARK INTRA:                  -0.822
REMARK UNBOUND:                -1.163
REMARK SMILES O=C(C=Cc1ccc(O)cc1)c1ccc(O)cc1O
REMARK SMILES IDX 4 1 3 2 5 3 6 4 7 5 8 6 11 7 10 8 9 9 2 11 1 12 12 13 18 14
REMARK SMILES IDX 13 15 17 16 14 17 15 18 19 19 16 21
REMARK H PARENT 9 10 19 20 16 22
REMARK Flexibility Score: inf
ROOT
ATOM      1  C   UNL     1     263.281 -28.209  56.849  1.00  0.00     0.012 C 
ATOM      2  C   UNL     1     263.557 -27.524  55.727  1.00  0.00     0.053 C 
ENDROOT
BRANCH   1   3
ATOM      3  C   UNL     1     262.013 -28.146  57.601  1.00  0.00    -0.025 A 
ATOM      4  C   UNL     1     261.880 -27.321  58.732  1.00  0.00     0.012 A 
ATOM      5  C   UNL     1     260.688 -27.315  59.463  1.00  0.00     0.047 A 
ATOM      6  C   UNL     1     259.629 -28.147  59.088  1.00  0.00     0.115 A 
ATOM      7  C   UNL     1     260.959 -29.002  57.247  1.00  0.00     0.012 A 
ATOM      8  C   UNL     1     259.768 -28.994  57.980  1.00  0.00     0.047 A 
BRANCH   6   9
ATOM      9  O   UNL     1     258.447 -28.130  59.825  1.00  0.00    -0.508 OA
ATOM     10  H   UNL     1     257.624 -28.636  59.519  1.00  0.00     0.293 HD
ENDBRANCH   6   9
ENDBRANCH   1   3
BRANCH   2  11
ATOM     11  C   UNL     1     262.586 -26.720  54.942  1.00  0.00     0.189 C 
ATOM     12  O   UNL     1     262.199 -25.594  55.356  1.00  0.00    -0.289 OA
BRANCH  11  13
ATOM     13  C   UNL     1     262.048 -27.226  53.663  1.00  0.00     0.064 A 
ATOM     14  C   UNL     1     262.804 -27.192  52.471  1.00  0.00     0.130 A 
ATOM     15  C   UNL     1     260.759 -27.784  53.641  1.00  0.00     0.020 A 
ATOM     16  C   UNL     1     262.245 -27.673  51.277  1.00  0.00     0.093 A 
ATOM     17  C   UNL     1     260.214 -28.266  52.449  1.00  0.00     0.047 A 
ATOM     18  C   UNL     1     260.954 -28.207  51.263  1.00  0.00     0.119 A 
BRANCH  14  19
ATOM     19  O   UNL     1     264.113 -26.711  52.477  1.00  0.00    -0.507 OA
ATOM     20  H   UNL     1     264.471 -26.153  53.243  1.00  0.00     0.293 HD
ENDBRANCH  14  19
BRANCH  18  21
ATOM     21  O   UNL     1     260.419 -28.681  50.067  1.00  0.00    -0.508 OA
ATOM     22  H   UNL     1     259.489 -28.419  49.763  1.00  0.00     0.293 HD
ENDBRANCH  18  21
ENDBRANCH  11  13
ENDBRANCH   2  11
TORSDOF 6
ENDMDL
MODEL 7
REMARK VINA RESULT:    -5.682     10.485     13.479
REMARK INTER + INTRA:          -8.340
REMARK INTER:                  -6.964
REMARK INTRA:                  -1.376
REMARK UNBOUND:                -1.163
REMARK SMILES O=C(C=Cc1ccc(O)cc1)c1ccc(O)cc1O
REMARK SMILES IDX 4 1 3 2 5 3 6 4 7 5 8 6 11 7 10 8 9 9 2 11 1 12 12 13 18 14
REMARK SMILES IDX 13 15 17 16 14 17 15 18 19 19 16 21
REMARK H PARENT 9 10 19 20 16 22
REMARK Flexibility Score: inf
ROOT
ATOM      1  C   UNL     1     261.932 -27.162  59.820  1.00  0.00     0.012 C 
ATOM      2  C   UNL     1     263.108 -26.522  59.712  1.00  0.00     0.053 C 
ENDROOT
BRANCH   1   3
ATOM      3  C   UNL     1     261.117 -27.655  58.693  1.00  0.00    -0.025 A 
ATOM      4  C   UNL     1     261.130 -29.013  58.326  1.00  0.00     0.012 A 
ATOM      5  C   UNL     1     260.393 -29.451  57.223  1.00  0.00     0.047 A 
ATOM      6  C   UNL     1     259.656 -28.540  56.461  1.00  0.00     0.115 A 
ATOM      7  C   UNL     1     260.401 -26.739  57.908  1.00  0.00     0.012 A 
ATOM      8  C   UNL     1     259.665 -27.180  56.804  1.00  0.00     0.047 A 
BRANCH   6   9
ATOM      9  O   UNL     1     258.925 -28.991  55.365  1.00  0.00    -0.508 OA
ATOM     10  H   UNL     1     257.957 -28.725  55.228  1.00  0.00     0.293 HD
ENDBRANCH   6   9
ENDBRANCH   1   3
BRANCH   2  11
ATOM     11  C   UNL     1     263.887 -26.348  58.460  1.00  0.00     0.189 C 
ATOM     12  O   UNL     1     264.097 -25.199  57.987  1.00  0.00    -0.289 OA
BRANCH  11  13
ATOM     13  C   UNL     1     264.425 -27.519  57.739  1.00  0.00     0.064 A 
ATOM     14  C   UNL     1     264.056 -27.809  56.408  1.00  0.00     0.130 A 
ATOM     15  C   UNL     1     265.355 -28.349  58.388  1.00  0.00     0.020 A 
ATOM     16  C   UNL     1     264.585 -28.940  55.768  1.00  0.00     0.093 A 
ATOM     17  C   UNL     1     265.881 -29.469  57.741  1.00  0.00     0.047 A 
ATOM     18  C   UNL     1     265.493 -29.770  56.430  1.00  0.00     0.119 A 
BRANCH  14  19
ATOM     19  O   UNL     1     263.192 -26.963  55.713  1.00  0.00    -0.507 OA
ATOM     20  H   UNL     1     262.225 -26.846  55.991  1.00  0.00     0.293 HD
ENDBRANCH  14  19
BRANCH  18  21
ATOM     21  O   UNL     1     266.008 -30.887  55.776  1.00  0.00    -0.508 OA
ATOM     22  H   UNL     1     266.967 -30.913  55.447  1.00  0.00     0.293 HD
ENDBRANCH  18  21
ENDBRANCH  11  13
ENDBRANCH   2  11
TORSDOF 6
ENDMDL
MODEL 8
REMARK VINA RESULT:    -5.682     10.296     12.709
REMARK INTER + INTRA:          -8.339
REMARK INTER:                  -7.014
REMARK INTRA:                  -1.325
REMARK UNBOUND:                -1.163
REMARK SMILES O=C(C=Cc1ccc(O)cc1)c1ccc(O)cc1O
REMARK SMILES IDX 4 1 3 2 5 3 6 4 7 5 8 6 11 7 10 8 9 9 2 11 1 12 12 13 18 14
REMARK SMILES IDX 13 15 17 16 14 17 15 18 19 19 16 21
REMARK H PARENT 9 10 19 20 16 22
REMARK Flexibility Score: inf
ROOT
ATOM      1  C   UNL     1     264.010 -24.974  56.779  1.00  0.00     0.012 C 
ATOM      2  C   UNL     1     263.538 -25.610  55.694  1.00  0.00     0.053 C 
ENDROOT
BRANCH   1   3
ATOM      3  C   UNL     1     263.981 -25.497  58.159  1.00  0.00    -0.025 A 
ATOM      4  C   UNL     1     264.949 -26.413  58.609  1.00  0.00     0.012 A 
ATOM      5  C   UNL     1     264.875 -26.938  59.902  1.00  0.00     0.047 A 
ATOM      6  C   UNL     1     263.825 -26.574  60.750  1.00  0.00     0.115 A 
ATOM      7  C   UNL     1     262.912 -25.159  59.002  1.00  0.00     0.012 A 
ATOM      8  C   UNL     1     262.841 -25.685  60.295  1.00  0.00     0.047 A 
BRANCH   6   9
ATOM      9  O   UNL     1     263.764 -27.104  62.037  1.00  0.00    -0.508 OA
ATOM     10  H   UNL     1     264.452 -27.768  62.369  1.00  0.00     0.293 HD
ENDBRANCH   6   9
ENDBRANCH   1   3
BRANCH   2  11
ATOM     11  C   UNL     1     263.063 -27.016  55.652  1.00  0.00     0.189 C 
ATOM     12  O   UNL     1     263.627 -27.864  54.909  1.00  0.00    -0.289 OA
BRANCH  11  13
ATOM     13  C   UNL     1     261.916 -27.449  56.476  1.00  0.00     0.064 A 
ATOM     14  C   UNL     1     261.970 -28.609  57.278  1.00  0.00     0.130 A 
ATOM     15  C   UNL     1     260.749 -26.665  56.482  1.00  0.00     0.020 A 
ATOM     16  C   UNL     1     260.849 -28.988  58.034  1.00  0.00     0.093 A 
ATOM     17  C   UNL     1     259.642 -27.047  57.243  1.00  0.00     0.047 A 
ATOM     18  C   UNL     1     259.688 -28.211  58.016  1.00  0.00     0.119 A 
BRANCH  14  19
ATOM     19  O   UNL     1     263.138 -29.367  57.348  1.00  0.00    -0.507 OA
ATOM     20  H   UNL     1     264.003 -29.053  56.921  1.00  0.00     0.293 HD
ENDBRANCH  14  19
BRANCH  18  21
ATOM     21  O   UNL     1     258.587 -28.604  58.776  1.00  0.00    -0.508 OA
ATOM     22  H   UNL     1     258.190 -27.998  59.484  1.00  0.00     0.293 HD
ENDBRANCH  18  21
ENDBRANCH  11  13
ENDBRANCH   2  11
TORSDOF 6
ENDMDL
MODEL 9
REMARK VINA RESULT:    -5.681      4.223      6.709
REMARK INTER + INTRA:          -8.338
REMARK INTER:                  -7.404
REMARK INTRA:                  -0.934
REMARK UNBOUND:                -1.163
REMARK SMILES O=C(C=Cc1ccc(O)cc1)c1ccc(O)cc1O
REMARK SMILES IDX 4 1 3 2 5 3 6 4 7 5 8 6 11 7 10 8 9 9 2 11 1 12 12 13 18 14
REMARK SMILES IDX 13 15 17 16 14 17 15 18 19 19 16 21
REMARK H PARENT 9 10 19 20 16 22
REMARK Flexibility Score: inf
ROOT
ATOM      1  C   UNL     1     251.627 -25.604  45.283  1.00  0.00     0.012 C 
ATOM      2  C   UNL     1     251.235 -24.763  46.254  1.00  0.00     0.053 C 
ENDROOT
BRANCH   1   3
ATOM      3  C   UNL     1     252.785 -25.404  44.391  1.00  0.00    -0.025 A 
ATOM      4  C   UNL     1     254.099 -25.600  44.853  1.00  0.00     0.012 A 
ATOM      5  C   UNL     1     255.186 -25.354  44.009  1.00  0.00     0.047 A 
ATOM      6  C   UNL     1     254.975 -24.889  42.708  1.00  0.00     0.115 A 
ATOM      7  C   UNL     1     252.580 -24.908  43.095  1.00  0.00     0.012 A 
ATOM      8  C   UNL     1     253.669 -24.662  42.253  1.00  0.00     0.047 A 
BRANCH   6   9
ATOM      9  O   UNL     1     256.068 -24.649  41.877  1.00  0.00    -0.508 OA
ATOM     10  H   UNL     1     256.235 -23.736  41.472  1.00  0.00     0.293 HD
ENDBRANCH   6   9
ENDBRANCH   1   3
BRANCH   2  11
ATOM     11  C   UNL     1     251.988 -23.573  46.725  1.00  0.00     0.189 C 
ATOM     12  O   UNL     1     251.998 -22.509  46.049  1.00  0.00    -0.289 OA
BRANCH  11  13
ATOM     13  C   UNL     1     252.747 -23.613  47.991  1.00  0.00     0.064 A 
ATOM     14  C   UNL     1     252.986 -22.450  48.754  1.00  0.00     0.130 A 
ATOM     15  C   UNL     1     253.217 -24.851  48.462  1.00  0.00     0.020 A 
ATOM     16  C   UNL     1     253.723 -22.537  49.946  1.00  0.00     0.093 A 
ATOM     17  C   UNL     1     253.944 -24.928  49.652  1.00  0.00     0.047 A 
ATOM     18  C   UNL     1     254.203 -23.770  50.394  1.00  0.00     0.119 A 
BRANCH  14  19
ATOM     19  O   UNL     1     252.470 -21.220  48.349  1.00  0.00    -0.507 OA
ATOM     20  H   UNL     1     251.482 -21.093  48.162  1.00  0.00     0.293 HD
ENDBRANCH  14  19
BRANCH  18  21
ATOM     21  O   UNL     1     254.931 -23.834  51.580  1.00  0.00    -0.508 OA
ATOM     22  H   UNL     1     255.914 -24.081  51.585  1.00  0.00     0.293 HD
ENDBRANCH  18  21
ENDBRANCH  11  13
ENDBRANCH   2  11
TORSDOF 6
ENDMDL
