MODEL 1
REMARK VINA RESULT:    -2.499      0.000      0.000
REMARK INTER + INTRA:          -2.499
REMARK INTER:                  -2.499
REMARK INTRA:                   0.000
REMARK UNBOUND:                 0.000
REMARK SMILES CC(=O)[O-]
REMARK SMILES IDX 1 1 2 2 3 3 4 4
REMARK H PARENT
REMARK Flexibility Score: inf
ROOT
ATOM      1  C   UNL     1     -28.628   3.974  33.800  1.00  0.00     0.063 C 
ATOM      2  C   UNL     1     -27.964   2.643  33.698  1.00  0.00     0.038 C 
ATOM      3  O   UNL     1     -26.783   2.556  33.273  1.00  0.00    -0.550 OA
ATOM      4  O   UNL     1     -28.629   1.500  34.125  1.00  0.00    -0.550 OA
ENDROOT
TORSDOF 0
ENDMDL
MODEL 2
REMARK VINA RESULT:    -2.472      3.606      3.859
REMARK INTER + INTRA:          -2.472
REMARK INTER:                  -2.472
REMARK INTRA:                   0.000
REMARK UNBOUND:                 0.000
REMARK SMILES CC(=O)[O-]
REMARK SMILES IDX 1 1 2 2 3 3 4 4
REMARK H PARENT
REMARK Flexibility Score: inf
ROOT
ATOM      1  C   UNL     1     -32.480   2.273  32.667  1.00  0.00     0.063 C 
ATOM      2  C   UNL     1     -31.203   3.015  32.465  1.00  0.00     0.038 C 
ATOM      3  O   UNL     1     -30.648   3.025  31.335  1.00  0.00    -0.550 OA
ATOM      4  O   UNL     1     -30.649   3.743  33.511  1.00  0.00    -0.550 OA
ENDROOT
TORSDOF 0
ENDMDL
MODEL 3
REMARK VINA RESULT:    -2.466      1.417      1.781
REMARK INTER + INTRA:          -2.466
REMARK INTER:                  -2.466
REMARK INTRA:                   0.000
REMARK UNBOUND:                 0.000
REMARK SMILES CC(=O)[O-]
REMARK SMILES IDX 1 1 2 2 3 3 4 4
REMARK H PARENT
REMARK Flexibility Score: inf
ROOT
ATOM      1  C   UNL     1     -28.669   1.540  33.750  1.00  0.00     0.063 C 
ATOM      2  C   UNL     1     -27.968   2.847  33.599  1.00  0.00     0.038 C 
ATOM      3  O   UNL     1     -26.743   2.879  33.308  1.00  0.00    -0.550 OA
ATOM      4  O   UNL     1     -28.676   4.036  33.727  1.00  0.00    -0.550 OA
ENDROOT
TORSDOF 0
ENDMDL
MODEL 4
REMARK VINA RESULT:    -2.466      3.546      4.100
REMARK INTER + INTRA:          -2.466
REMARK INTER:                  -2.466
REMARK INTRA:                   0.000
REMARK UNBOUND:                 0.000
REMARK SMILES CC(=O)[O-]
REMARK SMILES IDX 1 1 2 2 3 3 4 4
REMARK H PARENT
REMARK Flexibility Score: inf
ROOT
ATOM      1  C   UNL     1     -30.652   3.498  33.447  1.00  0.00     0.063 C 
ATOM      2  C   UNL     1     -31.313   2.938  32.233  1.00  0.00     0.038 C 
ATOM      3  O   UNL     1     -32.505   2.535  32.290  1.00  0.00    -0.550 OA
ATOM      4  O   UNL     1     -30.634   2.911  31.021  1.00  0.00    -0.550 OA
ENDROOT
TORSDOF 0
ENDMDL
MODEL 5
REMARK VINA RESULT:    -2.391     10.257     10.504
REMARK INTER + INTRA:          -2.391
REMARK INTER:                  -2.391
REMARK INTRA:                   0.000
REMARK UNBOUND:                 0.000
REMARK SMILES CC(=O)[O-]
REMARK SMILES IDX 1 1 2 2 3 3 4 4
REMARK H PARENT
REMARK Flexibility Score: inf
ROOT
ATOM      1  C   UNL     1     -26.554  -1.481  24.071  1.00  0.00     0.063 C 
ATOM      2  C   UNL     1     -27.949  -1.893  24.396  1.00  0.00     0.038 C 
ATOM      3  O   UNL     1     -28.544  -2.737  23.675  1.00  0.00    -0.550 OA
ATOM      4  O   UNL     1     -28.579  -1.387  25.527  1.00  0.00    -0.550 OA
ENDROOT
TORSDOF 0
ENDMDL
MODEL 6
REMARK VINA RESULT:    -2.369     10.762     11.052
REMARK INTER + INTRA:          -2.369
REMARK INTER:                  -2.369
REMARK INTRA:                   0.000
REMARK UNBOUND:                 0.000
REMARK SMILES CC(=O)[O-]
REMARK SMILES IDX 1 1 2 2 3 3 4 4
REMARK H PARENT
REMARK Flexibility Score: inf
ROOT
ATOM      1  C   UNL     1     -26.764   0.681  23.582  1.00  0.00     0.063 C 
ATOM      2  C   UNL     1     -26.723  -0.795  23.377  1.00  0.00     0.038 C 
ATOM      3  O   UNL     1     -26.277  -1.547  24.283  1.00  0.00    -0.550 OA
ATOM      4  O   UNL     1     -27.228  -1.350  22.208  1.00  0.00    -0.550 OA
ENDROOT
TORSDOF 0
ENDMDL
MODEL 7
REMARK VINA RESULT:    -2.359     11.169     11.389
REMARK INTER + INTRA:          -2.359
REMARK INTER:                  -2.359
REMARK INTRA:                   0.000
REMARK UNBOUND:                 0.000
REMARK SMILES CC(=O)[O-]
REMARK SMILES IDX 1 1 2 2 3 3 4 4
REMARK H PARENT
REMARK Flexibility Score: inf
ROOT
ATOM      1  C   UNL     1     -30.796  -2.233  23.717  1.00  0.00     0.063 C 
ATOM      2  C   UNL     1     -29.305  -2.224  23.691  1.00  0.00     0.038 C 
ATOM      3  O   UNL     1     -28.654  -2.113  24.763  1.00  0.00    -0.550 OA
ATOM      4  O   UNL     1     -28.629  -2.394  22.489  1.00  0.00    -0.550 OA
ENDROOT
TORSDOF 0
ENDMDL
MODEL 8
REMARK VINA RESULT:    -2.345      2.449      2.685
REMARK INTER + INTRA:          -2.345
REMARK INTER:                  -2.345
REMARK INTRA:                   0.000
REMARK UNBOUND:                 0.000
REMARK SMILES CC(=O)[O-]
REMARK SMILES IDX 1 1 2 2 3 3 4 4
REMARK H PARENT
REMARK Flexibility Score: inf
ROOT
ATOM      1  C   UNL     1     -28.612   1.496  33.724  1.00  0.00     0.063 C 
ATOM      2  C   UNL     1     -28.928   1.728  32.285  1.00  0.00     0.038 C 
ATOM      3  O   UNL     1     -28.931   0.764  31.474  1.00  0.00    -0.550 OA
ATOM      4  O   UNL     1     -29.274   3.000  31.845  1.00  0.00    -0.550 OA
ENDROOT
TORSDOF 0
ENDMDL
MODEL 9
REMARK VINA RESULT:    -2.335     10.861     11.108
REMARK INTER + INTRA:          -2.335
REMARK INTER:                  -2.335
REMARK INTRA:                   0.000
REMARK UNBOUND:                 0.000
REMARK SMILES CC(=O)[O-]
REMARK SMILES IDX 1 1 2 2 3 3 4 4
REMARK H PARENT
REMARK Flexibility Score: inf
ROOT
ATOM      1  C   UNL     1     -27.113   0.915  23.085  1.00  0.00     0.063 C 
ATOM      2  C   UNL     1     -28.597   0.805  22.990  1.00  0.00     0.038 C 
ATOM      3  O   UNL     1     -29.314   1.023  24.002  1.00  0.00    -0.550 OA
ATOM      4  O   UNL     1     -29.196   0.515  21.770  1.00  0.00    -0.550 OA
ENDROOT
TORSDOF 0
ENDMDL
