MODEL 1
REMARK VINA RESULT:    -6.910      0.000      0.000
REMARK INTER + INTRA:         -12.339
REMARK INTER:                  -9.536
REMARK INTRA:                  -2.803
REMARK UNBOUND:                -2.803
REMARK SMILES CC[C@@H](CC[C@H](C)[C@@H]1CC[C@H]2C3=CC[C@H]4C[C@H](O)CC[C@@]4(C)[C@@H]3CC[C@@]21C)C(C)C
REMARK SMILES IDX 5 1 4 2 3 3 2 4 1 5 28 6 29 7 30 8 6 9 7 10 8 11 9 12 26 13
REMARK SMILES IDX 10 14 11 15 25 16 27 17 12 18 24 19 23 20 13 21 21 22 14 23
REMARK SMILES IDX 15 24 20 25 22 26 16 27 19 28 17 29 18 30
REMARK H PARENT 18 31
REMARK Flexibility Score: inf
ROOT
ATOM      1  C   UNL     1     181.226 183.430 184.376  1.00  0.00     0.004 C 
ENDROOT
BRANCH   1   2
ATOM      2  C   UNL     1     182.440 182.645 184.928  1.00  0.00     0.004 C 
BRANCH   2   3
ATOM      3  C   UNL     1     182.065 181.237 185.477  1.00  0.00    -0.009 C 
BRANCH   3   4
ATOM      4  C   UNL     1     180.990 181.372 186.598  1.00  0.00     0.000 C 
ATOM      5  C   UNL     1     179.713 180.569 186.351  1.00  0.00     0.004 C 
ENDBRANCH   3   4
BRANCH   3   6
ATOM      6  C   UNL     1     183.366 180.465 185.904  1.00  0.00    -0.014 C 
ATOM      7  C   UNL     1     183.307 179.896 187.329  1.00  0.00     0.007 C 
ATOM      8  C   UNL     1     183.790 179.380 184.900  1.00  0.00     0.007 C 
ENDBRANCH   3   6
ENDBRANCH   2   3
ENDBRANCH   1   2
BRANCH   1   9
ATOM      9  C   UNL     1     181.281 183.692 182.841  1.00  0.00    -0.011 C 
ATOM     10  C   UNL     1     180.969 185.192 182.595  1.00  0.00     0.008 C 
BRANCH   9  11
ATOM     11  C   UNL     1     180.347 182.764 181.964  1.00  0.00    -0.002 C 
ATOM     12  C   UNL     1     178.985 182.372 182.629  1.00  0.00     0.005 C 
ATOM     13  C   UNL     1     180.922 181.356 181.556  1.00  0.00    -0.023 C 
ATOM     14  C   UNL     1     179.056 180.893 183.030  1.00  0.00     0.009 C 
ATOM     15  C   UNL     1     180.496 180.499 182.755  1.00  0.00     0.021 C 
ATOM     16  C   UNL     1     182.460 181.174 181.423  1.00  0.00     0.008 C 
ATOM     17  C   UNL     1     180.222 180.927 180.210  1.00  0.00     0.012 C 
ATOM     18  C   UNL     1     180.814 179.019 182.608  1.00  0.00    -0.067 C 
ATOM     19  C   UNL     1     182.930 179.680 181.422  1.00  0.00     0.009 C 
ATOM     20  C   UNL     1     181.806 178.594 181.513  1.00  0.00     0.021 C 
ATOM     21  C   UNL     1     180.462 178.205 183.619  1.00  0.00    -0.027 C 
ATOM     22  C   UNL     1     182.310 177.073 181.585  1.00  0.00    -0.023 C 
ATOM     23  C   UNL     1     180.835 176.766 183.664  1.00  0.00     0.031 C 
ATOM     24  C   UNL     1     182.222 176.515 183.043  1.00  0.00     0.002 C 
ATOM     25  C   UNL     1     181.409 176.195 180.653  1.00  0.00     0.010 C 
ATOM     26  C   UNL     1     183.780 176.957 181.070  1.00  0.00     0.012 C 
ATOM     27  C   UNL     1     182.558 175.003 183.123  1.00  0.00     0.036 C 
ATOM     28  C   UNL     1     181.710 174.684 180.726  1.00  0.00     0.032 C 
ATOM     29  C   UNL     1     181.695 174.148 182.170  1.00  0.00     0.114 C 
BRANCH  29  30
ATOM     30  O   UNL     1     182.112 172.807 182.204  1.00  0.00    -0.393 OA
ATOM     31  H   UNL     1     182.542 172.646 183.086  1.00  0.00     0.210 HD
ENDBRANCH  29  30
ENDBRANCH   9  11
ENDBRANCH   1   9
TORSDOF 7
ENDMDL
MODEL 2
REMARK VINA RESULT:    -6.816      0.865      1.679
REMARK INTER + INTRA:         -12.209
REMARK INTER:                  -9.426
REMARK INTRA:                  -2.783
REMARK UNBOUND:                -2.803
REMARK SMILES CC[C@@H](CC[C@H](C)[C@@H]1CC[C@H]2C3=CC[C@H]4C[C@H](O)CC[C@@]4(C)[C@@H]3CC[C@@]21C)C(C)C
REMARK SMILES IDX 5 1 4 2 3 3 2 4 1 5 28 6 29 7 30 8 6 9 7 10 8 11 9 12 26 13
REMARK SMILES IDX 10 14 11 15 25 16 27 17 12 18 24 19 23 20 13 21 21 22 14 23
REMARK SMILES IDX 15 24 20 25 22 26 16 27 19 28 17 29 18 30
REMARK H PARENT 18 31
REMARK Flexibility Score: inf
ROOT
ATOM      1  C   UNL     1     182.011 182.684 184.746  1.00  0.00     0.004 C 
ENDROOT
BRANCH   1   2
ATOM      2  C   UNL     1     183.380 181.992 184.942  1.00  0.00     0.004 C 
BRANCH   2   3
ATOM      3  C   UNL     1     183.360 180.885 186.038  1.00  0.00    -0.009 C 
BRANCH   3   4
ATOM      4  C   UNL     1     183.725 179.506 185.408  1.00  0.00     0.000 C 
ATOM      5  C   UNL     1     184.773 179.575 184.297  1.00  0.00     0.004 C 
ENDBRANCH   3   4
BRANCH   3   6
ATOM      6  C   UNL     1     181.987 180.915 186.803  1.00  0.00    -0.014 C 
ATOM      7  C   UNL     1     181.143 179.647 186.607  1.00  0.00     0.007 C 
ATOM      8  C   UNL     1     182.127 181.252 188.297  1.00  0.00     0.007 C 
ENDBRANCH   3   6
ENDBRANCH   2   3
ENDBRANCH   1   2
BRANCH   1   9
ATOM      9  C   UNL     1     181.733 183.144 183.283  1.00  0.00    -0.011 C 
ATOM     10  C   UNL     1     181.373 184.653 183.311  1.00  0.00     0.008 C 
BRANCH   9  11
ATOM     11  C   UNL     1     180.633 182.309 182.511  1.00  0.00    -0.002 C 
ATOM     12  C   UNL     1     179.403 181.870 183.374  1.00  0.00     0.005 C 
ATOM     13  C   UNL     1     181.090 180.941 181.881  1.00  0.00    -0.023 C 
ATOM     14  C   UNL     1     179.508 180.360 183.621  1.00  0.00     0.009 C 
ATOM     15  C   UNL     1     180.865 179.980 183.056  1.00  0.00     0.021 C 
ATOM     16  C   UNL     1     182.574 180.758 181.456  1.00  0.00     0.008 C 
ATOM     17  C   UNL     1     180.149 180.644 180.652  1.00  0.00     0.012 C 
ATOM     18  C   UNL     1     181.114 178.517 182.722  1.00  0.00    -0.067 C 
ATOM     19  C   UNL     1     182.998 179.267 181.236  1.00  0.00     0.009 C 
ATOM     20  C   UNL     1     181.881 178.186 181.432  1.00  0.00     0.021 C 
ATOM     21  C   UNL     1     180.929 177.616 183.703  1.00  0.00    -0.027 C 
ATOM     22  C   UNL     1     182.351 176.661 181.274  1.00  0.00    -0.023 C 
ATOM     23  C   UNL     1     181.267 176.175 183.551  1.00  0.00     0.031 C 
ATOM     24  C   UNL     1     182.513 175.971 182.668  1.00  0.00     0.002 C 
ATOM     25  C   UNL     1     181.276 175.881 180.447  1.00  0.00     0.010 C 
ATOM     26  C   UNL     1     183.701 176.581 180.493  1.00  0.00     0.012 C 
ATOM     27  C   UNL     1     182.819 174.456 182.550  1.00  0.00     0.036 C 
ATOM     28  C   UNL     1     181.547 174.367 180.328  1.00  0.00     0.032 C 
ATOM     29  C   UNL     1     181.777 173.700 181.697  1.00  0.00     0.114 C 
BRANCH  29  30
ATOM     30  O   UNL     1     182.160 172.358 181.534  1.00  0.00    -0.393 OA
ATOM     31  H   UNL     1     181.333 171.805 181.536  1.00  0.00     0.210 HD
ENDBRANCH  29  30
ENDBRANCH   9  11
ENDBRANCH   1   9
TORSDOF 7
ENDMDL
MODEL 3
REMARK VINA RESULT:    -6.774      0.895      1.176
REMARK INTER + INTRA:         -12.151
REMARK INTER:                  -9.611
REMARK INTRA:                  -2.540
REMARK UNBOUND:                -2.803
REMARK SMILES CC[C@@H](CC[C@H](C)[C@@H]1CC[C@H]2C3=CC[C@H]4C[C@H](O)CC[C@@]4(C)[C@@H]3CC[C@@]21C)C(C)C
REMARK SMILES IDX 5 1 4 2 3 3 2 4 1 5 28 6 29 7 30 8 6 9 7 10 8 11 9 12 26 13
REMARK SMILES IDX 10 14 11 15 25 16 27 17 12 18 24 19 23 20 13 21 21 22 14 23
REMARK SMILES IDX 15 24 20 25 22 26 16 27 19 28 17 29 18 30
REMARK H PARENT 18 31
REMARK Flexibility Score: inf
ROOT
ATOM      1  C   UNL     1     181.511 182.870 185.018  1.00  0.00     0.004 C 
ENDROOT
BRANCH   1   2
ATOM      2  C   UNL     1     182.750 182.151 185.603  1.00  0.00     0.004 C 
BRANCH   2   3
ATOM      3  C   UNL     1     182.544 180.619 185.785  1.00  0.00    -0.009 C 
BRANCH   3   4
ATOM      4  C   UNL     1     181.639 180.347 187.026  1.00  0.00     0.000 C 
ATOM      5  C   UNL     1     182.079 181.068 188.301  1.00  0.00     0.004 C 
ENDBRANCH   3   4
BRANCH   3   6
ATOM      6  C   UNL     1     183.937 179.891 185.817  1.00  0.00    -0.014 C 
ATOM      7  C   UNL     1     184.285 179.167 184.509  1.00  0.00     0.007 C 
ATOM      8  C   UNL     1     185.093 180.802 186.261  1.00  0.00     0.007 C 
ENDBRANCH   3   6
ENDBRANCH   2   3
ENDBRANCH   1   2
BRANCH   1   9
ATOM      9  C   UNL     1     181.556 183.058 183.472  1.00  0.00    -0.011 C 
ATOM     10  C   UNL     1     181.417 184.573 183.165  1.00  0.00     0.008 C 
BRANCH   9  11
ATOM     11  C   UNL     1     180.495 182.212 182.658  1.00  0.00    -0.002 C 
ATOM     12  C   UNL     1     179.256 181.728 183.482  1.00  0.00     0.005 C 
ATOM     13  C   UNL     1     181.000 180.866 182.016  1.00  0.00    -0.023 C 
ATOM     14  C   UNL     1     179.391 180.216 183.706  1.00  0.00     0.009 C 
ATOM     15  C   UNL     1     180.770 179.879 183.167  1.00  0.00     0.021 C 
ATOM     16  C   UNL     1     182.498 180.727 181.623  1.00  0.00     0.008 C 
ATOM     17  C   UNL     1     180.096 180.569 180.758  1.00  0.00     0.012 C 
ATOM     18  C   UNL     1     181.062 178.429 182.814  1.00  0.00    -0.067 C 
ATOM     19  C   UNL     1     182.963 179.250 181.388  1.00  0.00     0.009 C 
ATOM     20  C   UNL     1     181.868 178.140 181.537  1.00  0.00     0.021 C 
ATOM     21  C   UNL     1     180.875 177.506 183.774  1.00  0.00    -0.027 C 
ATOM     22  C   UNL     1     182.379 176.630 181.364  1.00  0.00    -0.023 C 
ATOM     23  C   UNL     1     181.252 176.077 183.605  1.00  0.00     0.031 C 
ATOM     24  C   UNL     1     182.524 175.918 182.750  1.00  0.00     0.002 C 
ATOM     25  C   UNL     1     181.343 175.839 180.497  1.00  0.00     0.010 C 
ATOM     26  C   UNL     1     183.748 176.595 180.615  1.00  0.00     0.012 C 
ATOM     27  C   UNL     1     182.869 174.413 182.613  1.00  0.00     0.036 C 
ATOM     28  C   UNL     1     181.653 174.334 180.359  1.00  0.00     0.032 C 
ATOM     29  C   UNL     1     181.866 173.648 181.721  1.00  0.00     0.114 C 
BRANCH  29  30
ATOM     30  O   UNL     1     182.285 172.319 181.544  1.00  0.00    -0.393 OA
ATOM     31  H   UNL     1     182.866 172.079 182.315  1.00  0.00     0.210 HD
ENDBRANCH  29  30
ENDBRANCH   9  11
ENDBRANCH   1   9
TORSDOF 7
ENDMDL
MODEL 4
REMARK VINA RESULT:    -6.366      2.657      7.659
REMARK INTER + INTRA:         -11.588
REMARK INTER:                  -8.759
REMARK INTRA:                  -2.829
REMARK UNBOUND:                -2.803
REMARK SMILES CC[C@@H](CC[C@H](C)[C@@H]1CC[C@H]2C3=CC[C@H]4C[C@H](O)CC[C@@]4(C)[C@@H]3CC[C@@]21C)C(C)C
REMARK SMILES IDX 5 1 4 2 3 3 2 4 1 5 28 6 29 7 30 8 6 9 7 10 8 11 9 12 26 13
REMARK SMILES IDX 10 14 11 15 25 16 27 17 12 18 24 19 23 20 13 21 21 22 14 23
REMARK SMILES IDX 15 24 20 25 22 26 16 27 19 28 17 29 18 30
REMARK H PARENT 18 31
REMARK Flexibility Score: inf
ROOT
ATOM      1  C   UNL     1     184.329 173.745 178.752  1.00  0.00     0.004 C 
ENDROOT
BRANCH   1   2
ATOM      2  C   UNL     1     182.958 173.877 178.047  1.00  0.00     0.004 C 
BRANCH   2   3
ATOM      3  C   UNL     1     181.750 173.653 179.002  1.00  0.00    -0.009 C 
BRANCH   3   4
ATOM      4  C   UNL     1     181.259 175.021 179.569  1.00  0.00     0.000 C 
ATOM      5  C   UNL     1     181.281 176.169 178.560  1.00  0.00     0.004 C 
ENDBRANCH   3   4
BRANCH   3   6
ATOM      6  C   UNL     1     182.121 172.585 180.094  1.00  0.00    -0.014 C 
ATOM      7  C   UNL     1     181.597 172.927 181.496  1.00  0.00     0.007 C 
ATOM      8  C   UNL     1     181.734 171.150 179.702  1.00  0.00     0.007 C 
ENDBRANCH   3   6
ENDBRANCH   2   3
ENDBRANCH   1   2
BRANCH   1   9
ATOM      9  C   UNL     1     185.152 175.068 178.799  1.00  0.00    -0.011 C 
ATOM     10  C   UNL     1     186.335 174.936 177.804  1.00  0.00     0.008 C 
BRANCH   9  11
ATOM     11  C   UNL     1     185.659 175.497 180.235  1.00  0.00    -0.002 C 
ATOM     12  C   UNL     1     185.566 174.385 181.333  1.00  0.00     0.005 C 
ATOM     13  C   UNL     1     184.907 176.695 180.926  1.00  0.00    -0.023 C 
ATOM     14  C   UNL     1     184.425 174.753 182.290  1.00  0.00     0.009 C 
ATOM     15  C   UNL     1     183.769 175.960 181.646  1.00  0.00     0.021 C 
ATOM     16  C   UNL     1     184.228 177.777 180.041  1.00  0.00     0.008 C 
ATOM     17  C   UNL     1     185.921 177.386 181.917  1.00  0.00     0.012 C 
ATOM     18  C   UNL     1     182.906 176.855 182.523  1.00  0.00    -0.067 C 
ATOM     19  C   UNL     1     183.187 178.667 180.802  1.00  0.00     0.009 C 
ATOM     20  C   UNL     1     183.006 178.377 182.331  1.00  0.00     0.021 C 
ATOM     21  C   UNL     1     181.892 176.277 183.191  1.00  0.00    -0.027 C 
ATOM     22  C   UNL     1     181.885 179.247 183.077  1.00  0.00    -0.023 C 
ATOM     23  C   UNL     1     180.892 177.054 183.972  1.00  0.00     0.031 C 
ATOM     24  C   UNL     1     180.584 178.412 183.313  1.00  0.00     0.002 C 
ATOM     25  C   UNL     1     182.444 179.714 184.464  1.00  0.00     0.010 C 
ATOM     26  C   UNL     1     181.542 180.526 182.250  1.00  0.00     0.012 C 
ATOM     27  C   UNL     1     179.535 179.173 184.166  1.00  0.00     0.036 C 
ATOM     28  C   UNL     1     181.416 180.458 185.340  1.00  0.00     0.032 C 
ATOM     29  C   UNL     1     180.106 179.668 185.514  1.00  0.00     0.114 C 
BRANCH  29  30
ATOM     30  O   UNL     1     179.149 180.439 186.195  1.00  0.00    -0.393 OA
ATOM     31  H   UNL     1     178.249 180.140 185.895  1.00  0.00     0.210 HD
ENDBRANCH  29  30
ENDBRANCH   9  11
ENDBRANCH   1   9
TORSDOF 7
ENDMDL
MODEL 5
REMARK VINA RESULT:    -6.216      3.489      7.486
REMARK INTER + INTRA:         -11.381
REMARK INTER:                  -8.785
REMARK INTRA:                  -2.596
REMARK UNBOUND:                -2.803
REMARK SMILES CC[C@@H](CC[C@H](C)[C@@H]1CC[C@H]2C3=CC[C@H]4C[C@H](O)CC[C@@]4(C)[C@@H]3CC[C@@]21C)C(C)C
REMARK SMILES IDX 5 1 4 2 3 3 2 4 1 5 28 6 29 7 30 8 6 9 7 10 8 11 9 12 26 13
REMARK SMILES IDX 10 14 11 15 25 16 27 17 12 18 24 19 23 20 13 21 21 22 14 23
REMARK SMILES IDX 15 24 20 25 22 26 16 27 19 28 17 29 18 30
REMARK H PARENT 18 31
REMARK Flexibility Score: inf
ROOT
ATOM      1  C   UNL     1     180.881 178.204 184.342  1.00  0.00     0.004 C 
ENDROOT
BRANCH   1   2
ATOM      2  C   UNL     1     181.873 177.728 183.254  1.00  0.00     0.004 C 
BRANCH   2   3
ATOM      3  C   UNL     1     182.158 178.806 182.167  1.00  0.00    -0.009 C 
BRANCH   3   4
ATOM      4  C   UNL     1     181.696 178.289 180.771  1.00  0.00     0.000 C 
ATOM      5  C   UNL     1     181.832 176.779 180.578  1.00  0.00     0.004 C 
ENDBRANCH   3   4
BRANCH   3   6
ATOM      6  C   UNL     1     183.664 179.251 182.237  1.00  0.00    -0.014 C 
ATOM      7  C   UNL     1     183.864 180.771 182.150  1.00  0.00     0.007 C 
ATOM      8  C   UNL     1     184.418 178.670 183.445  1.00  0.00     0.007 C 
ENDBRANCH   3   6
ENDBRANCH   2   3
ENDBRANCH   1   2
BRANCH   1   9
ATOM      9  C   UNL     1     181.170 179.636 184.885  1.00  0.00    -0.011 C 
ATOM     10  C   UNL     1     181.515 179.522 186.393  1.00  0.00     0.008 C 
BRANCH   9  11
ATOM     11  C   UNL     1     180.020 180.695 184.641  1.00  0.00    -0.002 C 
ATOM     12  C   UNL     1     179.023 180.341 183.487  1.00  0.00     0.005 C 
ATOM     13  C   UNL     1     180.465 182.152 184.245  1.00  0.00    -0.023 C 
ATOM     14  C   UNL     1     179.306 181.277 182.306  1.00  0.00     0.009 C 
ATOM     15  C   UNL     1     180.556 182.033 182.718  1.00  0.00     0.021 C 
ATOM     16  C   UNL     1     181.849 182.678 184.718  1.00  0.00     0.008 C 
ATOM     17  C   UNL     1     179.334 183.143 184.721  1.00  0.00     0.012 C 
ATOM     18  C   UNL     1     180.863 183.343 182.008  1.00  0.00    -0.067 C 
ATOM     19  C   UNL     1     182.353 183.943 183.943  1.00  0.00     0.009 C 
ATOM     20  C   UNL     1     181.394 184.517 182.846  1.00  0.00     0.021 C 
ATOM     21  C   UNL     1     180.951 183.316 180.666  1.00  0.00    -0.027 C 
ATOM     22  C   UNL     1     181.957 185.767 182.013  1.00  0.00    -0.023 C 
ATOM     23  C   UNL     1     181.379 184.491 179.861  1.00  0.00     0.031 C 
ATOM     24  C   UNL     1     182.444 185.328 180.593  1.00  0.00     0.002 C 
ATOM     25  C   UNL     1     180.815 186.825 181.850  1.00  0.00     0.010 C 
ATOM     26  C   UNL     1     183.132 186.452 182.779  1.00  0.00     0.012 C 
ATOM     27  C   UNL     1     182.854 186.532 179.706  1.00  0.00     0.036 C 
ATOM     28  C   UNL     1     181.190 188.026 180.957  1.00  0.00     0.032 C 
ATOM     29  C   UNL     1     181.738 187.593 179.585  1.00  0.00     0.114 C 
BRANCH  29  30
ATOM     30  O   UNL     1     182.198 188.706 178.863  1.00  0.00    -0.393 OA
ATOM     31  H   UNL     1     183.191 188.716 178.921  1.00  0.00     0.210 HD
ENDBRANCH  29  30
ENDBRANCH   9  11
ENDBRANCH   1   9
TORSDOF 7
ENDMDL
MODEL 6
REMARK VINA RESULT:    -6.184      2.284      5.116
REMARK INTER + INTRA:         -11.336
REMARK INTER:                  -9.832
REMARK INTRA:                  -1.505
REMARK UNBOUND:                -2.803
REMARK SMILES CC[C@@H](CC[C@H](C)[C@@H]1CC[C@H]2C3=CC[C@H]4C[C@H](O)CC[C@@]4(C)[C@@H]3CC[C@@]21C)C(C)C
REMARK SMILES IDX 5 1 4 2 3 3 2 4 1 5 28 6 29 7 30 8 6 9 7 10 8 11 9 12 26 13
REMARK SMILES IDX 10 14 11 15 25 16 27 17 12 18 24 19 23 20 13 21 21 22 14 23
REMARK SMILES IDX 15 24 20 25 22 26 16 27 19 28 17 29 18 30
REMARK H PARENT 18 31
REMARK Flexibility Score: inf
ROOT
ATOM      1  C   UNL     1     179.627 179.470 183.450  1.00  0.00     0.004 C 
ENDROOT
BRANCH   1   2
ATOM      2  C   UNL     1     179.375 180.724 184.321  1.00  0.00     0.004 C 
BRANCH   2   3
ATOM      3  C   UNL     1     179.973 182.027 183.712  1.00  0.00    -0.009 C 
BRANCH   3   4
ATOM      4  C   UNL     1     181.176 182.514 184.576  1.00  0.00     0.000 C 
ATOM      5  C   UNL     1     182.522 182.503 183.852  1.00  0.00     0.004 C 
ENDBRANCH   3   4
BRANCH   3   6
ATOM      6  C   UNL     1     178.836 183.093 183.507  1.00  0.00    -0.014 C 
ATOM      7  C   UNL     1     178.614 184.001 184.726  1.00  0.00     0.007 C 
ATOM      8  C   UNL     1     179.004 183.929 182.228  1.00  0.00     0.007 C 
ENDBRANCH   3   6
ENDBRANCH   2   3
ENDBRANCH   1   2
BRANCH   1   9
ATOM      9  C   UNL     1     180.621 178.448 184.078  1.00  0.00    -0.011 C 
ATOM     10  C   UNL     1     180.853 178.847 185.559  1.00  0.00     0.008 C 
BRANCH   9  11
ATOM     11  C   UNL     1     181.995 178.283 183.310  1.00  0.00    -0.002 C 
ATOM     12  C   UNL     1     182.197 179.247 182.093  1.00  0.00     0.005 C 
ATOM     13  C   UNL     1     182.281 176.878 182.659  1.00  0.00    -0.023 C 
ATOM     14  C   UNL     1     182.072 178.424 180.805  1.00  0.00     0.009 C 
ATOM     15  C   UNL     1     181.634 177.050 181.279  1.00  0.00     0.021 C 
ATOM     16  C   UNL     1     181.638 175.607 183.281  1.00  0.00     0.008 C 
ATOM     17  C   UNL     1     183.846 176.696 182.588  1.00  0.00     0.012 C 
ATOM     18  C   UNL     1     181.845 175.872 180.340  1.00  0.00    -0.067 C 
ATOM     19  C   UNL     1     181.651 174.357 182.337  1.00  0.00     0.009 C 
ATOM     20  C   UNL     1     182.332 174.542 180.939  1.00  0.00     0.021 C 
ATOM     21  C   UNL     1     181.310 175.955 179.109  1.00  0.00    -0.027 C 
ATOM     22  C   UNL     1     182.271 173.274 179.960  1.00  0.00    -0.023 C 
ATOM     23  C   UNL     1     181.324 174.823 178.143  1.00  0.00     0.031 C 
ATOM     24  C   UNL     1     181.181 173.464 178.854  1.00  0.00     0.002 C 
ATOM     25  C   UNL     1     183.665 173.098 179.269  1.00  0.00     0.010 C 
ATOM     26  C   UNL     1     181.973 171.971 180.767  1.00  0.00     0.012 C 
ATOM     27  C   UNL     1     181.197 172.327 177.801  1.00  0.00     0.036 C 
ATOM     28  C   UNL     1     183.704 171.983 178.204  1.00  0.00     0.032 C 
ATOM     29  C   UNL     1     182.586 172.130 177.155  1.00  0.00     0.114 C 
BRANCH  29  30
ATOM     30  O   UNL     1     182.571 171.022 176.291  1.00  0.00    -0.393 OA
ATOM     31  H   UNL     1     183.450 170.986 175.828  1.00  0.00     0.210 HD
ENDBRANCH  29  30
ENDBRANCH   9  11
ENDBRANCH   1   9
TORSDOF 7
ENDMDL
MODEL 7
REMARK VINA RESULT:    -6.088      1.899      2.888
REMARK INTER + INTRA:         -11.204
REMARK INTER:                  -8.503
REMARK INTRA:                  -2.701
REMARK UNBOUND:                -2.803
REMARK SMILES CC[C@@H](CC[C@H](C)[C@@H]1CC[C@H]2C3=CC[C@H]4C[C@H](O)CC[C@@]4(C)[C@@H]3CC[C@@]21C)C(C)C
REMARK SMILES IDX 5 1 4 2 3 3 2 4 1 5 28 6 29 7 30 8 6 9 7 10 8 11 9 12 26 13
REMARK SMILES IDX 10 14 11 15 25 16 27 17 12 18 24 19 23 20 13 21 21 22 14 23
REMARK SMILES IDX 15 24 20 25 22 26 16 27 19 28 17 29 18 30
REMARK H PARENT 18 31
REMARK Flexibility Score: inf
ROOT
ATOM      1  C   UNL     1     184.114 183.240 186.400  1.00  0.00     0.004 C 
ENDROOT
BRANCH   1   2
ATOM      2  C   UNL     1     184.001 182.279 187.608  1.00  0.00     0.004 C 
BRANCH   2   3
ATOM      3  C   UNL     1     184.382 180.809 187.264  1.00  0.00    -0.009 C 
BRANCH   3   4
ATOM      4  C   UNL     1     183.142 179.881 187.452  1.00  0.00     0.000 C 
ATOM      5  C   UNL     1     181.840 180.619 187.762  1.00  0.00     0.004 C 
ENDBRANCH   3   4
BRANCH   3   6
ATOM      6  C   UNL     1     185.654 180.380 188.081  1.00  0.00    -0.014 C 
ATOM      7  C   UNL     1     186.975 180.613 187.334  1.00  0.00     0.007 C 
ATOM      8  C   UNL     1     185.710 180.989 189.491  1.00  0.00     0.007 C 
ENDBRANCH   3   6
ENDBRANCH   2   3
ENDBRANCH   1   2
BRANCH   1   9
ATOM      9  C   UNL     1     184.781 182.606 185.143  1.00  0.00    -0.011 C 
ATOM     10  C   UNL     1     186.042 183.438 184.793  1.00  0.00     0.008 C 
BRANCH   9  11
ATOM     11  C   UNL     1     183.834 182.448 183.884  1.00  0.00    -0.002 C 
ATOM     12  C   UNL     1     182.311 182.681 184.164  1.00  0.00     0.005 C 
ATOM     13  C   UNL     1     183.820 181.042 183.176  1.00  0.00    -0.023 C 
ATOM     14  C   UNL     1     181.602 181.322 184.110  1.00  0.00     0.009 C 
ATOM     15  C   UNL     1     182.729 180.316 183.974  1.00  0.00     0.021 C 
ATOM     16  C   UNL     1     185.083 180.140 183.253  1.00  0.00     0.008 C 
ATOM     17  C   UNL     1     183.429 181.273 181.666  1.00  0.00     0.012 C 
ATOM     18  C   UNL     1     182.388 178.930 183.446  1.00  0.00    -0.067 C 
ATOM     19  C   UNL     1     184.822 178.640 182.883  1.00  0.00     0.009 C 
ATOM     20  C   UNL     1     183.361 178.270 182.456  1.00  0.00     0.021 C 
ATOM     21  C   UNL     1     181.436 178.236 184.093  1.00  0.00    -0.027 C 
ATOM     22  C   UNL     1     183.097 176.718 182.151  1.00  0.00    -0.023 C 
ATOM     23  C   UNL     1     181.103 176.823 183.766  1.00  0.00     0.031 C 
ATOM     24  C   UNL     1     182.350 176.027 183.339  1.00  0.00     0.002 C 
ATOM     25  C   UNL     1     182.216 176.596 180.863  1.00  0.00     0.010 C 
ATOM     26  C   UNL     1     184.443 175.975 181.879  1.00  0.00     0.012 C 
ATOM     27  C   UNL     1     181.944 174.565 183.018  1.00  0.00     0.036 C 
ATOM     28  C   UNL     1     181.783 175.153 180.529  1.00  0.00     0.032 C 
ATOM     29  C   UNL     1     181.112 174.448 181.722  1.00  0.00     0.114 C 
BRANCH  29  30
ATOM     30  O   UNL     1     180.864 173.098 181.422  1.00  0.00    -0.393 OA
ATOM     31  H   UNL     1     180.482 173.056 180.504  1.00  0.00     0.210 HD
ENDBRANCH  29  30
ENDBRANCH   9  11
ENDBRANCH   1   9
TORSDOF 7
ENDMDL
MODEL 8
REMARK VINA RESULT:    -6.085      1.627      3.804
REMARK INTER + INTRA:         -11.201
REMARK INTER:                  -7.918
REMARK INTRA:                  -3.283
REMARK UNBOUND:                -2.803
REMARK SMILES CC[C@@H](CC[C@H](C)[C@@H]1CC[C@H]2C3=CC[C@H]4C[C@H](O)CC[C@@]4(C)[C@@H]3CC[C@@]21C)C(C)C
REMARK SMILES IDX 5 1 4 2 3 3 2 4 1 5 28 6 29 7 30 8 6 9 7 10 8 11 9 12 26 13
REMARK SMILES IDX 10 14 11 15 25 16 27 17 12 18 24 19 23 20 13 21 21 22 14 23
REMARK SMILES IDX 15 24 20 25 22 26 16 27 19 28 17 29 18 30
REMARK H PARENT 18 31
REMARK Flexibility Score: inf
ROOT
ATOM      1  C   UNL     1     181.360 183.690 184.107  1.00  0.00     0.004 C 
ENDROOT
BRANCH   1   2
ATOM      2  C   UNL     1     181.839 183.792 182.639  1.00  0.00     0.004 C 
BRANCH   2   3
ATOM      3  C   UNL     1     182.803 182.642 182.225  1.00  0.00    -0.009 C 
BRANCH   3   4
ATOM      4  C   UNL     1     184.283 183.115 182.360  1.00  0.00     0.000 C 
ATOM      5  C   UNL     1     185.058 182.451 183.498  1.00  0.00     0.004 C 
ENDBRANCH   3   4
BRANCH   3   6
ATOM      6  C   UNL     1     182.414 182.104 180.800  1.00  0.00    -0.014 C 
ATOM      7  C   UNL     1     182.983 180.712 180.489  1.00  0.00     0.007 C 
ATOM      8  C   UNL     1     180.902 182.150 180.521  1.00  0.00     0.007 C 
ENDBRANCH   3   6
ENDBRANCH   2   3
ENDBRANCH   1   2
BRANCH   1   9
ATOM      9  C   UNL     1     180.138 182.745 184.314  1.00  0.00    -0.011 C 
ATOM     10  C   UNL     1     178.951 183.598 184.835  1.00  0.00     0.008 C 
BRANCH   9  11
ATOM     11  C   UNL     1     180.400 181.499 185.253  1.00  0.00    -0.002 C 
ATOM     12  C   UNL     1     181.665 181.609 186.168  1.00  0.00     0.005 C 
ATOM     13  C   UNL     1     180.635 180.112 184.546  1.00  0.00    -0.023 C 
ATOM     14  C   UNL     1     182.736 180.657 185.621  1.00  0.00     0.009 C 
ATOM     15  C   UNL     1     182.151 180.145 184.317  1.00  0.00     0.021 C 
ATOM     16  C   UNL     1     179.995 179.852 183.153  1.00  0.00     0.008 C 
ATOM     17  C   UNL     1     180.186 178.982 185.550  1.00  0.00     0.012 C 
ATOM     18  C   UNL     1     182.722 178.860 183.736  1.00  0.00    -0.067 C 
ATOM     19  C   UNL     1     180.616 178.639 182.380  1.00  0.00     0.009 C 
ATOM     20  C   UNL     1     181.747 177.845 183.118  1.00  0.00     0.021 C 
ATOM     21  C   UNL     1     184.048 178.814 183.515  1.00  0.00    -0.027 C 
ATOM     22  C   UNL     1     182.421 176.654 182.283  1.00  0.00    -0.023 C 
ATOM     23  C   UNL     1     184.713 177.675 182.827  1.00  0.00     0.031 C 
ATOM     24  C   UNL     1     183.820 177.073 181.725  1.00  0.00     0.002 C 
ATOM     25  C   UNL     1     182.602 175.414 183.221  1.00  0.00     0.010 C 
ATOM     26  C   UNL     1     181.497 176.222 181.100  1.00  0.00     0.012 C 
ATOM     27  C   UNL     1     184.566 175.898 181.042  1.00  0.00     0.036 C 
ATOM     28  C   UNL     1     183.356 174.236 182.572  1.00  0.00     0.032 C 
ATOM     29  C   UNL     1     184.703 174.663 181.960  1.00  0.00     0.114 C 
BRANCH  29  30
ATOM     30  O   UNL     1     185.288 173.595 181.258  1.00  0.00    -0.393 OA
ATOM     31  H   UNL     1     184.877 172.752 181.591  1.00  0.00     0.210 HD
ENDBRANCH  29  30
ENDBRANCH   9  11
ENDBRANCH   1   9
TORSDOF 7
ENDMDL
MODEL 9
REMARK VINA RESULT:    -6.032      3.382      8.661
REMARK INTER + INTRA:         -11.127
REMARK INTER:                  -9.764
REMARK INTRA:                  -1.363
REMARK UNBOUND:                -2.803
REMARK SMILES CC[C@@H](CC[C@H](C)[C@@H]1CC[C@H]2C3=CC[C@H]4C[C@H](O)CC[C@@]4(C)[C@@H]3CC[C@@]21C)C(C)C
REMARK SMILES IDX 5 1 4 2 3 3 2 4 1 5 28 6 29 7 30 8 6 9 7 10 8 11 9 12 26 13
REMARK SMILES IDX 10 14 11 15 25 16 27 17 12 18 24 19 23 20 13 21 21 22 14 23
REMARK SMILES IDX 15 24 20 25 22 26 16 27 19 28 17 29 18 30
REMARK H PARENT 18 31
REMARK Flexibility Score: inf
ROOT
ATOM      1  C   UNL     1     181.250 173.513 179.135  1.00  0.00     0.004 C 
ENDROOT
BRANCH   1   2
ATOM      2  C   UNL     1     181.089 172.448 178.024  1.00  0.00     0.004 C 
BRANCH   2   3
ATOM      3  C   UNL     1     180.018 172.826 176.959  1.00  0.00    -0.009 C 
BRANCH   3   4
ATOM      4  C   UNL     1     180.251 172.002 175.655  1.00  0.00     0.000 C 
ATOM      5  C   UNL     1     178.986 171.375 175.069  1.00  0.00     0.004 C 
ENDBRANCH   3   4
BRANCH   3   6
ATOM      6  C   UNL     1     179.993 174.384 176.756  1.00  0.00    -0.014 C 
ATOM      7  C   UNL     1     180.833 174.866 175.564  1.00  0.00     0.007 C 
ATOM      8  C   UNL     1     178.572 174.970 176.693  1.00  0.00     0.007 C 
ENDBRANCH   3   6
ENDBRANCH   2   3
ENDBRANCH   1   2
BRANCH   1   9
ATOM      9  C   UNL     1     182.624 174.248 179.117  1.00  0.00    -0.011 C 
ATOM     10  C   UNL     1     183.490 173.628 177.989  1.00  0.00     0.008 C 
BRANCH   9  11
ATOM     11  C   UNL     1     183.403 174.256 180.495  1.00  0.00    -0.002 C 
ATOM     12  C   UNL     1     182.811 173.318 181.599  1.00  0.00     0.005 C 
ATOM     13  C   UNL     1     183.490 175.632 181.255  1.00  0.00    -0.023 C 
ATOM     14  C   UNL     1     182.142 174.196 182.665  1.00  0.00     0.009 C 
ATOM     15  C   UNL     1     182.201 175.598 182.087  1.00  0.00     0.021 C 
ATOM     16  C   UNL     1     183.440 176.955 180.440  1.00  0.00     0.008 C 
ATOM     17  C   UNL     1     184.795 175.607 182.139  1.00  0.00     0.012 C 
ATOM     18  C   UNL     1     182.044 176.770 183.043  1.00  0.00    -0.067 C 
ATOM     19  C   UNL     1     183.123 178.225 181.299  1.00  0.00     0.009 C 
ATOM     20  C   UNL     1     182.943 178.000 182.839  1.00  0.00     0.021 C 
ATOM     21  C   UNL     1     180.940 176.803 183.810  1.00  0.00    -0.027 C 
ATOM     22  C   UNL     1     182.548 179.300 183.691  1.00  0.00    -0.023 C 
ATOM     23  C   UNL     1     180.598 177.956 184.685  1.00  0.00     0.031 C 
ATOM     24  C   UNL     1     181.027 179.296 184.058  1.00  0.00     0.002 C 
ATOM     25  C   UNL     1     183.385 179.314 185.014  1.00  0.00     0.010 C 
ATOM     26  C   UNL     1     182.890 180.601 182.899  1.00  0.00     0.012 C 
ATOM     27  C   UNL     1     180.642 180.458 185.009  1.00  0.00     0.036 C 
ATOM     28  C   UNL     1     183.010 180.450 185.987  1.00  0.00     0.032 C 
ATOM     29  C   UNL     1     181.501 180.492 186.292  1.00  0.00     0.114 C 
BRANCH  29  30
ATOM     30  O   UNL     1     181.183 181.622 187.063  1.00  0.00    -0.393 OA
ATOM     31  H   UNL     1     180.529 181.341 187.757  1.00  0.00     0.210 HD
ENDBRANCH  29  30
ENDBRANCH   9  11
ENDBRANCH   1   9
TORSDOF 7
ENDMDL
