MODEL 1
REMARK VINA RESULT:    -5.722      0.000      0.000
REMARK INTER + INTRA:          -7.118
REMARK INTER:                  -6.892
REMARK INTRA:                  -0.225
REMARK UNBOUND:                -0.225
REMARK SMILES O=c1c(O)c(-c2ccc(O)cc2O)oc2cc(O)cc(O)c12
REMARK SMILES IDX 5 1 3 2 2 3 1 4 22 5 20 6 19 7 17 8 16 9 15 10 14 11 6 12
REMARK SMILES IDX 8 13 7 14 9 15 11 16 12 17 10 18 13 20 4 22 21 24 18 26
REMARK H PARENT 10 19 13 21 4 23 21 25 18 27
REMARK Flexibility Score: inf
ROOT
ATOM      1  C   UNL     1      20.551  -5.623 -37.502  1.00  0.00     0.184 A 
ATOM      2  C   UNL     1      20.615  -4.402 -36.809  1.00  0.00     0.208 A 
ATOM      3  C   UNL     1      19.838  -4.234 -35.652  1.00  0.00     0.238 A 
ATOM      4  O   UNL     1      19.858  -3.119 -35.068  1.00  0.00    -0.285 OA
ATOM      5  C   UNL     1      19.022  -5.295 -35.192  1.00  0.00     0.111 A 
ATOM      6  C   UNL     1      18.223  -5.249 -34.009  1.00  0.00     0.134 A 
ATOM      7  C   UNL     1      17.358  -6.311 -33.719  1.00  0.00     0.093 A 
ATOM      8  C   UNL     1      17.308  -7.443 -34.531  1.00  0.00     0.123 A 
ATOM      9  C   UNL     1      18.127  -7.524 -35.658  1.00  0.00     0.094 A 
ATOM     10  C   UNL     1      18.975  -6.466 -35.994  1.00  0.00     0.146 A 
ATOM     11  O   UNL     1      19.729  -6.577 -37.080  1.00  0.00    -0.451 OA
ENDROOT
BRANCH   1  12
ATOM     12  C   UNL     1      21.361  -5.876 -38.716  1.00  0.00     0.063 A 
ATOM     13  C   UNL     1      23.512  -5.865 -39.856  1.00  0.00     0.047 A 
ATOM     14  C   UNL     1      22.740  -5.600 -38.722  1.00  0.00     0.020 A 
ATOM     15  C   UNL     1      22.922  -6.417 -40.995  1.00  0.00     0.119 A 
ATOM     16  C   UNL     1      21.552  -6.710 -40.996  1.00  0.00     0.093 A 
ATOM     17  C   UNL     1      20.770  -6.445 -39.862  1.00  0.00     0.130 A 
BRANCH  15  18
ATOM     18  O   UNL     1      23.705  -6.676 -42.118  1.00  0.00    -0.508 OA
ATOM     19  H   UNL     1      23.678  -7.574 -42.587  1.00  0.00     0.293 HD
ENDBRANCH  15  18
BRANCH  17  20
ATOM     20  O   UNL     1      19.405  -6.734 -39.878  1.00  0.00    -0.507 OA
ATOM     21  H   UNL     1      19.007  -7.386 -40.545  1.00  0.00     0.293 HD
ENDBRANCH  17  20
ENDBRANCH   1  12
BRANCH   2  22
ATOM     22  O   UNL     1      21.418  -3.365 -37.291  1.00  0.00    -0.502 OA
ATOM     23  H   UNL     1      21.034  -2.479 -37.598  1.00  0.00     0.293 HD
ENDBRANCH   2  22
BRANCH   6  24
ATOM     24  O   UNL     1      18.264  -4.206 -33.080  1.00  0.00    -0.507 OA
ATOM     25  H   UNL     1      18.429  -4.322 -32.092  1.00  0.00     0.293 HD
ENDBRANCH   6  24
BRANCH   8  26
ATOM     26  O   UNL     1      16.446  -8.487 -34.204  1.00  0.00    -0.508 OA
ATOM     27  H   UNL     1      15.453  -8.333 -34.072  1.00  0.00     0.293 HD
ENDBRANCH   8  26
TORSDOF 6
ENDMDL
MODEL 2
REMARK VINA RESULT:    -5.623      1.688      7.020
REMARK INTER + INTRA:          -6.999
REMARK INTER:                  -6.599
REMARK INTRA:                  -0.400
REMARK UNBOUND:                -0.225
REMARK SMILES O=c1c(O)c(-c2ccc(O)cc2O)oc2cc(O)cc(O)c12
REMARK SMILES IDX 5 1 3 2 2 3 1 4 22 5 20 6 19 7 17 8 16 9 15 10 14 11 6 12
REMARK SMILES IDX 8 13 7 14 9 15 11 16 12 17 10 18 13 20 4 22 21 24 18 26
REMARK H PARENT 10 19 13 21 4 23 21 25 18 27
REMARK Flexibility Score: inf
ROOT
ATOM      1  C   UNL     1      20.193  -5.681 -37.570  1.00  0.00     0.184 A 
ATOM      2  C   UNL     1      19.506  -6.369 -38.585  1.00  0.00     0.208 A 
ATOM      3  C   UNL     1      20.185  -6.685 -39.773  1.00  0.00     0.238 A 
ATOM      4  O   UNL     1      19.548  -7.250 -40.700  1.00  0.00    -0.285 OA
ATOM      5  C   UNL     1      21.546  -6.326 -39.923  1.00  0.00     0.111 A 
ATOM      6  C   UNL     1      22.343  -6.631 -41.067  1.00  0.00     0.134 A 
ATOM      7  C   UNL     1      23.643  -6.116 -41.160  1.00  0.00     0.093 A 
ATOM      8  C   UNL     1      24.196  -5.364 -40.125  1.00  0.00     0.123 A 
ATOM      9  C   UNL     1      23.446  -5.109 -38.976  1.00  0.00     0.094 A 
ATOM     10  C   UNL     1      22.135  -5.578 -38.869  1.00  0.00     0.146 A 
ATOM     11  O   UNL     1      21.451  -5.305 -37.764  1.00  0.00    -0.451 OA
ENDROOT
BRANCH   1  12
ATOM     12  C   UNL     1      19.544  -5.338 -36.283  1.00  0.00     0.063 A 
ATOM     13  C   UNL     1      18.250  -3.792 -34.920  1.00  0.00     0.047 A 
ATOM     14  C   UNL     1      18.887  -4.105 -36.123  1.00  0.00     0.020 A 
ATOM     15  C   UNL     1      18.250  -4.706 -33.864  1.00  0.00     0.119 A 
ATOM     16  C   UNL     1      18.889  -5.944 -34.017  1.00  0.00     0.093 A 
ATOM     17  C   UNL     1      19.533  -6.265 -35.222  1.00  0.00     0.130 A 
BRANCH  15  18
ATOM     18  O   UNL     1      17.611  -4.380 -32.671  1.00  0.00    -0.508 OA
ATOM     19  H   UNL     1      17.451  -3.416 -32.402  1.00  0.00     0.293 HD
ENDBRANCH  15  18
BRANCH  17  20
ATOM     20  O   UNL     1      20.173  -7.498 -35.359  1.00  0.00    -0.507 OA
ATOM     21  H   UNL     1      20.425  -8.058 -34.553  1.00  0.00     0.293 HD
ENDBRANCH  17  20
ENDBRANCH   1  12
BRANCH   2  22
ATOM     22  O   UNL     1      18.158  -6.700 -38.420  1.00  0.00    -0.502 OA
ATOM     23  H   UNL     1      17.440  -6.392 -39.065  1.00  0.00     0.293 HD
ENDBRANCH   2  22
BRANCH   6  24
ATOM     24  O   UNL     1      21.920  -7.450 -42.118  1.00  0.00    -0.507 OA
ATOM     25  H   UNL     1      21.441  -7.124 -42.944  1.00  0.00     0.293 HD
ENDBRANCH   6  24
BRANCH   8  26
ATOM     26  O   UNL     1      25.497  -4.881 -40.245  1.00  0.00    -0.508 OA
ATOM     27  H   UNL     1      26.241  -5.451 -40.630  1.00  0.00     0.293 HD
ENDBRANCH   8  26
TORSDOF 6
ENDMDL
MODEL 3
REMARK VINA RESULT:    -5.526      2.883      7.527
REMARK INTER + INTRA:          -6.882
REMARK INTER:                  -6.527
REMARK INTRA:                  -0.355
REMARK UNBOUND:                -0.225
REMARK SMILES O=c1c(O)c(-c2ccc(O)cc2O)oc2cc(O)cc(O)c12
REMARK SMILES IDX 5 1 3 2 2 3 1 4 22 5 20 6 19 7 17 8 16 9 15 10 14 11 6 12
REMARK SMILES IDX 8 13 7 14 9 15 11 16 12 17 10 18 13 20 4 22 21 24 18 26
REMARK H PARENT 10 19 13 21 4 23 21 25 18 27
REMARK Flexibility Score: inf
ROOT
ATOM      1  C   UNL     1      16.719  -7.278 -35.773  1.00  0.00     0.184 A 
ATOM      2  C   UNL     1      18.096  -7.233 -35.494  1.00  0.00     0.208 A 
ATOM      3  C   UNL     1      19.006  -7.208 -36.563  1.00  0.00     0.238 A 
ATOM      4  O   UNL     1      20.239  -7.225 -36.306  1.00  0.00    -0.285 OA
ATOM      5  C   UNL     1      18.529  -7.208 -37.895  1.00  0.00     0.111 A 
ATOM      6  C   UNL     1      19.360  -7.144 -39.054  1.00  0.00     0.134 A 
ATOM      7  C   UNL     1      18.784  -7.279 -40.324  1.00  0.00     0.093 A 
ATOM      8  C   UNL     1      17.406  -7.410 -40.481  1.00  0.00     0.123 A 
ATOM      9  C   UNL     1      16.578  -7.415 -39.357  1.00  0.00     0.094 A 
ATOM     10  C   UNL     1      17.124  -7.318 -38.076  1.00  0.00     0.146 A 
ATOM     11  O   UNL     1      16.304  -7.338 -37.033  1.00  0.00    -0.451 OA
ENDROOT
BRANCH   1  12
ATOM     12  C   UNL     1      15.704  -7.282 -34.694  1.00  0.00     0.063 A 
ATOM     13  C   UNL     1      14.193  -8.499 -33.224  1.00  0.00     0.047 A 
ATOM     14  C   UNL     1      15.130  -8.490 -34.261  1.00  0.00     0.020 A 
ATOM     15  C   UNL     1      13.825  -7.306 -32.599  1.00  0.00     0.119 A 
ATOM     16  C   UNL     1      14.401  -6.098 -33.011  1.00  0.00     0.093 A 
ATOM     17  C   UNL     1      15.341  -6.080 -34.054  1.00  0.00     0.130 A 
BRANCH  15  18
ATOM     18  O   UNL     1      12.890  -7.331 -31.566  1.00  0.00    -0.508 OA
ATOM     19  H   UNL     1      13.171  -7.455 -30.600  1.00  0.00     0.293 HD
ENDBRANCH  15  18
BRANCH  17  20
ATOM     20  O   UNL     1      15.902  -4.869 -34.461  1.00  0.00    -0.507 OA
ATOM     21  H   UNL     1      16.154  -4.699 -35.427  1.00  0.00     0.293 HD
ENDBRANCH  17  20
ENDBRANCH   1  12
BRANCH   2  22
ATOM     22  O   UNL     1      18.544  -7.248 -34.170  1.00  0.00    -0.502 OA
ATOM     23  H   UNL     1      19.525  -7.185 -33.928  1.00  0.00     0.293 HD
ENDBRANCH   2  22
BRANCH   6  24
ATOM     24  O   UNL     1      20.739  -6.924 -39.014  1.00  0.00    -0.507 OA
ATOM     25  H   UNL     1      21.439  -7.651 -39.041  1.00  0.00     0.293 HD
ENDBRANCH   6  24
BRANCH   8  26
ATOM     26  O   UNL     1      16.867  -7.526 -41.761  1.00  0.00    -0.508 OA
ATOM     27  H   UNL     1      16.136  -6.904 -42.086  1.00  0.00     0.293 HD
ENDBRANCH   8  26
TORSDOF 6
ENDMDL
MODEL 4
REMARK VINA RESULT:    -5.391      3.773      5.921
REMARK INTER + INTRA:          -6.719
REMARK INTER:                  -6.439
REMARK INTRA:                  -0.280
REMARK UNBOUND:                -0.225
REMARK SMILES O=c1c(O)c(-c2ccc(O)cc2O)oc2cc(O)cc(O)c12
REMARK SMILES IDX 5 1 3 2 2 3 1 4 22 5 20 6 19 7 17 8 16 9 15 10 14 11 6 12
REMARK SMILES IDX 8 13 7 14 9 15 11 16 12 17 10 18 13 20 4 22 21 24 18 26
REMARK H PARENT 10 19 13 21 4 23 21 25 18 27
REMARK Flexibility Score: inf
ROOT
ATOM      1  C   UNL     1      15.861  -7.120 -35.893  1.00  0.00     0.184 A 
ATOM      2  C   UNL     1      15.290  -6.209 -34.989  1.00  0.00     0.208 A 
ATOM      3  C   UNL     1      13.941  -6.361 -34.630  1.00  0.00     0.238 A 
ATOM      4  O   UNL     1      13.420  -5.509 -33.863  1.00  0.00    -0.285 OA
ATOM      5  C   UNL     1      13.187  -7.433 -35.164  1.00  0.00     0.111 A 
ATOM      6  C   UNL     1      11.824  -7.706 -34.839  1.00  0.00     0.134 A 
ATOM      7  C   UNL     1      11.140  -8.718 -35.525  1.00  0.00     0.093 A 
ATOM      8  C   UNL     1      11.785  -9.507 -36.475  1.00  0.00     0.123 A 
ATOM      9  C   UNL     1      13.133  -9.287 -36.759  1.00  0.00     0.094 A 
ATOM     10  C   UNL     1      13.833  -8.263 -36.118  1.00  0.00     0.146 A 
ATOM     11  O   UNL     1      15.111  -8.079 -36.424  1.00  0.00    -0.451 OA
ENDROOT
BRANCH   1  12
ATOM     12  C   UNL     1      17.284  -7.032 -36.297  1.00  0.00     0.063 A 
ATOM     13  C   UNL     1      18.974  -6.518 -37.971  1.00  0.00     0.047 A 
ATOM     14  C   UNL     1      17.632  -6.630 -37.598  1.00  0.00     0.020 A 
ATOM     15  C   UNL     1      19.986  -6.796 -37.050  1.00  0.00     0.119 A 
ATOM     16  C   UNL     1      19.651  -7.184 -35.746  1.00  0.00     0.093 A 
ATOM     17  C   UNL     1      18.306  -7.300 -35.364  1.00  0.00     0.130 A 
BRANCH  15  18
ATOM     18  O   UNL     1      21.319  -6.680 -37.437  1.00  0.00    -0.508 OA
ATOM     19  H   UNL     1      21.818  -7.456 -37.857  1.00  0.00     0.293 HD
ENDBRANCH  15  18
BRANCH  17  20
ATOM     20  O   UNL     1      17.986  -7.695 -34.064  1.00  0.00    -0.507 OA
ATOM     21  H   UNL     1      18.588  -8.313 -33.533  1.00  0.00     0.293 HD
ENDBRANCH  17  20
ENDBRANCH   1  12
BRANCH   2  22
ATOM     22  O   UNL     1      16.051  -5.150 -34.485  1.00  0.00    -0.502 OA
ATOM     23  H   UNL     1      16.182  -4.285 -34.995  1.00  0.00     0.293 HD
ENDBRANCH   2  22
BRANCH   6  24
ATOM     24  O   UNL     1      11.110  -7.037 -33.840  1.00  0.00    -0.507 OA
ATOM     25  H   UNL     1      10.238  -6.551 -33.984  1.00  0.00     0.293 HD
ENDBRANCH   6  24
BRANCH   8  26
ATOM     26  O   UNL     1      11.078 -10.516 -37.127  1.00  0.00    -0.508 OA
ATOM     27  H   UNL     1      11.306 -11.493 -36.995  1.00  0.00     0.293 HD
ENDBRANCH   8  26
TORSDOF 6
ENDMDL
MODEL 5
REMARK VINA RESULT:    -5.352      2.718      7.794
REMARK INTER + INTRA:          -6.673
REMARK INTER:                  -6.195
REMARK INTRA:                  -0.478
REMARK UNBOUND:                -0.225
REMARK SMILES O=c1c(O)c(-c2ccc(O)cc2O)oc2cc(O)cc(O)c12
REMARK SMILES IDX 5 1 3 2 2 3 1 4 22 5 20 6 19 7 17 8 16 9 15 10 14 11 6 12
REMARK SMILES IDX 8 13 7 14 9 15 11 16 12 17 10 18 13 20 4 22 21 24 18 26
REMARK H PARENT 10 19 13 21 4 23 21 25 18 27
REMARK Flexibility Score: inf
ROOT
ATOM      1  C   UNL     1      16.243  -7.270 -36.054  1.00  0.00     0.184 A 
ATOM      2  C   UNL     1      15.684  -7.458 -37.329  1.00  0.00     0.208 A 
ATOM      3  C   UNL     1      16.513  -7.360 -38.457  1.00  0.00     0.238 A 
ATOM      4  O   UNL     1      15.996  -7.474 -39.600  1.00  0.00    -0.285 OA
ATOM      5  C   UNL     1      17.894  -7.095 -38.295  1.00  0.00     0.111 A 
ATOM      6  C   UNL     1      18.835  -7.015 -39.365  1.00  0.00     0.134 A 
ATOM      7  C   UNL     1      20.153  -6.622 -39.098  1.00  0.00     0.093 A 
ATOM      8  C   UNL     1      20.580  -6.370 -37.795  1.00  0.00     0.123 A 
ATOM      9  C   UNL     1      19.683  -6.503 -36.735  1.00  0.00     0.094 A 
ATOM     10  C   UNL     1      18.353  -6.858 -36.972  1.00  0.00     0.146 A 
ATOM     11  O   UNL     1      17.529  -6.963 -35.937  1.00  0.00    -0.451 OA
ENDROOT
BRANCH   1  12
ATOM     12  C   UNL     1      15.430  -7.383 -34.820  1.00  0.00     0.063 A 
ATOM     13  C   UNL     1      14.284  -8.753 -33.166  1.00  0.00     0.047 A 
ATOM     14  C   UNL     1      15.027  -8.643 -34.345  1.00  0.00     0.020 A 
ATOM     15  C   UNL     1      13.942  -7.610 -32.441  1.00  0.00     0.119 A 
ATOM     16  C   UNL     1      14.351  -6.350 -32.897  1.00  0.00     0.093 A 
ATOM     17  C   UNL     1      15.094  -6.230 -34.081  1.00  0.00     0.130 A 
BRANCH  15  18
ATOM     18  O   UNL     1      13.202  -7.735 -31.268  1.00  0.00    -0.508 OA
ATOM     19  H   UNL     1      13.080  -8.632 -30.812  1.00  0.00     0.293 HD
ENDBRANCH  15  18
BRANCH  17  20
ATOM     20  O   UNL     1      15.488  -4.968 -34.528  1.00  0.00    -0.507 OA
ATOM     21  H   UNL     1      15.208  -4.615 -35.436  1.00  0.00     0.293 HD
ENDBRANCH  17  20
ENDBRANCH   1  12
BRANCH   2  22
ATOM     22  O   UNL     1      14.314  -7.705 -37.465  1.00  0.00    -0.502 OA
ATOM     23  H   UNL     1      13.651  -7.503 -36.727  1.00  0.00     0.293 HD
ENDBRANCH   2  22
BRANCH   6  24
ATOM     24  O   UNL     1      18.537  -7.334 -40.693  1.00  0.00    -0.507 OA
ATOM     25  H   UNL     1      17.817  -7.979 -40.982  1.00  0.00     0.293 HD
ENDBRANCH   6  24
BRANCH   8  26
ATOM     26  O   UNL     1      21.902  -5.996 -37.564  1.00  0.00    -0.508 OA
ATOM     27  H   UNL     1      22.145  -5.052 -37.287  1.00  0.00     0.293 HD
ENDBRANCH   8  26
TORSDOF 6
ENDMDL
MODEL 6
REMARK VINA RESULT:    -5.266      2.482      4.982
REMARK INTER + INTRA:          -6.569
REMARK INTER:                  -6.150
REMARK INTRA:                  -0.419
REMARK UNBOUND:                -0.225
REMARK SMILES O=c1c(O)c(-c2ccc(O)cc2O)oc2cc(O)cc(O)c12
REMARK SMILES IDX 5 1 3 2 2 3 1 4 22 5 20 6 19 7 17 8 16 9 15 10 14 11 6 12
REMARK SMILES IDX 8 13 7 14 9 15 11 16 12 17 10 18 13 20 4 22 21 24 18 26
REMARK H PARENT 10 19 13 21 4 23 21 25 18 27
REMARK Flexibility Score: inf
ROOT
ATOM      1  C   UNL     1      17.218  -6.241 -35.242  1.00  0.00     0.184 A 
ATOM      2  C   UNL     1      16.125  -7.104 -35.053  1.00  0.00     0.208 A 
ATOM      3  C   UNL     1      15.258  -6.877 -33.973  1.00  0.00     0.238 A 
ATOM      4  O   UNL     1      14.314  -7.687 -33.776  1.00  0.00    -0.285 OA
ATOM      5  C   UNL     1      15.483  -5.780 -33.107  1.00  0.00     0.111 A 
ATOM      6  C   UNL     1      14.645  -5.432 -32.005  1.00  0.00     0.134 A 
ATOM      7  C   UNL     1      15.035  -4.401 -31.140  1.00  0.00     0.093 A 
ATOM      8  C   UNL     1      16.195  -3.665 -31.373  1.00  0.00     0.123 A 
ATOM      9  C   UNL     1      16.991  -3.958 -32.481  1.00  0.00     0.094 A 
ATOM     10  C   UNL     1      16.648  -5.003 -33.342  1.00  0.00     0.146 A 
ATOM     11  O   UNL     1      17.438  -5.257 -34.378  1.00  0.00    -0.451 OA
ENDROOT
BRANCH   1  12
ATOM     12  C   UNL     1      18.158  -6.408 -36.375  1.00  0.00     0.063 A 
ATOM     13  C   UNL     1      18.602  -6.389 -38.768  1.00  0.00     0.047 A 
ATOM     14  C   UNL     1      17.711  -6.260 -37.700  1.00  0.00     0.020 A 
ATOM     15  C   UNL     1      19.952  -6.658 -38.530  1.00  0.00     0.119 A 
ATOM     16  C   UNL     1      20.411  -6.793 -37.214  1.00  0.00     0.093 A 
ATOM     17  C   UNL     1      19.523  -6.667 -36.135  1.00  0.00     0.130 A 
BRANCH  15  18
ATOM     18  O   UNL     1      20.828  -6.783 -39.606  1.00  0.00    -0.508 OA
ATOM     19  H   UNL     1      21.813  -6.978 -39.467  1.00  0.00     0.293 HD
ENDBRANCH  15  18
BRANCH  17  20
ATOM     20  O   UNL     1      19.992  -6.812 -34.829  1.00  0.00    -0.507 OA
ATOM     21  H   UNL     1      20.982  -6.781 -34.614  1.00  0.00     0.293 HD
ENDBRANCH  17  20
ENDBRANCH   1  12
BRANCH   2  22
ATOM     22  O   UNL     1      15.931  -8.189 -35.913  1.00  0.00    -0.502 OA
ATOM     23  H   UNL     1      15.011  -8.487 -36.212  1.00  0.00     0.293 HD
ENDBRANCH   2  22
BRANCH   6  24
ATOM     24  O   UNL     1      13.418  -6.044 -31.733  1.00  0.00    -0.507 OA
ATOM     25  H   UNL     1      13.258  -7.040 -31.738  1.00  0.00     0.293 HD
ENDBRANCH   6  24
BRANCH   8  26
ATOM     26  O   UNL     1      16.544  -2.636 -30.501  1.00  0.00    -0.508 OA
ATOM     27  H   UNL     1      15.882  -2.261 -29.833  1.00  0.00     0.293 HD
ENDBRANCH   8  26
TORSDOF 6
ENDMDL
MODEL 7
REMARK VINA RESULT:    -5.216      3.400      5.699
REMARK INTER + INTRA:          -6.509
REMARK INTER:                  -6.023
REMARK INTRA:                  -0.485
REMARK UNBOUND:                -0.225
REMARK SMILES O=c1c(O)c(-c2ccc(O)cc2O)oc2cc(O)cc(O)c12
REMARK SMILES IDX 5 1 3 2 2 3 1 4 22 5 20 6 19 7 17 8 16 9 15 10 14 11 6 12
REMARK SMILES IDX 8 13 7 14 9 15 11 16 12 17 10 18 13 20 4 22 21 24 18 26
REMARK H PARENT 10 19 13 21 4 23 21 25 18 27
REMARK Flexibility Score: inf
ROOT
ATOM      1  C   UNL     1      16.710  -7.411 -36.216  1.00  0.00     0.184 A 
ATOM      2  C   UNL     1      16.503  -7.925 -34.924  1.00  0.00     0.208 A 
ATOM      3  C   UNL     1      15.319  -8.630 -34.654  1.00  0.00     0.238 A 
ATOM      4  O   UNL     1      15.115  -9.039 -33.481  1.00  0.00    -0.285 OA
ATOM      5  C   UNL     1      14.367  -8.827 -35.682  1.00  0.00     0.111 A 
ATOM      6  C   UNL     1      13.151  -9.560 -35.531  1.00  0.00     0.134 A 
ATOM      7  C   UNL     1      12.224  -9.584 -36.581  1.00  0.00     0.093 A 
ATOM      8  C   UNL     1      12.495  -8.958 -37.796  1.00  0.00     0.123 A 
ATOM      9  C   UNL     1      13.707  -8.288 -37.975  1.00  0.00     0.094 A 
ATOM     10  C   UNL     1      14.636  -8.216 -36.935  1.00  0.00     0.146 A 
ATOM     11  O   UNL     1      15.771  -7.560 -37.142  1.00  0.00    -0.451 OA
ENDROOT
BRANCH   1  12
ATOM     12  C   UNL     1      17.947  -6.679 -36.575  1.00  0.00     0.063 A 
ATOM     13  C   UNL     1      20.293  -6.691 -37.223  1.00  0.00     0.047 A 
ATOM     14  C   UNL     1      19.133  -7.379 -36.856  1.00  0.00     0.020 A 
ATOM     15  C   UNL     1      20.283  -5.299 -37.326  1.00  0.00     0.119 A 
ATOM     16  C   UNL     1      19.102  -4.592 -37.064  1.00  0.00     0.093 A 
ATOM     17  C   UNL     1      17.934  -5.274 -36.692  1.00  0.00     0.130 A 
BRANCH  15  18
ATOM     18  O   UNL     1      21.447  -4.628 -37.694  1.00  0.00    -0.508 OA
ATOM     19  H   UNL     1      22.359  -4.941 -37.384  1.00  0.00     0.293 HD
ENDBRANCH  15  18
BRANCH  17  20
ATOM     20  O   UNL     1      16.767  -4.557 -36.425  1.00  0.00    -0.507 OA
ATOM     21  H   UNL     1      16.765  -3.758 -35.802  1.00  0.00     0.293 HD
ENDBRANCH  17  20
ENDBRANCH   1  12
BRANCH   2  22
ATOM     22  O   UNL     1      17.452  -7.705 -33.922  1.00  0.00    -0.502 OA
ATOM     23  H   UNL     1      17.201  -7.630 -32.943  1.00  0.00     0.293 HD
ENDBRANCH   2  22
BRANCH   6  24
ATOM     24  O   UNL     1      12.821 -10.298 -34.391  1.00  0.00    -0.507 OA
ATOM     25  H   UNL     1      12.885 -11.302 -34.317  1.00  0.00     0.293 HD
ENDBRANCH   6  24
BRANCH   8  26
ATOM     26  O   UNL     1      11.557  -9.014 -38.824  1.00  0.00    -0.508 OA
ATOM     27  H   UNL     1      11.251  -8.179 -39.309  1.00  0.00     0.293 HD
ENDBRANCH   8  26
TORSDOF 6
ENDMDL
MODEL 8
REMARK VINA RESULT:    -5.145      2.440      6.739
REMARK INTER + INTRA:          -6.423
REMARK INTER:                  -6.053
REMARK INTRA:                  -0.370
REMARK UNBOUND:                -0.225
REMARK SMILES O=c1c(O)c(-c2ccc(O)cc2O)oc2cc(O)cc(O)c12
REMARK SMILES IDX 5 1 3 2 2 3 1 4 22 5 20 6 19 7 17 8 16 9 15 10 14 11 6 12
REMARK SMILES IDX 8 13 7 14 9 15 11 16 12 17 10 18 13 20 4 22 21 24 18 26
REMARK H PARENT 10 19 13 21 4 23 21 25 18 27
REMARK Flexibility Score: inf
ROOT
ATOM      1  C   UNL     1      16.954  -7.007 -35.713  1.00  0.00     0.184 A 
ATOM      2  C   UNL     1      17.261  -5.896 -34.908  1.00  0.00     0.208 A 
ATOM      3  C   UNL     1      18.383  -5.115 -35.225  1.00  0.00     0.238 A 
ATOM      4  O   UNL     1      18.685  -4.156 -34.468  1.00  0.00    -0.285 OA
ATOM      5  C   UNL     1      19.173  -5.442 -36.354  1.00  0.00     0.111 A 
ATOM      6  C   UNL     1      20.309  -4.696 -36.791  1.00  0.00     0.134 A 
ATOM      7  C   UNL     1      21.090  -5.184 -37.847  1.00  0.00     0.093 A 
ATOM      8  C   UNL     1      20.741  -6.353 -38.521  1.00  0.00     0.123 A 
ATOM      9  C   UNL     1      19.599  -7.059 -38.139  1.00  0.00     0.094 A 
ATOM     10  C   UNL     1      18.820  -6.618 -37.068  1.00  0.00     0.146 A 
ATOM     11  O   UNL     1      17.749  -7.323 -36.729  1.00  0.00    -0.451 OA
ENDROOT
BRANCH   1  12
ATOM     12  C   UNL     1      15.772  -7.860 -35.449  1.00  0.00     0.063 A 
ATOM     13  C   UNL     1      14.548  -9.377 -33.991  1.00  0.00     0.047 A 
ATOM     14  C   UNL     1      15.676  -8.595 -34.254  1.00  0.00     0.020 A 
ATOM     15  C   UNL     1      13.498  -9.429 -34.909  1.00  0.00     0.119 A 
ATOM     16  C   UNL     1      13.576  -8.689 -36.096  1.00  0.00     0.093 A 
ATOM     17  C   UNL     1      14.705  -7.903 -36.370  1.00  0.00     0.130 A 
BRANCH  15  18
ATOM     18  O   UNL     1      12.380 -10.213 -34.633  1.00  0.00    -0.508 OA
ATOM     19  H   UNL     1      11.794 -10.580 -35.373  1.00  0.00     0.293 HD
ENDBRANCH  15  18
BRANCH  17  20
ATOM     20  O   UNL     1      14.774  -7.177 -37.560  1.00  0.00    -0.507 OA
ATOM     21  H   UNL     1      14.708  -7.631 -38.463  1.00  0.00     0.293 HD
ENDBRANCH  17  20
ENDBRANCH   1  12
BRANCH   2  22
ATOM     22  O   UNL     1      16.474  -5.602 -33.791  1.00  0.00    -0.502 OA
ATOM     23  H   UNL     1      16.744  -5.868 -32.851  1.00  0.00     0.293 HD
ENDBRANCH   2  22
BRANCH   6  24
ATOM     24  O   UNL     1      20.693  -3.468 -36.247  1.00  0.00    -0.507 OA
ATOM     25  H   UNL     1      20.993  -2.669 -36.785  1.00  0.00     0.293 HD
ENDBRANCH   6  24
BRANCH   8  26
ATOM     26  O   UNL     1      21.533  -6.801 -39.576  1.00  0.00    -0.508 OA
ATOM     27  H   UNL     1      21.538  -6.328 -40.472  1.00  0.00     0.293 HD
ENDBRANCH   8  26
TORSDOF 6
ENDMDL
MODEL 9
REMARK VINA RESULT:    -5.075      2.355      3.865
REMARK INTER + INTRA:          -6.338
REMARK INTER:                  -5.917
REMARK INTRA:                  -0.421
REMARK UNBOUND:                -0.225
REMARK SMILES O=c1c(O)c(-c2ccc(O)cc2O)oc2cc(O)cc(O)c12
REMARK SMILES IDX 5 1 3 2 2 3 1 4 22 5 20 6 19 7 17 8 16 9 15 10 14 11 6 12
REMARK SMILES IDX 8 13 7 14 9 15 11 16 12 17 10 18 13 20 4 22 21 24 18 26
REMARK H PARENT 10 19 13 21 4 23 21 25 18 27
REMARK Flexibility Score: inf
ROOT
ATOM      1  C   UNL     1      17.456  -6.069 -35.773  1.00  0.00     0.184 A 
ATOM      2  C   UNL     1      17.128  -4.948 -34.992  1.00  0.00     0.208 A 
ATOM      3  C   UNL     1      16.145  -5.075 -33.997  1.00  0.00     0.238 A 
ATOM      4  O   UNL     1      15.816  -4.053 -33.339  1.00  0.00    -0.285 OA
ATOM      5  C   UNL     1      15.519  -6.326 -33.782  1.00  0.00     0.111 A 
ATOM      6  C   UNL     1      14.539  -6.579 -32.775  1.00  0.00     0.134 A 
ATOM      7  C   UNL     1      13.894  -7.823 -32.737  1.00  0.00     0.093 A 
ATOM      8  C   UNL     1      14.237  -8.840 -33.625  1.00  0.00     0.123 A 
ATOM      9  C   UNL     1      15.235  -8.623 -34.576  1.00  0.00     0.094 A 
ATOM     10  C   UNL     1      15.872  -7.383 -34.663  1.00  0.00     0.146 A 
ATOM     11  O   UNL     1      16.807  -7.213 -35.589  1.00  0.00    -0.451 OA
ENDROOT
BRANCH   1  12
ATOM     12  C   UNL     1      18.499  -6.011 -36.823  1.00  0.00     0.063 A 
ATOM     13  C   UNL     1      19.222  -5.320 -39.043  1.00  0.00     0.047 A 
ATOM     14  C   UNL     1      18.230  -5.401 -38.061  1.00  0.00     0.020 A 
ATOM     15  C   UNL     1      20.497  -5.834 -38.799  1.00  0.00     0.119 A 
ATOM     16  C   UNL     1      20.781  -6.430 -37.563  1.00  0.00     0.093 A 
ATOM     17  C   UNL     1      19.790  -6.519 -36.574  1.00  0.00     0.130 A 
BRANCH  15  18
ATOM     18  O   UNL     1      21.475  -5.745 -39.787  1.00  0.00    -0.508 OA
ATOM     19  H   UNL     1      22.359  -6.233 -39.702  1.00  0.00     0.293 HD
ENDBRANCH  15  18
BRANCH  17  20
ATOM     20  O   UNL     1      20.084  -7.122 -35.350  1.00  0.00    -0.507 OA
ATOM     21  H   UNL     1      19.359  -7.526 -34.769  1.00  0.00     0.293 HD
ENDBRANCH  17  20
ENDBRANCH   1  12
BRANCH   2  22
ATOM     22  O   UNL     1      17.751  -3.720 -35.232  1.00  0.00    -0.502 OA
ATOM     23  H   UNL     1      17.285  -2.960 -35.715  1.00  0.00     0.293 HD
ENDBRANCH   2  22
BRANCH   6  24
ATOM     24  O   UNL     1      14.186  -5.663 -31.781  1.00  0.00    -0.507 OA
ATOM     25  H   UNL     1      14.633  -5.591 -30.879  1.00  0.00     0.293 HD
ENDBRANCH   6  24
BRANCH   8  26
ATOM     26  O   UNL     1      13.586 -10.070 -33.548  1.00  0.00    -0.508 OA
ATOM     27  H   UNL     1      12.949 -10.377 -34.273  1.00  0.00     0.293 HD
ENDBRANCH   8  26
TORSDOF 6
ENDMDL
