MODEL 1
REMARK VINA RESULT:    -2.585      0.000      0.000
REMARK INTER + INTRA:          -3.215
REMARK INTER:                  -3.341
REMARK INTRA:                   0.126
REMARK UNBOUND:                 0.126
REMARK SMILES CCCCCCC(=O)[O-]
REMARK SMILES IDX 5 1 6 2 7 3 8 4 9 5 4 6 3 7 2 8 1 9
REMARK H PARENT
REMARK Flexibility Score: inf
ROOT
ATOM      1  C   UNL     1      15.875  -9.814  28.747  1.00  0.00     0.006 C 
ENDROOT
BRANCH   1   2
ATOM      2  C   UNL     1      16.647  -9.517  30.043  1.00  0.00     0.053 C 
BRANCH   2   3
ATOM      3  C   UNL     1      17.317  -8.178  30.003  1.00  0.00     0.041 C 
ATOM      4  O   UNL     1      18.562  -8.097  29.828  1.00  0.00    -0.550 OA
ATOM      5  O   UNL     1      16.561  -7.019  30.125  1.00  0.00    -0.550 OA
ENDBRANCH   2   3
ENDBRANCH   1   2
BRANCH   1   6
ATOM      6  C   UNL     1      16.066  -8.761  27.641  1.00  0.00     0.000 C 
BRANCH   6   7
ATOM      7  C   UNL     1      16.665  -9.349  26.356  1.00  0.00    -0.000 C 
BRANCH   7   8
ATOM      8  C   UNL     1      16.668  -8.310  25.227  1.00  0.00    -0.003 C 
ATOM      9  C   UNL     1      18.075  -8.101  24.674  1.00  0.00     0.004 C 
ENDBRANCH   7   8
ENDBRANCH   6   7
ENDBRANCH   1   6
TORSDOF 5
ENDMDL
MODEL 2
REMARK VINA RESULT:    -1.013      9.883     10.503
REMARK INTER + INTRA:          -1.183
REMARK INTER:                  -1.009
REMARK INTRA:                  -0.174
REMARK UNBOUND:                 0.126
REMARK SMILES CCCCCCC(=O)[O-]
REMARK SMILES IDX 5 1 6 2 7 3 8 4 9 5 4 6 3 7 2 8 1 9
REMARK H PARENT
REMARK Flexibility Score: inf
ROOT
ATOM      1  C   UNL     1      17.303 -19.785  27.201  1.00  0.00     0.006 C 
ENDROOT
BRANCH   1   2
ATOM      2  C   UNL     1      16.236 -19.457  28.258  1.00  0.00     0.053 C 
BRANCH   2   3
ATOM      3  C   UNL     1      16.581 -18.227  29.040  1.00  0.00     0.041 C 
ATOM      4  O   UNL     1      15.875 -17.190  28.933  1.00  0.00    -0.550 OA
ATOM      5  O   UNL     1      17.661 -18.239  29.914  1.00  0.00    -0.550 OA
ENDBRANCH   2   3
ENDBRANCH   1   2
BRANCH   1   6
ATOM      6  C   UNL     1      17.639 -18.616  26.258  1.00  0.00     0.000 C 
BRANCH   6   7
ATOM      7  C   UNL     1      18.119 -19.085  24.877  1.00  0.00    -0.000 C 
BRANCH   7   8
ATOM      8  C   UNL     1      16.946 -19.187  23.894  1.00  0.00    -0.003 C 
ATOM      9  C   UNL     1      17.336 -19.983  22.651  1.00  0.00     0.004 C 
ENDBRANCH   7   8
ENDBRANCH   6   7
ENDBRANCH   1   6
TORSDOF 5
ENDMDL
MODEL 3
REMARK VINA RESULT:    -0.705     16.244     17.493
REMARK INTER + INTRA:          -0.784
REMARK INTER:                  -0.509
REMARK INTRA:                  -0.275
REMARK UNBOUND:                 0.126
REMARK SMILES CCCCCCC(=O)[O-]
REMARK SMILES IDX 5 1 6 2 7 3 8 4 9 5 4 6 3 7 2 8 1 9
REMARK H PARENT
REMARK Flexibility Score: inf
ROOT
ATOM      1  C   UNL     1      32.365  -6.069  27.867  1.00  0.00     0.006 C 
ENDROOT
BRANCH   1   2
ATOM      2  C   UNL     1      32.288  -5.658  26.387  1.00  0.00     0.053 C 
BRANCH   2   3
ATOM      3  C   UNL     1      33.543  -5.999  25.644  1.00  0.00     0.041 C 
ATOM      4  O   UNL     1      33.947  -5.259  24.709  1.00  0.00    -0.550 OA
ATOM      5  O   UNL     1      34.285  -7.115  26.009  1.00  0.00    -0.550 OA
ENDBRANCH   2   3
ENDBRANCH   1   2
BRANCH   1   6
ATOM      6  C   UNL     1      32.545  -4.893  28.842  1.00  0.00     0.000 C 
BRANCH   6   7
ATOM      7  C   UNL     1      33.799  -5.031  29.716  1.00  0.00    -0.000 C 
BRANCH   7   8
ATOM      8  C   UNL     1      34.895  -5.815  28.984  1.00  0.00    -0.003 C 
ATOM      9  C   UNL     1      35.900  -4.875  28.325  1.00  0.00     0.004 C 
ENDBRANCH   7   8
ENDBRANCH   6   7
ENDBRANCH   1   6
TORSDOF 5
ENDMDL
MODEL 4
REMARK VINA RESULT:    -0.510     15.992     17.198
REMARK INTER + INTRA:          -0.532
REMARK INTER:                  -0.262
REMARK INTRA:                  -0.270
REMARK UNBOUND:                 0.126
REMARK SMILES CCCCCCC(=O)[O-]
REMARK SMILES IDX 5 1 6 2 7 3 8 4 9 5 4 6 3 7 2 8 1 9
REMARK H PARENT
REMARK Flexibility Score: inf
ROOT
ATOM      1  C   UNL     1      31.939  -5.874  27.244  1.00  0.00     0.006 C 
ENDROOT
BRANCH   1   2
ATOM      2  C   UNL     1      32.632  -4.963  28.270  1.00  0.00     0.053 C 
BRANCH   2   3
ATOM      3  C   UNL     1      33.843  -5.611  28.867  1.00  0.00     0.041 C 
ATOM      4  O   UNL     1      33.797  -6.809  29.253  1.00  0.00    -0.550 OA
ATOM      5  O   UNL     1      35.033  -4.901  28.966  1.00  0.00    -0.550 OA
ENDBRANCH   2   3
ENDBRANCH   1   2
BRANCH   1   6
ATOM      6  C   UNL     1      32.324  -5.589  25.781  1.00  0.00     0.000 C 
BRANCH   6   7
ATOM      7  C   UNL     1      33.739  -6.072  25.433  1.00  0.00    -0.000 C 
BRANCH   7   8
ATOM      8  C   UNL     1      34.591  -4.922  24.882  1.00  0.00    -0.003 C 
ATOM      9  C   UNL     1      35.958  -4.875  25.559  1.00  0.00     0.004 C 
ENDBRANCH   7   8
ENDBRANCH   6   7
ENDBRANCH   1   6
TORSDOF 5
ENDMDL
MODEL 5
REMARK VINA RESULT:    -0.115     10.630     11.784
REMARK INTER + INTRA:          -0.022
REMARK INTER:                   0.201
REMARK INTRA:                  -0.223
REMARK UNBOUND:                 0.126
REMARK SMILES CCCCCCC(=O)[O-]
REMARK SMILES IDX 5 1 6 2 7 3 8 4 9 5 4 6 3 7 2 8 1 9
REMARK H PARENT
REMARK Flexibility Score: inf
ROOT
ATOM      1  C   UNL     1      18.122 -18.698  25.619  1.00  0.00     0.006 C 
ENDROOT
BRANCH   1   2
ATOM      2  C   UNL     1      16.932 -19.125  24.744  1.00  0.00     0.053 C 
BRANCH   2   3
ATOM      3  C   UNL     1      17.369 -19.573  23.383  1.00  0.00     0.041 C 
ATOM      4  O   UNL     1      18.383 -19.059  22.842  1.00  0.00    -0.550 OA
ATOM      5  O   UNL     1      16.675 -20.582  22.728  1.00  0.00    -0.550 OA
ENDBRANCH   2   3
ENDBRANCH   1   2
BRANCH   1   6
ATOM      6  C   UNL     1      18.163 -19.370  27.003  1.00  0.00     0.000 C 
BRANCH   6   7
ATOM      7  C   UNL     1      16.767 -19.559  27.615  1.00  0.00    -0.000 C 
BRANCH   7   8
ATOM      8  C   UNL     1      16.655 -18.831  28.961  1.00  0.00    -0.003 C 
ATOM      9  C   UNL     1      16.221 -17.381  28.768  1.00  0.00     0.004 C 
ENDBRANCH   7   8
ENDBRANCH   6   7
ENDBRANCH   1   6
TORSDOF 5
ENDMDL
MODEL 6
REMARK VINA RESULT:     0.401     10.785     11.990
REMARK INTER + INTRA:           0.645
REMARK INTER:                   0.694
REMARK INTRA:                  -0.049
REMARK UNBOUND:                 0.126
REMARK SMILES CCCCCCC(=O)[O-]
REMARK SMILES IDX 5 1 6 2 7 3 8 4 9 5 4 6 3 7 2 8 1 9
REMARK H PARENT
REMARK Flexibility Score: inf
ROOT
ATOM      1  C   UNL     1      17.766 -18.870  26.409  1.00  0.00     0.006 C 
ENDROOT
BRANCH   1   2
ATOM      2  C   UNL     1      16.824 -19.335  25.287  1.00  0.00     0.053 C 
BRANCH   2   3
ATOM      3  C   UNL     1      17.465 -19.233  23.937  1.00  0.00     0.041 C 
ATOM      4  O   UNL     1      17.026 -19.914  22.973  1.00  0.00    -0.550 OA
ATOM      5  O   UNL     1      18.526 -18.359  23.737  1.00  0.00    -0.550 OA
ENDBRANCH   2   3
ENDBRANCH   1   2
BRANCH   1   6
ATOM      6  C   UNL     1      17.046 -18.290  27.640  1.00  0.00     0.000 C 
BRANCH   6   7
ATOM      7  C   UNL     1      16.878 -19.316  28.770  1.00  0.00    -0.000 C 
BRANCH   7   8
ATOM      8  C   UNL     1      15.875 -20.408  28.375  1.00  0.00    -0.003 C 
ATOM      9  C   UNL     1      16.106 -21.685  29.177  1.00  0.00     0.004 C 
ENDBRANCH   7   8
ENDBRANCH   6   7
ENDBRANCH   1   6
TORSDOF 5
ENDMDL
