MODEL 1
REMARK VINA RESULT:    52.539      0.000      0.000
REMARK INTER + INTRA:          59.978
REMARK INTER:                  60.218
REMARK INTRA:                  -0.240
REMARK UNBOUND:                -0.240
REMARK SMILES C=C(C)[C@H]1CC[C@@]2(C(=O)[O-])CC[C@@]3(C)[C@H](CC[C@@H]4[C@]5(C)CC[C@H](O)C(C)(C)[C@@H]5CC[C@@]43C)[C@@H]12
REMARK SMILES IDX 7 1 6 2 33 3 11 4 5 5 15 6 4 7 12 8 16 9 13 10 17 11 31 12
REMARK SMILES IDX 14 13 18 14 30 15 32 16 19 17 29 18 21 19 20 20 28 21 22 22
REMARK SMILES IDX 25 23 23 24 26 25 27 26 8 27 9 28 10 29 2 30 3 31 1 32 24 33
REMARK H PARENT 24 34
REMARK Flexibility Score: inf
ROOT
ATOM      1  C   UNL     1      19.574  54.173  41.316  1.00  0.00     0.014 C 
ATOM      2  C   UNL     1      20.091  53.680  39.945  1.00  0.00     0.014 C 
ATOM      3  C   UNL     1      20.871  54.452  42.134  1.00  0.00     0.012 C 
ATOM      4  C   UNL     1      18.607  53.133  41.942  1.00  0.00     0.014 C 
ATOM      5  C   UNL     1      21.428  54.370  39.699  1.00  0.00     0.009 C 
ATOM      6  C   UNL     1      21.432  53.255  43.009  1.00  0.00     0.000 C 
ATOM      7  C   UNL     1      21.840  55.006  41.035  1.00  0.00     0.018 C 
ATOM      8  C   UNL     1      18.940  52.830  43.399  1.00  0.00     0.008 C 
ATOM      9  C   UNL     1      22.362  53.824  44.101  1.00  0.00     0.005 C 
ATOM     10  C   UNL     1      20.369  52.216  43.586  1.00  0.00    -0.024 C 
ATOM     11  C   UNL     1      21.684  54.194  45.421  1.00  0.00     0.005 C 
ATOM     12  C   UNL     1      20.614  51.838  45.149  1.00  0.00    -0.024 C 
ATOM     13  C   UNL     1      20.438  50.909  42.713  1.00  0.00     0.012 C 
ATOM     14  C   UNL     1      20.679  53.156  46.032  1.00  0.00     0.002 C 
ATOM     15  C   UNL     1      21.937  51.010  45.377  1.00  0.00     0.008 C 
ATOM     16  C   UNL     1      19.436  50.924  45.629  1.00  0.00     0.012 C 
ATOM     17  C   UNL     1      20.855  52.896  47.618  1.00  0.00    -0.026 C 
ATOM     18  C   UNL     1      22.756  51.397  46.629  1.00  0.00     0.005 C 
ATOM     19  C   UNL     1      21.278  54.198  48.389  1.00  0.00     0.010 C 
ATOM     20  C   UNL     1      19.444  52.536  48.228  1.00  0.00     0.012 C 
ATOM     21  C   UNL     1      21.891  51.716  47.878  1.00  0.00     0.003 C 
ATOM     22  C   UNL     1      21.535  54.007  49.901  1.00  0.00     0.033 C 
ATOM     23  C   UNL     1      22.767  51.842  49.199  1.00  0.00    -0.006 C 
ATOM     24  C   UNL     1      21.951  52.575  50.305  1.00  0.00     0.120 C 
ATOM     25  C   UNL     1      23.100  50.419  49.726  1.00  0.00     0.014 C 
ATOM     26  C   UNL     1      24.124  52.568  48.967  1.00  0.00     0.014 C 
ENDROOT
BRANCH   1  27
ATOM     27  C   UNL     1      18.817  55.494  41.161  1.00  0.00     0.048 C 
ATOM     28  O   UNL     1      18.701  56.061  40.041  1.00  0.00    -0.550 OA
ATOM     29  O   UNL     1      18.294  56.125  42.285  1.00  0.00    -0.550 OA
ENDBRANCH   1  27
BRANCH   7  30
ATOM     30  C   UNL     1      23.350  54.992  41.293  1.00  0.00    -0.077 C 
ATOM     31  C   UNL     1      24.106  53.688  41.205  1.00  0.00     0.039 C 
ATOM     32  C   UNL     1      24.038  56.092  41.648  1.00  0.00     0.008 C 
ENDBRANCH   7  30
BRANCH  24  33
ATOM     33  O   UNL     1      22.682  52.628  51.507  1.00  0.00    -0.393 OA
ATOM     34  H   UNL     1      23.185  51.775  51.579  1.00  0.00     0.210 HD
ENDBRANCH  24  33
TORSDOF 3
ENDMDL
