MODEL 1
REMARK VINA RESULT:    -3.415      0.000      0.000
REMARK INTER + INTRA:         -11.290
REMARK INTER:                  -7.807
REMARK INTRA:                  -3.483
REMARK UNBOUND:                -3.483
REMARK SMILES CCCCCCCCCCCCCCCCCCCCCCCC(=O)[O-]
REMARK SMILES IDX 13 1 14 2 15 3 16 4 17 5 18 6 19 7 20 8 21 9 22 10 23 11
REMARK SMILES IDX 24 12 25 13 26 14 12 15 11 16 10 17 9 18 8 19 7 20 6 21 5 22
REMARK SMILES IDX 4 23 3 24 2 25 1 26
REMARK H PARENT
REMARK Flexibility Score: inf
ROOT
ATOM      1  C   UNL     1    -118.135  14.605  23.264  1.00  0.00     0.000 C 
ENDROOT
BRANCH   1   2
ATOM      2  C   UNL     1    -119.255  14.968  22.272  1.00  0.00     0.000 C 
BRANCH   2   3
ATOM      3  C   UNL     1    -119.287  14.036  21.047  1.00  0.00     0.000 C 
BRANCH   3   4
ATOM      4  C   UNL     1    -117.882  13.532  20.659  1.00  0.00     0.000 C 
BRANCH   4   5
ATOM      5  C   UNL     1    -117.869  12.096  20.097  1.00  0.00     0.000 C 
BRANCH   5   6
ATOM      6  C   UNL     1    -116.494  11.408  20.103  1.00  0.00     0.000 C 
BRANCH   6   7
ATOM      7  C   UNL     1    -116.375  10.310  19.032  1.00  0.00     0.000 C 
BRANCH   7   8
ATOM      8  C   UNL     1    -116.031  10.870  17.643  1.00  0.00     0.000 C 
BRANCH   8   9
ATOM      9  C   UNL     1    -117.247  10.910  16.701  1.00  0.00     0.000 C 
BRANCH   9  10
ATOM     10  C   UNL     1    -117.398  12.268  15.997  1.00  0.00     0.006 C 
BRANCH  10  11
ATOM     11  C   UNL     1    -116.718  13.408  16.767  1.00  0.00     0.053 C 
BRANCH  11  12
ATOM     12  C   UNL     1    -117.717  14.453  17.149  1.00  0.00     0.041 C 
ATOM     13  O   UNL     1    -118.929  14.145  17.306  1.00  0.00    -0.550 OA
ATOM     14  O   UNL     1    -117.320  15.776  17.300  1.00  0.00    -0.550 OA
ENDBRANCH  11  12
ENDBRANCH  10  11
ENDBRANCH   9  10
ENDBRANCH   8   9
ENDBRANCH   7   8
ENDBRANCH   6   7
ENDBRANCH   5   6
ENDBRANCH   4   5
ENDBRANCH   3   4
ENDBRANCH   2   3
ENDBRANCH   1   2
BRANCH   1  15
ATOM     15  C   UNL     1    -118.629  14.215  24.670  1.00  0.00     0.000 C 
BRANCH  15  16
ATOM     16  C   UNL     1    -119.798  13.220  24.631  1.00  0.00     0.000 C 
BRANCH  16  17
ATOM     17  C   UNL     1    -119.311  11.786  24.883  1.00  0.00     0.000 C 
BRANCH  17  18
ATOM     18  C   UNL     1    -118.887  11.064  23.592  1.00  0.00    -0.000 C 
BRANCH  18  19
ATOM     19  C   UNL     1    -117.512  10.370  23.654  1.00  0.00    -0.000 C 
BRANCH  19  20
ATOM     20  C   UNL     1    -116.315  11.342  23.587  1.00  0.00    -0.000 C 
BRANCH  20  21
ATOM     21  C   UNL     1    -115.403  11.246  24.824  1.00  0.00    -0.000 C 
BRANCH  21  22
ATOM     22  C   UNL     1    -114.340  12.365  24.850  1.00  0.00    -0.000 C 
BRANCH  22  23
ATOM     23  C   UNL     1    -112.964  11.893  25.349  1.00  0.00    -0.000 C 
BRANCH  23  24
ATOM     24  C   UNL     1    -112.699  10.408  25.048  1.00  0.00    -0.000 C 
BRANCH  24  25
ATOM     25  C   UNL     1    -111.932  10.200  23.733  1.00  0.00    -0.003 C 
ATOM     26  C   UNL     1    -112.821   9.668  22.608  1.00  0.00     0.004 C 
ENDBRANCH  24  25
ENDBRANCH  23  24
ENDBRANCH  22  23
ENDBRANCH  21  22
ENDBRANCH  20  21
ENDBRANCH  19  20
ENDBRANCH  18  19
ENDBRANCH  17  18
ENDBRANCH  16  17
ENDBRANCH  15  16
ENDBRANCH   1  15
TORSDOF 22
ENDMDL
MODEL 2
REMARK VINA RESULT:    -3.374     17.244     19.066
REMARK INTER + INTRA:         -11.196
REMARK INTER:                  -7.559
REMARK INTRA:                  -3.636
REMARK UNBOUND:                -3.483
REMARK SMILES CCCCCCCCCCCCCCCCCCCCCCCC(=O)[O-]
REMARK SMILES IDX 13 1 14 2 15 3 16 4 17 5 18 6 19 7 20 8 21 9 22 10 23 11
REMARK SMILES IDX 24 12 25 13 26 14 12 15 11 16 10 17 9 18 8 19 7 20 6 21 5 22
REMARK SMILES IDX 4 23 3 24 2 25 1 26
REMARK H PARENT
REMARK Flexibility Score: inf
ROOT
ATOM      1  C   UNL     1    -103.345  27.429  16.968  1.00  0.00     0.000 C 
ENDROOT
BRANCH   1   2
ATOM      2  C   UNL     1    -103.975  28.049  18.230  1.00  0.00     0.000 C 
BRANCH   2   3
ATOM      3  C   UNL     1    -102.985  28.141  19.404  1.00  0.00     0.000 C 
BRANCH   3   4
ATOM      4  C   UNL     1    -103.357  27.188  20.559  1.00  0.00     0.000 C 
BRANCH   4   5
ATOM      5  C   UNL     1    -103.619  27.907  21.899  1.00  0.00     0.000 C 
BRANCH   5   6
ATOM      6  C   UNL     1    -104.876  28.791  21.927  1.00  0.00     0.000 C 
BRANCH   6   7
ATOM      7  C   UNL     1    -106.178  27.971  21.926  1.00  0.00     0.000 C 
BRANCH   7   8
ATOM      8  C   UNL     1    -107.048  28.240  20.689  1.00  0.00     0.000 C 
BRANCH   8   9
ATOM      9  C   UNL     1    -107.102  27.038  19.729  1.00  0.00     0.000 C 
BRANCH   9  10
ATOM     10  C   UNL     1    -108.544  26.633  19.379  1.00  0.00     0.006 C 
BRANCH  10  11
ATOM     11  C   UNL     1    -109.518  26.866  20.541  1.00  0.00     0.053 C 
BRANCH  11  12
ATOM     12  C   UNL     1    -110.920  26.560  20.120  1.00  0.00     0.041 C 
ATOM     13  O   UNL     1    -111.180  26.309  18.913  1.00  0.00    -0.550 OA
ATOM     14  O   UNL     1    -111.950  26.583  21.053  1.00  0.00    -0.550 OA
ENDBRANCH  11  12
ENDBRANCH  10  11
ENDBRANCH   9  10
ENDBRANCH   8   9
ENDBRANCH   7   8
ENDBRANCH   6   7
ENDBRANCH   5   6
ENDBRANCH   4   5
ENDBRANCH   3   4
ENDBRANCH   2   3
ENDBRANCH   1   2
BRANCH   1  15
ATOM     15  C   UNL     1    -103.986  26.102  16.520  1.00  0.00     0.000 C 
BRANCH  15  16
ATOM     16  C   UNL     1    -104.393  25.213  17.705  1.00  0.00     0.000 C 
BRANCH  16  17
ATOM     17  C   UNL     1    -105.492  24.220  17.297  1.00  0.00     0.000 C 
BRANCH  17  18
ATOM     18  C   UNL     1    -104.964  22.788  17.109  1.00  0.00    -0.000 C 
BRANCH  18  19
ATOM     19  C   UNL     1    -103.555  22.532  17.680  1.00  0.00    -0.000 C 
BRANCH  19  20
ATOM     20  C   UNL     1    -102.737  21.490  16.889  1.00  0.00    -0.000 C 
BRANCH  20  21
ATOM     21  C   UNL     1    -101.371  22.035  16.429  1.00  0.00    -0.000 C 
BRANCH  21  22
ATOM     22  C   UNL     1    -101.332  23.579  16.431  1.00  0.00    -0.000 C 
BRANCH  22  23
ATOM     23  C   UNL     1    -100.237  24.163  17.337  1.00  0.00    -0.000 C 
BRANCH  23  24
ATOM     24  C   UNL     1    -100.799  25.074  18.441  1.00  0.00    -0.000 C 
BRANCH  24  25
ATOM     25  C   UNL     1    -100.602  24.489  19.848  1.00  0.00    -0.003 C 
ATOM     26  C   UNL     1    -101.910  24.011  20.478  1.00  0.00     0.004 C 
ENDBRANCH  24  25
ENDBRANCH  23  24
ENDBRANCH  22  23
ENDBRANCH  21  22
ENDBRANCH  20  21
ENDBRANCH  19  20
ENDBRANCH  18  19
ENDBRANCH  17  18
ENDBRANCH  16  17
ENDBRANCH  15  16
ENDBRANCH   1  15
TORSDOF 22
ENDMDL
MODEL 3
REMARK VINA RESULT:    -3.290      1.319      3.056
REMARK INTER + INTRA:         -11.003
REMARK INTER:                  -7.937
REMARK INTRA:                  -3.066
REMARK UNBOUND:                -3.483
REMARK SMILES CCCCCCCCCCCCCCCCCCCCCCCC(=O)[O-]
REMARK SMILES IDX 13 1 14 2 15 3 16 4 17 5 18 6 19 7 20 8 21 9 22 10 23 11
REMARK SMILES IDX 24 12 25 13 26 14 12 15 11 16 10 17 9 18 8 19 7 20 6 21 5 22
REMARK SMILES IDX 4 23 3 24 2 25 1 26
REMARK H PARENT
REMARK Flexibility Score: inf
ROOT
ATOM      1  C   UNL     1    -117.494  14.393  24.119  1.00  0.00     0.000 C 
ENDROOT
BRANCH   1   2
ATOM      2  C   UNL     1    -118.800  14.169  23.334  1.00  0.00     0.000 C 
BRANCH   2   3
ATOM      3  C   UNL     1    -118.816  14.909  21.985  1.00  0.00     0.000 C 
BRANCH   3   4
ATOM      4  C   UNL     1    -118.854  13.938  20.786  1.00  0.00     0.000 C 
BRANCH   4   5
ATOM      5  C   UNL     1    -118.745  12.452  21.185  1.00  0.00     0.000 C 
BRANCH   5   6
ATOM      6  C   UNL     1    -119.031  11.453  20.052  1.00  0.00     0.000 C 
BRANCH   6   7
ATOM      7  C   UNL     1    -118.574  11.968  18.677  1.00  0.00     0.000 C 
BRANCH   7   8
ATOM      8  C   UNL     1    -117.048  11.917  18.501  1.00  0.00     0.000 C 
BRANCH   8   9
ATOM      9  C   UNL     1    -116.619  11.952  17.024  1.00  0.00     0.000 C 
BRANCH   9  10
ATOM     10  C   UNL     1    -117.324  13.069  16.236  1.00  0.00     0.006 C 
BRANCH  10  11
ATOM     11  C   UNL     1    -116.876  14.469  16.676  1.00  0.00     0.053 C 
BRANCH  11  12
ATOM     12  C   UNL     1    -118.034  15.417  16.667  1.00  0.00     0.041 C 
ATOM     13  O   UNL     1    -119.099  15.123  17.271  1.00  0.00    -0.550 OA
ATOM     14  O   UNL     1    -117.950  16.613  15.963  1.00  0.00    -0.550 OA
ENDBRANCH  11  12
ENDBRANCH  10  11
ENDBRANCH   9  10
ENDBRANCH   8   9
ENDBRANCH   7   8
ENDBRANCH   6   7
ENDBRANCH   5   6
ENDBRANCH   4   5
ENDBRANCH   3   4
ENDBRANCH   2   3
ENDBRANCH   1   2
BRANCH   1  15
ATOM     15  C   UNL     1    -116.366  13.401  23.780  1.00  0.00     0.000 C 
BRANCH  15  16
ATOM     16  C   UNL     1    -116.653  11.982  24.292  1.00  0.00     0.000 C 
BRANCH  16  17
ATOM     17  C   UNL     1    -115.381  11.331  24.855  1.00  0.00     0.000 C 
BRANCH  17  18
ATOM     18  C   UNL     1    -114.136  12.220  24.699  1.00  0.00    -0.000 C 
BRANCH  18  19
ATOM     19  C   UNL     1    -112.851  11.662  25.342  1.00  0.00    -0.000 C 
BRANCH  19  20
ATOM     20  C   UNL     1    -112.416  10.290  24.786  1.00  0.00    -0.000 C 
BRANCH  20  21
ATOM     21  C   UNL     1    -111.484  10.412  23.566  1.00  0.00    -0.000 C 
BRANCH  21  22
ATOM     22  C   UNL     1    -111.963   9.547  22.380  1.00  0.00    -0.000 C 
BRANCH  22  23
ATOM     23  C   UNL     1    -113.464   9.215  22.432  1.00  0.00    -0.000 C 
BRANCH  23  24
ATOM     24  C   UNL     1    -114.182   9.493  21.101  1.00  0.00    -0.000 C 
BRANCH  24  25
ATOM     25  C   UNL     1    -115.533  10.197  21.295  1.00  0.00    -0.003 C 
ATOM     26  C   UNL     1    -116.628   9.251  21.787  1.00  0.00     0.004 C 
ENDBRANCH  24  25
ENDBRANCH  23  24
ENDBRANCH  22  23
ENDBRANCH  21  22
ENDBRANCH  20  21
ENDBRANCH  19  20
ENDBRANCH  18  19
ENDBRANCH  17  18
ENDBRANCH  16  17
ENDBRANCH  15  16
ENDBRANCH   1  15
TORSDOF 22
ENDMDL
MODEL 4
REMARK VINA RESULT:    -3.232     16.830     18.694
REMARK INTER + INTRA:         -10.872
REMARK INTER:                  -8.097
REMARK INTRA:                  -2.775
REMARK UNBOUND:                -3.483
REMARK SMILES CCCCCCCCCCCCCCCCCCCCCCCC(=O)[O-]
REMARK SMILES IDX 13 1 14 2 15 3 16 4 17 5 18 6 19 7 20 8 21 9 22 10 23 11
REMARK SMILES IDX 24 12 25 13 26 14 12 15 11 16 10 17 9 18 8 19 7 20 6 21 5 22
REMARK SMILES IDX 4 23 3 24 2 25 1 26
REMARK H PARENT
REMARK Flexibility Score: inf
ROOT
ATOM      1  C   UNL     1    -105.225  26.208  18.582  1.00  0.00     0.000 C 
ENDROOT
BRANCH   1   2
ATOM      2  C   UNL     1    -104.138  27.208  19.017  1.00  0.00     0.000 C 
BRANCH   2   3
ATOM      3  C   UNL     1    -103.642  26.958  20.452  1.00  0.00     0.000 C 
BRANCH   3   4
ATOM      4  C   UNL     1    -103.658  28.242  21.308  1.00  0.00     0.000 C 
BRANCH   4   5
ATOM      5  C   UNL     1    -104.821  28.301  22.319  1.00  0.00     0.000 C 
BRANCH   5   6
ATOM      6  C   UNL     1    -106.160  28.788  21.740  1.00  0.00     0.000 C 
BRANCH   6   7
ATOM      7  C   UNL     1    -107.162  27.642  21.517  1.00  0.00     0.000 C 
BRANCH   7   8
ATOM      8  C   UNL     1    -108.615  28.063  21.785  1.00  0.00     0.000 C 
BRANCH   8   9
ATOM      9  C   UNL     1    -109.402  27.006  22.581  1.00  0.00     0.000 C 
BRANCH   9  10
ATOM     10  C   UNL     1    -110.768  26.694  21.947  1.00  0.00     0.006 C 
BRANCH  10  11
ATOM     11  C   UNL     1    -110.743  26.798  20.417  1.00  0.00     0.053 C 
BRANCH  11  12
ATOM     12  C   UNL     1    -111.837  25.973  19.817  1.00  0.00     0.041 C 
ATOM     13  O   UNL     1    -112.718  25.455  20.554  1.00  0.00    -0.550 OA
ATOM     14  O   UNL     1    -111.868  25.745  18.446  1.00  0.00    -0.550 OA
ENDBRANCH  11  12
ENDBRANCH  10  11
ENDBRANCH   9  10
ENDBRANCH   8   9
ENDBRANCH   7   8
ENDBRANCH   6   7
ENDBRANCH   5   6
ENDBRANCH   4   5
ENDBRANCH   3   4
ENDBRANCH   2   3
ENDBRANCH   1   2
BRANCH   1  15
ATOM     15  C   UNL     1    -105.066  25.678  17.144  1.00  0.00     0.000 C 
BRANCH  15  16
ATOM     16  C   UNL     1    -105.642  24.265  16.968  1.00  0.00     0.000 C 
BRANCH  16  17
ATOM     17  C   UNL     1    -104.817  23.456  15.956  1.00  0.00     0.000 C 
BRANCH  17  18
ATOM     18  C   UNL     1    -104.029  22.308  16.609  1.00  0.00    -0.000 C 
BRANCH  18  19
ATOM     19  C   UNL     1    -104.437  21.979  18.059  1.00  0.00    -0.000 C 
BRANCH  19  20
ATOM     20  C   UNL     1    -103.311  22.194  19.092  1.00  0.00    -0.000 C 
BRANCH  20  21
ATOM     21  C   UNL     1    -102.385  23.369  18.723  1.00  0.00    -0.000 C 
BRANCH  21  22
ATOM     22  C   UNL     1    -101.775  24.041  19.973  1.00  0.00    -0.000 C 
BRANCH  22  23
ATOM     23  C   UNL     1    -100.575  24.948  19.656  1.00  0.00    -0.000 C 
BRANCH  23  24
ATOM     24  C   UNL     1    -100.328  25.104  18.146  1.00  0.00    -0.000 C 
BRANCH  24  25
ATOM     25  C   UNL     1    -100.978  26.371  17.569  1.00  0.00    -0.003 C 
ATOM     26  C   UNL     1    -100.393  27.655  18.157  1.00  0.00     0.004 C 
ENDBRANCH  24  25
ENDBRANCH  23  24
ENDBRANCH  22  23
ENDBRANCH  21  22
ENDBRANCH  20  21
ENDBRANCH  19  20
ENDBRANCH  18  19
ENDBRANCH  17  18
ENDBRANCH  16  17
ENDBRANCH  15  16
ENDBRANCH   1  15
TORSDOF 22
ENDMDL
MODEL 5
REMARK VINA RESULT:    -3.201     17.433     19.201
REMARK INTER + INTRA:         -10.800
REMARK INTER:                  -6.802
REMARK INTRA:                  -3.998
REMARK UNBOUND:                -3.483
REMARK SMILES CCCCCCCCCCCCCCCCCCCCCCCC(=O)[O-]
REMARK SMILES IDX 13 1 14 2 15 3 16 4 17 5 18 6 19 7 20 8 21 9 22 10 23 11
REMARK SMILES IDX 24 12 25 13 26 14 12 15 11 16 10 17 9 18 8 19 7 20 6 21 5 22
REMARK SMILES IDX 4 23 3 24 2 25 1 26
REMARK H PARENT
REMARK Flexibility Score: inf
ROOT
ATOM      1  C   UNL     1    -106.302  27.541  20.520  1.00  0.00     0.000 C 
ENDROOT
BRANCH   1   2
ATOM      2  C   UNL     1    -106.469  28.792  19.637  1.00  0.00     0.000 C 
BRANCH   2   3
ATOM      3  C   UNL     1    -106.419  28.468  18.134  1.00  0.00     0.000 C 
BRANCH   3   4
ATOM      4  C   UNL     1    -106.859  27.021  17.832  1.00  0.00     0.000 C 
BRANCH   4   5
ATOM      5  C   UNL     1    -108.042  26.922  16.848  1.00  0.00     0.000 C 
BRANCH   5   6
ATOM      6  C   UNL     1    -109.429  26.829  17.506  1.00  0.00     0.000 C 
BRANCH   6   7
ATOM      7  C   UNL     1    -110.017  28.209  17.846  1.00  0.00     0.000 C 
BRANCH   7   8
ATOM      8  C   UNL     1    -110.533  28.294  19.291  1.00  0.00     0.000 C 
BRANCH   8   9
ATOM      9  C   UNL     1    -110.639  26.915  19.965  1.00  0.00     0.000 C 
BRANCH   9  10
ATOM     10  C   UNL     1    -109.642  26.751  21.125  1.00  0.00     0.006 C 
BRANCH  10  11
ATOM     11  C   UNL     1    -109.750  27.883  22.155  1.00  0.00     0.053 C 
BRANCH  11  12
ATOM     12  C   UNL     1    -110.446  27.404  23.389  1.00  0.00     0.041 C 
ATOM     13  O   UNL     1    -111.033  28.225  24.145  1.00  0.00    -0.550 OA
ATOM     14  O   UNL     1    -110.422  26.056  23.726  1.00  0.00    -0.550 OA
ENDBRANCH  11  12
ENDBRANCH  10  11
ENDBRANCH   9  10
ENDBRANCH   8   9
ENDBRANCH   7   8
ENDBRANCH   6   7
ENDBRANCH   5   6
ENDBRANCH   4   5
ENDBRANCH   3   4
ENDBRANCH   2   3
ENDBRANCH   1   2
BRANCH   1  15
ATOM     15  C   UNL     1    -106.056  27.841  22.011  1.00  0.00     0.000 C 
BRANCH  15  16
ATOM     16  C   UNL     1    -104.740  28.594  22.254  1.00  0.00     0.000 C 
BRANCH  16  17
ATOM     17  C   UNL     1    -103.560  27.869  21.589  1.00  0.00     0.000 C 
BRANCH  17  18
ATOM     18  C   UNL     1    -102.809  28.753  20.579  1.00  0.00    -0.000 C 
BRANCH  18  19
ATOM     19  C   UNL     1    -101.477  28.171  20.067  1.00  0.00    -0.000 C 
BRANCH  19  20
ATOM     20  C   UNL     1    -101.396  28.043  18.532  1.00  0.00    -0.000 C 
BRANCH  20  21
ATOM     21  C   UNL     1    -102.773  27.804  17.884  1.00  0.00    -0.000 C 
BRANCH  21  22
ATOM     22  C   UNL     1    -102.996  26.319  17.523  1.00  0.00    -0.000 C 
BRANCH  22  23
ATOM     23  C   UNL     1    -103.631  25.502  18.660  1.00  0.00    -0.000 C 
BRANCH  23  24
ATOM     24  C   UNL     1    -102.816  24.249  19.022  1.00  0.00    -0.000 C 
BRANCH  24  25
ATOM     25  C   UNL     1    -101.806  24.507  20.150  1.00  0.00    -0.003 C 
ATOM     26  C   UNL     1    -100.365  24.588  19.647  1.00  0.00     0.004 C 
ENDBRANCH  24  25
ENDBRANCH  23  24
ENDBRANCH  22  23
ENDBRANCH  21  22
ENDBRANCH  20  21
ENDBRANCH  19  20
ENDBRANCH  18  19
ENDBRANCH  17  18
ENDBRANCH  16  17
ENDBRANCH  15  16
ENDBRANCH   1  15
TORSDOF 22
ENDMDL
MODEL 6
REMARK VINA RESULT:    -3.198      2.186      4.314
REMARK INTER + INTRA:         -10.794
REMARK INTER:                  -7.040
REMARK INTRA:                  -3.754
REMARK UNBOUND:                -3.483
REMARK SMILES CCCCCCCCCCCCCCCCCCCCCCCC(=O)[O-]
REMARK SMILES IDX 13 1 14 2 15 3 16 4 17 5 18 6 19 7 20 8 21 9 22 10 23 11
REMARK SMILES IDX 24 12 25 13 26 14 12 15 11 16 10 17 9 18 8 19 7 20 6 21 5 22
REMARK SMILES IDX 4 23 3 24 2 25 1 26
REMARK H PARENT
REMARK Flexibility Score: inf
ROOT
ATOM      1  C   UNL     1    -116.619  13.730  24.044  1.00  0.00     0.000 C 
ENDROOT
BRANCH   1   2
ATOM      2  C   UNL     1    -117.943  12.948  23.958  1.00  0.00     0.000 C 
BRANCH   2   3
ATOM      3  C   UNL     1    -119.060  13.747  23.265  1.00  0.00     0.000 C 
BRANCH   3   4
ATOM      4  C   UNL     1    -119.157  13.431  21.758  1.00  0.00     0.000 C 
BRANCH   4   5
ATOM      5  C   UNL     1    -118.257  14.320  20.876  1.00  0.00     0.000 C 
BRANCH   5   6
ATOM      6  C   UNL     1    -118.446  14.135  19.361  1.00  0.00     0.000 C 
BRANCH   6   7
ATOM      7  C   UNL     1    -119.139  12.808  19.008  1.00  0.00     0.000 C 
BRANCH   7   8
ATOM      8  C   UNL     1    -118.486  12.098  17.811  1.00  0.00     0.000 C 
BRANCH   8   9
ATOM      9  C   UNL     1    -117.011  12.493  17.620  1.00  0.00     0.000 C 
BRANCH   9  10
ATOM     10  C   UNL     1    -116.442  11.999  16.279  1.00  0.00     0.006 C 
BRANCH  10  11
ATOM     11  C   UNL     1    -115.150  11.190  16.452  1.00  0.00     0.053 C 
BRANCH  11  12
ATOM     12  C   UNL     1    -115.460   9.737  16.625  1.00  0.00     0.041 C 
ATOM     13  O   UNL     1    -116.574   9.278  16.257  1.00  0.00    -0.550 OA
ATOM     14  O   UNL     1    -114.532   8.892  17.223  1.00  0.00    -0.550 OA
ENDBRANCH  11  12
ENDBRANCH  10  11
ENDBRANCH   9  10
ENDBRANCH   8   9
ENDBRANCH   7   8
ENDBRANCH   6   7
ENDBRANCH   5   6
ENDBRANCH   4   5
ENDBRANCH   3   4
ENDBRANCH   2   3
ENDBRANCH   1   2
BRANCH   1  15
ATOM     15  C   UNL     1    -115.356  12.848  24.054  1.00  0.00     0.000 C 
BRANCH  15  16
ATOM     16  C   UNL     1    -115.608  11.461  24.662  1.00  0.00     0.000 C 
BRANCH  16  17
ATOM     17  C   UNL     1    -114.387  10.979  25.462  1.00  0.00     0.000 C 
BRANCH  17  18
ATOM     18  C   UNL     1    -113.111  11.776  25.141  1.00  0.00    -0.000 C 
BRANCH  18  19
ATOM     19  C   UNL     1    -112.128  11.073  24.184  1.00  0.00    -0.000 C 
BRANCH  19  20
ATOM     20  C   UNL     1    -112.592   9.677  23.720  1.00  0.00    -0.000 C 
BRANCH  20  21
ATOM     21  C   UNL     1    -112.877   9.620  22.208  1.00  0.00    -0.000 C 
BRANCH  21  22
ATOM     22  C   UNL     1    -114.340   9.227  21.907  1.00  0.00    -0.000 C 
BRANCH  22  23
ATOM     23  C   UNL     1    -114.905   9.896  20.643  1.00  0.00    -0.000 C 
BRANCH  23  24
ATOM     24  C   UNL     1    -116.030  10.899  20.951  1.00  0.00    -0.000 C 
BRANCH  24  25
ATOM     25  C   UNL     1    -117.427  10.270  20.843  1.00  0.00    -0.003 C 
ATOM     26  C   UNL     1    -118.006   9.880  22.204  1.00  0.00     0.004 C 
ENDBRANCH  24  25
ENDBRANCH  23  24
ENDBRANCH  22  23
ENDBRANCH  21  22
ENDBRANCH  20  21
ENDBRANCH  19  20
ENDBRANCH  18  19
ENDBRANCH  17  18
ENDBRANCH  16  17
ENDBRANCH  15  16
ENDBRANCH   1  15
TORSDOF 22
ENDMDL
MODEL 7
REMARK VINA RESULT:    -3.197     16.736     18.536
REMARK INTER + INTRA:         -10.792
REMARK INTER:                  -7.477
REMARK INTRA:                  -3.315
REMARK UNBOUND:                -3.483
REMARK SMILES CCCCCCCCCCCCCCCCCCCCCCCC(=O)[O-]
REMARK SMILES IDX 13 1 14 2 15 3 16 4 17 5 18 6 19 7 20 8 21 9 22 10 23 11
REMARK SMILES IDX 24 12 25 13 26 14 12 15 11 16 10 17 9 18 8 19 7 20 6 21 5 22
REMARK SMILES IDX 4 23 3 24 2 25 1 26
REMARK H PARENT
REMARK Flexibility Score: inf
ROOT
ATOM      1  C   UNL     1    -106.179  28.004  21.797  1.00  0.00     0.000 C 
ENDROOT
BRANCH   1   2
ATOM      2  C   UNL     1    -106.688  27.383  20.482  1.00  0.00     0.000 C 
BRANCH   2   3
ATOM      3  C   UNL     1    -106.310  28.218  19.246  1.00  0.00     0.000 C 
BRANCH   3   4
ATOM      4  C   UNL     1    -106.071  27.342  17.999  1.00  0.00     0.000 C 
BRANCH   4   5
ATOM      5  C   UNL     1    -107.240  27.360  16.992  1.00  0.00     0.000 C 
BRANCH   5   6
ATOM      6  C   UNL     1    -108.259  26.221  17.160  1.00  0.00     0.000 C 
BRANCH   6   7
ATOM      7  C   UNL     1    -109.699  26.735  17.336  1.00  0.00     0.000 C 
BRANCH   7   8
ATOM      8  C   UNL     1    -109.755  28.152  17.928  1.00  0.00     0.000 C 
BRANCH   8   9
ATOM      9  C   UNL     1    -110.120  28.156  19.423  1.00  0.00     0.000 C 
BRANCH   9  10
ATOM     10  C   UNL     1    -110.317  26.737  19.981  1.00  0.00     0.006 C 
BRANCH  10  11
ATOM     11  C   UNL     1    -111.139  26.725  21.277  1.00  0.00     0.053 C 
BRANCH  11  12
ATOM     12  C   UNL     1    -110.240  26.809  22.470  1.00  0.00     0.041 C 
ATOM     13  O   UNL     1    -110.076  25.805  23.213  1.00  0.00    -0.550 OA
ATOM     14  O   UNL     1    -109.607  28.006  22.783  1.00  0.00    -0.550 OA
ENDBRANCH  11  12
ENDBRANCH  10  11
ENDBRANCH   9  10
ENDBRANCH   8   9
ENDBRANCH   7   8
ENDBRANCH   6   7
ENDBRANCH   5   6
ENDBRANCH   4   5
ENDBRANCH   3   4
ENDBRANCH   2   3
ENDBRANCH   1   2
BRANCH   1  15
ATOM     15  C   UNL     1    -104.885  28.827  21.655  1.00  0.00     0.000 C 
BRANCH  15  16
ATOM     16  C   UNL     1    -103.622  27.991  21.905  1.00  0.00     0.000 C 
BRANCH  16  17
ATOM     17  C   UNL     1    -102.862  27.732  20.595  1.00  0.00     0.000 C 
BRANCH  17  18
ATOM     18  C   UNL     1    -103.049  26.299  20.069  1.00  0.00    -0.000 C 
BRANCH  18  19
ATOM     19  C   UNL     1    -102.056  25.874  18.970  1.00  0.00    -0.000 C 
BRANCH  19  20
ATOM     20  C   UNL     1    -101.180  24.661  19.350  1.00  0.00    -0.000 C 
BRANCH  20  21
ATOM     21  C   UNL     1    -100.634  23.916  18.117  1.00  0.00    -0.000 C 
BRANCH  21  22
ATOM     22  C   UNL     1    -101.766  23.347  17.235  1.00  0.00    -0.000 C 
BRANCH  22  23
ATOM     23  C   UNL     1    -102.414  22.077  17.812  1.00  0.00    -0.000 C 
BRANCH  23  24
ATOM     24  C   UNL     1    -103.880  22.290  18.224  1.00  0.00    -0.000 C 
BRANCH  24  25
ATOM     25  C   UNL     1    -104.523  23.492  17.517  1.00  0.00    -0.003 C 
ATOM     26  C   UNL     1    -105.987  23.247  17.148  1.00  0.00     0.004 C 
ENDBRANCH  24  25
ENDBRANCH  23  24
ENDBRANCH  22  23
ENDBRANCH  21  22
ENDBRANCH  20  21
ENDBRANCH  19  20
ENDBRANCH  18  19
ENDBRANCH  17  18
ENDBRANCH  16  17
ENDBRANCH  15  16
ENDBRANCH   1  15
TORSDOF 22
ENDMDL
MODEL 8
REMARK VINA RESULT:    -3.130     15.845     17.690
REMARK INTER + INTRA:         -10.638
REMARK INTER:                  -7.362
REMARK INTRA:                  -3.276
REMARK UNBOUND:                -3.483
REMARK SMILES CCCCCCCCCCCCCCCCCCCCCCCC(=O)[O-]
REMARK SMILES IDX 13 1 14 2 15 3 16 4 17 5 18 6 19 7 20 8 21 9 22 10 23 11
REMARK SMILES IDX 24 12 25 13 26 14 12 15 11 16 10 17 9 18 8 19 7 20 6 21 5 22
REMARK SMILES IDX 4 23 3 24 2 25 1 26
REMARK H PARENT
REMARK Flexibility Score: inf
ROOT
ATOM      1  C   UNL     1    -107.569  26.488  18.991  1.00  0.00     0.000 C 
ENDROOT
BRANCH   1   2
ATOM      2  C   UNL     1    -107.285  27.852  19.647  1.00  0.00     0.000 C 
BRANCH   2   3
ATOM      3  C   UNL     1    -106.766  27.719  21.090  1.00  0.00     0.000 C 
BRANCH   3   4
ATOM      4  C   UNL     1    -107.797  28.206  22.129  1.00  0.00     0.000 C 
BRANCH   4   5
ATOM      5  C   UNL     1    -109.030  27.288  22.261  1.00  0.00     0.000 C 
BRANCH   5   6
ATOM      6  C   UNL     1    -110.279  27.959  22.856  1.00  0.00     0.000 C 
BRANCH   6   7
ATOM      7  C   UNL     1    -111.456  28.003  21.867  1.00  0.00     0.000 C 
BRANCH   7   8
ATOM      8  C   UNL     1    -111.063  28.586  20.501  1.00  0.00     0.000 C 
BRANCH   8   9
ATOM      9  C   UNL     1    -111.652  27.788  19.324  1.00  0.00     0.000 C 
BRANCH   9  10
ATOM     10  C   UNL     1    -111.269  26.300  19.375  1.00  0.00     0.006 C 
BRANCH  10  11
ATOM     11  C   UNL     1    -112.401  25.385  18.890  1.00  0.00     0.053 C 
BRANCH  11  12
ATOM     12  C   UNL     1    -113.424  25.201  19.966  1.00  0.00     0.041 C 
ATOM     13  O   UNL     1    -114.577  25.693  19.836  1.00  0.00    -0.550 OA
ATOM     14  O   UNL     1    -113.098  24.514  21.129  1.00  0.00    -0.550 OA
ENDBRANCH  11  12
ENDBRANCH  10  11
ENDBRANCH   9  10
ENDBRANCH   8   9
ENDBRANCH   7   8
ENDBRANCH   6   7
ENDBRANCH   5   6
ENDBRANCH   4   5
ENDBRANCH   3   4
ENDBRANCH   2   3
ENDBRANCH   1   2
BRANCH   1  15
ATOM     15  C   UNL     1    -106.934  26.305  17.599  1.00  0.00     0.000 C 
BRANCH  15  16
ATOM     16  C   UNL     1    -106.398  24.884  17.375  1.00  0.00     0.000 C 
BRANCH  16  17
ATOM     17  C   UNL     1    -105.053  24.913  16.634  1.00  0.00     0.000 C 
BRANCH  17  18
ATOM     18  C   UNL     1    -104.403  23.523  16.522  1.00  0.00    -0.000 C 
BRANCH  18  19
ATOM     19  C   UNL     1    -104.513  22.647  17.786  1.00  0.00    -0.000 C 
BRANCH  19  20
ATOM     20  C   UNL     1    -103.169  22.413  18.506  1.00  0.00    -0.000 C 
BRANCH  20  21
ATOM     21  C   UNL     1    -101.968  22.961  17.714  1.00  0.00    -0.000 C 
BRANCH  21  22
ATOM     22  C   UNL     1    -101.247  24.100  18.467  1.00  0.00    -0.000 C 
BRANCH  22  23
ATOM     23  C   UNL     1    -101.912  24.468  19.803  1.00  0.00    -0.000 C 
BRANCH  23  24
ATOM     24  C   UNL     1    -102.114  25.983  19.972  1.00  0.00    -0.000 C 
BRANCH  24  25
ATOM     25  C   UNL     1    -103.558  26.422  19.687  1.00  0.00    -0.003 C 
ATOM     26  C   UNL     1    -103.638  27.593  18.708  1.00  0.00     0.004 C 
ENDBRANCH  24  25
ENDBRANCH  23  24
ENDBRANCH  22  23
ENDBRANCH  21  22
ENDBRANCH  20  21
ENDBRANCH  19  20
ENDBRANCH  18  19
ENDBRANCH  17  18
ENDBRANCH  16  17
ENDBRANCH  15  16
ENDBRANCH   1  15
TORSDOF 22
ENDMDL
MODEL 9
REMARK VINA RESULT:    -3.103     16.798     18.676
REMARK INTER + INTRA:         -10.577
REMARK INTER:                  -7.909
REMARK INTRA:                  -2.668
REMARK UNBOUND:                -3.483
REMARK SMILES CCCCCCCCCCCCCCCCCCCCCCCC(=O)[O-]
REMARK SMILES IDX 13 1 14 2 15 3 16 4 17 5 18 6 19 7 20 8 21 9 22 10 23 11
REMARK SMILES IDX 24 12 25 13 26 14 12 15 11 16 10 17 9 18 8 19 7 20 6 21 5 22
REMARK SMILES IDX 4 23 3 24 2 25 1 26
REMARK H PARENT
REMARK Flexibility Score: inf
ROOT
ATOM      1  C   UNL     1    -106.621  25.227  17.234  1.00  0.00     0.000 C 
ENDROOT
BRANCH   1   2
ATOM      2  C   UNL     1    -105.473  26.253  17.227  1.00  0.00     0.000 C 
BRANCH   2   3
ATOM      3  C   UNL     1    -105.665  27.366  18.273  1.00  0.00     0.000 C 
BRANCH   3   4
ATOM      4  C   UNL     1    -105.476  26.852  19.715  1.00  0.00     0.000 C 
BRANCH   4   5
ATOM      5  C   UNL     1    -105.175  27.965  20.739  1.00  0.00     0.000 C 
BRANCH   5   6
ATOM      6  C   UNL     1    -106.078  27.964  21.983  1.00  0.00     0.000 C 
BRANCH   6   7
ATOM      7  C   UNL     1    -107.185  29.030  21.913  1.00  0.00     0.000 C 
BRANCH   7   8
ATOM      8  C   UNL     1    -108.593  28.435  22.068  1.00  0.00     0.000 C 
BRANCH   8   9
ATOM      9  C   UNL     1    -108.837  27.238  21.133  1.00  0.00     0.000 C 
BRANCH   9  10
ATOM     10  C   UNL     1    -110.232  26.618  21.326  1.00  0.00     0.006 C 
BRANCH  10  11
ATOM     11  C   UNL     1    -111.358  27.554  20.869  1.00  0.00     0.053 C 
BRANCH  11  12
ATOM     12  C   UNL     1    -112.514  26.765  20.341  1.00  0.00     0.041 C 
ATOM     13  O   UNL     1    -113.393  27.324  19.632  1.00  0.00    -0.550 OA
ATOM     14  O   UNL     1    -112.643  25.418  20.659  1.00  0.00    -0.550 OA
ENDBRANCH  11  12
ENDBRANCH  10  11
ENDBRANCH   9  10
ENDBRANCH   8   9
ENDBRANCH   7   8
ENDBRANCH   6   7
ENDBRANCH   5   6
ENDBRANCH   4   5
ENDBRANCH   3   4
ENDBRANCH   2   3
ENDBRANCH   1   2
BRANCH   1  15
ATOM     15  C   UNL     1    -106.170  23.762  17.079  1.00  0.00     0.000 C 
BRANCH  15  16
ATOM     16  C   UNL     1    -104.660  23.582  17.298  1.00  0.00     0.000 C 
BRANCH  16  17
ATOM     17  C   UNL     1    -104.369  22.312  18.111  1.00  0.00     0.000 C 
BRANCH  17  18
ATOM     18  C   UNL     1    -102.867  21.992  18.201  1.00  0.00    -0.000 C 
BRANCH  18  19
ATOM     19  C   UNL     1    -102.172  21.740  16.849  1.00  0.00    -0.000 C 
BRANCH  19  20
ATOM     20  C   UNL     1    -100.912  22.602  16.621  1.00  0.00    -0.000 C 
BRANCH  20  21
ATOM     21  C   UNL     1    -101.054  24.023  17.199  1.00  0.00    -0.000 C 
BRANCH  21  22
ATOM     22  C   UNL     1    -100.008  24.309  18.298  1.00  0.00    -0.000 C 
BRANCH  22  23
ATOM     23  C   UNL     1    -100.629  24.616  19.670  1.00  0.00    -0.000 C 
BRANCH  23  24
ATOM     24  C   UNL     1    -101.981  25.341  19.564  1.00  0.00    -0.000 C 
BRANCH  24  25
ATOM     25  C   UNL     1    -101.878  26.835  19.905  1.00  0.00    -0.003 C 
ATOM     26  C   UNL     1    -101.125  27.633  18.840  1.00  0.00     0.004 C 
ENDBRANCH  24  25
ENDBRANCH  23  24
ENDBRANCH  22  23
ENDBRANCH  21  22
ENDBRANCH  20  21
ENDBRANCH  19  20
ENDBRANCH  18  19
ENDBRANCH  17  18
ENDBRANCH  16  17
ENDBRANCH  15  16
ENDBRANCH   1  15
TORSDOF 22
ENDMDL
