MODEL 1
REMARK VINA RESULT:    -3.686      0.000      0.000
REMARK INTER + INTRA:          -4.370
REMARK INTER:                  -4.332
REMARK INTRA:                  -0.038
REMARK UNBOUND:                -0.038
REMARK SMILES O=C([O-])CCC(=O)[O-]
REMARK SMILES IDX 4 1 2 2 1 3 3 4 5 5 6 6 7 7 8 8
REMARK H PARENT
REMARK Flexibility Score: inf
ROOT
ATOM      1  C   UNL     1      -6.646  25.955  59.835  1.00  0.00     0.059 C 
ENDROOT
BRANCH   1   2
ATOM      2  C   UNL     1      -7.370  26.323  58.577  1.00  0.00     0.042 C 
ATOM      3  O   UNL     1      -8.382  25.669  58.212  1.00  0.00    -0.550 OA
ATOM      4  O   UNL     1      -6.903  27.366  57.786  1.00  0.00    -0.550 OA
ENDBRANCH   1   2
BRANCH   1   5
ATOM      5  C   UNL     1      -7.597  25.892  61.035  1.00  0.00     0.059 C 
BRANCH   5   6
ATOM      6  C   UNL     1      -6.923  26.333  62.299  1.00  0.00     0.042 C 
ATOM      7  O   UNL     1      -7.470  26.127  63.414  1.00  0.00    -0.550 OA
ATOM      8  O   UNL     1      -5.671  26.934  62.246  1.00  0.00    -0.550 OA
ENDBRANCH   5   6
ENDBRANCH   1   5
TORSDOF 3
ENDMDL
MODEL 2
REMARK VINA RESULT:    -3.654      2.840      4.874
REMARK INTER + INTRA:          -4.333
REMARK INTER:                  -4.199
REMARK INTRA:                  -0.134
REMARK UNBOUND:                -0.038
REMARK SMILES O=C([O-])CCC(=O)[O-]
REMARK SMILES IDX 4 1 2 2 1 3 3 4 5 5 6 6 7 7 8 8
REMARK H PARENT
REMARK Flexibility Score: inf
ROOT
ATOM      1  C   UNL     1      -6.858  24.635  58.583  1.00  0.00     0.059 C 
ENDROOT
BRANCH   1   2
ATOM      2  C   UNL     1      -7.668  25.894  58.608  1.00  0.00     0.042 C 
ATOM      3  O   UNL     1      -8.867  25.869  58.991  1.00  0.00    -0.550 OA
ATOM      4  O   UNL     1      -7.110  27.088  58.170  1.00  0.00    -0.550 OA
ENDBRANCH   1   2
BRANCH   1   5
ATOM      5  C   UNL     1      -6.283  24.362  57.188  1.00  0.00     0.059 C 
BRANCH   5   6
ATOM      6  C   UNL     1      -7.345  24.417  56.132  1.00  0.00     0.042 C 
ATOM      7  O   UNL     1      -7.252  25.240  55.184  1.00  0.00    -0.550 OA
ATOM      8  O   UNL     1      -8.414  23.531  56.174  1.00  0.00    -0.550 OA
ENDBRANCH   5   6
ENDBRANCH   1   5
TORSDOF 3
ENDMDL
MODEL 3
REMARK VINA RESULT:    -3.589      1.268      2.008
REMARK INTER + INTRA:          -4.257
REMARK INTER:                  -4.225
REMARK INTRA:                  -0.032
REMARK UNBOUND:                -0.038
REMARK SMILES O=C([O-])CCC(=O)[O-]
REMARK SMILES IDX 4 1 2 2 1 3 3 4 5 5 6 6 7 7 8 8
REMARK H PARENT
REMARK Flexibility Score: inf
ROOT
ATOM      1  C   UNL     1      -8.256  26.028  59.679  1.00  0.00     0.059 C 
ENDROOT
BRANCH   1   2
ATOM      2  C   UNL     1      -7.562  25.706  58.391  1.00  0.00     0.042 C 
ATOM      3  O   UNL     1      -7.129  26.631  57.655  1.00  0.00    -0.550 OA
ATOM      4  O   UNL     1      -7.429  24.384  57.986  1.00  0.00    -0.550 OA
ENDBRANCH   1   2
BRANCH   1   5
ATOM      5  C   UNL     1      -7.302  25.932  60.874  1.00  0.00     0.059 C 
BRANCH   5   6
ATOM      6  C   UNL     1      -8.046  25.902  62.174  1.00  0.00     0.042 C 
ATOM      7  O   UNL     1      -7.434  26.093  63.259  1.00  0.00    -0.550 OA
ATOM      8  O   UNL     1      -9.421  25.704  62.185  1.00  0.00    -0.550 OA
ENDBRANCH   5   6
ENDBRANCH   1   5
TORSDOF 3
ENDMDL
MODEL 4
REMARK VINA RESULT:    -3.582      2.829      3.536
REMARK INTER + INTRA:          -4.249
REMARK INTER:                  -4.113
REMARK INTRA:                  -0.136
REMARK UNBOUND:                -0.038
REMARK SMILES O=C([O-])CCC(=O)[O-]
REMARK SMILES IDX 4 1 2 2 1 3 3 4 5 5 6 6 7 7 8 8
REMARK H PARENT
REMARK Flexibility Score: inf
ROOT
ATOM      1  C   UNL     1      -6.158  24.463  57.255  1.00  0.00     0.059 C 
ENDROOT
BRANCH   1   2
ATOM      2  C   UNL     1      -7.239  24.411  56.220  1.00  0.00     0.042 C 
ATOM      3  O   UNL     1      -8.156  23.552  56.302  1.00  0.00    -0.550 OA
ATOM      4  O   UNL     1      -7.212  25.287  55.142  1.00  0.00    -0.550 OA
ENDBRANCH   1   2
BRANCH   1   5
ATOM      5  C   UNL     1      -6.719  24.801  58.640  1.00  0.00     0.059 C 
BRANCH   5   6
ATOM      6  C   UNL     1      -7.604  26.009  58.598  1.00  0.00     0.042 C 
ATOM      7  O   UNL     1      -8.795  25.936  59.003  1.00  0.00    -0.550 OA
ATOM      8  O   UNL     1      -7.102  27.225  58.152  1.00  0.00    -0.550 OA
ENDBRANCH   5   6
ENDBRANCH   1   5
TORSDOF 3
ENDMDL
MODEL 5
REMARK VINA RESULT:    -3.565      1.892      4.366
REMARK INTER + INTRA:          -4.228
REMARK INTER:                  -4.113
REMARK INTRA:                  -0.116
REMARK UNBOUND:                -0.038
REMARK SMILES O=C([O-])CCC(=O)[O-]
REMARK SMILES IDX 4 1 2 2 1 3 3 4 5 5 6 6 7 7 8 8
REMARK H PARENT
REMARK Flexibility Score: inf
ROOT
ATOM      1  C   UNL     1      -8.187  25.908  59.286  1.00  0.00     0.059 C 
ENDROOT
BRANCH   1   2
ATOM      2  C   UNL     1      -7.423  25.997  60.571  1.00  0.00     0.042 C 
ATOM      3  O   UNL     1      -6.188  26.239  60.559  1.00  0.00    -0.550 OA
ATOM      4  O   UNL     1      -8.069  25.772  61.780  1.00  0.00    -0.550 OA
ENDBRANCH   1   2
BRANCH   1   5
ATOM      5  C   UNL     1      -7.251  25.749  58.082  1.00  0.00     0.059 C 
BRANCH   5   6
ATOM      6  C   UNL     1      -7.136  24.317  57.657  1.00  0.00     0.042 C 
ATOM      7  O   UNL     1      -6.376  23.530  58.281  1.00  0.00    -0.550 OA
ATOM      8  O   UNL     1      -7.900  23.841  56.599  1.00  0.00    -0.550 OA
ENDBRANCH   5   6
ENDBRANCH   1   5
TORSDOF 3
ENDMDL
MODEL 6
REMARK VINA RESULT:    -3.544      1.326      4.232
REMARK INTER + INTRA:          -4.204
REMARK INTER:                  -4.166
REMARK INTRA:                  -0.038
REMARK UNBOUND:                -0.038
REMARK SMILES O=C([O-])CCC(=O)[O-]
REMARK SMILES IDX 4 1 2 2 1 3 3 4 5 5 6 6 7 7 8 8
REMARK H PARENT
REMARK Flexibility Score: inf
ROOT
ATOM      1  C   UNL     1      -7.225  26.017  60.747  1.00  0.00     0.059 C 
ENDROOT
BRANCH   1   2
ATOM      2  C   UNL     1      -7.961  25.883  62.044  1.00  0.00     0.042 C 
ATOM      3  O   UNL     1      -9.206  25.697  62.051  1.00  0.00    -0.550 OA
ATOM      4  O   UNL     1      -7.276  26.003  63.247  1.00  0.00    -0.550 OA
ENDBRANCH   1   2
BRANCH   1   5
ATOM      5  C   UNL     1      -8.178  25.949  59.548  1.00  0.00     0.059 C 
BRANCH   5   6
ATOM      6  C   UNL     1      -7.471  25.496  58.306  1.00  0.00     0.042 C 
ATOM      7  O   UNL     1      -7.128  26.335  57.431  1.00  0.00    -0.550 OA
ATOM      8  O   UNL     1      -7.156  24.154  58.135  1.00  0.00    -0.550 OA
ENDBRANCH   5   6
ENDBRANCH   1   5
TORSDOF 3
ENDMDL
MODEL 7
REMARK VINA RESULT:    -3.479      2.990      3.898
REMARK INTER + INTRA:          -4.128
REMARK INTER:                  -3.962
REMARK INTRA:                  -0.166
REMARK UNBOUND:                -0.038
REMARK SMILES O=C([O-])CCC(=O)[O-]
REMARK SMILES IDX 4 1 2 2 1 3 3 4 5 5 6 6 7 7 8 8
REMARK H PARENT
REMARK Flexibility Score: inf
ROOT
ATOM      1  C   UNL     1      -4.881  25.011  58.007  1.00  0.00     0.059 C 
ENDROOT
BRANCH   1   2
ATOM      2  C   UNL     1      -5.816  23.916  57.596  1.00  0.00     0.042 C 
ATOM      3  O   UNL     1      -6.397  23.217  58.467  1.00  0.00    -0.550 OA
ATOM      4  O   UNL     1      -6.015  23.642  56.249  1.00  0.00    -0.550 OA
ENDBRANCH   1   2
BRANCH   1   5
ATOM      5  C   UNL     1      -5.578  26.040  58.904  1.00  0.00     0.059 C 
BRANCH   5   6
ATOM      6  C   UNL     1      -6.623  26.809  58.155  1.00  0.00     0.042 C 
ATOM      7  O   UNL     1      -7.839  26.685  58.457  1.00  0.00    -0.550 OA
ATOM      8  O   UNL     1      -6.250  27.694  57.151  1.00  0.00    -0.550 OA
ENDBRANCH   5   6
ENDBRANCH   1   5
TORSDOF 3
ENDMDL
MODEL 8
REMARK VINA RESULT:    -3.478      1.935      2.864
REMARK INTER + INTRA:          -4.126
REMARK INTER:                  -4.031
REMARK INTRA:                  -0.095
REMARK UNBOUND:                -0.038
REMARK SMILES O=C([O-])CCC(=O)[O-]
REMARK SMILES IDX 4 1 2 2 1 3 3 4 5 5 6 6 7 7 8 8
REMARK H PARENT
REMARK Flexibility Score: inf
ROOT
ATOM      1  C   UNL     1      -6.724  24.433  58.217  1.00  0.00     0.059 C 
ENDROOT
BRANCH   1   2
ATOM      2  C   UNL     1      -7.386  24.645  56.890  1.00  0.00     0.042 C 
ATOM      3  O   UNL     1      -7.232  25.730  56.270  1.00  0.00    -0.550 OA
ATOM      4  O   UNL     1      -8.205  23.657  56.356  1.00  0.00    -0.550 OA
ENDBRANCH   1   2
BRANCH   1   5
ATOM      5  C   UNL     1      -6.433  25.764  58.920  1.00  0.00     0.059 C 
BRANCH   5   6
ATOM      6  C   UNL     1      -7.380  26.006  60.056  1.00  0.00     0.042 C 
ATOM      7  O   UNL     1      -6.937  26.209  61.218  1.00  0.00    -0.550 OA
ATOM      8  O   UNL     1      -8.749  26.051  59.824  1.00  0.00    -0.550 OA
ENDBRANCH   5   6
ENDBRANCH   1   5
TORSDOF 3
ENDMDL
MODEL 9
REMARK VINA RESULT:    -3.426      3.202      3.559
REMARK INTER + INTRA:          -4.065
REMARK INTER:                  -3.948
REMARK INTRA:                  -0.117
REMARK UNBOUND:                -0.038
REMARK SMILES O=C([O-])CCC(=O)[O-]
REMARK SMILES IDX 4 1 2 2 1 3 3 4 5 5 6 6 7 7 8 8
REMARK H PARENT
REMARK Flexibility Score: inf
ROOT
ATOM      1  C   UNL     1      -5.857  24.099  57.735  1.00  0.00     0.059 C 
ENDROOT
BRANCH   1   2
ATOM      2  C   UNL     1      -7.023  24.553  56.913  1.00  0.00     0.042 C 
ATOM      3  O   UNL     1      -7.913  23.732  56.565  1.00  0.00    -0.550 OA
ATOM      4  O   UNL     1      -7.107  25.876  56.496  1.00  0.00    -0.550 OA
ENDBRANCH   1   2
BRANCH   1   5
ATOM      5  C   UNL     1      -4.662  25.048  57.591  1.00  0.00     0.059 C 
BRANCH   5   6
ATOM      6  C   UNL     1      -4.336  25.725  58.888  1.00  0.00     0.042 C 
ATOM      7  O   UNL     1      -5.256  26.214  59.596  1.00  0.00    -0.550 OA
ATOM      8  O   UNL     1      -3.021  25.780  59.333  1.00  0.00    -0.550 OA
ENDBRANCH   5   6
ENDBRANCH   1   5
TORSDOF 3
ENDMDL
