MODEL 1
REMARK VINA RESULT:    -4.564      0.000      0.000
REMARK INTER + INTRA:          -4.850
REMARK INTER:                  -4.831
REMARK INTRA:                  -0.019
REMARK UNBOUND:                -0.019
REMARK SMILES O=C([O-])c1cccnc1
REMARK SMILES IDX 4 1 5 2 9 3 6 4 8 5 7 6 2 7 1 8 3 9
REMARK H PARENT
REMARK Flexibility Score: inf
ROOT
ATOM      1  C   UNL     1     -33.859  44.989  38.865  1.00  0.00     0.016 A 
ATOM      2  C   UNL     1     -32.498  45.122  38.538  1.00  0.00     0.013 A 
ATOM      3  C   UNL     1     -34.813  45.508  37.973  1.00  0.00     0.120 A 
ATOM      4  C   UNL     1     -32.121  45.756  37.353  1.00  0.00     0.021 A 
ATOM      5  N   UNL     1     -34.417  46.120  36.825  1.00  0.00    -0.264 NA
ATOM      6  C   UNL     1     -33.105  46.253  36.500  1.00  0.00     0.111 A 
ENDROOT
BRANCH   1   7
ATOM      7  C   UNL     1     -34.280  44.323  40.115  1.00  0.00     0.073 C 
ATOM      8  O   UNL     1     -33.865  43.166  40.396  1.00  0.00    -0.545 OA
ATOM      9  O   UNL     1     -35.141  44.963  41.000  1.00  0.00    -0.545 OA
ENDBRANCH   1   7
TORSDOF 1
ENDMDL
MODEL 2
REMARK VINA RESULT:    -4.393      1.155      1.712
REMARK INTER + INTRA:          -4.668
REMARK INTER:                  -4.652
REMARK INTRA:                  -0.016
REMARK UNBOUND:                -0.019
REMARK SMILES O=C([O-])c1cccnc1
REMARK SMILES IDX 4 1 5 2 9 3 6 4 8 5 7 6 2 7 1 8 3 9
REMARK H PARENT
REMARK Flexibility Score: inf
ROOT
ATOM      1  C   UNL     1     -34.161  45.028  39.117  1.00  0.00     0.016 A 
ATOM      2  C   UNL     1     -34.842  45.647  38.053  1.00  0.00     0.013 A 
ATOM      3  C   UNL     1     -32.767  44.880  39.021  1.00  0.00     0.120 A 
ATOM      4  C   UNL     1     -34.135  46.098  36.938  1.00  0.00     0.021 A 
ATOM      5  N   UNL     1     -32.103  45.329  37.922  1.00  0.00    -0.264 NA
ATOM      6  C   UNL     1     -32.751  45.929  36.889  1.00  0.00     0.111 A 
ENDROOT
BRANCH   1   7
ATOM      7  C   UNL     1     -34.891  44.542  40.307  1.00  0.00     0.073 C 
ATOM      8  O   UNL     1     -35.209  43.327  40.411  1.00  0.00    -0.545 OA
ATOM      9  O   UNL     1     -35.236  45.419  41.329  1.00  0.00    -0.545 OA
ENDBRANCH   1   7
TORSDOF 1
ENDMDL
MODEL 3
REMARK VINA RESULT:    -4.342     12.642     14.326
REMARK INTER + INTRA:          -4.614
REMARK INTER:                  -4.593
REMARK INTRA:                  -0.022
REMARK UNBOUND:                -0.019
REMARK SMILES O=C([O-])c1cccnc1
REMARK SMILES IDX 4 1 5 2 9 3 6 4 8 5 7 6 2 7 1 8 3 9
REMARK H PARENT
REMARK Flexibility Score: inf
ROOT
ATOM      1  C   UNL     1     -39.868  37.393  47.978  1.00  0.00     0.016 A 
ATOM      2  C   UNL     1     -40.117  36.033  48.237  1.00  0.00     0.013 A 
ATOM      3  C   UNL     1     -40.437  38.350  48.836  1.00  0.00     0.120 A 
ATOM      4  C   UNL     1     -40.911  35.661  49.322  1.00  0.00     0.021 A 
ATOM      5  N   UNL     1     -41.207  37.959  49.887  1.00  0.00    -0.264 NA
ATOM      6  C   UNL     1     -41.452  36.647  50.145  1.00  0.00     0.111 A 
ENDROOT
BRANCH   1   7
ATOM      7  C   UNL     1     -39.031  37.810  46.834  1.00  0.00     0.073 C 
ATOM      8  O   UNL     1     -38.080  37.083  46.437  1.00  0.00    -0.545 OA
ATOM      9  O   UNL     1     -39.280  39.010  46.178  1.00  0.00    -0.545 OA
ENDBRANCH   1   7
TORSDOF 1
ENDMDL
MODEL 4
REMARK VINA RESULT:    -4.258      2.733      3.582
REMARK INTER + INTRA:          -4.526
REMARK INTER:                  -4.502
REMARK INTRA:                  -0.023
REMARK UNBOUND:                -0.019
REMARK SMILES O=C([O-])c1cccnc1
REMARK SMILES IDX 4 1 5 2 9 3 6 4 8 5 7 6 2 7 1 8 3 9
REMARK H PARENT
REMARK Flexibility Score: inf
ROOT
ATOM      1  C   UNL     1     -33.361  45.373  38.258  1.00  0.00     0.016 A 
ATOM      2  C   UNL     1     -32.846  44.344  39.065  1.00  0.00     0.013 A 
ATOM      3  C   UNL     1     -34.636  45.882  38.560  1.00  0.00     0.120 A 
ATOM      4  C   UNL     1     -33.593  43.852  40.137  1.00  0.00     0.021 A 
ATOM      5  N   UNL     1     -35.343  45.385  39.610  1.00  0.00    -0.264 NA
ATOM      6  C   UNL     1     -34.853  44.391  40.397  1.00  0.00     0.111 A 
ENDROOT
BRANCH   1   7
ATOM      7  C   UNL     1     -32.587  45.907  37.118  1.00  0.00     0.073 C 
ATOM      8  O   UNL     1     -31.346  45.700  37.033  1.00  0.00    -0.545 OA
ATOM      9  O   UNL     1     -33.216  46.647  36.123  1.00  0.00    -0.545 OA
ENDBRANCH   1   7
TORSDOF 1
ENDMDL
MODEL 5
REMARK VINA RESULT:    -4.232     12.293     13.526
REMARK INTER + INTRA:          -4.498
REMARK INTER:                  -4.482
REMARK INTRA:                  -0.016
REMARK UNBOUND:                -0.019
REMARK SMILES O=C([O-])c1cccnc1
REMARK SMILES IDX 4 1 5 2 9 3 6 4 8 5 7 6 2 7 1 8 3 9
REMARK H PARENT
REMARK Flexibility Score: inf
ROOT
ATOM      1  C   UNL     1     -40.263  37.913  48.306  1.00  0.00     0.016 A 
ATOM      2  C   UNL     1     -40.784  38.349  47.075  1.00  0.00     0.013 A 
ATOM      3  C   UNL     1     -38.885  38.066  48.539  1.00  0.00     0.120 A 
ATOM      4  C   UNL     1     -39.941  38.918  46.120  1.00  0.00     0.021 A 
ATOM      5  N   UNL     1     -38.086  38.625  47.591  1.00  0.00    -0.264 NA
ATOM      6  C   UNL     1     -38.581  39.050  46.398  1.00  0.00     0.111 A 
ENDROOT
BRANCH   1   7
ATOM      7  C   UNL     1     -41.138  37.306  49.331  1.00  0.00     0.073 C 
ATOM      8  O   UNL     1     -41.450  36.087  49.267  1.00  0.00    -0.545 OA
ATOM      9  O   UNL     1     -41.629  38.073  50.382  1.00  0.00    -0.545 OA
ENDBRANCH   1   7
TORSDOF 1
ENDMDL
MODEL 6
REMARK VINA RESULT:    -4.199      2.847      3.930
REMARK INTER + INTRA:          -4.463
REMARK INTER:                  -4.446
REMARK INTRA:                  -0.016
REMARK UNBOUND:                -0.019
REMARK SMILES O=C([O-])c1cccnc1
REMARK SMILES IDX 4 1 5 2 9 3 6 4 8 5 7 6 2 7 1 8 3 9
REMARK H PARENT
REMARK Flexibility Score: inf
ROOT
ATOM      1  C   UNL     1     -34.326  45.046  38.374  1.00  0.00     0.016 A 
ATOM      2  C   UNL     1     -34.796  45.660  39.548  1.00  0.00     0.013 A 
ATOM      3  C   UNL     1     -34.218  43.645  38.351  1.00  0.00     0.120 A 
ATOM      4  C   UNL     1     -35.143  44.883  40.654  1.00  0.00     0.021 A 
ATOM      5  N   UNL     1     -34.563  42.912  39.444  1.00  0.00    -0.264 NA
ATOM      6  C   UNL     1     -35.019  43.496  40.583  1.00  0.00     0.111 A 
ENDROOT
BRANCH   1   7
ATOM      7  C   UNL     1     -33.952  45.850  37.192  1.00  0.00     0.073 C 
ATOM      8  O   UNL     1     -34.840  46.317  36.428  1.00  0.00    -0.545 OA
ATOM      9  O   UNL     1     -32.615  46.102  36.904  1.00  0.00    -0.545 OA
ENDBRANCH   1   7
TORSDOF 1
ENDMDL
MODEL 7
REMARK VINA RESULT:    -4.075      3.038      4.573
REMARK INTER + INTRA:          -4.332
REMARK INTER:                  -4.312
REMARK INTRA:                  -0.020
REMARK UNBOUND:                -0.019
REMARK SMILES O=C([O-])c1cccnc1
REMARK SMILES IDX 4 1 5 2 9 3 6 4 8 5 7 6 2 7 1 8 3 9
REMARK H PARENT
REMARK Flexibility Score: inf
ROOT
ATOM      1  C   UNL     1     -34.372  43.504  40.149  1.00  0.00     0.016 A 
ATOM      2  C   UNL     1     -35.308  43.504  41.198  1.00  0.00     0.013 A 
ATOM      3  C   UNL     1     -33.247  42.667  40.259  1.00  0.00     0.120 A 
ATOM      4  C   UNL     1     -35.111  42.688  42.313  1.00  0.00     0.021 A 
ATOM      5  N   UNL     1     -33.080  41.882  41.357  1.00  0.00    -0.264 NA
ATOM      6  C   UNL     1     -33.980  41.875  42.375  1.00  0.00     0.111 A 
ENDROOT
BRANCH   1   7
ATOM      7  C   UNL     1     -34.560  44.361  38.960  1.00  0.00     0.073 C 
ATOM      8  O   UNL     1     -34.296  43.924  37.807  1.00  0.00    -0.545 OA
ATOM      9  O   UNL     1     -35.031  45.662  39.096  1.00  0.00    -0.545 OA
ENDBRANCH   1   7
TORSDOF 1
ENDMDL
MODEL 8
REMARK VINA RESULT:    -4.040      1.965      2.481
REMARK INTER + INTRA:          -4.295
REMARK INTER:                  -4.278
REMARK INTRA:                  -0.018
REMARK UNBOUND:                -0.019
REMARK SMILES O=C([O-])c1cccnc1
REMARK SMILES IDX 4 1 5 2 9 3 6 4 8 5 7 6 2 7 1 8 3 9
REMARK H PARENT
REMARK Flexibility Score: inf
ROOT
ATOM      1  C   UNL     1     -34.577  43.615  40.071  1.00  0.00     0.016 A 
ATOM      2  C   UNL     1     -34.940  44.953  40.306  1.00  0.00     0.013 A 
ATOM      3  C   UNL     1     -34.261  43.231  38.756  1.00  0.00     0.120 A 
ATOM      4  C   UNL     1     -34.981  45.864  39.249  1.00  0.00     0.021 A 
ATOM      5  N   UNL     1     -34.309  44.139  37.745  1.00  0.00    -0.264 NA
ATOM      6  C   UNL     1     -34.658  45.434  37.962  1.00  0.00     0.111 A 
ENDROOT
BRANCH   1   7
ATOM      7  C   UNL     1     -34.528  42.634  41.175  1.00  0.00     0.073 C 
ATOM      8  O   UNL     1     -33.455  42.033  41.451  1.00  0.00    -0.545 OA
ATOM      9  O   UNL     1     -35.666  42.360  41.925  1.00  0.00    -0.545 OA
ENDBRANCH   1   7
TORSDOF 1
ENDMDL
MODEL 9
REMARK VINA RESULT:    -4.030     10.919     12.639
REMARK INTER + INTRA:          -4.284
REMARK INTER:                  -4.261
REMARK INTRA:                  -0.023
REMARK UNBOUND:                -0.019
REMARK SMILES O=C([O-])c1cccnc1
REMARK SMILES IDX 4 1 5 2 9 3 6 4 8 5 7 6 2 7 1 8 3 9
REMARK H PARENT
REMARK Flexibility Score: inf
ROOT
ATOM      1  C   UNL     1     -39.349  38.688  46.714  1.00  0.00     0.016 A 
ATOM      2  C   UNL     1     -40.698  38.453  47.031  1.00  0.00     0.013 A 
ATOM      3  C   UNL     1     -38.381  38.464  47.709  1.00  0.00     0.120 A 
ATOM      4  C   UNL     1     -41.051  38.007  48.306  1.00  0.00     0.021 A 
ATOM      5  N   UNL     1     -38.752  38.030  48.943  1.00  0.00    -0.264 NA
ATOM      6  C   UNL     1     -40.054  37.799  49.259  1.00  0.00     0.111 A 
ENDROOT
BRANCH   1   7
ATOM      7  C   UNL     1     -38.953  39.161  45.371  1.00  0.00     0.073 C 
ATOM      8  O   UNL     1     -37.749  39.105  45.001  1.00  0.00    -0.545 OA
ATOM      9  O   UNL     1     -39.904  39.675  44.496  1.00  0.00    -0.545 OA
ENDBRANCH   1   7
TORSDOF 1
ENDMDL
