MODEL 1
REMARK VINA RESULT:    -4.713      0.000      0.000
REMARK INTER + INTRA:         -15.368
REMARK INTER:                 -12.428
REMARK INTRA:                  -2.940
REMARK UNBOUND:                -2.940
REMARK SMILES CCCCCCCCCCCCCCCCCCCCCCCCCCCCCC(=O)[O-]
REMARK SMILES IDX 16 1 17 2 18 3 19 4 20 5 21 6 22 7 23 8 24 9 25 10 26 11
REMARK SMILES IDX 27 12 28 13 29 14 30 15 31 16 32 17 15 18 14 19 13 20 12 21
REMARK SMILES IDX 11 22 10 23 9 24 8 25 7 26 6 27 5 28 4 29 3 30 2 31 1 32
REMARK H PARENT
REMARK Flexibility Score: inf
ROOT
ATOM      1  C   UNL     1     -22.814  -8.410  15.125  1.00  0.00     0.000 C 
ENDROOT
BRANCH   1   2
ATOM      2  C   UNL     1     -23.243  -9.732  15.788  1.00  0.00     0.000 C 
BRANCH   2   3
ATOM      3  C   UNL     1     -23.913  -9.522  17.155  1.00  0.00     0.000 C 
BRANCH   3   4
ATOM      4  C   UNL     1     -23.543  -8.172  17.796  1.00  0.00     0.000 C 
BRANCH   4   5
ATOM      5  C   UNL     1     -22.025  -8.005  17.975  1.00  0.00     0.000 C 
BRANCH   5   6
ATOM      6  C   UNL     1     -21.622  -6.545  18.230  1.00  0.00     0.000 C 
BRANCH   6   7
ATOM      7  C   UNL     1     -22.234  -5.610  17.176  1.00  0.00     0.000 C 
BRANCH   7   8
ATOM      8  C   UNL     1     -21.173  -4.863  16.349  1.00  0.00     0.000 C 
BRANCH   8   9
ATOM      9  C   UNL     1     -20.685  -5.597  15.083  1.00  0.00     0.000 C 
BRANCH   9  10
ATOM     10  C   UNL     1     -19.169  -5.471  14.823  1.00  0.00     0.000 C 
BRANCH  10  11
ATOM     11  C   UNL     1     -18.504  -6.828  14.520  1.00  0.00     0.000 C 
BRANCH  11  12
ATOM     12  C   UNL     1     -19.062  -7.970  15.388  1.00  0.00     0.000 C 
BRANCH  12  13
ATOM     13  C   UNL     1     -18.279  -8.231  16.692  1.00  0.00     0.006 C 
BRANCH  13  14
ATOM     14  C   UNL     1     -18.799  -9.417  17.524  1.00  0.00     0.053 C 
BRANCH  14  15
ATOM     15  C   UNL     1     -17.771  -9.917  18.493  1.00  0.00     0.041 C 
ATOM     16  O   UNL     1     -17.994 -10.950  19.180  1.00  0.00    -0.550 OA
ATOM     17  O   UNL     1     -16.583  -9.218  18.664  1.00  0.00    -0.550 OA
ENDBRANCH  14  15
ENDBRANCH  13  14
ENDBRANCH  12  13
ENDBRANCH  11  12
ENDBRANCH  10  11
ENDBRANCH   9  10
ENDBRANCH   8   9
ENDBRANCH   7   8
ENDBRANCH   6   7
ENDBRANCH   5   6
ENDBRANCH   4   5
ENDBRANCH   3   4
ENDBRANCH   2   3
ENDBRANCH   1   2
BRANCH   1  18
ATOM     18  C   UNL     1     -23.889  -7.839  14.186  1.00  0.00     0.000 C 
BRANCH  18  19
ATOM     19  C   UNL     1     -24.994  -7.081  14.941  1.00  0.00     0.000 C 
BRANCH  19  20
ATOM     20  C   UNL     1     -26.318  -7.018  14.157  1.00  0.00     0.000 C 
BRANCH  20  21
ATOM     21  C   UNL     1     -27.556  -6.614  14.985  1.00  0.00     0.000 C 
BRANCH  21  22
ATOM     22  C   UNL     1     -27.827  -5.102  15.076  1.00  0.00     0.000 C 
BRANCH  22  23
ATOM     23  C   UNL     1     -27.873  -4.587  16.524  1.00  0.00     0.000 C 
BRANCH  23  24
ATOM     24  C   UNL     1     -27.396  -5.634  17.549  1.00  0.00    -0.000 C 
BRANCH  24  25
ATOM     25  C   UNL     1     -26.855  -5.061  18.872  1.00  0.00    -0.000 C 
BRANCH  25  26
ATOM     26  C   UNL     1     -25.701  -5.894  19.454  1.00  0.00    -0.000 C 
BRANCH  26  27
ATOM     27  C   UNL     1     -25.438  -5.595  20.943  1.00  0.00    -0.000 C 
BRANCH  27  28
ATOM     28  C   UNL     1     -26.590  -4.892  21.691  1.00  0.00    -0.000 C 
BRANCH  28  29
ATOM     29  C   UNL     1     -26.167  -3.701  22.571  1.00  0.00    -0.000 C 
BRANCH  29  30
ATOM     30  C   UNL     1     -27.206  -3.363  23.654  1.00  0.00    -0.000 C 
BRANCH  30  31
ATOM     31  C   UNL     1     -26.646  -2.427  24.735  1.00  0.00    -0.003 C 
ATOM     32  C   UNL     1     -25.123  -2.503  24.852  1.00  0.00     0.004 C 
ENDBRANCH  30  31
ENDBRANCH  29  30
ENDBRANCH  28  29
ENDBRANCH  27  28
ENDBRANCH  26  27
ENDBRANCH  25  26
ENDBRANCH  24  25
ENDBRANCH  23  24
ENDBRANCH  22  23
ENDBRANCH  21  22
ENDBRANCH  20  21
ENDBRANCH  19  20
ENDBRANCH  18  19
ENDBRANCH   1  18
TORSDOF 28
ENDMDL
MODEL 2
REMARK VINA RESULT:    -4.667      1.711      5.232
REMARK INTER + INTRA:         -15.246
REMARK INTER:                 -11.155
REMARK INTRA:                  -4.091
REMARK UNBOUND:                -2.940
REMARK SMILES CCCCCCCCCCCCCCCCCCCCCCCCCCCCCC(=O)[O-]
REMARK SMILES IDX 16 1 17 2 18 3 19 4 20 5 21 6 22 7 23 8 24 9 25 10 26 11
REMARK SMILES IDX 27 12 28 13 29 14 30 15 31 16 32 17 15 18 14 19 13 20 12 21
REMARK SMILES IDX 11 22 10 23 9 24 8 25 7 26 6 27 5 28 4 29 3 30 2 31 1 32
REMARK H PARENT
REMARK Flexibility Score: inf
ROOT
ATOM      1  C   UNL     1     -25.108  -6.831  19.308  1.00  0.00     0.000 C 
ENDROOT
BRANCH   1   2
ATOM      2  C   UNL     1     -24.001  -6.221  18.430  1.00  0.00     0.000 C 
BRANCH   2   3
ATOM      3  C   UNL     1     -22.727  -7.079  18.396  1.00  0.00     0.000 C 
BRANCH   3   4
ATOM      4  C   UNL     1     -21.471  -6.263  18.037  1.00  0.00     0.000 C 
BRANCH   4   5
ATOM      5  C   UNL     1     -21.749  -5.205  16.956  1.00  0.00     0.000 C 
BRANCH   5   6
ATOM      6  C   UNL     1     -21.260  -5.644  15.568  1.00  0.00     0.000 C 
BRANCH   6   7
ATOM      7  C   UNL     1     -20.929  -4.428  14.689  1.00  0.00     0.000 C 
BRANCH   7   8
ATOM      8  C   UNL     1     -19.488  -4.452  14.151  1.00  0.00     0.000 C 
BRANCH   8   9
ATOM      9  C   UNL     1     -18.516  -5.382  14.907  1.00  0.00     0.000 C 
BRANCH   9  10
ATOM     10  C   UNL     1     -17.911  -6.506  14.039  1.00  0.00     0.000 C 
BRANCH  10  11
ATOM     11  C   UNL     1     -18.738  -7.805  14.090  1.00  0.00     0.000 C 
BRANCH  11  12
ATOM     12  C   UNL     1     -19.312  -8.090  15.489  1.00  0.00     0.000 C 
BRANCH  12  13
ATOM     13  C   UNL     1     -18.266  -8.509  16.543  1.00  0.00     0.006 C 
BRANCH  13  14
ATOM     14  C   UNL     1     -18.860  -9.077  17.844  1.00  0.00     0.053 C 
BRANCH  14  15
ATOM     15  C   UNL     1     -17.950 -10.079  18.487  1.00  0.00     0.041 C 
ATOM     16  O   UNL     1     -16.850  -9.714  18.982  1.00  0.00    -0.550 OA
ATOM     17  O   UNL     1     -18.302 -11.423  18.505  1.00  0.00    -0.550 OA
ENDBRANCH  14  15
ENDBRANCH  13  14
ENDBRANCH  12  13
ENDBRANCH  11  12
ENDBRANCH  10  11
ENDBRANCH   9  10
ENDBRANCH   8   9
ENDBRANCH   7   8
ENDBRANCH   6   7
ENDBRANCH   5   6
ENDBRANCH   4   5
ENDBRANCH   3   4
ENDBRANCH   2   3
ENDBRANCH   1   2
BRANCH   1  18
ATOM     18  C   UNL     1     -25.338  -6.043  20.608  1.00  0.00     0.000 C 
BRANCH  18  19
ATOM     19  C   UNL     1     -26.380  -4.923  20.447  1.00  0.00     0.000 C 
BRANCH  19  20
ATOM     20  C   UNL     1     -27.661  -5.397  19.733  1.00  0.00     0.000 C 
BRANCH  20  21
ATOM     21  C   UNL     1     -28.084  -4.557  18.511  1.00  0.00     0.000 C 
BRANCH  21  22
ATOM     22  C   UNL     1     -27.323  -4.856  17.207  1.00  0.00     0.000 C 
BRANCH  22  23
ATOM     23  C   UNL     1     -28.086  -5.811  16.273  1.00  0.00     0.000 C 
BRANCH  23  24
ATOM     24  C   UNL     1     -27.358  -7.152  16.060  1.00  0.00    -0.000 C 
BRANCH  24  25
ATOM     25  C   UNL     1     -26.291  -7.152  14.950  1.00  0.00    -0.000 C 
BRANCH  25  26
ATOM     26  C   UNL     1     -24.856  -7.147  15.503  1.00  0.00    -0.000 C 
BRANCH  26  27
ATOM     27  C   UNL     1     -23.805  -7.535  14.445  1.00  0.00    -0.000 C 
BRANCH  27  28
ATOM     28  C   UNL     1     -23.092  -8.883  14.682  1.00  0.00    -0.000 C 
BRANCH  28  29
ATOM     29  C   UNL     1     -22.610  -9.122  16.125  1.00  0.00    -0.000 C 
BRANCH  29  30
ATOM     30  C   UNL     1     -22.917 -10.543  16.626  1.00  0.00    -0.000 C 
BRANCH  30  31
ATOM     31  C   UNL     1     -24.426 -10.822  16.715  1.00  0.00    -0.003 C 
ATOM     32  C   UNL     1     -25.152  -9.855  17.651  1.00  0.00     0.004 C 
ENDBRANCH  30  31
ENDBRANCH  29  30
ENDBRANCH  28  29
ENDBRANCH  27  28
ENDBRANCH  26  27
ENDBRANCH  25  26
ENDBRANCH  24  25
ENDBRANCH  23  24
ENDBRANCH  22  23
ENDBRANCH  21  22
ENDBRANCH  20  21
ENDBRANCH  19  20
ENDBRANCH  18  19
ENDBRANCH   1  18
TORSDOF 28
ENDMDL
MODEL 3
REMARK VINA RESULT:    -4.476      3.371      8.805
REMARK INTER + INTRA:         -14.742
REMARK INTER:                 -10.720
REMARK INTRA:                  -4.022
REMARK UNBOUND:                -2.940
REMARK SMILES CCCCCCCCCCCCCCCCCCCCCCCCCCCCCC(=O)[O-]
REMARK SMILES IDX 16 1 17 2 18 3 19 4 20 5 21 6 22 7 23 8 24 9 25 10 26 11
REMARK SMILES IDX 27 12 28 13 29 14 30 15 31 16 32 17 15 18 14 19 13 20 12 21
REMARK SMILES IDX 11 22 10 23 9 24 8 25 7 26 6 27 5 28 4 29 3 30 2 31 1 32
REMARK H PARENT
REMARK Flexibility Score: inf
ROOT
ATOM      1  C   UNL     1     -22.545  -8.582  17.481  1.00  0.00     0.000 C 
ENDROOT
BRANCH   1   2
ATOM      2  C   UNL     1     -23.392  -9.205  16.357  1.00  0.00     0.000 C 
BRANCH   2   3
ATOM      3  C   UNL     1     -22.998  -8.695  14.962  1.00  0.00     0.000 C 
BRANCH   3   4
ATOM      4  C   UNL     1     -23.872  -7.518  14.492  1.00  0.00     0.000 C 
BRANCH   4   5
ATOM      5  C   UNL     1     -25.078  -7.277  15.417  1.00  0.00     0.000 C 
BRANCH   5   6
ATOM      6  C   UNL     1     -26.331  -6.840  14.644  1.00  0.00     0.000 C 
BRANCH   6   7
ATOM      7  C   UNL     1     -27.370  -6.213  15.585  1.00  0.00     0.000 C 
BRANCH   7   8
ATOM      8  C   UNL     1     -26.798  -5.880  16.974  1.00  0.00     0.000 C 
BRANCH   8   9
ATOM      9  C   UNL     1     -27.475  -4.701  17.703  1.00  0.00     0.000 C 
BRANCH   9  10
ATOM     10  C   UNL     1     -27.311  -4.727  19.237  1.00  0.00     0.000 C 
BRANCH  10  11
ATOM     11  C   UNL     1     -26.098  -5.561  19.691  1.00  0.00     0.000 C 
BRANCH  11  12
ATOM     12  C   UNL     1     -25.787  -5.390  21.188  1.00  0.00     0.000 C 
BRANCH  12  13
ATOM     13  C   UNL     1     -26.597  -4.281  21.894  1.00  0.00     0.006 C 
BRANCH  13  14
ATOM     14  C   UNL     1     -25.797  -3.460  22.920  1.00  0.00     0.053 C 
BRANCH  14  15
ATOM     15  C   UNL     1     -26.537  -3.307  24.215  1.00  0.00     0.041 C 
ATOM     16  O   UNL     1     -27.786  -3.475  24.257  1.00  0.00    -0.550 OA
ATOM     17  O   UNL     1     -25.851  -2.941  25.366  1.00  0.00    -0.550 OA
ENDBRANCH  14  15
ENDBRANCH  13  14
ENDBRANCH  12  13
ENDBRANCH  11  12
ENDBRANCH  10  11
ENDBRANCH   9  10
ENDBRANCH   8   9
ENDBRANCH   7   8
ENDBRANCH   6   7
ENDBRANCH   5   6
ENDBRANCH   4   5
ENDBRANCH   3   4
ENDBRANCH   2   3
ENDBRANCH   1   2
BRANCH   1  18
ATOM     18  C   UNL     1     -23.330  -7.562  18.322  1.00  0.00     0.000 C 
BRANCH  18  19
ATOM     19  C   UNL     1     -22.840  -6.119  18.113  1.00  0.00     0.000 C 
BRANCH  19  20
ATOM     20  C   UNL     1     -21.651  -6.027  17.137  1.00  0.00     0.000 C 
BRANCH  20  21
ATOM     21  C   UNL     1     -21.692  -4.836  16.157  1.00  0.00     0.000 C 
BRANCH  21  22
ATOM     22  C   UNL     1     -20.811  -4.980  14.904  1.00  0.00     0.000 C 
BRANCH  22  23
ATOM     23  C   UNL     1     -19.307  -4.891  15.215  1.00  0.00     0.000 C 
BRANCH  23  24
ATOM     24  C   UNL     1     -18.424  -5.392  14.057  1.00  0.00    -0.000 C 
BRANCH  24  25
ATOM     25  C   UNL     1     -17.820  -6.796  14.249  1.00  0.00    -0.000 C 
BRANCH  25  26
ATOM     26  C   UNL     1     -18.852  -7.920  14.058  1.00  0.00    -0.000 C 
BRANCH  26  27
ATOM     27  C   UNL     1     -19.342  -8.516  15.392  1.00  0.00    -0.000 C 
BRANCH  27  28
ATOM     28  C   UNL     1     -18.494  -8.156  16.630  1.00  0.00    -0.000 C 
BRANCH  28  29
ATOM     29  C   UNL     1     -18.865  -8.913  17.918  1.00  0.00    -0.000 C 
BRANCH  29  30
ATOM     30  C   UNL     1     -17.680  -9.695  18.510  1.00  0.00    -0.000 C 
BRANCH  30  31
ATOM     31  C   UNL     1     -17.981 -11.194  18.660  1.00  0.00    -0.003 C 
ATOM     32  C   UNL     1     -19.084 -11.673  17.716  1.00  0.00     0.004 C 
ENDBRANCH  30  31
ENDBRANCH  29  30
ENDBRANCH  28  29
ENDBRANCH  27  28
ENDBRANCH  26  27
ENDBRANCH  25  26
ENDBRANCH  24  25
ENDBRANCH  23  24
ENDBRANCH  22  23
ENDBRANCH  21  22
ENDBRANCH  20  21
ENDBRANCH  19  20
ENDBRANCH  18  19
ENDBRANCH   1  18
TORSDOF 28
ENDMDL
MODEL 4
REMARK VINA RESULT:    -4.178      3.189      8.327
REMARK INTER + INTRA:         -13.956
REMARK INTER:                 -10.400
REMARK INTRA:                  -3.556
REMARK UNBOUND:                -2.940
REMARK SMILES CCCCCCCCCCCCCCCCCCCCCCCCCCCCCC(=O)[O-]
REMARK SMILES IDX 16 1 17 2 18 3 19 4 20 5 21 6 22 7 23 8 24 9 25 10 26 11
REMARK SMILES IDX 27 12 28 13 29 14 30 15 31 16 32 17 15 18 14 19 13 20 12 21
REMARK SMILES IDX 11 22 10 23 9 24 8 25 7 26 6 27 5 28 4 29 3 30 2 31 1 32
REMARK H PARENT
REMARK Flexibility Score: inf
ROOT
ATOM      1  C   UNL     1     -22.485  -7.916  14.847  1.00  0.00     0.000 C 
ENDROOT
BRANCH   1   2
ATOM      2  C   UNL     1     -23.887  -7.878  14.214  1.00  0.00     0.000 C 
BRANCH   2   3
ATOM      3  C   UNL     1     -24.876  -7.011  15.008  1.00  0.00     0.000 C 
BRANCH   3   4
ATOM      4  C   UNL     1     -26.260  -6.924  14.339  1.00  0.00     0.000 C 
BRANCH   4   5
ATOM      5  C   UNL     1     -27.375  -6.579  15.341  1.00  0.00     0.000 C 
BRANCH   5   6
ATOM      6  C   UNL     1     -27.905  -5.149  15.158  1.00  0.00     0.000 C 
BRANCH   6   7
ATOM      7  C   UNL     1     -27.969  -4.407  16.502  1.00  0.00     0.000 C 
BRANCH   7   8
ATOM      8  C   UNL     1     -27.238  -5.152  17.633  1.00  0.00     0.000 C 
BRANCH   8   9
ATOM      9  C   UNL     1     -27.283  -4.465  19.013  1.00  0.00     0.000 C 
BRANCH   9  10
ATOM     10  C   UNL     1     -26.544  -5.235  20.128  1.00  0.00     0.000 C 
BRANCH  10  11
ATOM     11  C   UNL     1     -26.920  -4.744  21.539  1.00  0.00     0.000 C 
BRANCH  11  12
ATOM     12  C   UNL     1     -27.675  -3.403  21.520  1.00  0.00     0.000 C 
BRANCH  12  13
ATOM     13  C   UNL     1     -27.218  -2.389  22.590  1.00  0.00     0.006 C 
BRANCH  13  14
ATOM     14  C   UNL     1     -26.840  -3.014  23.944  1.00  0.00     0.053 C 
BRANCH  14  15
ATOM     15  C   UNL     1     -25.457  -2.628  24.374  1.00  0.00     0.041 C 
ATOM     16  O   UNL     1     -25.099  -2.780  25.573  1.00  0.00    -0.550 OA
ATOM     17  O   UNL     1     -24.578  -2.066  23.458  1.00  0.00    -0.550 OA
ENDBRANCH  14  15
ENDBRANCH  13  14
ENDBRANCH  12  13
ENDBRANCH  11  12
ENDBRANCH  10  11
ENDBRANCH   9  10
ENDBRANCH   8   9
ENDBRANCH   7   8
ENDBRANCH   6   7
ENDBRANCH   5   6
ENDBRANCH   4   5
ENDBRANCH   3   4
ENDBRANCH   2   3
ENDBRANCH   1   2
BRANCH   1  18
ATOM     18  C   UNL     1     -21.503  -6.941  14.179  1.00  0.00     0.000 C 
BRANCH  18  19
ATOM     19  C   UNL     1     -21.392  -5.603  14.929  1.00  0.00     0.000 C 
BRANCH  19  20
ATOM     20  C   UNL     1     -19.933  -5.166  15.160  1.00  0.00     0.000 C 
BRANCH  20  21
ATOM     21  C   UNL     1     -18.875  -5.946  14.352  1.00  0.00     0.000 C 
BRANCH  21  22
ATOM     22  C   UNL     1     -17.998  -6.911  15.168  1.00  0.00     0.000 C 
BRANCH  22  23
ATOM     23  C   UNL     1     -18.707  -8.237  15.492  1.00  0.00     0.000 C 
BRANCH  23  24
ATOM     24  C   UNL     1     -18.314  -8.809  16.867  1.00  0.00    -0.000 C 
BRANCH  24  25
ATOM     25  C   UNL     1     -19.469  -8.948  17.877  1.00  0.00    -0.000 C 
BRANCH  25  26
ATOM     26  C   UNL     1     -20.771  -8.293  17.387  1.00  0.00    -0.000 C 
BRANCH  26  27
ATOM     27  C   UNL     1     -21.452  -7.433  18.469  1.00  0.00    -0.000 C 
BRANCH  27  28
ATOM     28  C   UNL     1     -22.336  -6.283  17.943  1.00  0.00    -0.000 C 
BRANCH  28  29
ATOM     29  C   UNL     1     -23.833  -6.401  18.284  1.00  0.00    -0.000 C 
BRANCH  29  30
ATOM     30  C   UNL     1     -24.226  -7.812  18.756  1.00  0.00    -0.000 C 
BRANCH  30  31
ATOM     31  C   UNL     1     -25.256  -8.476  17.830  1.00  0.00    -0.003 C 
ATOM     32  C   UNL     1     -24.833  -9.876  17.383  1.00  0.00     0.004 C 
ENDBRANCH  30  31
ENDBRANCH  29  30
ENDBRANCH  28  29
ENDBRANCH  27  28
ENDBRANCH  26  27
ENDBRANCH  25  26
ENDBRANCH  24  25
ENDBRANCH  23  24
ENDBRANCH  22  23
ENDBRANCH  21  22
ENDBRANCH  20  21
ENDBRANCH  19  20
ENDBRANCH  18  19
ENDBRANCH   1  18
TORSDOF 28
ENDMDL
MODEL 5
REMARK VINA RESULT:    -4.059      3.406      8.542
REMARK INTER + INTRA:         -13.642
REMARK INTER:                 -10.101
REMARK INTRA:                  -3.541
REMARK UNBOUND:                -2.940
REMARK SMILES CCCCCCCCCCCCCCCCCCCCCCCCCCCCCC(=O)[O-]
REMARK SMILES IDX 16 1 17 2 18 3 19 4 20 5 21 6 22 7 23 8 24 9 25 10 26 11
REMARK SMILES IDX 27 12 28 13 29 14 30 15 31 16 32 17 15 18 14 19 13 20 12 21
REMARK SMILES IDX 11 22 10 23 9 24 8 25 7 26 6 27 5 28 4 29 3 30 2 31 1 32
REMARK H PARENT
REMARK Flexibility Score: inf
ROOT
ATOM      1  C   UNL     1     -23.795 -10.090  17.059  1.00  0.00     0.000 C 
ENDROOT
BRANCH   1   2
ATOM      2  C   UNL     1     -25.091  -9.297  17.306  1.00  0.00     0.000 C 
BRANCH   2   3
ATOM      3  C   UNL     1     -24.915  -8.178  18.345  1.00  0.00     0.000 C 
BRANCH   3   4
ATOM      4  C   UNL     1     -25.597  -6.864  17.922  1.00  0.00     0.000 C 
BRANCH   4   5
ATOM      5  C   UNL     1     -26.429  -7.022  16.638  1.00  0.00     0.000 C 
BRANCH   5   6
ATOM      6  C   UNL     1     -27.744  -6.230  16.690  1.00  0.00     0.000 C 
BRANCH   6   7
ATOM      7  C   UNL     1     -28.038  -5.740  18.116  1.00  0.00     0.000 C 
BRANCH   7   8
ATOM      8  C   UNL     1     -28.028  -4.206  18.237  1.00  0.00     0.000 C 
BRANCH   8   9
ATOM      9  C   UNL     1     -27.730  -3.656  19.647  1.00  0.00     0.000 C 
BRANCH   9  10
ATOM     10  C   UNL     1     -26.866  -4.588  20.521  1.00  0.00     0.000 C 
BRANCH  10  11
ATOM     11  C   UNL     1     -26.860  -4.175  22.005  1.00  0.00     0.000 C 
BRANCH  11  12
ATOM     12  C   UNL     1     -27.168  -2.680  22.206  1.00  0.00     0.000 C 
BRANCH  12  13
ATOM     13  C   UNL     1     -26.846  -2.139  23.616  1.00  0.00     0.006 C 
BRANCH  13  14
ATOM     14  C   UNL     1     -25.364  -2.243  24.018  1.00  0.00     0.053 C 
BRANCH  14  15
ATOM     15  C   UNL     1     -25.198  -2.713  25.431  1.00  0.00     0.041 C 
ATOM     16  O   UNL     1     -26.175  -3.206  26.057  1.00  0.00    -0.550 OA
ATOM     17  O   UNL     1     -23.972  -2.572  26.069  1.00  0.00    -0.550 OA
ENDBRANCH  14  15
ENDBRANCH  13  14
ENDBRANCH  12  13
ENDBRANCH  11  12
ENDBRANCH  10  11
ENDBRANCH   9  10
ENDBRANCH   8   9
ENDBRANCH   7   8
ENDBRANCH   6   7
ENDBRANCH   5   6
ENDBRANCH   4   5
ENDBRANCH   3   4
ENDBRANCH   2   3
ENDBRANCH   1   2
BRANCH   1  18
ATOM     18  C   UNL     1     -23.155  -9.776  15.698  1.00  0.00     0.000 C 
BRANCH  18  19
ATOM     19  C   UNL     1     -23.578  -8.403  15.146  1.00  0.00     0.000 C 
BRANCH  19  20
ATOM     20  C   UNL     1     -22.462  -7.715  14.337  1.00  0.00     0.000 C 
BRANCH  20  21
ATOM     21  C   UNL     1     -21.110  -8.458  14.311  1.00  0.00     0.000 C 
BRANCH  21  22
ATOM     22  C   UNL     1     -19.951  -7.699  13.643  1.00  0.00     0.000 C 
BRANCH  22  23
ATOM     23  C   UNL     1     -18.596  -7.955  14.323  1.00  0.00     0.000 C 
BRANCH  23  24
ATOM     24  C   UNL     1     -18.590  -7.569  15.814  1.00  0.00    -0.000 C 
BRANCH  24  25
ATOM     25  C   UNL     1     -18.365  -8.735  16.795  1.00  0.00    -0.000 C 
BRANCH  25  26
ATOM     26  C   UNL     1     -19.476  -8.848  17.852  1.00  0.00    -0.000 C 
BRANCH  26  27
ATOM     27  C   UNL     1     -20.822  -8.273  17.369  1.00  0.00    -0.000 C 
BRANCH  27  28
ATOM     28  C   UNL     1     -21.443  -7.188  18.274  1.00  0.00    -0.000 C 
BRANCH  28  29
ATOM     29  C   UNL     1     -22.055  -5.988  17.529  1.00  0.00    -0.000 C 
BRANCH  29  30
ATOM     30  C   UNL     1     -20.995  -5.116  16.834  1.00  0.00    -0.000 C 
BRANCH  30  31
ATOM     31  C   UNL     1     -21.355  -4.805  15.373  1.00  0.00    -0.003 C 
ATOM     32  C   UNL     1     -20.134  -4.446  14.527  1.00  0.00     0.004 C 
ENDBRANCH  30  31
ENDBRANCH  29  30
ENDBRANCH  28  29
ENDBRANCH  27  28
ENDBRANCH  26  27
ENDBRANCH  25  26
ENDBRANCH  24  25
ENDBRANCH  23  24
ENDBRANCH  22  23
ENDBRANCH  21  22
ENDBRANCH  20  21
ENDBRANCH  19  20
ENDBRANCH  18  19
ENDBRANCH   1  18
TORSDOF 28
ENDMDL
MODEL 6
REMARK VINA RESULT:    -3.970      1.094      2.077
REMARK INTER + INTRA:         -13.409
REMARK INTER:                 -10.531
REMARK INTRA:                  -2.878
REMARK UNBOUND:                -2.940
REMARK SMILES CCCCCCCCCCCCCCCCCCCCCCCCCCCCCC(=O)[O-]
REMARK SMILES IDX 16 1 17 2 18 3 19 4 20 5 21 6 22 7 23 8 24 9 25 10 26 11
REMARK SMILES IDX 27 12 28 13 29 14 30 15 31 16 32 17 15 18 14 19 13 20 12 21
REMARK SMILES IDX 11 22 10 23 9 24 8 25 7 26 6 27 5 28 4 29 3 30 2 31 1 32
REMARK H PARENT
REMARK Flexibility Score: inf
ROOT
ATOM      1  C   UNL     1     -25.729  -7.900  17.703  1.00  0.00     0.000 C 
ENDROOT
BRANCH   1   2
ATOM      2  C   UNL     1     -24.338  -8.460  18.050  1.00  0.00     0.000 C 
BRANCH   2   3
ATOM      3  C   UNL     1     -23.908  -9.605  17.120  1.00  0.00     0.000 C 
BRANCH   3   4
ATOM      4  C   UNL     1     -22.766  -9.200  16.169  1.00  0.00     0.000 C 
BRANCH   4   5
ATOM      5  C   UNL     1     -23.262  -8.348  14.988  1.00  0.00     0.000 C 
BRANCH   5   6
ATOM      6  C   UNL     1     -22.715  -6.914  15.030  1.00  0.00     0.000 C 
BRANCH   6   7
ATOM      7  C   UNL     1     -22.299  -6.522  16.456  1.00  0.00     0.000 C 
BRANCH   7   8
ATOM      8  C   UNL     1     -21.284  -5.366  16.488  1.00  0.00     0.000 C 
BRANCH   8   9
ATOM      9  C   UNL     1     -20.609  -5.041  15.140  1.00  0.00     0.000 C 
BRANCH   9  10
ATOM     10  C   UNL     1     -19.195  -5.638  14.979  1.00  0.00     0.000 C 
BRANCH  10  11
ATOM     11  C   UNL     1     -19.221  -7.124  14.573  1.00  0.00     0.000 C 
BRANCH  11  12
ATOM     12  C   UNL     1     -18.345  -8.003  15.483  1.00  0.00     0.000 C 
BRANCH  12  13
ATOM     13  C   UNL     1     -19.125  -9.025  16.337  1.00  0.00     0.006 C 
BRANCH  13  14
ATOM     14  C   UNL     1     -18.962  -8.846  17.857  1.00  0.00     0.053 C 
BRANCH  14  15
ATOM     15  C   UNL     1     -17.929  -9.772  18.424  1.00  0.00     0.041 C 
ATOM     16  O   UNL     1     -16.796  -9.332  18.757  1.00  0.00    -0.550 OA
ATOM     17  O   UNL     1     -18.206 -11.127  18.549  1.00  0.00    -0.550 OA
ENDBRANCH  14  15
ENDBRANCH  13  14
ENDBRANCH  12  13
ENDBRANCH  11  12
ENDBRANCH  10  11
ENDBRANCH   9  10
ENDBRANCH   8   9
ENDBRANCH   7   8
ENDBRANCH   6   7
ENDBRANCH   5   6
ENDBRANCH   4   5
ENDBRANCH   3   4
ENDBRANCH   2   3
ENDBRANCH   1   2
BRANCH   1  18
ATOM     18  C   UNL     1     -26.494  -8.784  16.705  1.00  0.00     0.000 C 
BRANCH  18  19
ATOM     19  C   UNL     1     -27.736  -8.086  16.125  1.00  0.00     0.000 C 
BRANCH  19  20
ATOM     20  C   UNL     1     -27.381  -6.905  15.201  1.00  0.00     0.000 C 
BRANCH  20  21
ATOM     21  C   UNL     1     -27.139  -5.559  15.914  1.00  0.00     0.000 C 
BRANCH  21  22
ATOM     22  C   UNL     1     -28.112  -5.234  17.061  1.00  0.00     0.000 C 
BRANCH  22  23
ATOM     23  C   UNL     1     -27.962  -3.795  17.584  1.00  0.00     0.000 C 
BRANCH  23  24
ATOM     24  C   UNL     1     -27.746  -3.729  19.108  1.00  0.00    -0.000 C 
BRANCH  24  25
ATOM     25  C   UNL     1     -26.882  -4.859  19.700  1.00  0.00    -0.000 C 
BRANCH  25  26
ATOM     26  C   UNL     1     -27.078  -5.026  21.216  1.00  0.00    -0.000 C 
BRANCH  26  27
ATOM     27  C   UNL     1     -27.008  -3.690  21.980  1.00  0.00    -0.000 C 
BRANCH  27  28
ATOM     28  C   UNL     1     -27.779  -3.650  23.316  1.00  0.00    -0.000 C 
BRANCH  28  29
ATOM     29  C   UNL     1     -27.531  -2.396  24.176  1.00  0.00    -0.000 C 
BRANCH  29  30
ATOM     30  C   UNL     1     -27.044  -2.735  25.595  1.00  0.00    -0.000 C 
BRANCH  30  31
ATOM     31  C   UNL     1     -25.511  -2.746  25.703  1.00  0.00    -0.003 C 
ATOM     32  C   UNL     1     -24.833  -1.960  24.581  1.00  0.00     0.004 C 
ENDBRANCH  30  31
ENDBRANCH  29  30
ENDBRANCH  28  29
ENDBRANCH  27  28
ENDBRANCH  26  27
ENDBRANCH  25  26
ENDBRANCH  24  25
ENDBRANCH  23  24
ENDBRANCH  22  23
ENDBRANCH  21  22
ENDBRANCH  20  21
ENDBRANCH  19  20
ENDBRANCH  18  19
ENDBRANCH   1  18
TORSDOF 28
ENDMDL
MODEL 7
REMARK VINA RESULT:    -3.945      1.937      6.996
REMARK INTER + INTRA:         -13.343
REMARK INTER:                  -8.943
REMARK INTRA:                  -4.400
REMARK UNBOUND:                -2.940
REMARK SMILES CCCCCCCCCCCCCCCCCCCCCCCCCCCCCC(=O)[O-]
REMARK SMILES IDX 16 1 17 2 18 3 19 4 20 5 21 6 22 7 23 8 24 9 25 10 26 11
REMARK SMILES IDX 27 12 28 13 29 14 30 15 31 16 32 17 15 18 14 19 13 20 12 21
REMARK SMILES IDX 11 22 10 23 9 24 8 25 7 26 6 27 5 28 4 29 3 30 2 31 1 32
REMARK H PARENT
REMARK Flexibility Score: inf
ROOT
ATOM      1  C   UNL     1     -27.313  -5.848  15.942  1.00  0.00     0.000 C 
ENDROOT
BRANCH   1   2
ATOM      2  C   UNL     1     -27.972  -5.607  17.313  1.00  0.00     0.000 C 
BRANCH   2   3
ATOM      3  C   UNL     1     -27.663  -4.216  17.886  1.00  0.00     0.000 C 
BRANCH   3   4
ATOM      4  C   UNL     1     -27.498  -4.229  19.417  1.00  0.00     0.000 C 
BRANCH   4   5
ATOM      5  C   UNL     1     -27.115  -5.618  19.954  1.00  0.00     0.000 C 
BRANCH   5   6
ATOM      6  C   UNL     1     -25.676  -5.662  20.491  1.00  0.00     0.000 C 
BRANCH   6   7
ATOM      7  C   UNL     1     -24.761  -6.467  19.556  1.00  0.00     0.000 C 
BRANCH   7   8
ATOM      8  C   UNL     1     -24.416  -5.713  18.260  1.00  0.00     0.000 C 
BRANCH   8   9
ATOM      9  C   UNL     1     -22.924  -5.717  17.870  1.00  0.00     0.000 C 
BRANCH   9  10
ATOM     10  C   UNL     1     -22.080  -6.782  18.603  1.00  0.00     0.000 C 
BRANCH  10  11
ATOM     11  C   UNL     1     -21.007  -7.417  17.697  1.00  0.00     0.000 C 
BRANCH  11  12
ATOM     12  C   UNL     1     -20.483  -8.755  18.247  1.00  0.00     0.000 C 
BRANCH  12  13
ATOM     13  C   UNL     1     -19.521  -9.508  17.303  1.00  0.00     0.006 C 
BRANCH  13  14
ATOM     14  C   UNL     1     -18.045  -9.092  17.429  1.00  0.00     0.053 C 
BRANCH  14  15
ATOM     15  C   UNL     1     -17.353  -9.810  18.548  1.00  0.00     0.041 C 
ATOM     16  O   UNL     1     -17.649 -11.006  18.816  1.00  0.00    -0.550 OA
ATOM     17  O   UNL     1     -16.408  -9.145  19.318  1.00  0.00    -0.550 OA
ENDBRANCH  14  15
ENDBRANCH  13  14
ENDBRANCH  12  13
ENDBRANCH  11  12
ENDBRANCH  10  11
ENDBRANCH   9  10
ENDBRANCH   8   9
ENDBRANCH   7   8
ENDBRANCH   6   7
ENDBRANCH   5   6
ENDBRANCH   4   5
ENDBRANCH   3   4
ENDBRANCH   2   3
ENDBRANCH   1   2
BRANCH   1  18
ATOM     18  C   UNL     1     -26.453  -7.121  15.911  1.00  0.00     0.000 C 
BRANCH  18  19
ATOM     19  C   UNL     1     -26.791  -8.093  17.054  1.00  0.00     0.000 C 
BRANCH  19  20
ATOM     20  C   UNL     1     -25.859  -9.320  17.091  1.00  0.00     0.000 C 
BRANCH  20  21
ATOM     21  C   UNL     1     -24.350  -9.001  17.137  1.00  0.00     0.000 C 
BRANCH  21  22
ATOM     22  C   UNL     1     -23.420 -10.137  16.676  1.00  0.00     0.000 C 
BRANCH  22  23
ATOM     23  C   UNL     1     -22.885  -9.931  15.249  1.00  0.00     0.000 C 
BRANCH  23  24
ATOM     24  C   UNL     1     -22.970  -8.466  14.781  1.00  0.00    -0.000 C 
BRANCH  24  25
ATOM     25  C   UNL     1     -21.654  -7.866  14.252  1.00  0.00    -0.000 C 
BRANCH  25  26
ATOM     26  C   UNL     1     -21.451  -6.403  14.681  1.00  0.00    -0.000 C 
BRANCH  26  27
ATOM     27  C   UNL     1     -19.976  -6.063  14.969  1.00  0.00    -0.000 C 
BRANCH  27  28
ATOM     28  C   UNL     1     -18.956  -7.155  14.584  1.00  0.00    -0.000 C 
BRANCH  28  29
ATOM     29  C   UNL     1     -17.670  -6.640  13.912  1.00  0.00    -0.000 C 
BRANCH  29  30
ATOM     30  C   UNL     1     -17.288  -5.221  14.368  1.00  0.00    -0.000 C 
BRANCH  30  31
ATOM     31  C   UNL     1     -16.411  -4.489  13.340  1.00  0.00    -0.003 C 
ATOM     32  C   UNL     1     -17.165  -3.385  12.599  1.00  0.00     0.004 C 
ENDBRANCH  30  31
ENDBRANCH  29  30
ENDBRANCH  28  29
ENDBRANCH  27  28
ENDBRANCH  26  27
ENDBRANCH  25  26
ENDBRANCH  24  25
ENDBRANCH  23  24
ENDBRANCH  22  23
ENDBRANCH  21  22
ENDBRANCH  20  21
ENDBRANCH  19  20
ENDBRANCH  18  19
ENDBRANCH   1  18
TORSDOF 28
ENDMDL
MODEL 8
REMARK VINA RESULT:    -3.758      2.632      4.579
REMARK INTER + INTRA:         -12.850
REMARK INTER:                  -9.313
REMARK INTRA:                  -3.537
REMARK UNBOUND:                -2.940
REMARK SMILES CCCCCCCCCCCCCCCCCCCCCCCCCCCCCC(=O)[O-]
REMARK SMILES IDX 16 1 17 2 18 3 19 4 20 5 21 6 22 7 23 8 24 9 25 10 26 11
REMARK SMILES IDX 27 12 28 13 29 14 30 15 31 16 32 17 15 18 14 19 13 20 12 21
REMARK SMILES IDX 11 22 10 23 9 24 8 25 7 26 6 27 5 28 4 29 3 30 2 31 1 32
REMARK H PARENT
REMARK Flexibility Score: inf
ROOT
ATOM      1  C   UNL     1     -21.410  -5.164  15.285  1.00  0.00     0.000 C 
ENDROOT
BRANCH   1   2
ATOM      2  C   UNL     1     -21.557  -6.656  14.937  1.00  0.00     0.000 C 
BRANCH   2   3
ATOM      3  C   UNL     1     -22.992  -7.036  14.541  1.00  0.00     0.000 C 
BRANCH   3   4
ATOM      4  C   UNL     1     -23.269  -8.543  14.688  1.00  0.00     0.000 C 
BRANCH   4   5
ATOM      5  C   UNL     1     -23.227  -9.007  16.153  1.00  0.00     0.000 C 
BRANCH   5   6
ATOM      6  C   UNL     1     -22.735 -10.455  16.296  1.00  0.00     0.000 C 
BRANCH   6   7
ATOM      7  C   UNL     1     -21.427 -10.518  17.100  1.00  0.00     0.000 C 
BRANCH   7   8
ATOM      8  C   UNL     1     -20.654  -9.187  17.092  1.00  0.00     0.000 C 
BRANCH   8   9
ATOM      9  C   UNL     1     -19.204  -9.262  17.612  1.00  0.00     0.000 C 
BRANCH   9  10
ATOM     10  C   UNL     1     -18.157  -8.648  16.659  1.00  0.00     0.000 C 
BRANCH  10  11
ATOM     11  C   UNL     1     -18.794  -7.776  15.559  1.00  0.00     0.000 C 
BRANCH  11  12
ATOM     12  C   UNL     1     -17.751  -7.171  14.603  1.00  0.00     0.000 C 
BRANCH  12  13
ATOM     13  C   UNL     1     -17.990  -5.689  14.241  1.00  0.00     0.006 C 
BRANCH  13  14
ATOM     14  C   UNL     1     -16.869  -5.047  13.404  1.00  0.00     0.053 C 
BRANCH  14  15
ATOM     15  C   UNL     1     -17.237  -3.671  12.936  1.00  0.00     0.041 C 
ATOM     16  O   UNL     1     -18.444  -3.312  12.905  1.00  0.00    -0.550 OA
ATOM     17  O   UNL     1     -16.247  -2.801  12.499  1.00  0.00    -0.550 OA
ENDBRANCH  14  15
ENDBRANCH  13  14
ENDBRANCH  12  13
ENDBRANCH  11  12
ENDBRANCH  10  11
ENDBRANCH   9  10
ENDBRANCH   8   9
ENDBRANCH   7   8
ENDBRANCH   6   7
ENDBRANCH   5   6
ENDBRANCH   4   5
ENDBRANCH   3   4
ENDBRANCH   2   3
ENDBRANCH   1   2
BRANCH   1  18
ATOM     18  C   UNL     1     -21.649  -4.874  16.775  1.00  0.00     0.000 C 
BRANCH  18  19
ATOM     19  C   UNL     1     -21.462  -6.118  17.659  1.00  0.00     0.000 C 
BRANCH  19  20
ATOM     20  C   UNL     1     -22.677  -6.395  18.566  1.00  0.00     0.000 C 
BRANCH  20  21
ATOM     21  C   UNL     1     -24.054  -6.127  17.925  1.00  0.00     0.000 C 
BRANCH  21  22
ATOM     22  C   UNL     1     -25.227  -6.926  18.519  1.00  0.00     0.000 C 
BRANCH  22  23
ATOM     23  C   UNL     1     -25.882  -7.875  17.502  1.00  0.00     0.000 C 
BRANCH  23  24
ATOM     24  C   UNL     1     -26.646  -7.131  16.391  1.00  0.00    -0.000 C 
BRANCH  24  25
ATOM     25  C   UNL     1     -27.828  -6.267  16.869  1.00  0.00    -0.000 C 
BRANCH  25  26
ATOM     26  C   UNL     1     -27.674  -4.784  16.494  1.00  0.00    -0.000 C 
BRANCH  26  27
ATOM     27  C   UNL     1     -27.774  -3.845  17.712  1.00  0.00    -0.000 C 
BRANCH  27  28
ATOM     28  C   UNL     1     -27.906  -4.546  19.080  1.00  0.00    -0.000 C 
BRANCH  28  29
ATOM     29  C   UNL     1     -27.211  -3.828  20.252  1.00  0.00    -0.000 C 
BRANCH  29  30
ATOM     30  C   UNL     1     -26.791  -4.792  21.375  1.00  0.00    -0.000 C 
BRANCH  30  31
ATOM     31  C   UNL     1     -26.892  -4.151  22.768  1.00  0.00    -0.003 C 
ATOM     32  C   UNL     1     -25.742  -3.188  23.061  1.00  0.00     0.004 C 
ENDBRANCH  30  31
ENDBRANCH  29  30
ENDBRANCH  28  29
ENDBRANCH  27  28
ENDBRANCH  26  27
ENDBRANCH  25  26
ENDBRANCH  24  25
ENDBRANCH  23  24
ENDBRANCH  22  23
ENDBRANCH  21  22
ENDBRANCH  20  21
ENDBRANCH  19  20
ENDBRANCH  18  19
ENDBRANCH   1  18
TORSDOF 28
ENDMDL
MODEL 9
REMARK VINA RESULT:    -3.722      2.247      7.737
REMARK INTER + INTRA:         -12.755
REMARK INTER:                  -9.404
REMARK INTRA:                  -3.350
REMARK UNBOUND:                -2.940
REMARK SMILES CCCCCCCCCCCCCCCCCCCCCCCCCCCCCC(=O)[O-]
REMARK SMILES IDX 16 1 17 2 18 3 19 4 20 5 21 6 22 7 23 8 24 9 25 10 26 11
REMARK SMILES IDX 27 12 28 13 29 14 30 15 31 16 32 17 15 18 14 19 13 20 12 21
REMARK SMILES IDX 11 22 10 23 9 24 8 25 7 26 6 27 5 28 4 29 3 30 2 31 1 32
REMARK H PARENT
REMARK Flexibility Score: inf
ROOT
ATOM      1  C   UNL     1     -26.636  -6.930  14.437  1.00  0.00     0.000 C 
ENDROOT
BRANCH   1   2
ATOM      2  C   UNL     1     -27.701  -6.422  15.426  1.00  0.00     0.000 C 
BRANCH   2   3
ATOM      3  C   UNL     1     -28.012  -4.928  15.250  1.00  0.00     0.000 C 
BRANCH   3   4
ATOM      4  C   UNL     1     -27.927  -4.145  16.573  1.00  0.00     0.000 C 
BRANCH   4   5
ATOM      5  C   UNL     1     -28.076  -5.055  17.804  1.00  0.00     0.000 C 
BRANCH   5   6
ATOM      6  C   UNL     1     -27.909  -4.288  19.124  1.00  0.00     0.000 C 
BRANCH   6   7
ATOM      7  C   UNL     1     -28.124  -5.213  20.332  1.00  0.00     0.000 C 
BRANCH   7   8
ATOM      8  C   UNL     1     -27.016  -5.083  21.391  1.00  0.00     0.000 C 
BRANCH   8   9
ATOM      9  C   UNL     1     -25.574  -5.214  20.859  1.00  0.00     0.000 C 
BRANCH   9  10
ATOM     10  C   UNL     1     -25.170  -6.652  20.473  1.00  0.00     0.000 C 
BRANCH  10  11
ATOM     11  C   UNL     1     -24.626  -6.751  19.035  1.00  0.00     0.000 C 
BRANCH  11  12
ATOM     12  C   UNL     1     -25.665  -7.304  18.043  1.00  0.00     0.000 C 
BRANCH  12  13
ATOM     13  C   UNL     1     -25.442  -8.775  17.629  1.00  0.00     0.006 C 
BRANCH  13  14
ATOM     14  C   UNL     1     -23.975  -9.237  17.672  1.00  0.00     0.053 C 
BRANCH  14  15
ATOM     15  C   UNL     1     -23.741 -10.442  16.812  1.00  0.00     0.041 C 
ATOM     16  O   UNL     1     -22.775 -10.467  16.002  1.00  0.00    -0.550 OA
ATOM     17  O   UNL     1     -24.612 -11.521  16.880  1.00  0.00    -0.550 OA
ENDBRANCH  14  15
ENDBRANCH  13  14
ENDBRANCH  12  13
ENDBRANCH  11  12
ENDBRANCH  10  11
ENDBRANCH   9  10
ENDBRANCH   8   9
ENDBRANCH   7   8
ENDBRANCH   6   7
ENDBRANCH   5   6
ENDBRANCH   4   5
ENDBRANCH   3   4
ENDBRANCH   2   3
ENDBRANCH   1   2
BRANCH   1  18
ATOM     18  C   UNL     1     -25.201  -6.670  14.922  1.00  0.00     0.000 C 
BRANCH  18  19
ATOM     19  C   UNL     1     -24.210  -7.744  14.444  1.00  0.00     0.000 C 
BRANCH  19  20
ATOM     20  C   UNL     1     -22.741  -7.290  14.547  1.00  0.00     0.000 C 
BRANCH  20  21
ATOM     21  C   UNL     1     -22.270  -6.894  15.963  1.00  0.00     0.000 C 
BRANCH  21  22
ATOM     22  C   UNL     1     -21.741  -5.457  16.105  1.00  0.00     0.000 C 
BRANCH  22  23
ATOM     23  C   UNL     1     -20.785  -5.054  14.969  1.00  0.00     0.000 C 
BRANCH  23  24
ATOM     24  C   UNL     1     -19.301  -5.158  15.368  1.00  0.00    -0.000 C 
BRANCH  24  25
ATOM     25  C   UNL     1     -18.320  -5.376  14.201  1.00  0.00    -0.000 C 
BRANCH  25  26
ATOM     26  C   UNL     1     -17.948  -6.855  14.003  1.00  0.00    -0.000 C 
BRANCH  26  27
ATOM     27  C   UNL     1     -19.015  -7.820  14.557  1.00  0.00    -0.000 C 
BRANCH  27  28
ATOM     28  C   UNL     1     -18.682  -8.464  15.919  1.00  0.00    -0.000 C 
BRANCH  28  29
ATOM     29  C   UNL     1     -19.899  -8.772  16.811  1.00  0.00    -0.000 C 
BRANCH  29  30
ATOM     30  C   UNL     1     -19.507  -9.074  18.267  1.00  0.00    -0.000 C 
BRANCH  30  31
ATOM     31  C   UNL     1     -18.012  -9.393  18.420  1.00  0.00    -0.003 C 
ATOM     32  C   UNL     1     -17.748 -10.870  18.712  1.00  0.00     0.004 C 
ENDBRANCH  30  31
ENDBRANCH  29  30
ENDBRANCH  28  29
ENDBRANCH  27  28
ENDBRANCH  26  27
ENDBRANCH  25  26
ENDBRANCH  24  25
ENDBRANCH  23  24
ENDBRANCH  22  23
ENDBRANCH  21  22
ENDBRANCH  20  21
ENDBRANCH  19  20
ENDBRANCH  18  19
ENDBRANCH   1  18
TORSDOF 28
ENDMDL
