MODEL 1
REMARK VINA RESULT:    -4.447      0.000      0.000
REMARK INTER + INTRA:          -5.182
REMARK INTER:                  -5.097
REMARK INTRA:                  -0.085
REMARK UNBOUND:                -0.085
REMARK SMILES COc1cc(C(=O)[O-])ccc1O
REMARK SMILES IDX 5 1 9 2 4 3 10 4 3 5 11 6 6 7 7 8 8 9 2 10 1 11 12 12
REMARK H PARENT 12 13
REMARK Flexibility Score: inf
ROOT
ATOM      1  C   UNL     1       0.584  10.934 138.215  1.00  0.00     0.001 A 
ATOM      2  C   UNL     1       1.817  10.271 138.111  1.00  0.00     0.014 A 
ATOM      3  C   UNL     1      -0.122  11.253 137.040  1.00  0.00     0.060 A 
ATOM      4  C   UNL     1       2.336   9.933 136.859  1.00  0.00     0.051 A 
ATOM      5  C   UNL     1       0.398  10.914 135.774  1.00  0.00     0.161 A 
ATOM      6  C   UNL     1       1.630  10.252 135.693  1.00  0.00     0.157 A 
ENDROOT
BRANCH   1   7
ATOM      7  C   UNL     1       0.039  11.290 139.544  1.00  0.00     0.072 C 
ATOM      8  O   UNL     1       0.679  11.019 140.594  1.00  0.00    -0.545 OA
ATOM      9  O   UNL     1      -1.191  11.931 139.652  1.00  0.00    -0.545 OA
ENDBRANCH   1   7
BRANCH   5  10
ATOM     10  O   UNL     1      -0.278  11.216 134.581  1.00  0.00    -0.493 OA
ATOM     11  C   UNL     1      -1.152  12.327 134.408  1.00  0.00     0.278 C 
ENDBRANCH   5  10
BRANCH   6  12
ATOM     12  O   UNL     1       2.149   9.914 134.444  1.00  0.00    -0.504 OA
ATOM     13  H   UNL     1       3.011  10.322 134.099  1.00  0.00     0.293 HD
ENDBRANCH   6  12
TORSDOF 3
ENDMDL
MODEL 2
REMARK VINA RESULT:    -4.386      1.338      4.179
REMARK INTER + INTRA:          -5.112
REMARK INTER:                  -5.012
REMARK INTRA:                  -0.100
REMARK UNBOUND:                -0.085
REMARK SMILES COc1cc(C(=O)[O-])ccc1O
REMARK SMILES IDX 5 1 9 2 4 3 10 4 3 5 11 6 6 7 7 8 8 9 2 10 1 11 12 12
REMARK H PARENT 12 13
REMARK Flexibility Score: inf
ROOT
ATOM      1  C   UNL     1       0.214  10.894 136.354  1.00  0.00     0.001 A 
ATOM      2  C   UNL     1       1.438  10.349 135.935  1.00  0.00     0.014 A 
ATOM      3  C   UNL     1      -0.011  11.096 137.729  1.00  0.00     0.060 A 
ATOM      4  C   UNL     1       2.419  10.011 136.870  1.00  0.00     0.051 A 
ATOM      5  C   UNL     1       0.978  10.757 138.676  1.00  0.00     0.161 A 
ATOM      6  C   UNL     1       2.193  10.214 138.236  1.00  0.00     0.157 A 
ENDROOT
BRANCH   1   7
ATOM      7  C   UNL     1      -0.823  11.251 135.360  1.00  0.00     0.072 C 
ATOM      8  O   UNL     1      -2.045  11.193 135.659  1.00  0.00    -0.545 OA
ATOM      9  O   UNL     1      -0.462  11.654 134.079  1.00  0.00    -0.545 OA
ENDBRANCH   1   7
BRANCH   5  10
ATOM     10  O   UNL     1       0.790  10.943 140.055  1.00  0.00    -0.493 OA
ATOM     11  C   UNL     1       0.067  10.052 140.898  1.00  0.00     0.278 C 
ENDBRANCH   5  10
BRANCH   6  12
ATOM     12  O   UNL     1       3.173   9.876 139.168  1.00  0.00    -0.504 OA
ATOM     13  H   UNL     1       3.880   9.179 138.965  1.00  0.00     0.293 HD
ENDBRANCH   6  12
TORSDOF 3
ENDMDL
MODEL 3
REMARK VINA RESULT:    -4.362     10.473     12.633
REMARK INTER + INTRA:          -5.085
REMARK INTER:                  -4.988
REMARK INTRA:                  -0.097
REMARK UNBOUND:                -0.085
REMARK SMILES COc1cc(C(=O)[O-])ccc1O
REMARK SMILES IDX 5 1 9 2 4 3 10 4 3 5 11 6 6 7 7 8 8 9 2 10 1 11 12 12
REMARK H PARENT 12 13
REMARK Flexibility Score: inf
ROOT
ATOM      1  C   UNL     1      -6.108  19.678 135.070  1.00  0.00     0.001 A 
ATOM      2  C   UNL     1      -5.693  20.417 133.951  1.00  0.00     0.014 A 
ATOM      3  C   UNL     1      -6.504  20.364 136.235  1.00  0.00     0.060 A 
ATOM      4  C   UNL     1      -5.673  21.813 133.993  1.00  0.00     0.051 A 
ATOM      5  C   UNL     1      -6.486  21.773 136.280  1.00  0.00     0.161 A 
ATOM      6  C   UNL     1      -6.068  22.491 135.152  1.00  0.00     0.157 A 
ENDROOT
BRANCH   1   7
ATOM      7  C   UNL     1      -6.127  18.199 135.022  1.00  0.00     0.072 C 
ATOM      8  O   UNL     1      -5.084  17.553 134.737  1.00  0.00    -0.545 OA
ATOM      9  O   UNL     1      -7.299  17.501 135.292  1.00  0.00    -0.545 OA
ENDBRANCH   1   7
BRANCH   5  10
ATOM     10  O   UNL     1      -6.874  22.490 137.423  1.00  0.00    -0.493 OA
ATOM     11  C   UNL     1      -6.040  22.718 138.554  1.00  0.00     0.278 C 
ENDBRANCH   5  10
BRANCH   6  12
ATOM     12  O   UNL     1      -6.048  23.884 135.191  1.00  0.00    -0.504 OA
ATOM     13  H   UNL     1      -6.703  24.440 134.652  1.00  0.00     0.293 HD
ENDBRANCH   6  12
TORSDOF 3
ENDMDL
MODEL 4
REMARK VINA RESULT:    -4.316     10.676     11.167
REMARK INTER + INTRA:          -5.032
REMARK INTER:                  -4.938
REMARK INTRA:                  -0.094
REMARK UNBOUND:                -0.085
REMARK SMILES COc1cc(C(=O)[O-])ccc1O
REMARK SMILES IDX 5 1 9 2 4 3 10 4 3 5 11 6 6 7 7 8 8 9 2 10 1 11 12 12
REMARK H PARENT 12 13
REMARK Flexibility Score: inf
ROOT
ATOM      1  C   UNL     1       8.038  19.714 139.980  1.00  0.00     0.001 A 
ATOM      2  C   UNL     1       8.228  18.921 141.123  1.00  0.00     0.014 A 
ATOM      3  C   UNL     1       7.451  19.138 138.837  1.00  0.00     0.060 A 
ATOM      4  C   UNL     1       7.840  17.579 141.125  1.00  0.00     0.051 A 
ATOM      5  C   UNL     1       7.058  17.785 138.836  1.00  0.00     0.161 A 
ATOM      6  C   UNL     1       7.256  17.011 139.987  1.00  0.00     0.157 A 
ENDROOT
BRANCH   1   7
ATOM      7  C   UNL     1       8.451  21.136 139.982  1.00  0.00     0.072 C 
ATOM      8  O   UNL     1       9.668  21.450 140.049  1.00  0.00    -0.545 OA
ATOM      9  O   UNL     1       7.497  22.145 139.911  1.00  0.00    -0.545 OA
ENDBRANCH   1   7
BRANCH   5  10
ATOM     10  O   UNL     1       6.470  17.177 137.715  1.00  0.00    -0.493 OA
ATOM     11  C   UNL     1       7.132  16.964 136.472  1.00  0.00     0.278 C 
ENDBRANCH   5  10
BRANCH   6  12
ATOM     12  O   UNL     1       6.870  15.671 139.991  1.00  0.00    -0.504 OA
ATOM     13  H   UNL     1       7.021  15.078 140.799  1.00  0.00     0.293 HD
ENDBRANCH   6  12
TORSDOF 3
ENDMDL
MODEL 5
REMARK VINA RESULT:    -4.275      8.883      9.457
REMARK INTER + INTRA:          -4.984
REMARK INTER:                  -4.903
REMARK INTRA:                  -0.081
REMARK UNBOUND:                -0.085
REMARK SMILES COc1cc(C(=O)[O-])ccc1O
REMARK SMILES IDX 5 1 9 2 4 3 10 4 3 5 11 6 6 7 7 8 8 9 2 10 1 11 12 12
REMARK H PARENT 12 13
REMARK Flexibility Score: inf
ROOT
ATOM      1  C   UNL     1       4.892  18.902 136.025  1.00  0.00     0.001 A 
ATOM      2  C   UNL     1       5.188  18.249 134.817  1.00  0.00     0.014 A 
ATOM      3  C   UNL     1       5.463  18.422 137.219  1.00  0.00     0.060 A 
ATOM      4  C   UNL     1       6.036  17.140 134.801  1.00  0.00     0.051 A 
ATOM      5  C   UNL     1       6.320  17.303 137.207  1.00  0.00     0.161 A 
ATOM      6  C   UNL     1       6.602  16.666 135.991  1.00  0.00     0.157 A 
ENDROOT
BRANCH   1   7
ATOM      7  C   UNL     1       3.993  20.077 136.036  1.00  0.00     0.072 C 
ATOM      8  O   UNL     1       2.743  19.928 136.087  1.00  0.00    -0.545 OA
ATOM      9  O   UNL     1       4.516  21.365 135.991  1.00  0.00    -0.545 OA
ENDBRANCH   1   7
BRANCH   5  10
ATOM     10  O   UNL     1       6.907  16.797 138.378  1.00  0.00    -0.493 OA
ATOM     11  C   UNL     1       6.232  16.659 139.624  1.00  0.00     0.278 C 
ENDBRANCH   5  10
BRANCH   6  12
ATOM     12  O   UNL     1       7.449  15.559 135.973  1.00  0.00    -0.504 OA
ATOM     13  H   UNL     1       7.963  15.271 136.798  1.00  0.00     0.293 HD
ENDBRANCH   6  12
TORSDOF 3
ENDMDL
MODEL 6
REMARK VINA RESULT:    -4.259     16.797     17.866
REMARK INTER + INTRA:          -4.967
REMARK INTER:                  -4.883
REMARK INTRA:                  -0.085
REMARK UNBOUND:                -0.085
REMARK SMILES COc1cc(C(=O)[O-])ccc1O
REMARK SMILES IDX 5 1 9 2 4 3 10 4 3 5 11 6 6 7 7 8 8 9 2 10 1 11 12 12
REMARK H PARENT 12 13
REMARK Flexibility Score: inf
ROOT
ATOM      1  C   UNL     1      -0.248  29.175 136.351  1.00  0.00     0.001 A 
ATOM      2  C   UNL     1       0.907  29.360 137.127  1.00  0.00     0.014 A 
ATOM      3  C   UNL     1      -0.142  28.504 135.117  1.00  0.00     0.060 A 
ATOM      4  C   UNL     1       2.143  28.887 136.681  1.00  0.00     0.051 A 
ATOM      5  C   UNL     1       1.103  28.024 134.664  1.00  0.00     0.161 A 
ATOM      6  C   UNL     1       2.244  28.220 135.455  1.00  0.00     0.157 A 
ENDROOT
BRANCH   1   7
ATOM      7  C   UNL     1      -1.555  29.679 136.827  1.00  0.00     0.072 C 
ATOM      8  O   UNL     1      -2.415  30.102 136.010  1.00  0.00    -0.545 OA
ATOM      9  O   UNL     1      -1.853  29.691 138.185  1.00  0.00    -0.545 OA
ENDBRANCH   1   7
BRANCH   5  10
ATOM     10  O   UNL     1       1.247  27.351 133.440  1.00  0.00    -0.493 OA
ATOM     11  C   UNL     1       0.287  26.449 132.898  1.00  0.00     0.278 C 
ENDBRANCH   5  10
BRANCH   6  12
ATOM     12  O   UNL     1       3.478  27.748 135.012  1.00  0.00    -0.504 OA
ATOM     13  H   UNL     1       4.222  27.517 135.661  1.00  0.00     0.293 HD
ENDBRANCH   6  12
TORSDOF 3
ENDMDL
MODEL 7
REMARK VINA RESULT:    -4.259     11.170     13.047
REMARK INTER + INTRA:          -4.966
REMARK INTER:                  -4.866
REMARK INTRA:                  -0.100
REMARK UNBOUND:                -0.085
REMARK SMILES COc1cc(C(=O)[O-])ccc1O
REMARK SMILES IDX 5 1 9 2 4 3 10 4 3 5 11 6 6 7 7 8 8 9 2 10 1 11 12 12
REMARK H PARENT 12 13
REMARK Flexibility Score: inf
ROOT
ATOM      1  C   UNL     1      -6.489  20.404 136.435  1.00  0.00     0.001 A 
ATOM      2  C   UNL     1      -6.407  21.702 135.906  1.00  0.00     0.014 A 
ATOM      3  C   UNL     1      -6.507  20.234 137.832  1.00  0.00     0.060 A 
ATOM      4  C   UNL     1      -6.344  22.809 136.755  1.00  0.00     0.051 A 
ATOM      5  C   UNL     1      -6.445  21.350 138.692  1.00  0.00     0.161 A 
ATOM      6  C   UNL     1      -6.364  22.637 138.143  1.00  0.00     0.157 A 
ENDROOT
BRANCH   1   7
ATOM      7  C   UNL     1      -6.555  19.234 135.531  1.00  0.00     0.072 C 
ATOM      8  O   UNL     1      -7.272  18.239 135.820  1.00  0.00    -0.545 OA
ATOM      9  O   UNL     1      -5.825  19.216 134.347  1.00  0.00    -0.545 OA
ENDBRANCH   1   7
BRANCH   5  10
ATOM     10  O   UNL     1      -6.461  21.219 140.090  1.00  0.00    -0.493 OA
ATOM     11  C   UNL     1      -5.364  20.752 140.869  1.00  0.00     0.278 C 
ENDBRANCH   5  10
BRANCH   6  12
ATOM     12  O   UNL     1      -6.301  23.743 138.989  1.00  0.00    -0.504 OA
ATOM     13  H   UNL     1      -7.124  24.296 139.201  1.00  0.00     0.293 HD
ENDBRANCH   6  12
TORSDOF 3
ENDMDL
MODEL 8
REMARK VINA RESULT:    -4.224     10.960     12.420
REMARK INTER + INTRA:          -4.926
REMARK INTER:                  -4.841
REMARK INTRA:                  -0.085
REMARK UNBOUND:                -0.085
REMARK SMILES COc1cc(C(=O)[O-])ccc1O
REMARK SMILES IDX 5 1 9 2 4 3 10 4 3 5 11 6 6 7 7 8 8 9 2 10 1 11 12 12
REMARK H PARENT 12 13
REMARK Flexibility Score: inf
ROOT
ATOM      1  C   UNL     1      -6.449  20.472 138.143  1.00  0.00     0.001 A 
ATOM      2  C   UNL     1      -6.477  21.797 138.607  1.00  0.00     0.014 A 
ATOM      3  C   UNL     1      -6.360  20.233 136.759  1.00  0.00     0.060 A 
ATOM      4  C   UNL     1      -6.416  22.863 137.706  1.00  0.00     0.051 A 
ATOM      5  C   UNL     1      -6.297  21.307 135.846  1.00  0.00     0.161 A 
ATOM      6  C   UNL     1      -6.326  22.622 136.331  1.00  0.00     0.157 A 
ENDROOT
BRANCH   1   7
ATOM      7  C   UNL     1      -6.514  19.346 139.101  1.00  0.00     0.072 C 
ATOM      8  O   UNL     1      -6.238  18.174 138.732  1.00  0.00    -0.545 OA
ATOM      9  O   UNL     1      -6.881  19.567 140.424  1.00  0.00    -0.545 OA
ENDBRANCH   1   7
BRANCH   5  10
ATOM     10  O   UNL     1      -6.207  21.107 134.460  1.00  0.00    -0.493 OA
ATOM     11  C   UNL     1      -5.559  19.998 133.845  1.00  0.00     0.278 C 
ENDBRANCH   5  10
BRANCH   6  12
ATOM     12  O   UNL     1      -6.266  23.687 135.433  1.00  0.00    -0.504 OA
ATOM     13  H   UNL     1      -5.490  24.339 135.436  1.00  0.00     0.293 HD
ENDBRANCH   6  12
TORSDOF 3
ENDMDL
MODEL 9
REMARK VINA RESULT:    -4.152     10.081     10.235
REMARK INTER + INTRA:          -4.844
REMARK INTER:                  -4.756
REMARK INTRA:                  -0.089
REMARK UNBOUND:                -0.085
REMARK SMILES COc1cc(C(=O)[O-])ccc1O
REMARK SMILES IDX 5 1 9 2 4 3 10 4 3 5 11 6 6 7 7 8 8 9 2 10 1 11 12 12
REMARK H PARENT 12 13
REMARK Flexibility Score: inf
ROOT
ATOM      1  C   UNL     1       7.122  19.487 137.020  1.00  0.00     0.001 A 
ATOM      2  C   UNL     1       7.593  18.419 137.799  1.00  0.00     0.014 A 
ATOM      3  C   UNL     1       6.624  19.226 135.729  1.00  0.00     0.060 A 
ATOM      4  C   UNL     1       7.568  17.115 137.301  1.00  0.00     0.051 A 
ATOM      5  C   UNL     1       6.595  17.910 135.223  1.00  0.00     0.161 A 
ATOM      6  C   UNL     1       7.071  16.858 136.018  1.00  0.00     0.157 A 
ENDROOT
BRANCH   1   7
ATOM      7  C   UNL     1       7.151  20.868 137.552  1.00  0.00     0.072 C 
ATOM      8  O   UNL     1       6.278  21.707 137.207  1.00  0.00    -0.545 OA
ATOM      9  O   UNL     1       8.146  21.259 138.442  1.00  0.00    -0.545 OA
ENDBRANCH   1   7
BRANCH   5  10
ATOM     10  O   UNL     1       6.106  17.611 133.941  1.00  0.00    -0.493 OA
ATOM     11  C   UNL     1       4.881  18.108 133.410  1.00  0.00     0.278 C 
ENDBRANCH   5  10
BRANCH   6  12
ATOM     12  O   UNL     1       7.045  15.555 135.522  1.00  0.00    -0.504 OA
ATOM     13  H   UNL     1       7.591  15.286 134.712  1.00  0.00     0.293 HD
ENDBRANCH   6  12
TORSDOF 3
ENDMDL
