MODEL 1
REMARK VINA RESULT:    34.531      0.000      0.000
REMARK INTER + INTRA:          55.859
REMARK INTER:                  52.699
REMARK INTRA:                   3.160
REMARK UNBOUND:                 3.160
REMARK SMILES OC[C@H]1O[C@@H](O[C@@]2(CO)O[C@H](CO)[C@@H](O)[C@@H]2O)[C@@H](O)[C@H](O)[C@H]1O
REMARK SMILES IDX 6 1 5 2 3 3 22 4 4 5 20 6 18 7 2 8 1 9 23 11 21 13 19 15
REMARK SMILES IDX 7 17 16 18 10 19 14 20 11 21 8 22 9 23 17 25 15 27 12 29
REMARK SMILES IDX 13 30
REMARK H PARENT 1 10 23 12 21 14 19 16 9 24 17 26 15 28 13 31
REMARK Flexibility Score: inf
ROOT
ATOM      1  O   UNL     1      95.156 117.454 114.188  1.00  0.00    -0.313 OA
ENDROOT
BRANCH   1   2
ATOM      2  C   UNL     1      96.326 118.255 114.361  1.00  0.00     0.285 C 
ATOM      3  C   UNL     1      98.312 118.640 115.524  1.00  0.00     0.178 C 
ATOM      4  C   UNL     1      97.829 119.864 116.349  1.00  0.00     0.177 C 
ATOM      5  O   UNL     1      97.234 117.744 115.331  1.00  0.00    -0.341 OA
ATOM      6  C   UNL     1      96.354 120.226 116.020  1.00  0.00     0.179 C 
ATOM      7  C   UNL     1      95.938 119.751 114.609  1.00  0.00     0.202 C 
BRANCH   3   8
ATOM      8  C   UNL     1      99.484 117.894 116.177  1.00  0.00     0.191 C 
BRANCH   8   9
ATOM      9  O   UNL     1     100.695 118.517 115.844  1.00  0.00    -0.394 OA
ATOM     10  H   UNL     1     100.633 118.739 114.876  1.00  0.00     0.210 HD
ENDBRANCH   8   9
ENDBRANCH   3   8
BRANCH   4  11
ATOM     11  O   UNL     1      97.979 119.665 117.735  1.00  0.00    -0.387 OA
ATOM     12  H   UNL     1      97.577 120.447 118.199  1.00  0.00     0.211 HD
ENDBRANCH   4  11
BRANCH   6  13
ATOM     13  O   UNL     1      96.141 121.609 116.174  1.00  0.00    -0.387 OA
ATOM     14  H   UNL     1      97.035 122.039 116.244  1.00  0.00     0.211 HD
ENDBRANCH   6  13
BRANCH   7  15
ATOM     15  O   UNL     1      94.556 119.940 114.424  1.00  0.00    -0.385 OA
ATOM     16  H   UNL     1      94.119 119.066 114.587  1.00  0.00     0.211 HD
ENDBRANCH   7  15
ENDBRANCH   1   2
BRANCH   1  17
ATOM     17  C   UNL     1      94.228 117.805 113.161  1.00  0.00     0.224 C 
ATOM     18  C   UNL     1      94.095 116.669 112.102  1.00  0.00     0.208 C 
ATOM     19  O   UNL     1      94.795 118.924 112.500  1.00  0.00    -0.337 OA
ATOM     20  C   UNL     1      94.312 117.371 110.786  1.00  0.00     0.180 C 
ATOM     21  C   UNL     1      95.195 118.527 111.209  1.00  0.00     0.179 C 
BRANCH  17  22
ATOM     22  C   UNL     1      92.881 118.298 113.747  1.00  0.00     0.225 C 
BRANCH  22  23
ATOM     23  O   UNL     1      92.877 118.150 115.144  1.00  0.00    -0.391 OA
ATOM     24  H   UNL     1      93.743 117.732 115.386  1.00  0.00     0.210 HD
ENDBRANCH  22  23
ENDBRANCH  17  22
BRANCH  18  25
ATOM     25  O   UNL     1      92.880 115.957 112.137  1.00  0.00    -0.385 OA
ATOM     26  H   UNL     1      92.245 116.373 111.497  1.00  0.00     0.211 HD
ENDBRANCH  18  25
BRANCH  20  27
ATOM     27  O   UNL     1      94.974 116.530 109.875  1.00  0.00    -0.387 OA
ATOM     28  H   UNL     1      95.120 115.665 110.341  1.00  0.00     0.211 HD
ENDBRANCH  20  27
BRANCH  21  29
ATOM     29  C   UNL     1      95.089 119.713 110.242  1.00  0.00     0.191 C 
BRANCH  29  30
ATOM     30  O   UNL     1      94.616 120.849 110.914  1.00  0.00    -0.394 OA
ATOM     31  H   UNL     1      94.394 120.558 111.837  1.00  0.00     0.210 HD
ENDBRANCH  29  30
ENDBRANCH  21  29
ENDBRANCH   1  17
TORSDOF 13
ENDMDL
MODEL 2
REMARK VINA RESULT:    35.192      1.541      2.746
REMARK INTER + INTRA:          56.868
REMARK INTER:                  57.066
REMARK INTRA:                  -0.198
REMARK UNBOUND:                 3.160
REMARK SMILES OC[C@H]1O[C@@H](O[C@@]2(CO)O[C@H](CO)[C@@H](O)[C@@H]2O)[C@@H](O)[C@H](O)[C@H]1O
REMARK SMILES IDX 6 1 5 2 3 3 22 4 4 5 20 6 18 7 2 8 1 9 23 11 21 13 19 15
REMARK SMILES IDX 7 17 16 18 10 19 14 20 11 21 8 22 9 23 17 25 15 27 12 29
REMARK SMILES IDX 13 30
REMARK H PARENT 1 10 23 12 21 14 19 16 9 24 17 26 15 28 13 31
REMARK Flexibility Score: inf
ROOT
ATOM      1  O   UNL     1      95.450 117.180 113.548  1.00  0.00    -0.313 OA
ENDROOT
BRANCH   1   2
ATOM      2  C   UNL     1      96.066 117.475 114.803  1.00  0.00     0.285 C 
ATOM      3  C   UNL     1      97.333 118.949 116.092  1.00  0.00     0.178 C 
ATOM      4  C   UNL     1      98.660 118.143 116.076  1.00  0.00     0.177 C 
ATOM      5  O   UNL     1      96.654 118.769 114.864  1.00  0.00    -0.341 OA
ATOM      6  C   UNL     1      98.515 116.823 115.268  1.00  0.00     0.179 C 
ATOM      7  C   UNL     1      97.050 116.330 115.216  1.00  0.00     0.202 C 
BRANCH   3   8
ATOM      8  C   UNL     1      97.540 120.450 116.345  1.00  0.00     0.191 C 
BRANCH   8   9
ATOM      9  O   UNL     1      98.074 120.650 117.626  1.00  0.00    -0.394 OA
ATOM     10  H   UNL     1      98.851 120.033 117.700  1.00  0.00     0.210 HD
ENDBRANCH   8   9
ENDBRANCH   3   8
BRANCH   4  11
ATOM     11  O   UNL     1      99.737 118.899 115.574  1.00  0.00    -0.387 OA
ATOM     12  H   UNL     1     100.075 119.473 116.311  1.00  0.00     0.211 HD
ENDBRANCH   4  11
BRANCH   6  13
ATOM     13  O   UNL     1      99.367 115.830 115.788  1.00  0.00    -0.387 OA
ATOM     14  H   UNL     1      99.402 115.961 116.773  1.00  0.00     0.211 HD
ENDBRANCH   6  13
BRANCH   7  15
ATOM     15  O   UNL     1      96.939 115.240 114.333  1.00  0.00    -0.385 OA
ATOM     16  H   UNL     1      96.167 115.424 113.740  1.00  0.00     0.211 HD
ENDBRANCH   7  15
ENDBRANCH   1   2
BRANCH   1  17
ATOM     17  C   UNL     1      94.269 117.892 113.178  1.00  0.00     0.224 C 
ATOM     18  C   UNL     1      93.977 117.754 111.653  1.00  0.00     0.208 C 
ATOM     19  O   UNL     1      94.554 119.259 113.422  1.00  0.00    -0.337 OA
ATOM     20  C   UNL     1      93.798 119.176 111.186  1.00  0.00     0.180 C 
ATOM     21  C   UNL     1      94.654 119.926 112.186  1.00  0.00     0.179 C 
BRANCH  17  22
ATOM     22  C   UNL     1      93.072 117.539 114.096  1.00  0.00     0.225 C 
BRANCH  22  23
ATOM     23  O   UNL     1      93.208 118.181 115.338  1.00  0.00    -0.391 OA
ATOM     24  H   UNL     1      93.389 119.136 115.143  1.00  0.00     0.210 HD
ENDBRANCH  22  23
ENDBRANCH  17  22
BRANCH  18  25
ATOM     25  O   UNL     1      92.875 116.940 111.325  1.00  0.00    -0.385 OA
ATOM     26  H   UNL     1      92.107 117.189 111.903  1.00  0.00     0.211 HD
ENDBRANCH  18  25
BRANCH  20  27
ATOM     27  O   UNL     1      94.284 119.337 109.877  1.00  0.00    -0.387 OA
ATOM     28  H   UNL     1      95.104 119.893 109.944  1.00  0.00     0.211 HD
ENDBRANCH  20  27
BRANCH  21  29
ATOM     29  C   UNL     1      94.209 121.385 112.342  1.00  0.00     0.191 C 
BRANCH  29  30
ATOM     30  O   UNL     1      94.781 122.179 111.338  1.00  0.00    -0.394 OA
ATOM     31  H   UNL     1      95.379 122.825 111.797  1.00  0.00     0.210 HD
ENDBRANCH  29  30
ENDBRANCH  21  29
ENDBRANCH   1  17
TORSDOF 13
ENDMDL
MODEL 3
REMARK VINA RESULT:    36.532      1.973      5.464
REMARK INTER + INTRA:          58.913
REMARK INTER:                  56.967
REMARK INTRA:                   1.945
REMARK UNBOUND:                 3.160
REMARK SMILES OC[C@H]1O[C@@H](O[C@@]2(CO)O[C@H](CO)[C@@H](O)[C@@H]2O)[C@@H](O)[C@H](O)[C@H]1O
REMARK SMILES IDX 6 1 5 2 3 3 22 4 4 5 20 6 18 7 2 8 1 9 23 11 21 13 19 15
REMARK SMILES IDX 7 17 16 18 10 19 14 20 11 21 8 22 9 23 17 25 15 27 12 29
REMARK SMILES IDX 13 30
REMARK H PARENT 1 10 23 12 21 14 19 16 9 24 17 26 15 28 13 31
REMARK Flexibility Score: inf
ROOT
ATOM      1  O   UNL     1      92.921 119.046 113.723  1.00  0.00    -0.313 OA
ENDROOT
BRANCH   1   2
ATOM      2  C   UNL     1      92.880 118.699 112.338  1.00  0.00     0.285 C 
ATOM      3  C   UNL     1      93.169 117.071 110.692  1.00  0.00     0.178 C 
ATOM      4  C   UNL     1      94.510 117.601 110.116  1.00  0.00     0.177 C 
ATOM      5  O   UNL     1      93.121 117.319 112.085  1.00  0.00    -0.341 OA
ATOM      6  C   UNL     1      94.981 118.883 110.858  1.00  0.00     0.179 C 
ATOM      7  C   UNL     1      93.803 119.649 111.504  1.00  0.00     0.202 C 
BRANCH   3   8
ATOM      8  C   UNL     1      92.951 115.573 110.434  1.00  0.00     0.191 C 
BRANCH   8   9
ATOM      9  O   UNL     1      94.185 114.932 110.256  1.00  0.00    -0.394 OA
ATOM     10  H   UNL     1      94.858 115.496 110.723  1.00  0.00     0.210 HD
ENDBRANCH   8   9
ENDBRANCH   3   8
BRANCH   4  11
ATOM     11  O   UNL     1      95.526 116.627 110.146  1.00  0.00    -0.387 OA
ATOM     12  H   UNL     1      95.756 116.457 111.098  1.00  0.00     0.211 HD
ENDBRANCH   4  11
BRANCH   6  13
ATOM     13  O   UNL     1      95.712 119.716 109.989  1.00  0.00    -0.387 OA
ATOM     14  H   UNL     1      95.978 119.162 109.207  1.00  0.00     0.211 HD
ENDBRANCH   6  13
BRANCH   7  15
ATOM     15  O   UNL     1      94.291 120.695 112.309  1.00  0.00    -0.385 OA
ATOM     16  H   UNL     1      94.227 121.526 111.774  1.00  0.00     0.211 HD
ENDBRANCH   7  15
ENDBRANCH   1   2
BRANCH   1  17
ATOM     17  C   UNL     1      93.767 118.296 114.595  1.00  0.00     0.224 C 
ATOM     18  C   UNL     1      95.032 119.111 115.000  1.00  0.00     0.208 C 
ATOM     19  O   UNL     1      94.216 117.187 113.833  1.00  0.00    -0.337 OA
ATOM     20  C   UNL     1      96.178 118.183 114.692  1.00  0.00     0.180 C 
ATOM     21  C   UNL     1      95.590 117.348 113.573  1.00  0.00     0.179 C 
BRANCH  17  22
ATOM     22  C   UNL     1      92.978 117.698 115.788  1.00  0.00     0.225 C 
BRANCH  22  23
ATOM     23  O   UNL     1      93.775 116.769 116.477  1.00  0.00    -0.391 OA
ATOM     24  H   UNL     1      93.512 115.872 116.147  1.00  0.00     0.210 HD
ENDBRANCH  22  23
ENDBRANCH  17  22
BRANCH  18  25
ATOM     25  O   UNL     1      95.052 119.563 116.335  1.00  0.00    -0.385 OA
ATOM     26  H   UNL     1      95.907 119.285 116.756  1.00  0.00     0.211 HD
ENDBRANCH  18  25
BRANCH  20  27
ATOM     27  O   UNL     1      97.302 118.904 114.254  1.00  0.00    -0.387 OA
ATOM     28  H   UNL     1      97.648 119.399 115.043  1.00  0.00     0.211 HD
ENDBRANCH  20  27
BRANCH  21  29
ATOM     29  C   UNL     1      96.265 115.975 113.466  1.00  0.00     0.191 C 
BRANCH  29  30
ATOM     30  O   UNL     1      96.978 115.690 114.639  1.00  0.00    -0.394 OA
ATOM     31  H   UNL     1      97.872 115.366 114.353  1.00  0.00     0.210 HD
ENDBRANCH  29  30
ENDBRANCH  21  29
ENDBRANCH   1  17
TORSDOF 13
ENDMDL
