MODEL 1
REMARK VINA RESULT:    -4.925      0.000      0.000
REMARK INTER + INTRA:         -10.848
REMARK INTER:                  -9.532
REMARK INTRA:                  -1.315
REMARK UNBOUND:                -1.315
REMARK SMILES CCCCCCCCCCCCCCCCCC(=O)[O-]
REMARK SMILES IDX 10 1 11 2 12 3 13 4 14 5 15 6 16 7 17 8 18 9 19 10 20 11
REMARK SMILES IDX 9 12 8 13 7 14 6 15 5 16 4 17 3 18 2 19 1 20
REMARK H PARENT
REMARK Flexibility Score: inf
ROOT
ATOM      1  C   UNL     1      -0.956   5.487  17.467  1.00  0.00     0.000 C 
ENDROOT
BRANCH   1   2
ATOM      2  C   UNL     1      -0.756   4.677  16.173  1.00  0.00     0.000 C 
BRANCH   2   3
ATOM      3  C   UNL     1      -2.083   4.269  15.508  1.00  0.00     0.000 C 
BRANCH   3   4
ATOM      4  C   UNL     1      -2.942   3.359  16.412  1.00  0.00     0.000 C 
BRANCH   4   5
ATOM      5  C   UNL     1      -4.459   3.579  16.257  1.00  0.00     0.000 C 
BRANCH   5   6
ATOM      6  C   UNL     1      -4.871   4.484  15.082  1.00  0.00     0.000 C 
BRANCH   6   7
ATOM      7  C   UNL     1      -5.440   5.861  15.480  1.00  0.00     0.006 C 
BRANCH   7   8
ATOM      8  C   UNL     1      -5.499   6.099  17.000  1.00  0.00     0.053 C 
BRANCH   8   9
ATOM      9  C   UNL     1      -6.698   6.899  17.413  1.00  0.00     0.041 C 
ATOM     10  O   UNL     1      -6.676   7.575  18.476  1.00  0.00    -0.550 OA
ATOM     11  O   UNL     1      -7.825   6.932  16.603  1.00  0.00    -0.550 OA
ENDBRANCH   8   9
ENDBRANCH   7   8
ENDBRANCH   6   7
ENDBRANCH   5   6
ENDBRANCH   4   5
ENDBRANCH   3   4
ENDBRANCH   2   3
ENDBRANCH   1   2
BRANCH   1  12
ATOM     12  C   UNL     1       0.310   6.185  17.997  1.00  0.00     0.000 C 
BRANCH  12  13
ATOM     13  C   UNL     1       0.857   7.245  17.026  1.00  0.00    -0.000 C 
BRANCH  13  14
ATOM     14  C   UNL     1       1.323   8.520  17.746  1.00  0.00    -0.000 C 
BRANCH  14  15
ATOM     15  C   UNL     1       0.980   8.508  19.244  1.00  0.00    -0.000 C 
BRANCH  15  16
ATOM     16  C   UNL     1       2.165   8.998  20.084  1.00  0.00    -0.000 C 
BRANCH  16  17
ATOM     17  C   UNL     1       2.256   8.231  21.408  1.00  0.00    -0.000 C 
BRANCH  17  18
ATOM     18  C   UNL     1       1.279   7.046  21.426  1.00  0.00    -0.000 C 
BRANCH  18  19
ATOM     19  C   UNL     1       0.826   6.675  22.846  1.00  0.00    -0.003 C 
ATOM     20  C   UNL     1      -0.688   6.777  23.030  1.00  0.00     0.004 C 
ENDBRANCH  18  19
ENDBRANCH  17  18
ENDBRANCH  16  17
ENDBRANCH  15  16
ENDBRANCH  14  15
ENDBRANCH  13  14
ENDBRANCH  12  13
ENDBRANCH   1  12
TORSDOF 16
ENDMDL
MODEL 2
REMARK VINA RESULT:    -4.893      5.096      8.614
REMARK INTER + INTRA:         -10.786
REMARK INTER:                  -7.612
REMARK INTRA:                  -3.174
REMARK UNBOUND:                -1.315
REMARK SMILES CCCCCCCCCCCCCCCCCC(=O)[O-]
REMARK SMILES IDX 10 1 11 2 12 3 13 4 14 5 15 6 16 7 17 8 18 9 19 10 20 11
REMARK SMILES IDX 9 12 8 13 7 14 6 15 5 16 4 17 3 18 2 19 1 20
REMARK H PARENT
REMARK Flexibility Score: inf
ROOT
ATOM      1  C   UNL     1      -5.043   8.261  13.399  1.00  0.00     0.000 C 
ENDROOT
BRANCH   1   2
ATOM      2  C   UNL     1      -4.664   7.907  14.848  1.00  0.00     0.000 C 
BRANCH   2   3
ATOM      3  C   UNL     1      -5.785   8.220  15.856  1.00  0.00     0.000 C 
BRANCH   3   4
ATOM      4  C   UNL     1      -6.329   6.951  16.547  1.00  0.00     0.000 C 
BRANCH   4   5
ATOM      5  C   UNL     1      -5.231   6.024  17.103  1.00  0.00     0.000 C 
BRANCH   5   6
ATOM      6  C   UNL     1      -5.488   4.519  16.915  1.00  0.00     0.000 C 
BRANCH   6   7
ATOM      7  C   UNL     1      -4.346   3.735  16.238  1.00  0.00     0.006 C 
BRANCH   7   8
ATOM      8  C   UNL     1      -3.145   4.608  15.827  1.00  0.00     0.053 C 
BRANCH   8   9
ATOM      9  C   UNL     1      -1.834   3.897  15.984  1.00  0.00     0.041 C 
ATOM     10  O   UNL     1      -0.785   4.381  15.482  1.00  0.00    -0.550 OA
ATOM     11  O   UNL     1      -1.764   2.722  16.719  1.00  0.00    -0.550 OA
ENDBRANCH   8   9
ENDBRANCH   7   8
ENDBRANCH   6   7
ENDBRANCH   5   6
ENDBRANCH   4   5
ENDBRANCH   3   4
ENDBRANCH   2   3
ENDBRANCH   1   2
BRANCH   1  12
ATOM     12  C   UNL     1      -4.648   7.206  12.349  1.00  0.00     0.000 C 
BRANCH  12  13
ATOM     13  C   UNL     1      -5.764   6.181  12.085  1.00  0.00    -0.000 C 
BRANCH  13  14
ATOM     14  C   UNL     1      -5.669   4.955  13.007  1.00  0.00    -0.000 C 
BRANCH  14  15
ATOM     15  C   UNL     1      -7.018   4.593  13.646  1.00  0.00    -0.000 C 
BRANCH  15  16
ATOM     16  C   UNL     1      -8.134   5.510  13.131  1.00  0.00    -0.000 C 
BRANCH  16  17
ATOM     17  C   UNL     1      -9.092   5.900  14.262  1.00  0.00    -0.000 C 
BRANCH  17  18
ATOM     18  C   UNL     1      -9.193   7.427  14.397  1.00  0.00    -0.000 C 
BRANCH  18  19
ATOM     19  C   UNL     1      -8.845   8.159  13.092  1.00  0.00    -0.003 C 
ATOM     20  C   UNL     1      -8.750   9.674  13.271  1.00  0.00     0.004 C 
ENDBRANCH  18  19
ENDBRANCH  17  18
ENDBRANCH  16  17
ENDBRANCH  15  16
ENDBRANCH  14  15
ENDBRANCH  13  14
ENDBRANCH  12  13
ENDBRANCH   1  12
TORSDOF 16
ENDMDL
MODEL 3
REMARK VINA RESULT:    -4.822      5.149      8.373
REMARK INTER + INTRA:         -10.648
REMARK INTER:                  -8.014
REMARK INTRA:                  -2.634
REMARK UNBOUND:                -1.315
REMARK SMILES CCCCCCCCCCCCCCCCCC(=O)[O-]
REMARK SMILES IDX 10 1 11 2 12 3 13 4 14 5 15 6 16 7 17 8 18 9 19 10 20 11
REMARK SMILES IDX 9 12 8 13 7 14 6 15 5 16 4 17 3 18 2 19 1 20
REMARK H PARENT
REMARK Flexibility Score: inf
ROOT
ATOM      1  C   UNL     1      -8.131   6.893  15.187  1.00  0.00     0.000 C 
ENDROOT
BRANCH   1   2
ATOM      2  C   UNL     1      -6.854   7.738  15.027  1.00  0.00     0.000 C 
BRANCH   2   3
ATOM      3  C   UNL     1      -6.121   7.978  16.360  1.00  0.00     0.000 C 
BRANCH   3   4
ATOM      4  C   UNL     1      -6.032   6.701  17.223  1.00  0.00     0.000 C 
BRANCH   4   5
ATOM      5  C   UNL     1      -4.921   5.729  16.783  1.00  0.00     0.000 C 
BRANCH   5   6
ATOM      6  C   UNL     1      -5.256   4.236  16.948  1.00  0.00     0.000 C 
BRANCH   6   7
ATOM      7  C   UNL     1      -4.242   3.259  16.317  1.00  0.00     0.006 C 
BRANCH   7   8
ATOM      8  C   UNL     1      -3.111   3.951  15.533  1.00  0.00     0.053 C 
BRANCH   8   9
ATOM      9  C   UNL     1      -1.755   3.663  16.102  1.00  0.00     0.041 C 
ATOM     10  O   UNL     1      -0.765   4.372  15.778  1.00  0.00    -0.550 OA
ATOM     11  O   UNL     1      -1.590   2.637  17.023  1.00  0.00    -0.550 OA
ENDBRANCH   8   9
ENDBRANCH   7   8
ENDBRANCH   6   7
ENDBRANCH   5   6
ENDBRANCH   4   5
ENDBRANCH   3   4
ENDBRANCH   2   3
ENDBRANCH   1   2
BRANCH   1  12
ATOM     12  C   UNL     1      -8.393   5.892  14.046  1.00  0.00     0.000 C 
BRANCH  12  13
ATOM     13  C   UNL     1      -7.402   4.715  14.047  1.00  0.00    -0.000 C 
BRANCH  13  14
ATOM     14  C   UNL     1      -6.399   4.788  12.885  1.00  0.00    -0.000 C 
BRANCH  14  15
ATOM     15  C   UNL     1      -7.068   5.163  11.553  1.00  0.00    -0.000 C 
BRANCH  15  16
ATOM     16  C   UNL     1      -6.395   6.390  10.926  1.00  0.00    -0.000 C 
BRANCH  16  17
ATOM     17  C   UNL     1      -4.964   6.560  11.450  1.00  0.00    -0.000 C 
BRANCH  17  18
ATOM     18  C   UNL     1      -4.714   8.005  11.907  1.00  0.00    -0.000 C 
BRANCH  18  19
ATOM     19  C   UNL     1      -3.363   8.175  12.618  1.00  0.00    -0.003 C 
ATOM     20  C   UNL     1      -3.293   7.417  13.944  1.00  0.00     0.004 C 
ENDBRANCH  18  19
ENDBRANCH  17  18
ENDBRANCH  16  17
ENDBRANCH  15  16
ENDBRANCH  14  15
ENDBRANCH  13  14
ENDBRANCH  12  13
ENDBRANCH   1  12
TORSDOF 16
ENDMDL
MODEL 4
REMARK VINA RESULT:    -4.822      4.852      8.153
REMARK INTER + INTRA:         -10.648
REMARK INTER:                  -7.690
REMARK INTRA:                  -2.957
REMARK UNBOUND:                -1.315
REMARK SMILES CCCCCCCCCCCCCCCCCC(=O)[O-]
REMARK SMILES IDX 10 1 11 2 12 3 13 4 14 5 15 6 16 7 17 8 18 9 19 10 20 11
REMARK SMILES IDX 9 12 8 13 7 14 6 15 5 16 4 17 3 18 2 19 1 20
REMARK H PARENT
REMARK Flexibility Score: inf
ROOT
ATOM      1  C   UNL     1      -5.603   7.956  15.661  1.00  0.00     0.000 C 
ENDROOT
BRANCH   1   2
ATOM      2  C   UNL     1      -6.420   8.012  16.965  1.00  0.00     0.000 C 
BRANCH   2   3
ATOM      3  C   UNL     1      -6.307   6.725  17.801  1.00  0.00     0.000 C 
BRANCH   3   4
ATOM      4  C   UNL     1      -5.126   5.834  17.358  1.00  0.00     0.000 C 
BRANCH   4   5
ATOM      5  C   UNL     1      -5.540   4.403  16.965  1.00  0.00     0.000 C 
BRANCH   5   6
ATOM      6  C   UNL     1      -4.569   3.680  16.015  1.00  0.00     0.000 C 
BRANCH   6   7
ATOM      7  C   UNL     1      -3.408   4.541  15.478  1.00  0.00     0.006 C 
BRANCH   7   8
ATOM      8  C   UNL     1      -2.078   3.779  15.332  1.00  0.00     0.053 C 
BRANCH   8   9
ATOM      9  C   UNL     1      -1.358   3.621  16.638  1.00  0.00     0.041 C 
ATOM     10  O   UNL     1      -1.347   2.507  17.227  1.00  0.00    -0.550 OA
ATOM     11  O   UNL     1      -0.663   4.692  17.184  1.00  0.00    -0.550 OA
ENDBRANCH   8   9
ENDBRANCH   7   8
ENDBRANCH   6   7
ENDBRANCH   5   6
ENDBRANCH   4   5
ENDBRANCH   3   4
ENDBRANCH   2   3
ENDBRANCH   1   2
BRANCH   1  12
ATOM     12  C   UNL     1      -6.125   8.860  14.529  1.00  0.00     0.000 C 
BRANCH  12  13
ATOM     13  C   UNL     1      -5.451   8.572  13.177  1.00  0.00    -0.000 C 
BRANCH  13  14
ATOM     14  C   UNL     1      -4.524   7.347  13.229  1.00  0.00    -0.000 C 
BRANCH  14  15
ATOM     15  C   UNL     1      -5.076   6.157  12.429  1.00  0.00    -0.000 C 
BRANCH  15  16
ATOM     16  C   UNL     1      -6.433   6.498  11.803  1.00  0.00    -0.000 C 
BRANCH  16  17
ATOM     17  C   UNL     1      -7.504   5.484  12.225  1.00  0.00    -0.000 C 
BRANCH  17  18
ATOM     18  C   UNL     1      -7.197   4.906  13.615  1.00  0.00    -0.000 C 
BRANCH  18  19
ATOM     19  C   UNL     1      -8.137   5.450  14.701  1.00  0.00    -0.003 C 
ATOM     20  C   UNL     1      -9.080   6.534  14.179  1.00  0.00     0.004 C 
ENDBRANCH  18  19
ENDBRANCH  17  18
ENDBRANCH  16  17
ENDBRANCH  15  16
ENDBRANCH  14  15
ENDBRANCH  13  14
ENDBRANCH  12  13
ENDBRANCH   1  12
TORSDOF 16
ENDMDL
MODEL 5
REMARK VINA RESULT:    -4.822      3.249      8.582
REMARK INTER + INTRA:         -10.647
REMARK INTER:                  -8.819
REMARK INTRA:                  -1.828
REMARK UNBOUND:                -1.315
REMARK SMILES CCCCCCCCCCCCCCCCCC(=O)[O-]
REMARK SMILES IDX 10 1 11 2 12 3 13 4 14 5 15 6 16 7 17 8 18 9 19 10 20 11
REMARK SMILES IDX 9 12 8 13 7 14 6 15 5 16 4 17 3 18 2 19 1 20
REMARK H PARENT
REMARK Flexibility Score: inf
ROOT
ATOM      1  C   UNL     1      -5.430   5.139  16.694  1.00  0.00     0.000 C 
ENDROOT
BRANCH   1   2
ATOM      2  C   UNL     1      -4.246   4.309  16.165  1.00  0.00     0.000 C 
BRANCH   2   3
ATOM      3  C   UNL     1      -3.095   5.178  15.629  1.00  0.00     0.000 C 
BRANCH   3   4
ATOM      4  C   UNL     1      -1.773   4.391  15.497  1.00  0.00     0.000 C 
BRANCH   4   5
ATOM      5  C   UNL     1      -0.955   4.325  16.801  1.00  0.00     0.000 C 
BRANCH   5   6
ATOM      6  C   UNL     1      -0.450   5.681  17.326  1.00  0.00     0.000 C 
BRANCH   6   7
ATOM      7  C   UNL     1      -0.017   5.695  18.806  1.00  0.00     0.006 C 
BRANCH   7   8
ATOM      8  C   UNL     1       0.281   7.101  19.358  1.00  0.00     0.053 C 
BRANCH   8   9
ATOM      9  C   UNL     1       0.472   7.110  20.845  1.00  0.00     0.041 C 
ATOM     10  O   UNL     1      -0.502   6.890  21.612  1.00  0.00    -0.550 OA
ATOM     11  O   UNL     1       1.735   7.319  21.383  1.00  0.00    -0.550 OA
ENDBRANCH   8   9
ENDBRANCH   7   8
ENDBRANCH   6   7
ENDBRANCH   5   6
ENDBRANCH   4   5
ENDBRANCH   3   4
ENDBRANCH   2   3
ENDBRANCH   1   2
BRANCH   1  12
ATOM     12  C   UNL     1      -5.257   6.664  16.573  1.00  0.00     0.000 C 
BRANCH  12  13
ATOM     13  C   UNL     1      -6.528   7.371  16.071  1.00  0.00    -0.000 C 
BRANCH  13  14
ATOM     14  C   UNL     1      -7.746   6.435  16.032  1.00  0.00    -0.000 C 
BRANCH  14  15
ATOM     15  C   UNL     1      -8.673   6.724  14.841  1.00  0.00    -0.000 C 
BRANCH  15  16
ATOM     16  C   UNL     1      -8.905   5.461  14.005  1.00  0.00    -0.000 C 
BRANCH  16  17
ATOM     17  C   UNL     1      -7.575   4.784  13.651  1.00  0.00    -0.000 C 
BRANCH  17  18
ATOM     18  C   UNL     1      -7.196   5.047  12.185  1.00  0.00    -0.000 C 
BRANCH  18  19
ATOM     19  C   UNL     1      -6.380   6.336  12.009  1.00  0.00    -0.003 C 
ATOM     20  C   UNL     1      -5.082   6.330  12.817  1.00  0.00     0.004 C 
ENDBRANCH  18  19
ENDBRANCH  17  18
ENDBRANCH  16  17
ENDBRANCH  15  16
ENDBRANCH  14  15
ENDBRANCH  13  14
ENDBRANCH  12  13
ENDBRANCH   1  12
TORSDOF 16
ENDMDL
MODEL 6
REMARK VINA RESULT:    -4.782      4.803      8.590
REMARK INTER + INTRA:         -10.571
REMARK INTER:                  -7.795
REMARK INTRA:                  -2.775
REMARK UNBOUND:                -1.315
REMARK SMILES CCCCCCCCCCCCCCCCCC(=O)[O-]
REMARK SMILES IDX 10 1 11 2 12 3 13 4 14 5 15 6 16 7 17 8 18 9 19 10 20 11
REMARK SMILES IDX 9 12 8 13 7 14 6 15 5 16 4 17 3 18 2 19 1 20
REMARK H PARENT
REMARK Flexibility Score: inf
ROOT
ATOM      1  C   UNL     1      -5.475   8.058  15.641  1.00  0.00     0.000 C 
ENDROOT
BRANCH   1   2
ATOM      2  C   UNL     1      -6.309   8.153  16.931  1.00  0.00     0.000 C 
BRANCH   2   3
ATOM      3  C   UNL     1      -6.361   6.828  17.712  1.00  0.00     0.000 C 
BRANCH   3   4
ATOM      4  C   UNL     1      -5.171   5.901  17.384  1.00  0.00     0.000 C 
BRANCH   4   5
ATOM      5  C   UNL     1      -5.587   4.486  16.939  1.00  0.00     0.000 C 
BRANCH   5   6
ATOM      6  C   UNL     1      -4.503   3.691  16.191  1.00  0.00     0.000 C 
BRANCH   6   7
ATOM      7  C   UNL     1      -3.527   4.538  15.348  1.00  0.00     0.006 C 
BRANCH   7   8
ATOM      8  C   UNL     1      -2.120   3.926  15.216  1.00  0.00     0.053 C 
BRANCH   8   9
ATOM      9  C   UNL     1      -1.433   3.769  16.539  1.00  0.00     0.041 C 
ATOM     10  O   UNL     1      -1.288   2.626  17.049  1.00  0.00    -0.550 OA
ATOM     11  O   UNL     1      -0.915   4.880  17.191  1.00  0.00    -0.550 OA
ENDBRANCH   8   9
ENDBRANCH   7   8
ENDBRANCH   6   7
ENDBRANCH   5   6
ENDBRANCH   4   5
ENDBRANCH   3   4
ENDBRANCH   2   3
ENDBRANCH   1   2
BRANCH   1  12
ATOM     12  C   UNL     1      -6.272   8.261  14.338  1.00  0.00     0.000 C 
BRANCH  12  13
ATOM     13  C   UNL     1      -7.794   8.237  14.561  1.00  0.00    -0.000 C 
BRANCH  13  14
ATOM     14  C   UNL     1      -8.462   7.001  13.938  1.00  0.00    -0.000 C 
BRANCH  14  15
ATOM     15  C   UNL     1      -8.066   5.698  14.647  1.00  0.00    -0.000 C 
BRANCH  15  16
ATOM     16  C   UNL     1      -7.711   4.605  13.632  1.00  0.00    -0.000 C 
BRANCH  16  17
ATOM     17  C   UNL     1      -7.170   5.214  12.334  1.00  0.00    -0.000 C 
BRANCH  17  18
ATOM     18  C   UNL     1      -5.634   5.255  12.343  1.00  0.00    -0.000 C 
BRANCH  18  19
ATOM     19  C   UNL     1      -5.069   6.415  11.510  1.00  0.00    -0.003 C 
ATOM     20  C   UNL     1      -6.139   7.124  10.680  1.00  0.00     0.004 C 
ENDBRANCH  18  19
ENDBRANCH  17  18
ENDBRANCH  16  17
ENDBRANCH  15  16
ENDBRANCH  14  15
ENDBRANCH  13  14
ENDBRANCH  12  13
ENDBRANCH   1  12
TORSDOF 16
ENDMDL
MODEL 7
REMARK VINA RESULT:    -4.771      5.232      9.494
REMARK INTER + INTRA:         -10.548
REMARK INTER:                  -7.855
REMARK INTRA:                  -2.693
REMARK UNBOUND:                -1.315
REMARK SMILES CCCCCCCCCCCCCCCCCC(=O)[O-]
REMARK SMILES IDX 10 1 11 2 12 3 13 4 14 5 15 6 16 7 17 8 18 9 19 10 20 11
REMARK SMILES IDX 9 12 8 13 7 14 6 15 5 16 4 17 3 18 2 19 1 20
REMARK H PARENT
REMARK Flexibility Score: inf
ROOT
ATOM      1  C   UNL     1      -9.005   6.093  14.863  1.00  0.00     0.000 C 
ENDROOT
BRANCH   1   2
ATOM      2  C   UNL     1      -8.130   7.266  15.340  1.00  0.00     0.000 C 
BRANCH   2   3
ATOM      3  C   UNL     1      -7.296   6.925  16.589  1.00  0.00     0.000 C 
BRANCH   3   4
ATOM      4  C   UNL     1      -5.787   7.172  16.377  1.00  0.00     0.000 C 
BRANCH   4   5
ATOM      5  C   UNL     1      -4.890   6.039  16.912  1.00  0.00     0.000 C 
BRANCH   5   6
ATOM      6  C   UNL     1      -5.494   4.627  16.818  1.00  0.00     0.000 C 
BRANCH   6   7
ATOM      7  C   UNL     1      -4.638   3.594  16.057  1.00  0.00     0.006 C 
BRANCH   7   8
ATOM      8  C   UNL     1      -3.473   4.211  15.260  1.00  0.00     0.053 C 
BRANCH   8   9
ATOM      9  C   UNL     1      -2.131   3.807  15.792  1.00  0.00     0.041 C 
ATOM     10  O   UNL     1      -1.100   4.460  15.480  1.00  0.00    -0.550 OA
ATOM     11  O   UNL     1      -2.024   2.733  16.666  1.00  0.00    -0.550 OA
ENDBRANCH   8   9
ENDBRANCH   7   8
ENDBRANCH   6   7
ENDBRANCH   5   6
ENDBRANCH   4   5
ENDBRANCH   3   4
ENDBRANCH   2   3
ENDBRANCH   1   2
BRANCH   1  12
ATOM     12  C   UNL     1      -9.694   6.311  13.502  1.00  0.00     0.000 C 
BRANCH  12  13
ATOM     13  C   UNL     1      -9.530   7.746  12.973  1.00  0.00    -0.000 C 
BRANCH  13  14
ATOM     14  C   UNL     1      -8.722   7.803  11.667  1.00  0.00    -0.000 C 
BRANCH  14  15
ATOM     15  C   UNL     1      -9.389   7.018  10.528  1.00  0.00    -0.000 C 
BRANCH  15  16
ATOM     16  C   UNL     1      -8.414   6.006   9.913  1.00  0.00    -0.000 C 
BRANCH  16  17
ATOM     17  C   UNL     1      -7.068   6.023  10.648  1.00  0.00    -0.000 C 
BRANCH  17  18
ATOM     18  C   UNL     1      -6.898   4.766  11.514  1.00  0.00    -0.000 C 
BRANCH  18  19
ATOM     19  C   UNL     1      -6.152   5.049  12.826  1.00  0.00    -0.003 C 
ATOM     20  C   UNL     1      -5.406   6.384  12.807  1.00  0.00     0.004 C 
ENDBRANCH  18  19
ENDBRANCH  17  18
ENDBRANCH  16  17
ENDBRANCH  15  16
ENDBRANCH  14  15
ENDBRANCH  13  14
ENDBRANCH  12  13
ENDBRANCH   1  12
TORSDOF 16
ENDMDL
MODEL 8
REMARK VINA RESULT:    -4.691      5.203      8.477
REMARK INTER + INTRA:         -10.395
REMARK INTER:                  -7.377
REMARK INTRA:                  -3.017
REMARK UNBOUND:                -1.315
REMARK SMILES CCCCCCCCCCCCCCCCCC(=O)[O-]
REMARK SMILES IDX 10 1 11 2 12 3 13 4 14 5 15 6 16 7 17 8 18 9 19 10 20 11
REMARK SMILES IDX 9 12 8 13 7 14 6 15 5 16 4 17 3 18 2 19 1 20
REMARK H PARENT
REMARK Flexibility Score: inf
ROOT
ATOM      1  C   UNL     1      -7.585   8.010  11.641  1.00  0.00     0.000 C 
ENDROOT
BRANCH   1   2
ATOM      2  C   UNL     1      -6.092   8.036  12.013  1.00  0.00     0.000 C 
BRANCH   2   3
ATOM      3  C   UNL     1      -5.413   6.661  11.873  1.00  0.00     0.000 C 
BRANCH   3   4
ATOM      4  C   UNL     1      -6.409   5.492  12.028  1.00  0.00     0.000 C 
BRANCH   4   5
ATOM      5  C   UNL     1      -5.920   4.378  12.973  1.00  0.00     0.000 C 
BRANCH   5   6
ATOM      6  C   UNL     1      -4.822   4.799  13.966  1.00  0.00     0.000 C 
BRANCH   6   7
ATOM      7  C   UNL     1      -4.819   4.037  15.307  1.00  0.00     0.006 C 
BRANCH   7   8
ATOM      8  C   UNL     1      -3.739   4.514  16.296  1.00  0.00     0.053 C 
BRANCH   8   9
ATOM      9  C   UNL     1      -2.398   3.902  16.026  1.00  0.00     0.041 C 
ATOM     10  O   UNL     1      -2.103   2.777  16.509  1.00  0.00    -0.550 OA
ATOM     11  O   UNL     1      -1.487   4.557  15.207  1.00  0.00    -0.550 OA
ENDBRANCH   8   9
ENDBRANCH   7   8
ENDBRANCH   6   7
ENDBRANCH   5   6
ENDBRANCH   4   5
ENDBRANCH   3   4
ENDBRANCH   2   3
ENDBRANCH   1   2
BRANCH   1  12
ATOM     12  C   UNL     1      -8.469   8.988  12.436  1.00  0.00     0.000 C 
BRANCH  12  13
ATOM     13  C   UNL     1      -9.646   8.292  13.140  1.00  0.00    -0.000 C 
BRANCH  13  14
ATOM     14  C   UNL     1      -9.760   6.805  12.767  1.00  0.00    -0.000 C 
BRANCH  14  15
ATOM     15  C   UNL     1      -9.701   5.883  13.995  1.00  0.00    -0.000 C 
BRANCH  15  16
ATOM     16  C   UNL     1      -9.222   6.649  15.234  1.00  0.00    -0.000 C 
BRANCH  16  17
ATOM     17  C   UNL     1      -7.766   6.302  15.566  1.00  0.00    -0.000 C 
BRANCH  17  18
ATOM     18  C   UNL     1      -6.891   7.564  15.586  1.00  0.00    -0.000 C 
BRANCH  18  19
ATOM     19  C   UNL     1      -5.867   7.555  16.731  1.00  0.00    -0.003 C 
ATOM     20  C   UNL     1      -6.359   6.788  17.959  1.00  0.00     0.004 C 
ENDBRANCH  18  19
ENDBRANCH  17  18
ENDBRANCH  16  17
ENDBRANCH  15  16
ENDBRANCH  14  15
ENDBRANCH  13  14
ENDBRANCH  12  13
ENDBRANCH   1  12
TORSDOF 16
ENDMDL
MODEL 9
REMARK VINA RESULT:    -4.672      5.248      7.758
REMARK INTER + INTRA:         -10.358
REMARK INTER:                  -7.241
REMARK INTRA:                  -3.116
REMARK UNBOUND:                -1.315
REMARK SMILES CCCCCCCCCCCCCCCCCC(=O)[O-]
REMARK SMILES IDX 10 1 11 2 12 3 13 4 14 5 15 6 16 7 17 8 18 9 19 10 20 11
REMARK SMILES IDX 9 12 8 13 7 14 6 15 5 16 4 17 3 18 2 19 1 20
REMARK H PARENT
REMARK Flexibility Score: inf
ROOT
ATOM      1  C   UNL     1      -7.751   6.815  13.871  1.00  0.00     0.000 C 
ENDROOT
BRANCH   1   2
ATOM      2  C   UNL     1      -8.376   7.026  15.262  1.00  0.00     0.000 C 
BRANCH   2   3
ATOM      3  C   UNL     1      -7.476   6.527  16.407  1.00  0.00     0.000 C 
BRANCH   3   4
ATOM      4  C   UNL     1      -6.092   7.211  16.411  1.00  0.00     0.000 C 
BRANCH   4   5
ATOM      5  C   UNL     1      -4.915   6.233  16.596  1.00  0.00     0.000 C 
BRANCH   5   6
ATOM      6  C   UNL     1      -5.315   4.779  16.902  1.00  0.00     0.000 C 
BRANCH   6   7
ATOM      7  C   UNL     1      -4.682   3.714  15.983  1.00  0.00     0.006 C 
BRANCH   7   8
ATOM      8  C   UNL     1      -3.469   4.221  15.182  1.00  0.00     0.053 C 
BRANCH   8   9
ATOM      9  C   UNL     1      -2.162   3.813  15.793  1.00  0.00     0.041 C 
ATOM     10  O   UNL     1      -1.117   4.479  15.565  1.00  0.00    -0.550 OA
ATOM     11  O   UNL     1      -2.105   2.721  16.649  1.00  0.00    -0.550 OA
ENDBRANCH   8   9
ENDBRANCH   7   8
ENDBRANCH   6   7
ENDBRANCH   5   6
ENDBRANCH   4   5
ENDBRANCH   3   4
ENDBRANCH   2   3
ENDBRANCH   1   2
BRANCH   1  12
ATOM     12  C   UNL     1      -7.351   5.363  13.554  1.00  0.00     0.000 C 
BRANCH  12  13
ATOM     13  C   UNL     1      -6.003   5.262  12.819  1.00  0.00    -0.000 C 
BRANCH  13  14
ATOM     14  C   UNL     1      -5.899   6.245  11.643  1.00  0.00    -0.000 C 
BRANCH  14  15
ATOM     15  C   UNL     1      -4.648   7.134  11.726  1.00  0.00    -0.000 C 
BRANCH  15  16
ATOM     16  C   UNL     1      -4.194   7.309  13.180  1.00  0.00    -0.000 C 
BRANCH  16  17
ATOM     17  C   UNL     1      -4.067   8.793  13.542  1.00  0.00    -0.000 C 
BRANCH  17  18
ATOM     18  C   UNL     1      -5.375   9.544  13.252  1.00  0.00    -0.000 C 
BRANCH  18  19
ATOM     19  C   UNL     1      -5.886  10.332  14.467  1.00  0.00    -0.003 C 
ATOM     20  C   UNL     1      -4.805  10.554  15.526  1.00  0.00     0.004 C 
ENDBRANCH  18  19
ENDBRANCH  17  18
ENDBRANCH  16  17
ENDBRANCH  15  16
ENDBRANCH  14  15
ENDBRANCH  13  14
ENDBRANCH  12  13
ENDBRANCH   1  12
TORSDOF 16
ENDMDL
