MODEL 1
REMARK VINA RESULT:    -2.472      0.000      0.000
REMARK INTER + INTRA:          -2.472
REMARK INTER:                  -2.472
REMARK INTRA:                   0.000
REMARK UNBOUND:                 0.000
REMARK SMILES CC(=O)[O-]
REMARK SMILES IDX 1 1 2 2 3 3 4 4
REMARK H PARENT
REMARK Flexibility Score: inf
ROOT
ATOM      1  C   UNL     1       5.017  -6.464  -6.282  1.00  0.00     0.063 C 
ATOM      2  C   UNL     1       5.364  -5.019  -6.394  1.00  0.00     0.038 C 
ATOM      3  O   UNL     1       6.051  -4.463  -5.498  1.00  0.00    -0.550 OA
ATOM      4  O   UNL     1       4.887  -4.268  -7.460  1.00  0.00    -0.550 OA
ENDROOT
TORSDOF 0
ENDMDL
MODEL 2
REMARK VINA RESULT:    -2.430     19.493     19.658
REMARK INTER + INTRA:          -2.430
REMARK INTER:                  -2.430
REMARK INTRA:                   0.000
REMARK UNBOUND:                 0.000
REMARK SMILES CC(=O)[O-]
REMARK SMILES IDX 1 1 2 2 3 3 4 4
REMARK H PARENT
REMARK Flexibility Score: inf
ROOT
ATOM      1  C   UNL     1      -9.639  -3.398   7.704  1.00  0.00     0.063 C 
ATOM      2  C   UNL     1      -8.813  -2.493   6.855  1.00  0.00     0.038 C 
ATOM      3  O   UNL     1      -8.925  -2.528   5.602  1.00  0.00    -0.550 OA
ATOM      4  O   UNL     1      -7.879  -1.648   7.440  1.00  0.00    -0.550 OA
ENDROOT
TORSDOF 0
ENDMDL
MODEL 3
REMARK VINA RESULT:    -2.393     19.601     19.704
REMARK INTER + INTRA:          -2.393
REMARK INTER:                  -2.393
REMARK INTRA:                   0.000
REMARK UNBOUND:                 0.000
REMARK SMILES CC(=O)[O-]
REMARK SMILES IDX 1 1 2 2 3 3 4 4
REMARK H PARENT
REMARK Flexibility Score: inf
ROOT
ATOM      1  C   UNL     1      -9.757  -3.065   7.911  1.00  0.00     0.063 C 
ATOM      2  C   UNL     1      -8.797  -2.389   6.991  1.00  0.00     0.038 C 
ATOM      3  O   UNL     1      -7.896  -1.644   7.457  1.00  0.00    -0.550 OA
ATOM      4  O   UNL     1      -8.927  -2.537   5.617  1.00  0.00    -0.550 OA
ENDROOT
TORSDOF 0
ENDMDL
MODEL 4
REMARK VINA RESULT:    -2.325      9.044      9.537
REMARK INTER + INTRA:          -2.325
REMARK INTER:                  -2.325
REMARK INTRA:                   0.000
REMARK UNBOUND:                 0.000
REMARK SMILES CC(=O)[O-]
REMARK SMILES IDX 1 1 2 2 3 3 4 4
REMARK H PARENT
REMARK Flexibility Score: inf
ROOT
ATOM      1  C   UNL     1       4.286  -6.974   2.818  1.00  0.00     0.063 C 
ATOM      2  C   UNL     1       3.499  -8.114   2.265  1.00  0.00     0.038 C 
ATOM      3  O   UNL     1       2.681  -8.729   2.998  1.00  0.00    -0.550 OA
ATOM      4  O   UNL     1       3.705  -8.535   0.958  1.00  0.00    -0.550 OA
ENDROOT
TORSDOF 0
ENDMDL
MODEL 5
REMARK VINA RESULT:    -2.323      1.564      1.838
REMARK INTER + INTRA:          -2.323
REMARK INTER:                  -2.323
REMARK INTRA:                   0.000
REMARK UNBOUND:                 0.000
REMARK SMILES CC(=O)[O-]
REMARK SMILES IDX 1 1 2 2 3 3 4 4
REMARK H PARENT
REMARK Flexibility Score: inf
ROOT
ATOM      1  C   UNL     1       5.230  -6.571  -7.320  1.00  0.00     0.063 C 
ATOM      2  C   UNL     1       4.993  -5.994  -5.965  1.00  0.00     0.038 C 
ATOM      3  O   UNL     1       4.461  -6.695  -5.066  1.00  0.00    -0.550 OA
ATOM      4  O   UNL     1       5.310  -4.667  -5.708  1.00  0.00    -0.550 OA
ENDROOT
TORSDOF 0
ENDMDL
MODEL 6
REMARK VINA RESULT:    -2.172      9.096      9.585
REMARK INTER + INTRA:          -2.172
REMARK INTER:                  -2.172
REMARK INTRA:                   0.000
REMARK UNBOUND:                 0.000
REMARK SMILES CC(=O)[O-]
REMARK SMILES IDX 1 1 2 2 3 3 4 4
REMARK H PARENT
REMARK Flexibility Score: inf
ROOT
ATOM      1  C   UNL     1       3.069  -8.913   3.529  1.00  0.00     0.063 C 
ATOM      2  C   UNL     1       3.588  -8.004   2.467  1.00  0.00     0.038 C 
ATOM      3  O   UNL     1       4.035  -6.868   2.772  1.00  0.00    -0.550 OA
ATOM      4  O   UNL     1       3.530  -8.386   1.133  1.00  0.00    -0.550 OA
ENDROOT
TORSDOF 0
ENDMDL
MODEL 7
REMARK VINA RESULT:    -2.159      8.368      8.934
REMARK INTER + INTRA:          -2.159
REMARK INTER:                  -2.159
REMARK INTRA:                   0.000
REMARK UNBOUND:                 0.000
REMARK SMILES CC(=O)[O-]
REMARK SMILES IDX 1 1 2 2 3 3 4 4
REMARK H PARENT
REMARK Flexibility Score: inf
ROOT
ATOM      1  C   UNL     1       3.036  -8.450   2.540  1.00  0.00     0.063 C 
ATOM      2  C   UNL     1       4.180  -8.192   1.620  1.00  0.00     0.038 C 
ATOM      3  O   UNL     1       4.155  -8.634   0.441  1.00  0.00    -0.550 OA
ATOM      4  O   UNL     1       5.301  -7.510   2.075  1.00  0.00    -0.550 OA
ENDROOT
TORSDOF 0
ENDMDL
MODEL 8
REMARK VINA RESULT:    -2.133     11.953     12.441
REMARK INTER + INTRA:          -2.133
REMARK INTER:                  -2.133
REMARK INTRA:                   0.000
REMARK UNBOUND:                 0.000
REMARK SMILES CC(=O)[O-]
REMARK SMILES IDX 1 1 2 2 3 3 4 4
REMARK H PARENT
REMARK Flexibility Score: inf
ROOT
ATOM      1  C   UNL     1      -5.526  -6.108  -7.540  1.00  0.00     0.063 C 
ATOM      2  C   UNL     1      -6.756  -6.938  -7.694  1.00  0.00     0.038 C 
ATOM      3  O   UNL     1      -7.850  -6.394  -7.996  1.00  0.00    -0.550 OA
ATOM      4  O   UNL     1      -6.709  -8.305  -7.453  1.00  0.00    -0.550 OA
ENDROOT
TORSDOF 0
ENDMDL
MODEL 9
REMARK VINA RESULT:    -2.129      9.270      9.810
REMARK INTER + INTRA:          -2.129
REMARK INTER:                  -2.129
REMARK INTRA:                   0.000
REMARK UNBOUND:                 0.000
REMARK SMILES CC(=O)[O-]
REMARK SMILES IDX 1 1 2 2 3 3 4 4
REMARK H PARENT
REMARK Flexibility Score: inf
ROOT
ATOM      1  C   UNL     1       3.632  -8.223   2.065  1.00  0.00     0.063 C 
ATOM      2  C   UNL     1       4.173  -7.257   3.064  1.00  0.00     0.038 C 
ATOM      3  O   UNL     1       4.632  -7.674   4.159  1.00  0.00    -0.550 OA
ATOM      4  O   UNL     1       4.122  -5.892   2.813  1.00  0.00    -0.550 OA
ENDROOT
TORSDOF 0
ENDMDL
