MODEL 1
REMARK VINA RESULT:    -4.445      0.000      0.000
REMARK INTER + INTRA:          -9.695
REMARK INTER:                  -8.082
REMARK INTRA:                  -1.613
REMARK UNBOUND:                -1.613
REMARK SMILES CCCCCCCCCCCCCCCC(=O)[O-]
REMARK SMILES IDX 9 1 10 2 11 3 12 4 13 5 14 6 15 7 16 8 17 9 18 10 8 11 7 12
REMARK SMILES IDX 6 13 5 14 4 15 3 16 2 17 1 18
REMARK H PARENT
REMARK Flexibility Score: inf
ROOT
ATOM      1  C   UNL     1      29.479  26.696 -13.374  1.00  0.00     0.000 C 
ENDROOT
BRANCH   1   2
ATOM      2  C   UNL     1      28.127  25.964 -13.322  1.00  0.00     0.000 C 
BRANCH   2   3
ATOM      3  C   UNL     1      27.408  25.954 -14.681  1.00  0.00     0.000 C 
BRANCH   3   4
ATOM      4  C   UNL     1      26.905  24.553 -15.070  1.00  0.00     0.000 C 
BRANCH   4   5
ATOM      5  C   UNL     1      27.919  23.780 -15.931  1.00  0.00     0.000 C 
BRANCH   5   6
ATOM      6  C   UNL     1      28.164  24.441 -17.295  1.00  0.00     0.006 C 
BRANCH   6   7
ATOM      7  C   UNL     1      27.648  23.555 -18.433  1.00  0.00     0.053 C 
BRANCH   7   8
ATOM      8  C   UNL     1      26.684  24.312 -19.291  1.00  0.00     0.041 C 
ATOM      9  O   UNL     1      26.860  24.376 -20.537  1.00  0.00    -0.550 OA
ATOM     10  O   UNL     1      25.565  24.904 -18.722  1.00  0.00    -0.550 OA
ENDBRANCH   7   8
ENDBRANCH   6   7
ENDBRANCH   5   6
ENDBRANCH   4   5
ENDBRANCH   3   4
ENDBRANCH   2   3
ENDBRANCH   1   2
BRANCH   1  11
ATOM     11  C   UNL     1      30.421  26.131 -14.453  1.00  0.00     0.000 C 
BRANCH  11  12
ATOM     12  C   UNL     1      30.940  27.168 -15.465  1.00  0.00    -0.000 C 
BRANCH  12  13
ATOM     13  C   UNL     1      30.064  27.265 -16.726  1.00  0.00    -0.000 C 
BRANCH  13  14
ATOM     14  C   UNL     1      29.352  28.629 -16.840  1.00  0.00    -0.000 C 
BRANCH  14  15
ATOM     15  C   UNL     1      27.863  28.515 -17.207  1.00  0.00    -0.000 C 
BRANCH  15  16
ATOM     16  C   UNL     1      27.233  29.868 -17.575  1.00  0.00    -0.000 C 
BRANCH  16  17
ATOM     17  C   UNL     1      26.602  29.863 -18.976  1.00  0.00    -0.003 C 
ATOM     18  C   UNL     1      27.241  30.886 -19.915  1.00  0.00     0.004 C 
ENDBRANCH  16  17
ENDBRANCH  15  16
ENDBRANCH  14  15
ENDBRANCH  13  14
ENDBRANCH  12  13
ENDBRANCH  11  12
ENDBRANCH   1  11
TORSDOF 14
ENDMDL
MODEL 2
REMARK VINA RESULT:    -4.046      2.439      5.711
REMARK INTER + INTRA:          -8.970
REMARK INTER:                  -7.249
REMARK INTRA:                  -1.721
REMARK UNBOUND:                -1.613
REMARK SMILES CCCCCCCCCCCCCCCC(=O)[O-]
REMARK SMILES IDX 9 1 10 2 11 3 12 4 13 5 14 6 15 7 16 8 17 9 18 10 8 11 7 12
REMARK SMILES IDX 6 13 5 14 4 15 3 16 2 17 1 18
REMARK H PARENT
REMARK Flexibility Score: inf
ROOT
ATOM      1  C   UNL     1      29.907  24.118 -17.211  1.00  0.00     0.000 C 
ENDROOT
BRANCH   1   2
ATOM      2  C   UNL     1      30.037  25.618 -17.529  1.00  0.00     0.000 C 
BRANCH   2   3
ATOM      3  C   UNL     1      30.198  26.478 -16.265  1.00  0.00     0.000 C 
BRANCH   3   4
ATOM      4  C   UNL     1      29.896  27.964 -16.522  1.00  0.00     0.000 C 
BRANCH   4   5
ATOM      5  C   UNL     1      28.409  28.221 -16.818  1.00  0.00     0.000 C 
BRANCH   5   6
ATOM      6  C   UNL     1      28.166  29.564 -17.522  1.00  0.00     0.006 C 
BRANCH   6   7
ATOM      7  C   UNL     1      26.802  29.579 -18.217  1.00  0.00     0.053 C 
BRANCH   7   8
ATOM      8  C   UNL     1      26.706  30.737 -19.160  1.00  0.00     0.041 C 
ATOM      9  O   UNL     1      25.895  31.674 -18.933  1.00  0.00    -0.550 OA
ATOM     10  O   UNL     1      27.550  30.808 -20.261  1.00  0.00    -0.550 OA
ENDBRANCH   7   8
ENDBRANCH   6   7
ENDBRANCH   5   6
ENDBRANCH   4   5
ENDBRANCH   3   4
ENDBRANCH   2   3
ENDBRANCH   1   2
BRANCH   1  11
ATOM     11  C   UNL     1      28.443  23.644 -17.166  1.00  0.00     0.000 C 
BRANCH  11  12
ATOM     12  C   UNL     1      27.411  24.686 -17.634  1.00  0.00    -0.000 C 
BRANCH  12  13
ATOM     13  C   UNL     1      26.425  25.094 -16.525  1.00  0.00    -0.000 C 
BRANCH  13  14
ATOM     14  C   UNL     1      26.669  24.320 -15.213  1.00  0.00    -0.000 C 
BRANCH  14  15
ATOM     15  C   UNL     1      26.162  25.057 -13.962  1.00  0.00    -0.000 C 
BRANCH  15  16
ATOM     16  C   UNL     1      27.233  25.182 -12.866  1.00  0.00    -0.000 C 
BRANCH  16  17
ATOM     17  C   UNL     1      28.249  26.295 -13.160  1.00  0.00    -0.003 C 
ATOM     18  C   UNL     1      29.680  25.900 -12.797  1.00  0.00     0.004 C 
ENDBRANCH  16  17
ENDBRANCH  15  16
ENDBRANCH  14  15
ENDBRANCH  13  14
ENDBRANCH  12  13
ENDBRANCH  11  12
ENDBRANCH   1  11
TORSDOF 14
ENDMDL
MODEL 3
REMARK VINA RESULT:    -4.014      2.035      4.681
REMARK INTER + INTRA:          -8.912
REMARK INTER:                  -6.688
REMARK INTRA:                  -2.224
REMARK UNBOUND:                -1.613
REMARK SMILES CCCCCCCCCCCCCCCC(=O)[O-]
REMARK SMILES IDX 9 1 10 2 11 3 12 4 13 5 14 6 15 7 16 8 17 9 18 10 8 11 7 12
REMARK SMILES IDX 6 13 5 14 4 15 3 16 2 17 1 18
REMARK H PARENT
REMARK Flexibility Score: inf
ROOT
ATOM      1  C   UNL     1      30.735  25.941 -14.462  1.00  0.00     0.000 C 
ENDROOT
BRANCH   1   2
ATOM      2  C   UNL     1      30.974  27.126 -15.414  1.00  0.00     0.000 C 
BRANCH   2   3
ATOM      3  C   UNL     1      29.755  27.424 -16.303  1.00  0.00     0.000 C 
BRANCH   3   4
ATOM      4  C   UNL     1      28.970  26.153 -16.670  1.00  0.00     0.000 C 
BRANCH   4   5
ATOM      5  C   UNL     1      27.528  26.457 -17.109  1.00  0.00     0.000 C 
BRANCH   5   6
ATOM      6  C   UNL     1      26.725  25.187 -17.429  1.00  0.00     0.006 C 
BRANCH   6   7
ATOM      7  C   UNL     1      27.431  24.348 -18.497  1.00  0.00     0.053 C 
BRANCH   7   8
ATOM      8  C   UNL     1      26.689  24.416 -19.794  1.00  0.00     0.041 C 
ATOM      9  O   UNL     1      25.716  25.206 -19.928  1.00  0.00    -0.550 OA
ATOM     10  O   UNL     1      27.101  23.644 -20.872  1.00  0.00    -0.550 OA
ENDBRANCH   7   8
ENDBRANCH   6   7
ENDBRANCH   5   6
ENDBRANCH   4   5
ENDBRANCH   3   4
ENDBRANCH   2   3
ENDBRANCH   1   2
BRANCH   1  11
ATOM     11  C   UNL     1      30.459  26.387 -13.015  1.00  0.00     0.000 C 
BRANCH  11  12
ATOM     12  C   UNL     1      28.990  26.739 -12.717  1.00  0.00    -0.000 C 
BRANCH  12  13
ATOM     13  C   UNL     1      28.095  25.496 -12.565  1.00  0.00    -0.000 C 
BRANCH  13  14
ATOM     14  C   UNL     1      26.989  25.438 -13.639  1.00  0.00    -0.000 C 
BRANCH  14  15
ATOM     15  C   UNL     1      26.569  24.006 -14.011  1.00  0.00    -0.000 C 
BRANCH  15  16
ATOM     16  C   UNL     1      27.511  22.937 -13.433  1.00  0.00    -0.000 C 
BRANCH  16  17
ATOM     17  C   UNL     1      28.112  22.033 -14.518  1.00  0.00    -0.003 C 
ATOM     18  C   UNL     1      29.093  22.773 -15.427  1.00  0.00     0.004 C 
ENDBRANCH  16  17
ENDBRANCH  15  16
ENDBRANCH  14  15
ENDBRANCH  13  14
ENDBRANCH  12  13
ENDBRANCH  11  12
ENDBRANCH   1  11
TORSDOF 14
ENDMDL
MODEL 4
REMARK VINA RESULT:    -3.954      2.866      5.190
REMARK INTER + INTRA:          -8.804
REMARK INTER:                  -6.462
REMARK INTRA:                  -2.342
REMARK UNBOUND:                -1.613
REMARK SMILES CCCCCCCCCCCCCCCC(=O)[O-]
REMARK SMILES IDX 9 1 10 2 11 3 12 4 13 5 14 6 15 7 16 8 17 9 18 10 8 11 7 12
REMARK SMILES IDX 6 13 5 14 4 15 3 16 2 17 1 18
REMARK H PARENT
REMARK Flexibility Score: inf
ROOT
ATOM      1  C   UNL     1      30.457  26.721 -17.132  1.00  0.00     0.000 C 
ENDROOT
BRANCH   1   2
ATOM      2  C   UNL     1      31.171  25.934 -16.019  1.00  0.00     0.000 C 
BRANCH   2   3
ATOM      3  C   UNL     1      31.250  26.718 -14.699  1.00  0.00     0.000 C 
BRANCH   3   4
ATOM      4  C   UNL     1      30.667  25.932 -13.513  1.00  0.00     0.000 C 
BRANCH   4   5
ATOM      5  C   UNL     1      29.657  26.757 -12.698  1.00  0.00     0.000 C 
BRANCH   5   6
ATOM      6  C   UNL     1      28.494  25.909 -12.160  1.00  0.00     0.006 C 
BRANCH   6   7
ATOM      7  C   UNL     1      28.682  24.433 -12.519  1.00  0.00     0.053 C 
BRANCH   7   8
ATOM      8  C   UNL     1      27.374  23.816 -12.904  1.00  0.00     0.041 C 
ATOM      9  O   UNL     1      26.307  24.478 -12.803  1.00  0.00    -0.550 OA
ATOM     10  O   UNL     1      27.340  22.528 -13.422  1.00  0.00    -0.550 OA
ENDBRANCH   7   8
ENDBRANCH   6   7
ENDBRANCH   5   6
ENDBRANCH   4   5
ENDBRANCH   3   4
ENDBRANCH   2   3
ENDBRANCH   1   2
BRANCH   1  11
ATOM     11  C   UNL     1      29.510  27.804 -16.583  1.00  0.00     0.000 C 
BRANCH  11  12
ATOM     12  C   UNL     1      28.011  27.481 -16.721  1.00  0.00    -0.000 C 
BRANCH  12  13
ATOM     13  C   UNL     1      27.530  26.423 -15.713  1.00  0.00    -0.000 C 
BRANCH  13  14
ATOM     14  C   UNL     1      27.139  25.097 -16.399  1.00  0.00    -0.000 C 
BRANCH  14  15
ATOM     15  C   UNL     1      26.656  25.275 -17.848  1.00  0.00    -0.000 C 
BRANCH  15  16
ATOM     16  C   UNL     1      27.191  24.187 -18.794  1.00  0.00    -0.000 C 
BRANCH  16  17
ATOM     17  C   UNL     1      28.493  23.552 -18.285  1.00  0.00    -0.003 C 
ATOM     18  C   UNL     1      29.621  23.612 -19.314  1.00  0.00     0.004 C 
ENDBRANCH  16  17
ENDBRANCH  15  16
ENDBRANCH  14  15
ENDBRANCH  13  14
ENDBRANCH  12  13
ENDBRANCH  11  12
ENDBRANCH   1  11
TORSDOF 14
ENDMDL
MODEL 5
REMARK VINA RESULT:    -3.948      3.038      6.029
REMARK INTER + INTRA:          -8.791
REMARK INTER:                  -6.832
REMARK INTRA:                  -1.959
REMARK UNBOUND:                -1.613
REMARK SMILES CCCCCCCCCCCCCCCC(=O)[O-]
REMARK SMILES IDX 9 1 10 2 11 3 12 4 13 5 14 6 15 7 16 8 17 9 18 10 8 11 7 12
REMARK SMILES IDX 6 13 5 14 4 15 3 16 2 17 1 18
REMARK H PARENT
REMARK Flexibility Score: inf
ROOT
ATOM      1  C   UNL     1      27.677  26.358 -15.969  1.00  0.00     0.000 C 
ENDROOT
BRANCH   1   2
ATOM      2  C   UNL     1      27.942  27.642 -16.774  1.00  0.00     0.000 C 
BRANCH   2   3
ATOM      3  C   UNL     1      29.425  28.048 -16.769  1.00  0.00     0.000 C 
BRANCH   3   4
ATOM      4  C   UNL     1      30.366  26.834 -16.684  1.00  0.00     0.000 C 
BRANCH   4   5
ATOM      5  C   UNL     1      31.258  26.865 -15.433  1.00  0.00     0.000 C 
BRANCH   5   6
ATOM      6  C   UNL     1      31.136  25.591 -14.584  1.00  0.00     0.006 C 
BRANCH   6   7
ATOM      7  C   UNL     1      30.991  25.935 -13.099  1.00  0.00     0.053 C 
BRANCH   7   8
ATOM      8  C   UNL     1      29.546  26.015 -12.718  1.00  0.00     0.041 C 
ATOM      9  O   UNL     1      29.060  27.099 -12.300  1.00  0.00    -0.550 OA
ATOM     10  O   UNL     1      28.725  24.906 -12.873  1.00  0.00    -0.550 OA
ENDBRANCH   7   8
ENDBRANCH   6   7
ENDBRANCH   5   6
ENDBRANCH   4   5
ENDBRANCH   3   4
ENDBRANCH   2   3
ENDBRANCH   1   2
BRANCH   1  11
ATOM     11  C   UNL     1      26.828  25.334 -16.744  1.00  0.00     0.000 C 
BRANCH  11  12
ATOM     12  C   UNL     1      26.551  25.705 -18.213  1.00  0.00    -0.000 C 
BRANCH  12  13
ATOM     13  C   UNL     1      26.124  24.497 -19.065  1.00  0.00    -0.000 C 
BRANCH  13  14
ATOM     14  C   UNL     1      27.152  24.167 -20.168  1.00  0.00    -0.000 C 
BRANCH  14  15
ATOM     15  C   UNL     1      28.219  23.150 -19.727  1.00  0.00    -0.000 C 
BRANCH  15  16
ATOM     16  C   UNL     1      29.400  23.805 -18.992  1.00  0.00    -0.000 C 
BRANCH  16  17
ATOM     17  C   UNL     1      29.817  23.026 -17.736  1.00  0.00    -0.003 C 
ATOM     18  C   UNL     1      28.667  22.222 -17.130  1.00  0.00     0.004 C 
ENDBRANCH  16  17
ENDBRANCH  15  16
ENDBRANCH  14  15
ENDBRANCH  13  14
ENDBRANCH  12  13
ENDBRANCH  11  12
ENDBRANCH   1  11
TORSDOF 14
ENDMDL
MODEL 6
REMARK VINA RESULT:    -3.854      2.199      4.669
REMARK INTER + INTRA:          -8.622
REMARK INTER:                  -6.800
REMARK INTRA:                  -1.822
REMARK UNBOUND:                -1.613
REMARK SMILES CCCCCCCCCCCCCCCC(=O)[O-]
REMARK SMILES IDX 9 1 10 2 11 3 12 4 13 5 14 6 15 7 16 8 17 9 18 10 8 11 7 12
REMARK SMILES IDX 6 13 5 14 4 15 3 16 2 17 1 18
REMARK H PARENT
REMARK Flexibility Score: inf
ROOT
ATOM      1  C   UNL     1      27.997  24.390 -13.280  1.00  0.00     0.000 C 
ENDROOT
BRANCH   1   2
ATOM      2  C   UNL     1      28.289  25.652 -12.451  1.00  0.00     0.000 C 
BRANCH   2   3
ATOM      3  C   UNL     1      28.981  26.752 -13.273  1.00  0.00     0.000 C 
BRANCH   3   4
ATOM      4  C   UNL     1      30.047  26.189 -14.228  1.00  0.00     0.000 C 
BRANCH   4   5
ATOM      5  C   UNL     1      30.355  27.141 -15.395  1.00  0.00     0.000 C 
BRANCH   5   6
ATOM      6  C   UNL     1      29.497  26.856 -16.637  1.00  0.00     0.006 C 
BRANCH   6   7
ATOM      7  C   UNL     1      28.130  27.536 -16.527  1.00  0.00     0.053 C 
BRANCH   7   8
ATOM      8  C   UNL     1      28.129  28.834 -17.273  1.00  0.00     0.041 C 
ATOM      9  O   UNL     1      29.216  29.400 -17.563  1.00  0.00    -0.550 OA
ATOM     10  O   UNL     1      26.928  29.392 -17.692  1.00  0.00    -0.550 OA
ENDBRANCH   7   8
ENDBRANCH   6   7
ENDBRANCH   5   6
ENDBRANCH   4   5
ENDBRANCH   3   4
ENDBRANCH   2   3
ENDBRANCH   1   2
BRANCH   1  11
ATOM     11  C   UNL     1      26.802  24.568 -14.234  1.00  0.00     0.000 C 
BRANCH  11  12
ATOM     12  C   UNL     1      27.052  24.092 -15.677  1.00  0.00    -0.000 C 
BRANCH  12  13
ATOM     13  C   UNL     1      28.378  23.328 -15.835  1.00  0.00    -0.000 C 
BRANCH  13  14
ATOM     14  C   UNL     1      28.972  23.476 -17.252  1.00  0.00    -0.000 C 
BRANCH  14  15
ATOM     15  C   UNL     1      27.996  23.078 -18.372  1.00  0.00    -0.000 C 
BRANCH  15  16
ATOM     16  C   UNL     1      28.309  23.767 -19.710  1.00  0.00    -0.000 C 
BRANCH  16  17
ATOM     17  C   UNL     1      27.040  24.176 -20.472  1.00  0.00    -0.003 C 
ATOM     18  C   UNL     1      26.073  24.992 -19.616  1.00  0.00     0.004 C 
ENDBRANCH  16  17
ENDBRANCH  15  16
ENDBRANCH  14  15
ENDBRANCH  13  14
ENDBRANCH  12  13
ENDBRANCH  11  12
ENDBRANCH   1  11
TORSDOF 14
ENDMDL
MODEL 7
REMARK VINA RESULT:    -3.828      2.380      4.781
REMARK INTER + INTRA:          -8.574
REMARK INTER:                  -6.273
REMARK INTRA:                  -2.301
REMARK UNBOUND:                -1.613
REMARK SMILES CCCCCCCCCCCCCCCC(=O)[O-]
REMARK SMILES IDX 9 1 10 2 11 3 12 4 13 5 14 6 15 7 16 8 17 9 18 10 8 11 7 12
REMARK SMILES IDX 6 13 5 14 4 15 3 16 2 17 1 18
REMARK H PARENT
REMARK Flexibility Score: inf
ROOT
ATOM      1  C   UNL     1      30.955  25.735 -14.663  1.00  0.00     0.000 C 
ENDROOT
BRANCH   1   2
ATOM      2  C   UNL     1      31.538  25.877 -16.080  1.00  0.00     0.000 C 
BRANCH   2   3
ATOM      3  C   UNL     1      30.589  26.615 -17.038  1.00  0.00     0.000 C 
BRANCH   3   4
ATOM      4  C   UNL     1      29.793  27.729 -16.336  1.00  0.00     0.000 C 
BRANCH   4   5
ATOM      5  C   UNL     1      28.307  27.730 -16.729  1.00  0.00     0.000 C 
BRANCH   5   6
ATOM      6  C   UNL     1      27.577  26.448 -16.302  1.00  0.00     0.006 C 
BRANCH   6   7
ATOM      7  C   UNL     1      27.423  26.388 -14.780  1.00  0.00     0.053 C 
BRANCH   7   8
ATOM      8  C   UNL     1      26.497  25.280 -14.389  1.00  0.00     0.041 C 
ATOM      9  O   UNL     1      25.740  24.754 -15.248  1.00  0.00    -0.550 OA
ATOM     10  O   UNL     1      26.506  24.793 -13.089  1.00  0.00    -0.550 OA
ENDBRANCH   7   8
ENDBRANCH   6   7
ENDBRANCH   5   6
ENDBRANCH   4   5
ENDBRANCH   3   4
ENDBRANCH   2   3
ENDBRANCH   1   2
BRANCH   1  11
ATOM     11  C   UNL     1      30.482  24.303 -14.354  1.00  0.00     0.000 C 
BRANCH  11  12
ATOM     12  C   UNL     1      30.357  23.385 -15.585  1.00  0.00    -0.000 C 
BRANCH  12  13
ATOM     13  C   UNL     1      28.896  23.086 -15.963  1.00  0.00    -0.000 C 
BRANCH  13  14
ATOM     14  C   UNL     1      28.786  22.261 -17.262  1.00  0.00    -0.000 C 
BRANCH  14  15
ATOM     15  C   UNL     1      29.342  22.985 -18.499  1.00  0.00    -0.000 C 
BRANCH  15  16
ATOM     16  C   UNL     1      28.500  24.204 -18.907  1.00  0.00    -0.000 C 
BRANCH  16  17
ATOM     17  C   UNL     1      27.062  23.825 -19.293  1.00  0.00    -0.003 C 
ATOM     18  C   UNL     1      26.115  25.024 -19.293  1.00  0.00     0.004 C 
ENDBRANCH  16  17
ENDBRANCH  15  16
ENDBRANCH  14  15
ENDBRANCH  13  14
ENDBRANCH  12  13
ENDBRANCH  11  12
ENDBRANCH   1  11
TORSDOF 14
ENDMDL
MODEL 8
REMARK VINA RESULT:    -3.826      1.886      4.644
REMARK INTER + INTRA:          -8.571
REMARK INTER:                  -6.748
REMARK INTRA:                  -1.823
REMARK UNBOUND:                -1.613
REMARK SMILES CCCCCCCCCCCCCCCC(=O)[O-]
REMARK SMILES IDX 9 1 10 2 11 3 12 4 13 5 14 6 15 7 16 8 17 9 18 10 8 11 7 12
REMARK SMILES IDX 6 13 5 14 4 15 3 16 2 17 1 18
REMARK H PARENT
REMARK Flexibility Score: inf
ROOT
ATOM      1  C   UNL     1      31.136  26.512 -15.888  1.00  0.00     0.000 C 
ENDROOT
BRANCH   1   2
ATOM      2  C   UNL     1      30.225  27.015 -17.021  1.00  0.00     0.000 C 
BRANCH   2   3
ATOM      3  C   UNL     1      29.047  27.856 -16.503  1.00  0.00     0.000 C 
BRANCH   3   4
ATOM      4  C   UNL     1      27.689  27.339 -17.007  1.00  0.00     0.000 C 
BRANCH   4   5
ATOM      5  C   UNL     1      27.367  25.926 -16.493  1.00  0.00     0.000 C 
BRANCH   5   6
ATOM      6  C   UNL     1      26.476  25.131 -17.458  1.00  0.00     0.006 C 
BRANCH   6   7
ATOM      7  C   UNL     1      27.321  24.384 -18.494  1.00  0.00     0.053 C 
BRANCH   7   8
ATOM      8  C   UNL     1      26.665  24.429 -19.837  1.00  0.00     0.041 C 
ATOM      9  O   UNL     1      25.716  25.229 -20.053  1.00  0.00    -0.550 OA
ATOM     10  O   UNL     1      27.134  23.623 -20.866  1.00  0.00    -0.550 OA
ENDBRANCH   7   8
ENDBRANCH   6   7
ENDBRANCH   5   6
ENDBRANCH   4   5
ENDBRANCH   3   4
ENDBRANCH   2   3
ENDBRANCH   1   2
BRANCH   1  11
ATOM     11  C   UNL     1      30.354  26.144 -14.614  1.00  0.00     0.000 C 
BRANCH  11  12
ATOM     12  C   UNL     1      31.131  26.345 -13.299  1.00  0.00    -0.000 C 
BRANCH  12  13
ATOM     13  C   UNL     1      30.211  26.612 -12.095  1.00  0.00    -0.000 C 
BRANCH  13  14
ATOM     14  C   UNL     1      28.734  26.776 -12.512  1.00  0.00    -0.000 C 
BRANCH  14  15
ATOM     15  C   UNL     1      27.812  25.680 -11.952  1.00  0.00    -0.000 C 
BRANCH  15  16
ATOM     16  C   UNL     1      27.025  24.944 -13.047  1.00  0.00    -0.000 C 
BRANCH  16  17
ATOM     17  C   UNL     1      27.724  23.659 -13.513  1.00  0.00    -0.003 C 
ATOM     18  C   UNL     1      28.728  23.128 -12.491  1.00  0.00     0.004 C 
ENDBRANCH  16  17
ENDBRANCH  15  16
ENDBRANCH  14  15
ENDBRANCH  13  14
ENDBRANCH  12  13
ENDBRANCH  11  12
ENDBRANCH   1  11
TORSDOF 14
ENDMDL
MODEL 9
REMARK VINA RESULT:    -3.800      2.006      4.574
REMARK INTER + INTRA:          -8.523
REMARK INTER:                  -6.099
REMARK INTRA:                  -2.424
REMARK UNBOUND:                -1.613
REMARK SMILES CCCCCCCCCCCCCCCC(=O)[O-]
REMARK SMILES IDX 9 1 10 2 11 3 12 4 13 5 14 6 15 7 16 8 17 9 18 10 8 11 7 12
REMARK SMILES IDX 6 13 5 14 4 15 3 16 2 17 1 18
REMARK H PARENT
REMARK Flexibility Score: inf
ROOT
ATOM      1  C   UNL     1      30.528  27.034 -15.557  1.00  0.00     0.000 C 
ENDROOT
BRANCH   1   2
ATOM      2  C   UNL     1      31.195  25.715 -15.984  1.00  0.00     0.000 C 
BRANCH   2   3
ATOM      3  C   UNL     1      31.423  25.633 -17.502  1.00  0.00     0.000 C 
BRANCH   3   4
ATOM      4  C   UNL     1      30.667  24.459 -18.147  1.00  0.00     0.000 C 
BRANCH   4   5
ATOM      5  C   UNL     1      29.868  23.637 -17.122  1.00  0.00     0.000 C 
BRANCH   5   6
ATOM      6  C   UNL     1      28.406  23.422 -17.541  1.00  0.00     0.006 C 
BRANCH   6   7
ATOM      7  C   UNL     1      28.265  23.447 -19.066  1.00  0.00     0.053 C 
BRANCH   7   8
ATOM      8  C   UNL     1      27.006  24.148 -19.465  1.00  0.00     0.041 C 
ATOM      9  O   UNL     1      26.629  24.141 -20.667  1.00  0.00    -0.550 OA
ATOM     10  O   UNL     1      26.221  24.768 -18.501  1.00  0.00    -0.550 OA
ENDBRANCH   7   8
ENDBRANCH   6   7
ENDBRANCH   5   6
ENDBRANCH   4   5
ENDBRANCH   3   4
ENDBRANCH   2   3
ENDBRANCH   1   2
BRANCH   1  11
ATOM     11  C   UNL     1      29.610  27.618 -16.647  1.00  0.00     0.000 C 
BRANCH  11  12
ATOM     12  C   UNL     1      28.171  27.072 -16.639  1.00  0.00    -0.000 C 
BRANCH  12  13
ATOM     13  C   UNL     1      27.638  26.806 -15.220  1.00  0.00    -0.000 C 
BRANCH  13  14
ATOM     14  C   UNL     1      26.977  25.418 -15.094  1.00  0.00    -0.000 C 
BRANCH  14  15
ATOM     15  C   UNL     1      26.776  24.963 -13.639  1.00  0.00    -0.000 C 
BRANCH  15  16
ATOM     16  C   UNL     1      27.465  23.623 -13.331  1.00  0.00    -0.000 C 
BRANCH  16  17
ATOM     17  C   UNL     1      28.977  23.663 -13.599  1.00  0.00    -0.003 C 
ATOM     18  C   UNL     1      29.715  24.635 -12.680  1.00  0.00     0.004 C 
ENDBRANCH  16  17
ENDBRANCH  15  16
ENDBRANCH  14  15
ENDBRANCH  13  14
ENDBRANCH  12  13
ENDBRANCH  11  12
ENDBRANCH   1  11
TORSDOF 14
ENDMDL
