MODEL 1
REMARK VINA RESULT:    -3.844      0.000      0.000
REMARK INTER + INTRA:          -3.728
REMARK INTER:                  -4.742
REMARK INTRA:                   1.014
REMARK UNBOUND:                 1.014
REMARK SMILES CC1=CC=CC(C)(C)CC1=O
REMARK SMILES IDX 1 1 2 2 3 3 10 4 11 5 9 6 4 8 5 9 6 10 7 11 8 12
REMARK H PARENT
REMARK Flexibility Score: 80.00
ROOT
ATOM      1  C   UNL     1      46.805  19.189  22.246  1.00  0.00     0.048 C 
ATOM      2  C   UNL     1      47.762  19.772  21.234  1.00  0.00    -0.008 C 
ATOM      3  C   UNL     1      48.941  19.138  21.049  1.00  0.00     0.007 C 
ENDROOT
BRANCH   2   4
ATOM      4  C   UNL     1      47.299  20.956  20.468  1.00  0.00     0.159 C 
ATOM      5  O   UNL     1      46.293  21.594  20.885  1.00  0.00    -0.295 OA
BRANCH   4   6
ATOM      6  C   UNL     1      47.968  21.449  19.223  1.00  0.00     0.091 CG0
ATOM      7  G   UNL     1      49.446  21.845  19.441  1.00  0.00     0.000 G0
ENDBRANCH   4   6
ENDBRANCH   2   4
BRANCH   3   8
ATOM      8  C   UNL     1      50.055  19.451  20.124  1.00  0.00    -0.003 C 
ATOM      9  C   UNL     1      50.281  20.569  19.423  1.00  0.00    -0.020 C 
BRANCH   9  10
ATOM     10  C   UNL     1      49.439  21.823  19.437  1.00  0.00    -0.010 CG0
ATOM     11  C   UNL     1      49.594  22.496  20.819  1.00  0.00     0.016 C 
ATOM     12  C   UNL     1      49.947  22.813  18.364  1.00  0.00     0.016 C 
ATOM     13  G   UNL     1      47.951  21.452  19.247  1.00  0.00     0.000 G0
ENDBRANCH   9  10
ENDBRANCH   3   8
TORSDOF 0
ENDMDL
MODEL 2
REMARK VINA RESULT:    -3.730      1.756      2.793
REMARK INTER + INTRA:          -3.588
REMARK INTER:                  -4.319
REMARK INTRA:                   0.730
REMARK UNBOUND:                 1.014
REMARK SMILES CC1=CC=CC(C)(C)CC1=O
REMARK SMILES IDX 1 1 2 2 3 3 10 4 11 5 9 6 4 8 5 9 6 10 7 11 8 12
REMARK H PARENT
REMARK Flexibility Score: 80.00
ROOT
ATOM      1  C   UNL     1      44.703  20.650  22.175  1.00  0.00     0.048 C 
ATOM      2  C   UNL     1      45.869  20.442  21.238  1.00  0.00    -0.008 C 
ATOM      3  C   UNL     1      45.844  21.094  20.055  1.00  0.00     0.007 C 
ENDROOT
BRANCH   2   4
ATOM      4  C   UNL     1      46.985  19.594  21.724  1.00  0.00     0.159 C 
ATOM      5  O   UNL     1      47.007  19.256  22.940  1.00  0.00    -0.295 OA
BRANCH   4   6
ATOM      6  C   UNL     1      48.093  19.101  20.845  1.00  0.00     0.091 CG0
ATOM      7  G   UNL     1      48.891  20.242  20.173  1.00  0.00     0.000 G0
ENDBRANCH   4   6
ENDBRANCH   2   4
BRANCH   3   8
ATOM      8  C   UNL     1      46.839  21.109  18.956  1.00  0.00    -0.003 C 
ATOM      9  C   UNL     1      48.130  20.758  18.982  1.00  0.00    -0.020 C 
BRANCH   9  10
ATOM     10  C   UNL     1      48.891  20.222  20.171  1.00  0.00    -0.010 CG0
ATOM     11  C   UNL     1      50.205  19.587  19.661  1.00  0.00     0.016 C 
ATOM     12  C   UNL     1      49.260  21.380  21.128  1.00  0.00     0.016 C 
ATOM     13  G   UNL     1      48.062  19.118  20.865  1.00  0.00     0.000 G0
ENDBRANCH   9  10
ENDBRANCH   3   8
TORSDOF 0
ENDMDL
MODEL 3
REMARK VINA RESULT:    -3.518      3.067      4.531
REMARK INTER + INTRA:          -3.326
REMARK INTER:                  -4.076
REMARK INTRA:                   0.749
REMARK UNBOUND:                 1.014
REMARK SMILES CC1=CC=CC(C)(C)CC1=O
REMARK SMILES IDX 1 1 2 2 3 3 10 4 11 5 9 6 4 8 5 9 6 10 7 11 8 12
REMARK H PARENT
REMARK Flexibility Score: 80.00
ROOT
ATOM      1  C   UNL     1      49.283  21.826  20.760  1.00  0.00     0.048 C 
ATOM      2  C   UNL     1      50.191  22.781  20.023  1.00  0.00    -0.008 C 
ATOM      3  C   UNL     1      50.459  22.515  18.726  1.00  0.00     0.007 C 
ENDROOT
BRANCH   2   4
ATOM      4  C   UNL     1      50.658  23.978  20.765  1.00  0.00     0.159 C 
ATOM      5  O   UNL     1      50.131  24.247  21.880  1.00  0.00    -0.295 OA
BRANCH   4   6
ATOM      6  C   UNL     1      51.737  24.890  20.268  1.00  0.00     0.091 CG0
ATOM      7  G   UNL     1      51.405  25.544  18.908  1.00  0.00     0.000 G0
ENDBRANCH   4   6
ENDBRANCH   2   4
BRANCH   3   8
ATOM      8  C   UNL     1      51.281  23.268  17.751  1.00  0.00    -0.003 C 
ATOM      9  C   UNL     1      51.684  24.544  17.794  1.00  0.00    -0.020 C 
BRANCH   9  10
ATOM     10  C   UNL     1      51.407  25.536  18.899  1.00  0.00    -0.010 CG0
ATOM     11  C   UNL     1      52.353  26.744  18.715  1.00  0.00     0.016 C 
ATOM     12  C   UNL     1      49.952  26.049  18.796  1.00  0.00     0.016 C 
ATOM     13  G   UNL     1      51.715  24.889  20.268  1.00  0.00     0.000 G0
ENDBRANCH   9  10
ENDBRANCH   3   8
TORSDOF 0
ENDMDL
MODEL 4
REMARK VINA RESULT:    -3.508      2.786      4.095
REMARK INTER + INTRA:          -3.314
REMARK INTER:                  -4.074
REMARK INTRA:                   0.761
REMARK UNBOUND:                 1.014
REMARK SMILES CC1=CC=CC(C)(C)CC1=O
REMARK SMILES IDX 1 1 2 2 3 3 10 4 11 5 9 6 4 8 5 9 6 10 7 11 8 12
REMARK H PARENT
REMARK Flexibility Score: 80.00
ROOT
ATOM      1  C   UNL     1      52.080  21.210  18.191  1.00  0.00     0.048 C 
ATOM      2  C   UNL     1      50.911  21.952  18.795  1.00  0.00    -0.008 C 
ATOM      3  C   UNL     1      49.964  21.222  19.423  1.00  0.00     0.007 C 
ENDROOT
BRANCH   2   4
ATOM      4  C   UNL     1      50.936  23.434  18.713  1.00  0.00     0.159 C 
ATOM      5  O   UNL     1      51.997  24.004  18.336  1.00  0.00    -0.295 OA
BRANCH   4   6
ATOM      6  C   UNL     1      49.760  24.300  19.044  1.00  0.00     0.091 CG0
ATOM      7  G   UNL     1      49.267  24.128  20.498  1.00  0.00     0.000 G0
ENDBRANCH   4   6
ENDBRANCH   2   4
BRANCH   3   8
ATOM      8  C   UNL     1      48.734  21.661  20.123  1.00  0.00    -0.003 C 
ATOM      9  C   UNL     1      48.418  22.874  20.594  1.00  0.00    -0.020 C 
BRANCH   9  10
ATOM     10  C   UNL     1      49.260  24.124  20.492  1.00  0.00    -0.010 CG0
ATOM     11  C   UNL     1      48.369  25.339  20.837  1.00  0.00     0.016 C 
ATOM     12  C   UNL     1      50.413  24.069  21.521  1.00  0.00     0.016 C 
ATOM     13  G   UNL     1      49.764  24.295  19.041  1.00  0.00     0.000 G0
ENDBRANCH   9  10
ENDBRANCH   3   8
TORSDOF 0
ENDMDL
MODEL 5
REMARK VINA RESULT:    -3.451      2.713      4.098
REMARK INTER + INTRA:          -3.244
REMARK INTER:                  -3.999
REMARK INTRA:                   0.755
REMARK UNBOUND:                 1.014
REMARK SMILES CC1=CC=CC(C)(C)CC1=O
REMARK SMILES IDX 1 1 2 2 3 3 10 4 11 5 9 6 4 8 5 9 6 10 7 11 8 12
REMARK H PARENT
REMARK Flexibility Score: 80.00
ROOT
ATOM      1  C   UNL     1      49.081  20.971  20.628  1.00  0.00     0.048 C 
ATOM      2  C   UNL     1      49.317  22.372  20.117  1.00  0.00    -0.008 C 
ATOM      3  C   UNL     1      48.732  23.389  20.786  1.00  0.00     0.007 C 
ENDROOT
BRANCH   2   4
ATOM      4  C   UNL     1      50.236  22.524  18.961  1.00  0.00     0.159 C 
ATOM      5  O   UNL     1      50.935  21.536  18.605  1.00  0.00    -0.295 OA
BRANCH   4   6
ATOM      6  C   UNL     1      50.374  23.793  18.176  1.00  0.00     0.091 CG0
ATOM      7  G   UNL     1      50.843  24.991  19.033  1.00  0.00     0.000 G0
ENDBRANCH   4   6
ENDBRANCH   2   4
BRANCH   3   8
ATOM      8  C   UNL     1      48.798  24.850  20.543  1.00  0.00    -0.003 C 
ATOM      9  C   UNL     1      49.683  25.546  19.820  1.00  0.00    -0.020 C 
BRANCH   9  10
ATOM     10  C   UNL     1      50.843  24.982  19.035  1.00  0.00    -0.010 CG0
ATOM     11  C   UNL     1      51.355  26.076  18.071  1.00  0.00     0.016 C 
ATOM     12  C   UNL     1      51.998  24.609  19.992  1.00  0.00     0.016 C 
ATOM     13  G   UNL     1      50.362  23.782  18.187  1.00  0.00     0.000 G0
ENDBRANCH   9  10
ENDBRANCH   3   8
TORSDOF 0
ENDMDL
MODEL 6
REMARK VINA RESULT:    -3.446      3.672      5.062
REMARK INTER + INTRA:          -3.237
REMARK INTER:                  -3.968
REMARK INTRA:                   0.731
REMARK UNBOUND:                 1.014
REMARK SMILES CC1=CC=CC(C)(C)CC1=O
REMARK SMILES IDX 1 1 2 2 3 3 10 4 11 5 9 6 4 8 5 9 6 10 7 11 8 12
REMARK H PARENT
REMARK Flexibility Score: 80.00
ROOT
ATOM      1  C   UNL     1      50.149  21.940  18.925  1.00  0.00     0.048 C 
ATOM      2  C   UNL     1      50.121  23.305  19.569  1.00  0.00    -0.008 C 
ATOM      3  C   UNL     1      50.124  23.362  20.918  1.00  0.00     0.007 C 
ENDROOT
BRANCH   2   4
ATOM      4  C   UNL     1      50.168  24.481  18.663  1.00  0.00     0.159 C 
ATOM      5  O   UNL     1      50.433  24.298  17.443  1.00  0.00    -0.295 OA
BRANCH   4   6
ATOM      6  C   UNL     1      49.907  25.884  19.116  1.00  0.00     0.091 CG0
ATOM      7  G   UNL     1      50.880  26.361  20.218  1.00  0.00     0.000 G0
ENDBRANCH   4   6
ENDBRANCH   2   4
BRANCH   3   8
ATOM      8  C   UNL     1      50.126  24.536  21.821  1.00  0.00    -0.003 C 
ATOM      9  C   UNL     1      50.449  25.808  21.553  1.00  0.00    -0.020 C 
BRANCH   9  10
ATOM     10  C   UNL     1      50.874  26.362  20.214  1.00  0.00    -0.010 CG0
ATOM     11  C   UNL     1      50.759  27.902  20.267  1.00  0.00     0.016 C 
ATOM     12  C   UNL     1      52.353  26.002  19.939  1.00  0.00     0.016 C 
ATOM     13  G   UNL     1      49.922  25.846  19.111  1.00  0.00     0.000 G0
ENDBRANCH   9  10
ENDBRANCH   3   8
TORSDOF 0
ENDMDL
MODEL 7
REMARK VINA RESULT:    -3.324      8.849     10.514
REMARK INTER + INTRA:          -3.086
REMARK INTER:                  -3.841
REMARK INTRA:                   0.754
REMARK UNBOUND:                 1.014
REMARK SMILES CC1=CC=CC(C)(C)CC1=O
REMARK SMILES IDX 1 1 2 2 3 3 10 4 11 5 9 6 4 8 5 9 6 10 7 11 8 12
REMARK H PARENT
REMARK Flexibility Score: 80.00
ROOT
ATOM      1  C   UNL     1      37.302  24.335  20.381  1.00  0.00     0.048 C 
ATOM      2  C   UNL     1      37.842  23.531  21.540  1.00  0.00    -0.008 C 
ATOM      3  C   UNL     1      37.369  22.276  21.705  1.00  0.00     0.007 C 
ENDROOT
BRANCH   2   4
ATOM      4  C   UNL     1      38.905  24.160  22.363  1.00  0.00     0.159 C 
ATOM      5  O   UNL     1      39.441  25.226  21.952  1.00  0.00    -0.295 OA
BRANCH   4   6
ATOM      6  C   UNL     1      39.375  23.603  23.671  1.00  0.00     0.091 CG0
ATOM      7  G   UNL     1      39.947  22.172  23.555  1.00  0.00     0.000 G0
ENDBRANCH   4   6
ENDBRANCH   2   4
BRANCH   3   8
ATOM      8  C   UNL     1      37.720  21.253  22.717  1.00  0.00    -0.003 C 
ATOM      9  C   UNL     1      38.803  21.177  23.501  1.00  0.00    -0.020 C 
BRANCH   9  10
ATOM     10  C   UNL     1      39.942  22.167  23.556  1.00  0.00    -0.010 CG0
ATOM     11  C   UNL     1      40.770  21.885  24.830  1.00  0.00     0.016 C 
ATOM     12  C   UNL     1      40.868  21.975  22.332  1.00  0.00     0.016 C 
ATOM     13  G   UNL     1      39.380  23.603  23.656  1.00  0.00     0.000 G0
ENDBRANCH   9  10
ENDBRANCH   3   8
TORSDOF 0
ENDMDL
MODEL 8
REMARK VINA RESULT:    -3.272      8.461      9.776
REMARK INTER + INTRA:          -3.023
REMARK INTER:                  -3.770
REMARK INTRA:                   0.746
REMARK UNBOUND:                 1.014
REMARK SMILES CC1=CC=CC(C)(C)CC1=O
REMARK SMILES IDX 1 1 2 2 3 3 10 4 11 5 9 6 4 8 5 9 6 10 7 11 8 12
REMARK H PARENT
REMARK Flexibility Score: 80.00
ROOT
ATOM      1  C   UNL     1      37.893  20.556  21.823  1.00  0.00     0.048 C 
ATOM      2  C   UNL     1      38.692  21.503  22.686  1.00  0.00    -0.008 C 
ATOM      3  C   UNL     1      38.016  22.257  23.580  1.00  0.00     0.007 C 
ENDROOT
BRANCH   2   4
ATOM      4  C   UNL     1      40.168  21.475  22.534  1.00  0.00     0.159 C 
ATOM      5  O   UNL     1      40.693  20.537  21.873  1.00  0.00    -0.295 OA
BRANCH   4   6
ATOM      6  C   UNL     1      41.079  22.512  23.115  1.00  0.00     0.091 CG0
ATOM      7  G   UNL     1      40.991  22.606  24.655  1.00  0.00     0.000 G0
ENDBRANCH   4   6
ENDBRANCH   2   4
BRANCH   3   8
ATOM      8  C   UNL     1      38.517  23.242  24.566  1.00  0.00    -0.003 C 
ATOM      9  C   UNL     1      39.758  23.403  25.043  1.00  0.00    -0.020 C 
BRANCH   9  10
ATOM     10  C   UNL     1      40.980  22.607  24.651  1.00  0.00    -0.010 CG0
ATOM     11  C   UNL     1      42.232  23.364  25.148  1.00  0.00     0.016 C 
ATOM     12  C   UNL     1      40.953  21.223  25.340  1.00  0.00     0.016 C 
ATOM     13  G   UNL     1      41.062  22.503  23.111  1.00  0.00     0.000 G0
ENDBRANCH   9  10
ENDBRANCH   3   8
TORSDOF 0
ENDMDL
MODEL 9
REMARK VINA RESULT:    -3.203      9.654     10.581
REMARK INTER + INTRA:          -2.937
REMARK INTER:                  -3.688
REMARK INTRA:                   0.751
REMARK UNBOUND:                 1.014
REMARK SMILES CC1=CC=CC(C)(C)CC1=O
REMARK SMILES IDX 1 1 2 2 3 3 10 4 11 5 9 6 4 8 5 9 6 10 7 11 8 12
REMARK H PARENT
REMARK Flexibility Score: 80.00
ROOT
ATOM      1  C   UNL     1      37.364  24.049  20.747  1.00  0.00     0.048 C 
ATOM      2  C   UNL     1      38.407  23.689  21.778  1.00  0.00    -0.008 C 
ATOM      3  C   UNL     1      39.154  24.692  22.288  1.00  0.00     0.007 C 
ENDROOT
BRANCH   2   4
ATOM      4  C   UNL     1      38.476  22.269  22.204  1.00  0.00     0.159 C 
ATOM      5  O   UNL     1      37.550  21.485  21.857  1.00  0.00    -0.295 OA
BRANCH   4   6
ATOM      6  C   UNL     1      39.597  21.704  23.020  1.00  0.00     0.091 CG0
ATOM      7  G   UNL     1      39.765  22.400  24.390  1.00  0.00     0.000 G0
ENDBRANCH   4   6
ENDBRANCH   2   4
BRANCH   3   8
ATOM      8  C   UNL     1      40.221  24.656  23.317  1.00  0.00    -0.003 C 
ATOM      9  C   UNL     1      40.488  23.707  24.222  1.00  0.00    -0.020 C 
BRANCH   9  10
ATOM     10  C   UNL     1      39.756  22.396  24.392  1.00  0.00    -0.010 CG0
ATOM     11  C   UNL     1      40.615  21.473  25.285  1.00  0.00     0.016 C 
ATOM     12  C   UNL     1      38.407  22.633  25.107  1.00  0.00     0.016 C 
ATOM     13  G   UNL     1      39.589  21.712  23.016  1.00  0.00     0.000 G0
ENDBRANCH   9  10
ENDBRANCH   3   8
TORSDOF 0
ENDMDL
