MODEL 1
REMARK VINA RESULT:    -6.419      0.000      0.000
REMARK INTER + INTRA:         -18.072
REMARK INTER:                 -14.674
REMARK INTRA:                  -3.398
REMARK UNBOUND:                -3.398
REMARK SMILES CCCCCCCCCCCCCCCCCCCCCCCC(=O)[O-]
REMARK SMILES IDX 13 1 14 2 15 3 16 4 17 5 18 6 19 7 20 8 21 9 22 10 23 11
REMARK SMILES IDX 24 12 25 13 26 14 12 15 11 16 10 17 9 18 8 19 7 20 6 21 5 22
REMARK SMILES IDX 4 23 3 24 2 25 1 26
REMARK H PARENT
REMARK Flexibility Score: inf
ROOT
ATOM      1  C   UNL     1      13.482   3.486  16.260  1.00  0.00     0.000 C 
ENDROOT
BRANCH   1   2
ATOM      2  C   UNL     1      13.188   2.255  15.386  1.00  0.00     0.000 C 
BRANCH   2   3
ATOM      3  C   UNL     1      14.472   1.551  14.898  1.00  0.00     0.000 C 
BRANCH   3   4
ATOM      4  C   UNL     1      15.593   2.514  14.460  1.00  0.00     0.000 C 
BRANCH   4   5
ATOM      5  C   UNL     1      15.527   2.982  12.994  1.00  0.00     0.000 C 
BRANCH   5   6
ATOM      6  C   UNL     1      15.506   1.849  11.946  1.00  0.00     0.000 C 
BRANCH   6   7
ATOM      7  C   UNL     1      16.758   1.760  11.050  1.00  0.00     0.000 C 
BRANCH   7   8
ATOM      8  C   UNL     1      17.959   1.037  11.684  1.00  0.00     0.000 C 
BRANCH   8   9
ATOM      9  C   UNL     1      17.547  -0.173  12.537  1.00  0.00     0.000 C 
BRANCH   9  10
ATOM     10  C   UNL     1      18.723  -0.676  13.381  1.00  0.00     0.006 C 
BRANCH  10  11
ATOM     11  C   UNL     1      18.532  -0.321  14.858  1.00  0.00     0.053 C 
BRANCH  11  12
ATOM     12  C   UNL     1      19.824  -0.457  15.602  1.00  0.00     0.041 C 
ATOM     13  O   UNL     1      20.250  -1.596  15.931  1.00  0.00    -0.550 OA
ATOM     14  O   UNL     1      20.581   0.671  15.890  1.00  0.00    -0.550 OA
ENDBRANCH  11  12
ENDBRANCH  10  11
ENDBRANCH   9  10
ENDBRANCH   8   9
ENDBRANCH   7   8
ENDBRANCH   6   7
ENDBRANCH   5   6
ENDBRANCH   4   5
ENDBRANCH   3   4
ENDBRANCH   2   3
ENDBRANCH   1   2
BRANCH   1  15
ATOM     15  C   UNL     1      12.875   3.383  17.672  1.00  0.00     0.000 C 
BRANCH  15  16
ATOM     16  C   UNL     1      13.889   3.462  18.830  1.00  0.00     0.000 C 
BRANCH  16  17
ATOM     17  C   UNL     1      14.815   2.239  18.905  1.00  0.00     0.000 C 
BRANCH  17  18
ATOM     18  C   UNL     1      14.682   1.523  20.258  1.00  0.00    -0.000 C 
BRANCH  18  19
ATOM     19  C   UNL     1      14.065   0.121  20.126  1.00  0.00    -0.000 C 
BRANCH  19  20
ATOM     20  C   UNL     1      13.772  -0.266  18.669  1.00  0.00    -0.000 C 
BRANCH  20  21
ATOM     21  C   UNL     1      13.863  -1.784  18.478  1.00  0.00    -0.000 C 
BRANCH  21  22
ATOM     22  C   UNL     1      14.990  -2.150  17.499  1.00  0.00    -0.000 C 
BRANCH  22  23
ATOM     23  C   UNL     1      16.112  -1.098  17.473  1.00  0.00    -0.000 C 
BRANCH  23  24
ATOM     24  C   UNL     1      17.180  -1.349  18.551  1.00  0.00    -0.000 C 
BRANCH  24  25
ATOM     25  C   UNL     1      18.013  -0.094  18.857  1.00  0.00    -0.003 C 
ATOM     26  C   UNL     1      17.690   1.070  17.921  1.00  0.00     0.004 C 
ENDBRANCH  24  25
ENDBRANCH  23  24
ENDBRANCH  22  23
ENDBRANCH  21  22
ENDBRANCH  20  21
ENDBRANCH  19  20
ENDBRANCH  18  19
ENDBRANCH  17  18
ENDBRANCH  16  17
ENDBRANCH  15  16
ENDBRANCH   1  15
TORSDOF 22
ENDMDL
MODEL 2
REMARK VINA RESULT:    -6.339      3.121      5.350
REMARK INTER + INTRA:         -17.890
REMARK INTER:                 -15.196
REMARK INTRA:                  -2.694
REMARK UNBOUND:                -3.398
REMARK SMILES CCCCCCCCCCCCCCCCCCCCCCCC(=O)[O-]
REMARK SMILES IDX 13 1 14 2 15 3 16 4 17 5 18 6 19 7 20 8 21 9 22 10 23 11
REMARK SMILES IDX 24 12 25 13 26 14 12 15 11 16 10 17 9 18 8 19 7 20 6 21 5 22
REMARK SMILES IDX 4 23 3 24 2 25 1 26
REMARK H PARENT
REMARK Flexibility Score: inf
ROOT
ATOM      1  C   UNL     1      17.950   0.008  14.167  1.00  0.00     0.000 C 
ENDROOT
BRANCH   1   2
ATOM      2  C   UNL     1      16.472  -0.415  14.229  1.00  0.00     0.000 C 
BRANCH   2   3
ATOM      3  C   UNL     1      15.674   0.367  15.294  1.00  0.00     0.000 C 
BRANCH   3   4
ATOM      4  C   UNL     1      15.632   1.890  15.059  1.00  0.00     0.000 C 
BRANCH   4   5
ATOM      5  C   UNL     1      14.776   2.350  13.863  1.00  0.00     0.000 C 
BRANCH   5   6
ATOM      6  C   UNL     1      15.573   2.904  12.662  1.00  0.00     0.000 C 
BRANCH   6   7
ATOM      7  C   UNL     1      15.900   1.875  11.561  1.00  0.00     0.000 C 
BRANCH   7   8
ATOM      8  C   UNL     1      17.356   1.900  11.062  1.00  0.00     0.000 C 
BRANCH   8   9
ATOM      9  C   UNL     1      17.694   0.713  10.148  1.00  0.00     0.000 C 
BRANCH   9  10
ATOM     10  C   UNL     1      18.040   1.191   8.733  1.00  0.00     0.006 C 
BRANCH  10  11
ATOM     11  C   UNL     1      18.814   0.118   7.963  1.00  0.00     0.053 C 
BRANCH  11  12
ATOM     12  C   UNL     1      19.792   0.749   7.021  1.00  0.00     0.041 C 
ATOM     13  O   UNL     1      19.735   1.984   6.782  1.00  0.00    -0.550 OA
ATOM     14  O   UNL     1      20.796  -0.020   6.446  1.00  0.00    -0.550 OA
ENDBRANCH  11  12
ENDBRANCH  10  11
ENDBRANCH   9  10
ENDBRANCH   8   9
ENDBRANCH   7   8
ENDBRANCH   6   7
ENDBRANCH   5   6
ENDBRANCH   4   5
ENDBRANCH   3   4
ENDBRANCH   2   3
ENDBRANCH   1   2
BRANCH   1  15
ATOM     15  C   UNL     1      18.916  -1.189  14.082  1.00  0.00     0.000 C 
BRANCH  15  16
ATOM     16  C   UNL     1      19.525  -1.638  15.425  1.00  0.00     0.000 C 
BRANCH  16  17
ATOM     17  C   UNL     1      18.794  -1.055  16.643  1.00  0.00     0.000 C 
BRANCH  17  18
ATOM     18  C   UNL     1      17.759  -2.046  17.198  1.00  0.00    -0.000 C 
BRANCH  18  19
ATOM     19  C   UNL     1      17.295  -1.682  18.618  1.00  0.00    -0.000 C 
BRANCH  19  20
ATOM     20  C   UNL     1      17.588  -0.220  18.984  1.00  0.00    -0.000 C 
BRANCH  20  21
ATOM     21  C   UNL     1      16.354   0.447  19.604  1.00  0.00    -0.000 C 
BRANCH  21  22
ATOM     22  C   UNL     1      15.120  -0.463  19.491  1.00  0.00    -0.000 C 
BRANCH  22  23
ATOM     23  C   UNL     1      13.806   0.334  19.433  1.00  0.00    -0.000 C 
BRANCH  23  24
ATOM     24  C   UNL     1      13.695   1.197  18.165  1.00  0.00    -0.000 C 
BRANCH  24  25
ATOM     25  C   UNL     1      13.818   2.699  18.464  1.00  0.00    -0.003 C 
ATOM     26  C   UNL     1      12.933   3.555  17.559  1.00  0.00     0.004 C 
ENDBRANCH  24  25
ENDBRANCH  23  24
ENDBRANCH  22  23
ENDBRANCH  21  22
ENDBRANCH  20  21
ENDBRANCH  19  20
ENDBRANCH  18  19
ENDBRANCH  17  18
ENDBRANCH  16  17
ENDBRANCH  15  16
ENDBRANCH   1  15
TORSDOF 22
ENDMDL
MODEL 3
REMARK VINA RESULT:    -6.332      3.135      4.339
REMARK INTER + INTRA:         -17.874
REMARK INTER:                 -15.223
REMARK INTRA:                  -2.651
REMARK UNBOUND:                -3.398
REMARK SMILES CCCCCCCCCCCCCCCCCCCCCCCC(=O)[O-]
REMARK SMILES IDX 13 1 14 2 15 3 16 4 17 5 18 6 19 7 20 8 21 9 22 10 23 11
REMARK SMILES IDX 24 12 25 13 26 14 12 15 11 16 10 17 9 18 8 19 7 20 6 21 5 22
REMARK SMILES IDX 4 23 3 24 2 25 1 26
REMARK H PARENT
REMARK Flexibility Score: inf
ROOT
ATOM      1  C   UNL     1      14.240   3.419  17.107  1.00  0.00     0.000 C 
ENDROOT
BRANCH   1   2
ATOM      2  C   UNL     1      13.119   3.027  16.129  1.00  0.00     0.000 C 
BRANCH   2   3
ATOM      3  C   UNL     1      13.643   2.248  14.903  1.00  0.00     0.000 C 
BRANCH   3   4
ATOM      4  C   UNL     1      15.128   2.507  14.580  1.00  0.00     0.000 C 
BRANCH   4   5
ATOM      5  C   UNL     1      15.418   2.983  13.144  1.00  0.00     0.000 C 
BRANCH   5   6
ATOM      6  C   UNL     1      15.653   1.856  12.115  1.00  0.00     0.000 C 
BRANCH   6   7
ATOM      7  C   UNL     1      16.829   2.088  11.145  1.00  0.00     0.000 C 
BRANCH   7   8
ATOM      8  C   UNL     1      17.770   0.883  10.966  1.00  0.00     0.000 C 
BRANCH   8   9
ATOM      9  C   UNL     1      17.549   0.145   9.637  1.00  0.00     0.000 C 
BRANCH   9  10
ATOM     10  C   UNL     1      18.185   0.910   8.472  1.00  0.00     0.006 C 
BRANCH  10  11
ATOM     11  C   UNL     1      19.137   0.013   7.677  1.00  0.00     0.053 C 
BRANCH  11  12
ATOM     12  C   UNL     1      20.134   0.839   6.925  1.00  0.00     0.041 C 
ATOM     13  O   UNL     1      19.963   2.080   6.799  1.00  0.00    -0.550 OA
ATOM     14  O   UNL     1      21.277   0.244   6.406  1.00  0.00    -0.550 OA
ENDBRANCH  11  12
ENDBRANCH  10  11
ENDBRANCH   9  10
ENDBRANCH   8   9
ENDBRANCH   7   8
ENDBRANCH   6   7
ENDBRANCH   5   6
ENDBRANCH   4   5
ENDBRANCH   3   4
ENDBRANCH   2   3
ENDBRANCH   1   2
BRANCH   1  15
ATOM     15  C   UNL     1      14.022   2.865  18.527  1.00  0.00     0.000 C 
BRANCH  15  16
ATOM     16  C   UNL     1      14.112   1.331  18.655  1.00  0.00     0.000 C 
BRANCH  16  17
ATOM     17  C   UNL     1      14.478   0.865  20.072  1.00  0.00     0.000 C 
BRANCH  17  18
ATOM     18  C   UNL     1      15.976   0.541  20.181  1.00  0.00    -0.000 C 
BRANCH  18  19
ATOM     19  C   UNL     1      16.327  -0.836  19.594  1.00  0.00    -0.000 C 
BRANCH  19  20
ATOM     20  C   UNL     1      17.436  -0.767  18.535  1.00  0.00    -0.000 C 
BRANCH  20  21
ATOM     21  C   UNL     1      17.693   0.682  18.105  1.00  0.00    -0.000 C 
BRANCH  21  22
ATOM     22  C   UNL     1      17.301   0.900  16.635  1.00  0.00    -0.000 C 
BRANCH  22  23
ATOM     23  C   UNL     1      17.121  -0.423  15.872  1.00  0.00    -0.000 C 
BRANCH  23  24
ATOM     24  C   UNL     1      17.702  -0.366  14.448  1.00  0.00    -0.000 C 
BRANCH  24  25
ATOM     25  C   UNL     1      19.217  -0.620  14.421  1.00  0.00    -0.003 C 
ATOM     26  C   UNL     1      19.616  -1.888  15.175  1.00  0.00     0.004 C 
ENDBRANCH  24  25
ENDBRANCH  23  24
ENDBRANCH  22  23
ENDBRANCH  21  22
ENDBRANCH  20  21
ENDBRANCH  19  20
ENDBRANCH  18  19
ENDBRANCH  17  18
ENDBRANCH  16  17
ENDBRANCH  15  16
ENDBRANCH   1  15
TORSDOF 22
ENDMDL
MODEL 4
REMARK VINA RESULT:    -6.262      2.227      5.139
REMARK INTER + INTRA:         -17.714
REMARK INTER:                 -14.197
REMARK INTRA:                  -3.517
REMARK UNBOUND:                -3.398
REMARK SMILES CCCCCCCCCCCCCCCCCCCCCCCC(=O)[O-]
REMARK SMILES IDX 13 1 14 2 15 3 16 4 17 5 18 6 19 7 20 8 21 9 22 10 23 11
REMARK SMILES IDX 24 12 25 13 26 14 12 15 11 16 10 17 9 18 8 19 7 20 6 21 5 22
REMARK SMILES IDX 4 23 3 24 2 25 1 26
REMARK H PARENT
REMARK Flexibility Score: inf
ROOT
ATOM      1  C   UNL     1      19.456  -2.341  15.829  1.00  0.00     0.000 C 
ENDROOT
BRANCH   1   2
ATOM      2  C   UNL     1      19.708  -0.858  15.504  1.00  0.00     0.000 C 
BRANCH   2   3
ATOM      3  C   UNL     1      19.117  -0.439  14.141  1.00  0.00     0.000 C 
BRANCH   3   4
ATOM      4  C   UNL     1      17.585  -0.266  14.145  1.00  0.00     0.000 C 
BRANCH   4   5
ATOM      5  C   UNL     1      17.016   0.564  15.311  1.00  0.00     0.000 C 
BRANCH   5   6
ATOM      6  C   UNL     1      15.479   0.698  15.331  1.00  0.00     0.000 C 
BRANCH   6   7
ATOM      7  C   UNL     1      14.837   1.102  13.988  1.00  0.00     0.000 C 
BRANCH   7   8
ATOM      8  C   UNL     1      14.764   2.618  13.734  1.00  0.00     0.000 C 
BRANCH   8   9
ATOM      9  C   UNL     1      15.550   3.053  12.488  1.00  0.00     0.000 C 
BRANCH   9  10
ATOM     10  C   UNL     1      15.824   1.859  11.567  1.00  0.00     0.006 C 
BRANCH  10  11
ATOM     11  C   UNL     1      17.296   1.811  11.150  1.00  0.00     0.053 C 
BRANCH  11  12
ATOM     12  C   UNL     1      17.569   0.594  10.322  1.00  0.00     0.041 C 
ATOM     13  O   UNL     1      17.233  -0.545  10.741  1.00  0.00    -0.550 OA
ATOM     14  O   UNL     1      18.150   0.723   9.067  1.00  0.00    -0.550 OA
ENDBRANCH  11  12
ENDBRANCH  10  11
ENDBRANCH   9  10
ENDBRANCH   8   9
ENDBRANCH   7   8
ENDBRANCH   6   7
ENDBRANCH   5   6
ENDBRANCH   4   5
ENDBRANCH   3   4
ENDBRANCH   2   3
ENDBRANCH   1   2
BRANCH   1  15
ATOM     15  C   UNL     1      18.498  -2.542  17.018  1.00  0.00     0.000 C 
BRANCH  15  16
ATOM     16  C   UNL     1      17.004  -2.638  16.650  1.00  0.00     0.000 C 
BRANCH  16  17
ATOM     17  C   UNL     1      16.075  -2.115  17.756  1.00  0.00     0.000 C 
BRANCH  17  18
ATOM     18  C   UNL     1      16.881  -1.554  18.938  1.00  0.00    -0.000 C 
BRANCH  18  19
ATOM     19  C   UNL     1      16.731  -0.030  19.084  1.00  0.00    -0.000 C 
BRANCH  19  20
ATOM     20  C   UNL     1      15.898   0.372  20.309  1.00  0.00    -0.000 C 
BRANCH  20  21
ATOM     21  C   UNL     1      14.428  -0.024  20.125  1.00  0.00    -0.000 C 
BRANCH  21  22
ATOM     22  C   UNL     1      13.800   0.722  18.937  1.00  0.00    -0.000 C 
BRANCH  22  23
ATOM     23  C   UNL     1      14.001   2.244  19.025  1.00  0.00    -0.000 C 
BRANCH  23  24
ATOM     24  C   UNL     1      13.050   3.019  18.097  1.00  0.00    -0.000 C 
BRANCH  24  25
ATOM     25  C   UNL     1      13.803   3.901  17.089  1.00  0.00    -0.003 C 
ATOM     26  C   UNL     1      15.316   3.692  17.137  1.00  0.00     0.004 C 
ENDBRANCH  24  25
ENDBRANCH  23  24
ENDBRANCH  22  23
ENDBRANCH  21  22
ENDBRANCH  20  21
ENDBRANCH  19  20
ENDBRANCH  18  19
ENDBRANCH  17  18
ENDBRANCH  16  17
ENDBRANCH  15  16
ENDBRANCH   1  15
TORSDOF 22
ENDMDL
MODEL 5
REMARK VINA RESULT:    -6.216      2.450      7.504
REMARK INTER + INTRA:         -17.609
REMARK INTER:                 -14.453
REMARK INTRA:                  -3.156
REMARK UNBOUND:                -3.398
REMARK SMILES CCCCCCCCCCCCCCCCCCCCCCCC(=O)[O-]
REMARK SMILES IDX 13 1 14 2 15 3 16 4 17 5 18 6 19 7 20 8 21 9 22 10 23 11
REMARK SMILES IDX 24 12 25 13 26 14 12 15 11 16 10 17 9 18 8 19 7 20 6 21 5 22
REMARK SMILES IDX 4 23 3 24 2 25 1 26
REMARK H PARENT
REMARK Flexibility Score: inf
ROOT
ATOM      1  C   UNL     1      19.642  -0.723  15.182  1.00  0.00     0.000 C 
ENDROOT
BRANCH   1   2
ATOM      2  C   UNL     1      19.737  -2.237  15.434  1.00  0.00     0.000 C 
BRANCH   2   3
ATOM      3  C   UNL     1      18.795  -2.714  16.560  1.00  0.00     0.000 C 
BRANCH   3   4
ATOM      4  C   UNL     1      18.181  -1.572  17.395  1.00  0.00     0.000 C 
BRANCH   4   5
ATOM      5  C   UNL     1      16.769  -1.842  17.945  1.00  0.00     0.000 C 
BRANCH   5   6
ATOM      6  C   UNL     1      16.533  -1.380  19.399  1.00  0.00     0.000 C 
BRANCH   6   7
ATOM      7  C   UNL     1      16.676   0.137  19.637  1.00  0.00     0.000 C 
BRANCH   7   8
ATOM      8  C   UNL     1      15.441   0.817  20.254  1.00  0.00     0.000 C 
BRANCH   8   9
ATOM      9  C   UNL     1      14.120   0.317  19.651  1.00  0.00     0.000 C 
BRANCH   9  10
ATOM     10  C   UNL     1      13.669   1.217  18.494  1.00  0.00     0.006 C 
BRANCH  10  11
ATOM     11  C   UNL     1      14.152   2.656  18.695  1.00  0.00     0.053 C 
BRANCH  11  12
ATOM     12  C   UNL     1      14.367   3.327  17.375  1.00  0.00     0.041 C 
ATOM     13  O   UNL     1      15.533   3.608  16.989  1.00  0.00    -0.550 OA
ATOM     14  O   UNL     1      13.284   3.599  16.549  1.00  0.00    -0.550 OA
ENDBRANCH  11  12
ENDBRANCH  10  11
ENDBRANCH   9  10
ENDBRANCH   8   9
ENDBRANCH   7   8
ENDBRANCH   6   7
ENDBRANCH   5   6
ENDBRANCH   4   5
ENDBRANCH   3   4
ENDBRANCH   2   3
ENDBRANCH   1   2
BRANCH   1  15
ATOM     15  C   UNL     1      18.858  -0.372  13.904  1.00  0.00     0.000 C 
BRANCH  15  16
ATOM     16  C   UNL     1      17.324  -0.368  14.054  1.00  0.00     0.000 C 
BRANCH  16  17
ATOM     17  C   UNL     1      16.826   0.616  15.123  1.00  0.00     0.000 C 
BRANCH  17  18
ATOM     18  C   UNL     1      15.291   0.690  15.137  1.00  0.00    -0.000 C 
BRANCH  18  19
ATOM     19  C   UNL     1      14.718   1.324  13.859  1.00  0.00    -0.000 C 
BRANCH  19  20
ATOM     20  C   UNL     1      15.262   2.736  13.599  1.00  0.00    -0.000 C 
BRANCH  20  21
ATOM     21  C   UNL     1      15.427   2.991  12.096  1.00  0.00    -0.000 C 
BRANCH  21  22
ATOM     22  C   UNL     1      15.876   1.716  11.366  1.00  0.00    -0.000 C 
BRANCH  22  23
ATOM     23  C   UNL     1      17.354   1.769  10.944  1.00  0.00    -0.000 C 
BRANCH  23  24
ATOM     24  C   UNL     1      17.866   0.419  10.414  1.00  0.00    -0.000 C 
BRANCH  24  25
ATOM     25  C   UNL     1      17.594   0.236   8.913  1.00  0.00    -0.003 C 
ATOM     26  C   UNL     1      18.771   0.677   8.043  1.00  0.00     0.004 C 
ENDBRANCH  24  25
ENDBRANCH  23  24
ENDBRANCH  22  23
ENDBRANCH  21  22
ENDBRANCH  20  21
ENDBRANCH  19  20
ENDBRANCH  18  19
ENDBRANCH  17  18
ENDBRANCH  16  17
ENDBRANCH  15  16
ENDBRANCH   1  15
TORSDOF 22
ENDMDL
MODEL 6
REMARK VINA RESULT:    -6.107      1.405      5.971
REMARK INTER + INTRA:         -17.360
REMARK INTER:                 -14.425
REMARK INTRA:                  -2.935
REMARK UNBOUND:                -3.398
REMARK SMILES CCCCCCCCCCCCCCCCCCCCCCCC(=O)[O-]
REMARK SMILES IDX 13 1 14 2 15 3 16 4 17 5 18 6 19 7 20 8 21 9 22 10 23 11
REMARK SMILES IDX 24 12 25 13 26 14 12 15 11 16 10 17 9 18 8 19 7 20 6 21 5 22
REMARK SMILES IDX 4 23 3 24 2 25 1 26
REMARK H PARENT
REMARK Flexibility Score: inf
ROOT
ATOM      1  C   UNL     1      13.337   2.789  15.946  1.00  0.00     0.000 C 
ENDROOT
BRANCH   1   2
ATOM      2  C   UNL     1      13.047   3.751  17.110  1.00  0.00     0.000 C 
BRANCH   2   3
ATOM      3  C   UNL     1      13.926   3.472  18.348  1.00  0.00     0.000 C 
BRANCH   3   4
ATOM      4  C   UNL     1      13.631   2.127  19.041  1.00  0.00     0.000 C 
BRANCH   4   5
ATOM      5  C   UNL     1      14.721   1.628  20.007  1.00  0.00     0.000 C 
BRANCH   5   6
ATOM      6  C   UNL     1      14.609   0.142  20.411  1.00  0.00     0.000 C 
BRANCH   6   7
ATOM      7  C   UNL     1      13.555  -0.672  19.634  1.00  0.00     0.000 C 
BRANCH   7   8
ATOM      8  C   UNL     1      14.117  -1.545  18.498  1.00  0.00     0.000 C 
BRANCH   8   9
ATOM      9  C   UNL     1      15.208  -0.836  17.682  1.00  0.00     0.000 C 
BRANCH   9  10
ATOM     10  C   UNL     1      16.307  -1.818  17.264  1.00  0.00     0.006 C 
BRANCH  10  11
ATOM     11  C   UNL     1      17.578  -1.608  18.091  1.00  0.00     0.053 C 
BRANCH  11  12
ATOM     12  C   UNL     1      17.777  -0.154  18.389  1.00  0.00     0.041 C 
ATOM     13  O   UNL     1      17.830   0.247  19.581  1.00  0.00    -0.550 OA
ATOM     14  O   UNL     1      17.951   0.750  17.349  1.00  0.00    -0.550 OA
ENDBRANCH  11  12
ENDBRANCH  10  11
ENDBRANCH   9  10
ENDBRANCH   8   9
ENDBRANCH   7   8
ENDBRANCH   6   7
ENDBRANCH   5   6
ENDBRANCH   4   5
ENDBRANCH   3   4
ENDBRANCH   2   3
ENDBRANCH   1   2
BRANCH   1  15
ATOM     15  C   UNL     1      14.837   2.479  15.780  1.00  0.00     0.000 C 
BRANCH  15  16
ATOM     16  C   UNL     1      15.161   1.256  14.900  1.00  0.00     0.000 C 
BRANCH  16  17
ATOM     17  C   UNL     1      14.753   1.444  13.431  1.00  0.00     0.000 C 
BRANCH  17  18
ATOM     18  C   UNL     1      15.451   2.665  12.813  1.00  0.00    -0.000 C 
BRANCH  18  19
ATOM     19  C   UNL     1      15.848   2.438  11.345  1.00  0.00    -0.000 C 
BRANCH  19  20
ATOM     20  C   UNL     1      17.271   1.882  11.193  1.00  0.00    -0.000 C 
BRANCH  20  21
ATOM     21  C   UNL     1      17.242   0.435  10.685  1.00  0.00    -0.000 C 
BRANCH  21  22
ATOM     22  C   UNL     1      17.703  -0.542  11.778  1.00  0.00    -0.000 C 
BRANCH  22  23
ATOM     23  C   UNL     1      18.252   0.180  13.020  1.00  0.00    -0.000 C 
BRANCH  23  24
ATOM     24  C   UNL     1      18.234  -0.709  14.275  1.00  0.00    -0.000 C 
BRANCH  24  25
ATOM     25  C   UNL     1      19.629  -0.879  14.896  1.00  0.00    -0.003 C 
ATOM     26  C   UNL     1      19.918  -2.320  15.313  1.00  0.00     0.004 C 
ENDBRANCH  24  25
ENDBRANCH  23  24
ENDBRANCH  22  23
ENDBRANCH  21  22
ENDBRANCH  20  21
ENDBRANCH  19  20
ENDBRANCH  18  19
ENDBRANCH  17  18
ENDBRANCH  16  17
ENDBRANCH  15  16
ENDBRANCH   1  15
TORSDOF 22
ENDMDL
MODEL 7
REMARK VINA RESULT:    -6.057      3.014      4.776
REMARK INTER + INTRA:         -17.246
REMARK INTER:                 -14.026
REMARK INTRA:                  -3.220
REMARK UNBOUND:                -3.398
REMARK SMILES CCCCCCCCCCCCCCCCCCCCCCCC(=O)[O-]
REMARK SMILES IDX 13 1 14 2 15 3 16 4 17 5 18 6 19 7 20 8 21 9 22 10 23 11
REMARK SMILES IDX 24 12 25 13 26 14 12 15 11 16 10 17 9 18 8 19 7 20 6 21 5 22
REMARK SMILES IDX 4 23 3 24 2 25 1 26
REMARK H PARENT
REMARK Flexibility Score: inf
ROOT
ATOM      1  C   UNL     1      18.376   0.026  16.165  1.00  0.00     0.000 C 
ENDROOT
BRANCH   1   2
ATOM      2  C   UNL     1      17.721  -0.003  14.774  1.00  0.00     0.000 C 
BRANCH   2   3
ATOM      3  C   UNL     1      16.231  -0.403  14.826  1.00  0.00     0.000 C 
BRANCH   3   4
ATOM      4  C   UNL     1      15.282   0.608  14.152  1.00  0.00     0.000 C 
BRANCH   4   5
ATOM      5  C   UNL     1      15.834   2.039  14.011  1.00  0.00     0.000 C 
BRANCH   5   6
ATOM      6  C   UNL     1      15.486   2.748  12.685  1.00  0.00     0.000 C 
BRANCH   6   7
ATOM      7  C   UNL     1      15.980   2.036  11.410  1.00  0.00     0.000 C 
BRANCH   7   8
ATOM      8  C   UNL     1      17.423   1.506  11.481  1.00  0.00     0.000 C 
BRANCH   8   9
ATOM      9  C   UNL     1      17.726   0.451  10.407  1.00  0.00     0.000 C 
BRANCH   9  10
ATOM     10  C   UNL     1      17.926   1.106   9.036  1.00  0.00     0.006 C 
BRANCH  10  11
ATOM     11  C   UNL     1      18.476   0.101   8.020  1.00  0.00     0.053 C 
BRANCH  11  12
ATOM     12  C   UNL     1      19.605   0.703   7.242  1.00  0.00     0.041 C 
ATOM     13  O   UNL     1      20.563  -0.017   6.856  1.00  0.00    -0.550 OA
ATOM     14  O   UNL     1      19.573   2.049   6.904  1.00  0.00    -0.550 OA
ENDBRANCH  11  12
ENDBRANCH  10  11
ENDBRANCH   9  10
ENDBRANCH   8   9
ENDBRANCH   7   8
ENDBRANCH   6   7
ENDBRANCH   5   6
ENDBRANCH   4   5
ENDBRANCH   3   4
ENDBRANCH   2   3
ENDBRANCH   1   2
BRANCH   1  15
ATOM     15  C   UNL     1      17.854   1.170  17.054  1.00  0.00     0.000 C 
BRANCH  15  16
ATOM     16  C   UNL     1      17.390   0.749  18.463  1.00  0.00     0.000 C 
BRANCH  16  17
ATOM     17  C   UNL     1      17.852  -0.663  18.852  1.00  0.00     0.000 C 
BRANCH  17  18
ATOM     18  C   UNL     1      16.656  -1.562  19.200  1.00  0.00    -0.000 C 
BRANCH  18  19
ATOM     19  C   UNL     1      15.804  -1.915  17.970  1.00  0.00    -0.000 C 
BRANCH  19  20
ATOM     20  C   UNL     1      14.315  -1.594  18.165  1.00  0.00    -0.000 C 
BRANCH  20  21
ATOM     21  C   UNL     1      14.105  -0.695  19.389  1.00  0.00    -0.000 C 
BRANCH  21  22
ATOM     22  C   UNL     1      13.882   0.766  18.969  1.00  0.00    -0.000 C 
BRANCH  22  23
ATOM     23  C   UNL     1      13.722   0.923  17.447  1.00  0.00    -0.000 C 
BRANCH  23  24
ATOM     24  C   UNL     1      13.477   2.383  17.028  1.00  0.00    -0.000 C 
BRANCH  24  25
ATOM     25  C   UNL     1      13.765   3.377  18.164  1.00  0.00    -0.003 C 
ATOM     26  C   UNL     1      14.704   4.504  17.736  1.00  0.00     0.004 C 
ENDBRANCH  24  25
ENDBRANCH  23  24
ENDBRANCH  22  23
ENDBRANCH  21  22
ENDBRANCH  20  21
ENDBRANCH  19  20
ENDBRANCH  18  19
ENDBRANCH  17  18
ENDBRANCH  16  17
ENDBRANCH  15  16
ENDBRANCH   1  15
TORSDOF 22
ENDMDL
MODEL 8
REMARK VINA RESULT:    -6.036      0.879      5.112
REMARK INTER + INTRA:         -17.197
REMARK INTER:                 -13.893
REMARK INTRA:                  -3.304
REMARK UNBOUND:                -3.398
REMARK SMILES CCCCCCCCCCCCCCCCCCCCCCCC(=O)[O-]
REMARK SMILES IDX 13 1 14 2 15 3 16 4 17 5 18 6 19 7 20 8 21 9 22 10 23 11
REMARK SMILES IDX 24 12 25 13 26 14 12 15 11 16 10 17 9 18 8 19 7 20 6 21 5 22
REMARK SMILES IDX 4 23 3 24 2 25 1 26
REMARK H PARENT
REMARK Flexibility Score: inf
ROOT
ATOM      1  C   UNL     1      13.510  -0.041  19.696  1.00  0.00     0.000 C 
ENDROOT
BRANCH   1   2
ATOM      2  C   UNL     1      13.730  -1.384  18.978  1.00  0.00     0.000 C 
BRANCH   2   3
ATOM      3  C   UNL     1      14.748  -1.281  17.821  1.00  0.00     0.000 C 
BRANCH   3   4
ATOM      4  C   UNL     1      15.978  -2.195  17.980  1.00  0.00     0.000 C 
BRANCH   4   5
ATOM      5  C   UNL     1      16.998  -1.751  19.046  1.00  0.00     0.000 C 
BRANCH   5   6
ATOM      6  C   UNL     1      17.102  -0.226  19.257  1.00  0.00     0.000 C 
BRANCH   6   7
ATOM      7  C   UNL     1      17.899   0.534  18.177  1.00  0.00     0.000 C 
BRANCH   7   8
ATOM      8  C   UNL     1      17.065   1.495  17.311  1.00  0.00     0.000 C 
BRANCH   8   9
ATOM      9  C   UNL     1      17.185   1.201  15.808  1.00  0.00     0.000 C 
BRANCH   9  10
ATOM     10  C   UNL     1      17.243  -0.308  15.547  1.00  0.00     0.006 C 
BRANCH  10  11
ATOM     11  C   UNL     1      18.303  -0.644  14.495  1.00  0.00     0.053 C 
BRANCH  11  12
ATOM     12  C   UNL     1      19.615  -0.949  15.149  1.00  0.00     0.041 C 
ATOM     13  O   UNL     1      20.030  -2.136  15.216  1.00  0.00    -0.550 OA
ATOM     14  O   UNL     1      20.401   0.085  15.643  1.00  0.00    -0.550 OA
ENDBRANCH  11  12
ENDBRANCH  10  11
ENDBRANCH   9  10
ENDBRANCH   8   9
ENDBRANCH   7   8
ENDBRANCH   6   7
ENDBRANCH   5   6
ENDBRANCH   4   5
ENDBRANCH   3   4
ENDBRANCH   2   3
ENDBRANCH   1   2
BRANCH   1  15
ATOM     15  C   UNL     1      13.646   1.173  18.759  1.00  0.00     0.000 C 
BRANCH  15  16
ATOM     16  C   UNL     1      14.371   2.392  19.364  1.00  0.00     0.000 C 
BRANCH  16  17
ATOM     17  C   UNL     1      13.867   3.731  18.806  1.00  0.00     0.000 C 
BRANCH  17  18
ATOM     18  C   UNL     1      12.954   3.518  17.589  1.00  0.00    -0.000 C 
BRANCH  18  19
ATOM     19  C   UNL     1      13.744   3.322  16.284  1.00  0.00    -0.000 C 
BRANCH  19  20
ATOM     20  C   UNL     1      13.121   2.264  15.363  1.00  0.00    -0.000 C 
BRANCH  20  21
ATOM     21  C   UNL     1      14.116   1.827  14.281  1.00  0.00    -0.000 C 
BRANCH  21  22
ATOM     22  C   UNL     1      14.813   3.042  13.649  1.00  0.00    -0.000 C 
BRANCH  22  23
ATOM     23  C   UNL     1      16.000   2.642  12.756  1.00  0.00    -0.000 C 
BRANCH  23  24
ATOM     24  C   UNL     1      15.636   1.533  11.755  1.00  0.00    -0.000 C 
BRANCH  24  25
ATOM     25  C   UNL     1      16.733   1.309  10.702  1.00  0.00    -0.003 C 
ATOM     26  C   UNL     1      18.092   0.991  11.325  1.00  0.00     0.004 C 
ENDBRANCH  24  25
ENDBRANCH  23  24
ENDBRANCH  22  23
ENDBRANCH  21  22
ENDBRANCH  20  21
ENDBRANCH  19  20
ENDBRANCH  18  19
ENDBRANCH  17  18
ENDBRANCH  16  17
ENDBRANCH  15  16
ENDBRANCH   1  15
TORSDOF 22
ENDMDL
MODEL 9
REMARK VINA RESULT:    -6.035      1.758      6.584
REMARK INTER + INTRA:         -17.195
REMARK INTER:                 -14.793
REMARK INTRA:                  -2.402
REMARK UNBOUND:                -3.398
REMARK SMILES CCCCCCCCCCCCCCCCCCCCCCCC(=O)[O-]
REMARK SMILES IDX 13 1 14 2 15 3 16 4 17 5 18 6 19 7 20 8 21 9 22 10 23 11
REMARK SMILES IDX 24 12 25 13 26 14 12 15 11 16 10 17 9 18 8 19 7 20 6 21 5 22
REMARK SMILES IDX 4 23 3 24 2 25 1 26
REMARK H PARENT
REMARK Flexibility Score: inf
ROOT
ATOM      1  C   UNL     1      15.841  -1.722  17.705  1.00  0.00     0.000 C 
ENDROOT
BRANCH   1   2
ATOM      2  C   UNL     1      14.424  -1.997  18.236  1.00  0.00     0.000 C 
BRANCH   2   3
ATOM      3  C   UNL     1      13.632  -0.702  18.518  1.00  0.00     0.000 C 
BRANCH   3   4
ATOM      4  C   UNL     1      13.466  -0.377  20.016  1.00  0.00     0.000 C 
BRANCH   4   5
ATOM      5  C   UNL     1      14.664   0.332  20.674  1.00  0.00     0.000 C 
BRANCH   5   6
ATOM      6  C   UNL     1      14.716   1.861  20.465  1.00  0.00     0.000 C 
BRANCH   6   7
ATOM      7  C   UNL     1      14.592   2.328  19.001  1.00  0.00     0.000 C 
BRANCH   7   8
ATOM      8  C   UNL     1      13.794   3.628  18.799  1.00  0.00     0.000 C 
BRANCH   8   9
ATOM      9  C   UNL     1      13.044   3.667  17.460  1.00  0.00     0.000 C 
BRANCH   9  10
ATOM     10  C   UNL     1      13.222   2.352  16.692  1.00  0.00     0.006 C 
BRANCH  10  11
ATOM     11  C   UNL     1      13.336   2.604  15.187  1.00  0.00     0.053 C 
BRANCH  11  12
ATOM     12  C   UNL     1      14.773   2.667  14.772  1.00  0.00     0.041 C 
ATOM     13  O   UNL     1      15.100   3.250  13.704  1.00  0.00    -0.550 OA
ATOM     14  O   UNL     1      15.756   2.124  15.589  1.00  0.00    -0.550 OA
ENDBRANCH  11  12
ENDBRANCH  10  11
ENDBRANCH   9  10
ENDBRANCH   8   9
ENDBRANCH   7   8
ENDBRANCH   6   7
ENDBRANCH   5   6
ENDBRANCH   4   5
ENDBRANCH   3   4
ENDBRANCH   2   3
ENDBRANCH   1   2
BRANCH   1  15
ATOM     15  C   UNL     1      16.929  -1.869  18.786  1.00  0.00     0.000 C 
BRANCH  15  16
ATOM     16  C   UNL     1      17.734  -0.590  19.087  1.00  0.00     0.000 C 
BRANCH  16  17
ATOM     17  C   UNL     1      17.415   0.564  18.124  1.00  0.00     0.000 C 
BRANCH  17  18
ATOM     18  C   UNL     1      18.565   0.791  17.131  1.00  0.00    -0.000 C 
BRANCH  18  19
ATOM     19  C   UNL     1      19.099  -0.522  16.535  1.00  0.00    -0.000 C 
BRANCH  19  20
ATOM     20  C   UNL     1      19.952  -0.302  15.277  1.00  0.00    -0.000 C 
BRANCH  20  21
ATOM     21  C   UNL     1      19.184  -0.716  14.016  1.00  0.00    -0.000 C 
BRANCH  21  22
ATOM     22  C   UNL     1      17.672  -0.512  14.199  1.00  0.00    -0.000 C 
BRANCH  22  23
ATOM     23  C   UNL     1      17.023   0.193  12.995  1.00  0.00    -0.000 C 
BRANCH  23  24
ATOM     24  C   UNL     1      18.052   0.603  11.928  1.00  0.00    -0.000 C 
BRANCH  24  25
ATOM     25  C   UNL     1      17.504   1.663  10.960  1.00  0.00    -0.003 C 
ATOM     26  C   UNL     1      15.995   1.863  11.098  1.00  0.00     0.004 C 
ENDBRANCH  24  25
ENDBRANCH  23  24
ENDBRANCH  22  23
ENDBRANCH  21  22
ENDBRANCH  20  21
ENDBRANCH  19  20
ENDBRANCH  18  19
ENDBRANCH  17  18
ENDBRANCH  16  17
ENDBRANCH  15  16
ENDBRANCH   1  15
TORSDOF 22
ENDMDL
