MODEL 1
REMARK VINA RESULT:    -4.996      0.000      0.000
REMARK INTER + INTRA:         -15.020
REMARK INTER:                 -11.422
REMARK INTRA:                  -3.598
REMARK UNBOUND:                -3.598
REMARK SMILES CCCCCCCCCCCCCCCCCCCCCCCC(=O)[O-]
REMARK SMILES IDX 13 1 14 2 15 3 16 4 17 5 18 6 19 7 20 8 21 9 22 10 23 11
REMARK SMILES IDX 24 12 25 13 26 14 12 15 11 16 10 17 9 18 8 19 7 20 6 21 5 22
REMARK SMILES IDX 4 23 3 24 2 25 1 26
REMARK H PARENT
REMARK Flexibility Score: inf
ROOT
ATOM      1  C   UNL     1      61.474 152.450   1.413  1.00  0.00     0.000 C 
ENDROOT
BRANCH   1   2
ATOM      2  C   UNL     1      60.914 151.956   2.760  1.00  0.00     0.000 C 
BRANCH   2   3
ATOM      3  C   UNL     1      62.011 151.463   3.719  1.00  0.00     0.000 C 
BRANCH   3   4
ATOM      4  C   UNL     1      63.423 151.830   3.238  1.00  0.00     0.000 C 
BRANCH   4   5
ATOM      5  C   UNL     1      64.519 151.437   4.246  1.00  0.00     0.000 C 
BRANCH   5   6
ATOM      6  C   UNL     1      64.994 149.983   4.077  1.00  0.00     0.000 C 
BRANCH   6   7
ATOM      7  C   UNL     1      64.920 149.126   5.353  1.00  0.00     0.000 C 
BRANCH   7   8
ATOM      8  C   UNL     1      63.622 149.342   6.145  1.00  0.00     0.000 C 
BRANCH   8   9
ATOM      9  C   UNL     1      62.533 148.359   5.689  1.00  0.00     0.000 C 
BRANCH   9  10
ATOM     10  C   UNL     1      61.188 148.594   6.393  1.00  0.00     0.006 C 
BRANCH  10  11
ATOM     11  C   UNL     1      60.508 147.287   6.824  1.00  0.00     0.053 C 
BRANCH  11  12
ATOM     12  C   UNL     1      59.743 147.481   8.097  1.00  0.00     0.041 C 
ATOM     13  O   UNL     1      59.490 146.496   8.840  1.00  0.00    -0.550 OA
ATOM     14  O   UNL     1      59.288 148.745   8.452  1.00  0.00    -0.550 OA
ENDBRANCH  11  12
ENDBRANCH  10  11
ENDBRANCH   9  10
ENDBRANCH   8   9
ENDBRANCH   7   8
ENDBRANCH   6   7
ENDBRANCH   5   6
ENDBRANCH   4   5
ENDBRANCH   3   4
ENDBRANCH   2   3
ENDBRANCH   1   2
BRANCH   1  15
ATOM     15  C   UNL     1      60.870 153.769   0.895  1.00  0.00     0.000 C 
BRANCH  15  16
ATOM     16  C   UNL     1      59.331 153.759   0.877  1.00  0.00     0.000 C 
BRANCH  16  17
ATOM     17  C   UNL     1      58.722 154.835   1.802  1.00  0.00     0.000 C 
BRANCH  17  18
ATOM     18  C   UNL     1      58.193 154.278   3.137  1.00  0.00    -0.000 C 
BRANCH  18  19
ATOM     19  C   UNL     1      58.903 154.820   4.392  1.00  0.00    -0.000 C 
BRANCH  19  20
ATOM     20  C   UNL     1      58.422 154.215   5.726  1.00  0.00    -0.000 C 
BRANCH  20  21
ATOM     21  C   UNL     1      58.138 152.700   5.695  1.00  0.00    -0.000 C 
BRANCH  21  22
ATOM     22  C   UNL     1      59.290 151.811   6.199  1.00  0.00    -0.000 C 
BRANCH  22  23
ATOM     23  C   UNL     1      59.746 152.174   7.620  1.00  0.00    -0.000 C 
BRANCH  23  24
ATOM     24  C   UNL     1      61.273 152.067   7.747  1.00  0.00    -0.000 C 
BRANCH  24  25
ATOM     25  C   UNL     1      62.014 152.978   6.755  1.00  0.00    -0.003 C 
ATOM     26  C   UNL     1      61.838 154.463   7.068  1.00  0.00     0.004 C 
ENDBRANCH  24  25
ENDBRANCH  23  24
ENDBRANCH  22  23
ENDBRANCH  21  22
ENDBRANCH  20  21
ENDBRANCH  19  20
ENDBRANCH  18  19
ENDBRANCH  17  18
ENDBRANCH  16  17
ENDBRANCH  15  16
ENDBRANCH   1  15
TORSDOF 22
ENDMDL
MODEL 2
REMARK VINA RESULT:    -4.937      1.660      3.265
REMARK INTER + INTRA:         -14.885
REMARK INTER:                 -11.710
REMARK INTRA:                  -3.174
REMARK UNBOUND:                -3.598
REMARK SMILES CCCCCCCCCCCCCCCCCCCCCCCC(=O)[O-]
REMARK SMILES IDX 13 1 14 2 15 3 16 4 17 5 18 6 19 7 20 8 21 9 22 10 23 11
REMARK SMILES IDX 24 12 25 13 26 14 12 15 11 16 10 17 9 18 8 19 7 20 6 21 5 22
REMARK SMILES IDX 4 23 3 24 2 25 1 26
REMARK H PARENT
REMARK Flexibility Score: inf
ROOT
ATOM      1  C   UNL     1      58.990 153.586   2.629  1.00  0.00     0.000 C 
ENDROOT
BRANCH   1   2
ATOM      2  C   UNL     1      59.644 153.731   1.242  1.00  0.00     0.000 C 
BRANCH   2   3
ATOM      3  C   UNL     1      61.102 153.240   1.213  1.00  0.00     0.000 C 
BRANCH   3   4
ATOM      4  C   UNL     1      61.308 151.959   2.035  1.00  0.00     0.000 C 
BRANCH   4   5
ATOM      5  C   UNL     1      62.157 152.189   3.299  1.00  0.00     0.000 C 
BRANCH   5   6
ATOM      6  C   UNL     1      63.510 151.457   3.252  1.00  0.00     0.000 C 
BRANCH   6   7
ATOM      7  C   UNL     1      64.620 152.095   4.106  1.00  0.00     0.000 C 
BRANCH   7   8
ATOM      8  C   UNL     1      64.986 151.253   5.337  1.00  0.00     0.000 C 
BRANCH   8   9
ATOM      9  C   UNL     1      64.507 149.803   5.171  1.00  0.00     0.000 C 
BRANCH   9  10
ATOM     10  C   UNL     1      63.564 149.355   6.298  1.00  0.00     0.006 C 
BRANCH  10  11
ATOM     11  C   UNL     1      62.119 149.160   5.820  1.00  0.00     0.053 C 
BRANCH  11  12
ATOM     12  C   UNL     1      61.765 147.705   5.779  1.00  0.00     0.041 C 
ATOM     13  O   UNL     1      62.332 146.938   4.956  1.00  0.00    -0.550 OA
ATOM     14  O   UNL     1      60.790 147.200   6.631  1.00  0.00    -0.550 OA
ENDBRANCH  11  12
ENDBRANCH  10  11
ENDBRANCH   9  10
ENDBRANCH   8   9
ENDBRANCH   7   8
ENDBRANCH   6   7
ENDBRANCH   5   6
ENDBRANCH   4   5
ENDBRANCH   3   4
ENDBRANCH   2   3
ENDBRANCH   1   2
BRANCH   1  15
ATOM     15  C   UNL     1      58.394 154.882   3.212  1.00  0.00     0.000 C 
BRANCH  15  16
ATOM     16  C   UNL     1      58.352 154.885   4.750  1.00  0.00     0.000 C 
BRANCH  16  17
ATOM     17  C   UNL     1      58.311 156.313   5.337  1.00  0.00     0.000 C 
BRANCH  17  18
ATOM     18  C   UNL     1      59.556 156.678   6.168  1.00  0.00    -0.000 C 
BRANCH  18  19
ATOM     19  C   UNL     1      60.441 155.482   6.566  1.00  0.00    -0.000 C 
BRANCH  19  20
ATOM     20  C   UNL     1      60.185 154.923   7.981  1.00  0.00    -0.000 C 
BRANCH  20  21
ATOM     21  C   UNL     1      59.943 153.402   8.052  1.00  0.00    -0.000 C 
BRANCH  21  22
ATOM     22  C   UNL     1      60.674 152.576   6.979  1.00  0.00    -0.000 C 
BRANCH  22  23
ATOM     23  C   UNL     1      59.713 151.877   6.006  1.00  0.00    -0.000 C 
BRANCH  23  24
ATOM     24  C   UNL     1      58.443 151.409   6.733  1.00  0.00    -0.000 C 
BRANCH  24  25
ATOM     25  C   UNL     1      58.505 149.927   7.136  1.00  0.00    -0.003 C 
ATOM     26  C   UNL     1      59.184 149.709   8.488  1.00  0.00     0.004 C 
ENDBRANCH  24  25
ENDBRANCH  23  24
ENDBRANCH  22  23
ENDBRANCH  21  22
ENDBRANCH  20  21
ENDBRANCH  19  20
ENDBRANCH  18  19
ENDBRANCH  17  18
ENDBRANCH  16  17
ENDBRANCH  15  16
ENDBRANCH   1  15
TORSDOF 22
ENDMDL
MODEL 3
REMARK VINA RESULT:    -4.901      2.469      6.254
REMARK INTER + INTRA:         -14.802
REMARK INTER:                 -11.524
REMARK INTRA:                  -3.278
REMARK UNBOUND:                -3.598
REMARK SMILES CCCCCCCCCCCCCCCCCCCCCCCC(=O)[O-]
REMARK SMILES IDX 13 1 14 2 15 3 16 4 17 5 18 6 19 7 20 8 21 9 22 10 23 11
REMARK SMILES IDX 24 12 25 13 26 14 12 15 11 16 10 17 9 18 8 19 7 20 6 21 5 22
REMARK SMILES IDX 4 23 3 24 2 25 1 26
REMARK H PARENT
REMARK Flexibility Score: inf
ROOT
ATOM      1  C   UNL     1      64.919 150.136   4.086  1.00  0.00     0.000 C 
ENDROOT
BRANCH   1   2
ATOM      2  C   UNL     1      64.994 151.656   4.326  1.00  0.00     0.000 C 
BRANCH   2   3
ATOM      3  C   UNL     1      63.772 152.410   3.776  1.00  0.00     0.000 C 
BRANCH   3   4
ATOM      4  C   UNL     1      62.741 151.472   3.132  1.00  0.00     0.000 C 
BRANCH   4   5
ATOM      5  C   UNL     1      61.825 152.190   2.124  1.00  0.00     0.000 C 
BRANCH   5   6
ATOM      6  C   UNL     1      60.395 152.393   2.654  1.00  0.00     0.000 C 
BRANCH   6   7
ATOM      7  C   UNL     1      59.519 153.335   1.809  1.00  0.00     0.000 C 
BRANCH   7   8
ATOM      8  C   UNL     1      58.614 154.235   2.661  1.00  0.00     0.000 C 
BRANCH   8   9
ATOM      9  C   UNL     1      59.015 154.171   4.142  1.00  0.00     0.000 C 
BRANCH   9  10
ATOM     10  C   UNL     1      58.195 155.126   5.022  1.00  0.00     0.006 C 
BRANCH  10  11
ATOM     11  C   UNL     1      59.039 156.267   5.607  1.00  0.00     0.053 C 
BRANCH  11  12
ATOM     12  C   UNL     1      59.739 155.824   6.855  1.00  0.00     0.041 C 
ATOM     13  O   UNL     1      59.089 155.653   7.920  1.00  0.00    -0.550 OA
ATOM     14  O   UNL     1      61.115 155.623   6.849  1.00  0.00    -0.550 OA
ENDBRANCH  11  12
ENDBRANCH  10  11
ENDBRANCH   9  10
ENDBRANCH   8   9
ENDBRANCH   7   8
ENDBRANCH   6   7
ENDBRANCH   5   6
ENDBRANCH   4   5
ENDBRANCH   3   4
ENDBRANCH   2   3
ENDBRANCH   1   2
BRANCH   1  15
ATOM     15  C   UNL     1      65.071 149.264   5.347  1.00  0.00     0.000 C 
BRANCH  15  16
ATOM     16  C   UNL     1      63.795 149.222   6.206  1.00  0.00     0.000 C 
BRANCH  16  17
ATOM     17  C   UNL     1      62.544 148.834   5.387  1.00  0.00     0.000 C 
BRANCH  17  18
ATOM     18  C   UNL     1      61.721 147.693   6.014  1.00  0.00    -0.000 C 
BRANCH  18  19
ATOM     19  C   UNL     1      60.288 148.080   6.427  1.00  0.00    -0.000 C 
BRANCH  19  20
ATOM     20  C   UNL     1      59.901 147.700   7.871  1.00  0.00    -0.000 C 
BRANCH  20  21
ATOM     21  C   UNL     1      58.611 148.360   8.400  1.00  0.00    -0.000 C 
BRANCH  21  22
ATOM     22  C   UNL     1      58.726 149.865   8.700  1.00  0.00    -0.000 C 
BRANCH  22  23
ATOM     23  C   UNL     1      58.221 150.744   7.546  1.00  0.00    -0.000 C 
BRANCH  23  24
ATOM     24  C   UNL     1      59.140 151.958   7.341  1.00  0.00    -0.000 C 
BRANCH  24  25
ATOM     25  C   UNL     1      60.248 151.693   6.308  1.00  0.00    -0.003 C 
ATOM     26  C   UNL     1      61.621 152.176   6.774  1.00  0.00     0.004 C 
ENDBRANCH  24  25
ENDBRANCH  23  24
ENDBRANCH  22  23
ENDBRANCH  21  22
ENDBRANCH  20  21
ENDBRANCH  19  20
ENDBRANCH  18  19
ENDBRANCH  17  18
ENDBRANCH  16  17
ENDBRANCH  15  16
ENDBRANCH   1  15
TORSDOF 22
ENDMDL
MODEL 4
REMARK VINA RESULT:    -4.873      2.459      5.875
REMARK INTER + INTRA:         -14.739
REMARK INTER:                 -11.404
REMARK INTRA:                  -3.335
REMARK UNBOUND:                -3.598
REMARK SMILES CCCCCCCCCCCCCCCCCCCCCCCC(=O)[O-]
REMARK SMILES IDX 13 1 14 2 15 3 16 4 17 5 18 6 19 7 20 8 21 9 22 10 23 11
REMARK SMILES IDX 24 12 25 13 26 14 12 15 11 16 10 17 9 18 8 19 7 20 6 21 5 22
REMARK SMILES IDX 4 23 3 24 2 25 1 26
REMARK H PARENT
REMARK Flexibility Score: inf
ROOT
ATOM      1  C   UNL     1      65.015 149.732   4.695  1.00  0.00     0.000 C 
ENDROOT
BRANCH   1   2
ATOM      2  C   UNL     1      64.177 148.588   5.298  1.00  0.00     0.000 C 
BRANCH   2   3
ATOM      3  C   UNL     1      62.987 149.093   6.130  1.00  0.00     0.000 C 
BRANCH   3   4
ATOM      4  C   UNL     1      61.648 148.502   5.662  1.00  0.00     0.000 C 
BRANCH   4   5
ATOM      5  C   UNL     1      60.792 147.964   6.823  1.00  0.00     0.000 C 
BRANCH   5   6
ATOM      6  C   UNL     1      59.480 148.746   7.011  1.00  0.00     0.000 C 
BRANCH   6   7
ATOM      7  C   UNL     1      59.320 149.419   8.386  1.00  0.00     0.000 C 
BRANCH   7   8
ATOM      8  C   UNL     1      60.435 150.429   8.691  1.00  0.00     0.000 C 
BRANCH   8   9
ATOM      9  C   UNL     1      59.869 151.853   8.808  1.00  0.00     0.000 C 
BRANCH   9  10
ATOM     10  C   UNL     1      60.937 152.936   8.601  1.00  0.00     0.006 C 
BRANCH  10  11
ATOM     11  C   UNL     1      60.345 154.269   8.122  1.00  0.00     0.053 C 
BRANCH  11  12
ATOM     12  C   UNL     1      61.345 155.033   7.308  1.00  0.00     0.041 C 
ATOM     13  O   UNL     1      61.047 156.161   6.836  1.00  0.00    -0.550 OA
ATOM     14  O   UNL     1      62.597 154.488   7.051  1.00  0.00    -0.550 OA
ENDBRANCH  11  12
ENDBRANCH  10  11
ENDBRANCH   9  10
ENDBRANCH   8   9
ENDBRANCH   7   8
ENDBRANCH   6   7
ENDBRANCH   5   6
ENDBRANCH   4   5
ENDBRANCH   3   4
ENDBRANCH   2   3
ENDBRANCH   1   2
BRANCH   1  15
ATOM     15  C   UNL     1      64.834 151.104   5.371  1.00  0.00     0.000 C 
BRANCH  15  16
ATOM     16  C   UNL     1      64.226 152.161   4.433  1.00  0.00     0.000 C 
BRANCH  16  17
ATOM     17  C   UNL     1      63.402 151.531   3.288  1.00  0.00     0.000 C 
BRANCH  17  18
ATOM     18  C   UNL     1      61.879 151.638   3.490  1.00  0.00    -0.000 C 
BRANCH  18  19
ATOM     19  C   UNL     1      61.440 152.036   4.912  1.00  0.00    -0.000 C 
BRANCH  19  20
ATOM     20  C   UNL     1      59.927 152.278   5.083  1.00  0.00    -0.000 C 
BRANCH  20  21
ATOM     21  C   UNL     1      59.400 153.596   4.482  1.00  0.00    -0.000 C 
BRANCH  21  22
ATOM     22  C   UNL     1      58.801 153.475   3.070  1.00  0.00    -0.000 C 
BRANCH  22  23
ATOM     23  C   UNL     1      58.308 154.818   2.512  1.00  0.00    -0.000 C 
BRANCH  23  24
ATOM     24  C   UNL     1      58.708 154.978   1.037  1.00  0.00    -0.000 C 
BRANCH  24  25
ATOM     25  C   UNL     1      59.527 153.787   0.515  1.00  0.00    -0.003 C 
ATOM     26  C   UNL     1      60.962 154.167   0.153  1.00  0.00     0.004 C 
ENDBRANCH  24  25
ENDBRANCH  23  24
ENDBRANCH  22  23
ENDBRANCH  21  22
ENDBRANCH  20  21
ENDBRANCH  19  20
ENDBRANCH  18  19
ENDBRANCH  17  18
ENDBRANCH  16  17
ENDBRANCH  15  16
ENDBRANCH   1  15
TORSDOF 22
ENDMDL
MODEL 5
REMARK VINA RESULT:    -4.863      2.648      6.187
REMARK INTER + INTRA:         -14.716
REMARK INTER:                 -11.254
REMARK INTRA:                  -3.461
REMARK UNBOUND:                -3.598
REMARK SMILES CCCCCCCCCCCCCCCCCCCCCCCC(=O)[O-]
REMARK SMILES IDX 13 1 14 2 15 3 16 4 17 5 18 6 19 7 20 8 21 9 22 10 23 11
REMARK SMILES IDX 24 12 25 13 26 14 12 15 11 16 10 17 9 18 8 19 7 20 6 21 5 22
REMARK SMILES IDX 4 23 3 24 2 25 1 26
REMARK H PARENT
REMARK Flexibility Score: inf
ROOT
ATOM      1  C   UNL     1      63.542 148.624   5.381  1.00  0.00     0.000 C 
ENDROOT
BRANCH   1   2
ATOM      2  C   UNL     1      64.949 149.217   5.582  1.00  0.00     0.000 C 
BRANCH   2   3
ATOM      3  C   UNL     1      64.938 150.748   5.731  1.00  0.00     0.000 C 
BRANCH   3   4
ATOM      4  C   UNL     1      65.239 151.471   4.409  1.00  0.00     0.000 C 
BRANCH   4   5
ATOM      5  C   UNL     1      64.113 152.428   3.980  1.00  0.00     0.000 C 
BRANCH   5   6
ATOM      6  C   UNL     1      63.054 151.746   3.095  1.00  0.00     0.000 C 
BRANCH   6   7
ATOM      7  C   UNL     1      61.698 151.500   3.781  1.00  0.00     0.000 C 
BRANCH   7   8
ATOM      8  C   UNL     1      60.541 152.252   3.107  1.00  0.00     0.000 C 
BRANCH   8   9
ATOM      9  C   UNL     1      60.891 152.605   1.654  1.00  0.00     0.000 C 
BRANCH   9  10
ATOM     10  C   UNL     1      60.033 153.751   1.098  1.00  0.00     0.006 C 
BRANCH  10  11
ATOM     11  C   UNL     1      58.582 153.702   1.596  1.00  0.00     0.053 C 
BRANCH  11  12
ATOM     12  C   UNL     1      58.289 154.864   2.495  1.00  0.00     0.041 C 
ATOM     13  O   UNL     1      58.110 156.011   2.009  1.00  0.00    -0.550 OA
ATOM     14  O   UNL     1      58.237 154.684   3.872  1.00  0.00    -0.550 OA
ENDBRANCH  11  12
ENDBRANCH  10  11
ENDBRANCH   9  10
ENDBRANCH   8   9
ENDBRANCH   7   8
ENDBRANCH   6   7
ENDBRANCH   5   6
ENDBRANCH   4   5
ENDBRANCH   3   4
ENDBRANCH   2   3
ENDBRANCH   1   2
BRANCH   1  15
ATOM     15  C   UNL     1      62.509 149.007   6.458  1.00  0.00     0.000 C 
BRANCH  15  16
ATOM     16  C   UNL     1      61.068 148.631   6.068  1.00  0.00     0.000 C 
BRANCH  16  17
ATOM     17  C   UNL     1      60.537 147.420   6.866  1.00  0.00     0.000 C 
BRANCH  17  18
ATOM     18  C   UNL     1      60.177 147.749   8.327  1.00  0.00    -0.000 C 
BRANCH  18  19
ATOM     19  C   UNL     1      58.700 147.513   8.699  1.00  0.00    -0.000 C 
BRANCH  19  20
ATOM     20  C   UNL     1      57.876 148.794   8.938  1.00  0.00    -0.000 C 
BRANCH  20  21
ATOM     21  C   UNL     1      58.541 150.102   8.466  1.00  0.00    -0.000 C 
BRANCH  21  22
ATOM     22  C   UNL     1      58.039 150.637   7.113  1.00  0.00    -0.000 C 
BRANCH  22  23
ATOM     23  C   UNL     1      58.998 151.656   6.481  1.00  0.00    -0.000 C 
BRANCH  23  24
ATOM     24  C   UNL     1      59.793 152.403   7.563  1.00  0.00    -0.000 C 
BRANCH  24  25
ATOM     25  C   UNL     1      61.304 152.417   7.282  1.00  0.00    -0.003 C 
ATOM     26  C   UNL     1      61.796 153.763   6.752  1.00  0.00     0.004 C 
ENDBRANCH  24  25
ENDBRANCH  23  24
ENDBRANCH  22  23
ENDBRANCH  21  22
ENDBRANCH  20  21
ENDBRANCH  19  20
ENDBRANCH  18  19
ENDBRANCH  17  18
ENDBRANCH  16  17
ENDBRANCH  15  16
ENDBRANCH   1  15
TORSDOF 22
ENDMDL
MODEL 6
REMARK VINA RESULT:    -4.845      2.576      6.863
REMARK INTER + INTRA:         -14.675
REMARK INTER:                 -11.051
REMARK INTRA:                  -3.624
REMARK UNBOUND:                -3.598
REMARK SMILES CCCCCCCCCCCCCCCCCCCCCCCC(=O)[O-]
REMARK SMILES IDX 13 1 14 2 15 3 16 4 17 5 18 6 19 7 20 8 21 9 22 10 23 11
REMARK SMILES IDX 24 12 25 13 26 14 12 15 11 16 10 17 9 18 8 19 7 20 6 21 5 22
REMARK SMILES IDX 4 23 3 24 2 25 1 26
REMARK H PARENT
REMARK Flexibility Score: inf
ROOT
ATOM      1  C   UNL     1      60.939 152.100   6.002  1.00  0.00     0.000 C 
ENDROOT
BRANCH   1   2
ATOM      2  C   UNL     1      61.460 152.867   7.231  1.00  0.00     0.000 C 
BRANCH   2   3
ATOM      3  C   UNL     1      62.113 154.211   6.866  1.00  0.00     0.000 C 
BRANCH   3   4
ATOM      4  C   UNL     1      61.275 155.416   7.318  1.00  0.00     0.000 C 
BRANCH   4   5
ATOM      5  C   UNL     1      60.037 155.010   8.138  1.00  0.00     0.000 C 
BRANCH   5   6
ATOM      6  C   UNL     1      58.727 155.125   7.338  1.00  0.00     0.000 C 
BRANCH   6   7
ATOM      7  C   UNL     1      58.757 156.149   6.190  1.00  0.00     0.000 C 
BRANCH   7   8
ATOM      8  C   UNL     1      58.140 155.611   4.891  1.00  0.00     0.000 C 
BRANCH   8   9
ATOM      9  C   UNL     1      59.041 154.539   4.259  1.00  0.00     0.000 C 
BRANCH   9  10
ATOM     10  C   UNL     1      58.689 154.256   2.791  1.00  0.00     0.006 C 
BRANCH  10  11
ATOM     11  C   UNL     1      59.069 152.835   2.353  1.00  0.00     0.053 C 
BRANCH  11  12
ATOM     12  C   UNL     1      60.485 152.790   1.867  1.00  0.00     0.041 C 
ATOM     13  O   UNL     1      60.867 153.572   0.955  1.00  0.00    -0.550 OA
ATOM     14  O   UNL     1      61.378 151.869   2.402  1.00  0.00    -0.550 OA
ENDBRANCH  11  12
ENDBRANCH  10  11
ENDBRANCH   9  10
ENDBRANCH   8   9
ENDBRANCH   7   8
ENDBRANCH   6   7
ENDBRANCH   5   6
ENDBRANCH   4   5
ENDBRANCH   3   4
ENDBRANCH   2   3
ENDBRANCH   1   2
BRANCH   1  15
ATOM     15  C   UNL     1      59.513 151.533   6.138  1.00  0.00     0.000 C 
BRANCH  15  16
ATOM     16  C   UNL     1      59.052 151.411   7.602  1.00  0.00     0.000 C 
BRANCH  16  17
ATOM     17  C   UNL     1      59.430 150.051   8.229  1.00  0.00     0.000 C 
BRANCH  17  18
ATOM     18  C   UNL     1      59.460 148.890   7.219  1.00  0.00    -0.000 C 
BRANCH  18  19
ATOM     19  C   UNL     1      60.826 148.191   7.077  1.00  0.00    -0.000 C 
BRANCH  19  20
ATOM     20  C   UNL     1      61.396 148.157   5.644  1.00  0.00    -0.000 C 
BRANCH  20  21
ATOM     21  C   UNL     1      62.495 149.198   5.350  1.00  0.00    -0.000 C 
BRANCH  21  22
ATOM     22  C   UNL     1      63.933 148.720   5.622  1.00  0.00    -0.000 C 
BRANCH  22  23
ATOM     23  C   UNL     1      64.988 149.785   5.290  1.00  0.00    -0.000 C 
BRANCH  23  24
ATOM     24  C   UNL     1      64.613 150.545   4.008  1.00  0.00    -0.000 C 
BRANCH  24  25
ATOM     25  C   UNL     1      64.482 152.060   4.237  1.00  0.00    -0.003 C 
ATOM     26  C   UNL     1      65.323 152.557   5.412  1.00  0.00     0.004 C 
ENDBRANCH  24  25
ENDBRANCH  23  24
ENDBRANCH  22  23
ENDBRANCH  21  22
ENDBRANCH  20  21
ENDBRANCH  19  20
ENDBRANCH  18  19
ENDBRANCH  17  18
ENDBRANCH  16  17
ENDBRANCH  15  16
ENDBRANCH   1  15
TORSDOF 22
ENDMDL
MODEL 7
REMARK VINA RESULT:    -4.776      2.480      5.446
REMARK INTER + INTRA:         -14.517
REMARK INTER:                 -11.448
REMARK INTRA:                  -3.069
REMARK UNBOUND:                -3.598
REMARK SMILES CCCCCCCCCCCCCCCCCCCCCCCC(=O)[O-]
REMARK SMILES IDX 13 1 14 2 15 3 16 4 17 5 18 6 19 7 20 8 21 9 22 10 23 11
REMARK SMILES IDX 24 12 25 13 26 14 12 15 11 16 10 17 9 18 8 19 7 20 6 21 5 22
REMARK SMILES IDX 4 23 3 24 2 25 1 26
REMARK H PARENT
REMARK Flexibility Score: inf
ROOT
ATOM      1  C   UNL     1      58.622 154.469   4.199  1.00  0.00     0.000 C 
ENDROOT
BRANCH   1   2
ATOM      2  C   UNL     1      58.052 155.475   3.181  1.00  0.00     0.000 C 
BRANCH   2   3
ATOM      3  C   UNL     1      58.221 155.013   1.724  1.00  0.00     0.000 C 
BRANCH   3   4
ATOM      4  C   UNL     1      58.895 153.636   1.617  1.00  0.00     0.000 C 
BRANCH   4   5
ATOM      5  C   UNL     1      60.341 153.717   1.095  1.00  0.00     0.000 C 
BRANCH   5   6
ATOM      6  C   UNL     1      61.233 152.582   1.629  1.00  0.00     0.000 C 
BRANCH   6   7
ATOM      7  C   UNL     1      60.738 151.928   2.932  1.00  0.00     0.000 C 
BRANCH   7   8
ATOM      8  C   UNL     1      61.884 151.503   3.861  1.00  0.00     0.000 C 
BRANCH   8   9
ATOM      9  C   UNL     1      63.241 151.636   3.154  1.00  0.00     0.000 C 
BRANCH   9  10
ATOM     10  C   UNL     1      64.380 150.946   3.919  1.00  0.00     0.006 C 
BRANCH  10  11
ATOM     11  C   UNL     1      64.305 151.180   5.433  1.00  0.00     0.053 C 
BRANCH  11  12
ATOM     12  C   UNL     1      64.690 152.587   5.774  1.00  0.00     0.041 C 
ATOM     13  O   UNL     1      63.801 153.445   6.018  1.00  0.00    -0.550 OA
ATOM     14  O   UNL     1      66.029 152.958   5.798  1.00  0.00    -0.550 OA
ENDBRANCH  11  12
ENDBRANCH  10  11
ENDBRANCH   9  10
ENDBRANCH   8   9
ENDBRANCH   7   8
ENDBRANCH   6   7
ENDBRANCH   5   6
ENDBRANCH   4   5
ENDBRANCH   3   4
ENDBRANCH   2   3
ENDBRANCH   1   2
BRANCH   1  15
ATOM     15  C   UNL     1      59.366 155.096   5.394  1.00  0.00     0.000 C 
BRANCH  15  16
ATOM     16  C   UNL     1      59.170 154.310   6.702  1.00  0.00     0.000 C 
BRANCH  16  17
ATOM     17  C   UNL     1      60.372 153.397   7.030  1.00  0.00     0.000 C 
BRANCH  17  18
ATOM     18  C   UNL     1      60.060 152.312   8.076  1.00  0.00    -0.000 C 
BRANCH  18  19
ATOM     19  C   UNL     1      58.629 151.745   8.014  1.00  0.00    -0.000 C 
BRANCH  19  20
ATOM     20  C   UNL     1      58.465 150.325   8.594  1.00  0.00    -0.000 C 
BRANCH  20  21
ATOM     21  C   UNL     1      58.345 149.198   7.548  1.00  0.00    -0.000 C 
BRANCH  21  22
ATOM     22  C   UNL     1      59.434 148.112   7.635  1.00  0.00    -0.000 C 
BRANCH  22  23
ATOM     23  C   UNL     1      60.761 148.641   8.199  1.00  0.00    -0.000 C 
BRANCH  23  24
ATOM     24  C   UNL     1      61.683 149.122   7.068  1.00  0.00    -0.000 C 
BRANCH  24  25
ATOM     25  C   UNL     1      61.355 148.464   5.718  1.00  0.00    -0.003 C 
ATOM     26  C   UNL     1      62.431 147.479   5.263  1.00  0.00     0.004 C 
ENDBRANCH  24  25
ENDBRANCH  23  24
ENDBRANCH  22  23
ENDBRANCH  21  22
ENDBRANCH  20  21
ENDBRANCH  19  20
ENDBRANCH  18  19
ENDBRANCH  17  18
ENDBRANCH  16  17
ENDBRANCH  15  16
ENDBRANCH   1  15
TORSDOF 22
ENDMDL
MODEL 8
REMARK VINA RESULT:    -4.672      2.535      5.417
REMARK INTER + INTRA:         -14.278
REMARK INTER:                 -11.391
REMARK INTRA:                  -2.887
REMARK UNBOUND:                -3.598
REMARK SMILES CCCCCCCCCCCCCCCCCCCCCCCC(=O)[O-]
REMARK SMILES IDX 13 1 14 2 15 3 16 4 17 5 18 6 19 7 20 8 21 9 22 10 23 11
REMARK SMILES IDX 24 12 25 13 26 14 12 15 11 16 10 17 9 18 8 19 7 20 6 21 5 22
REMARK SMILES IDX 4 23 3 24 2 25 1 26
REMARK H PARENT
REMARK Flexibility Score: inf
ROOT
ATOM      1  C   UNL     1      61.420 153.104   6.568  1.00  0.00     0.000 C 
ENDROOT
BRANCH   1   2
ATOM      2  C   UNL     1      60.942 152.026   7.559  1.00  0.00     0.000 C 
BRANCH   2   3
ATOM      3  C   UNL     1      59.568 151.441   7.191  1.00  0.00     0.000 C 
BRANCH   3   4
ATOM      4  C   UNL     1      59.279 150.116   7.914  1.00  0.00     0.000 C 
BRANCH   4   5
ATOM      5  C   UNL     1      59.383 148.893   6.985  1.00  0.00     0.000 C 
BRANCH   5   6
ATOM      6  C   UNL     1      60.704 148.123   7.157  1.00  0.00     0.000 C 
BRANCH   6   7
ATOM      7  C   UNL     1      61.489 147.886   5.854  1.00  0.00     0.000 C 
BRANCH   7   8
ATOM      8  C   UNL     1      62.224 149.141   5.361  1.00  0.00     0.000 C 
BRANCH   8   9
ATOM      9  C   UNL     1      63.427 149.459   6.261  1.00  0.00     0.000 C 
BRANCH   9  10
ATOM     10  C   UNL     1      64.771 149.298   5.536  1.00  0.00     0.006 C 
BRANCH  10  11
ATOM     11  C   UNL     1      64.850 150.121   4.243  1.00  0.00     0.053 C 
BRANCH  11  12
ATOM     12  C   UNL     1      64.853 151.588   4.546  1.00  0.00     0.041 C 
ATOM     13  O   UNL     1      65.484 152.027   5.544  1.00  0.00    -0.550 OA
ATOM     14  O   UNL     1      64.140 152.468   3.742  1.00  0.00    -0.550 OA
ENDBRANCH  11  12
ENDBRANCH  10  11
ENDBRANCH   9  10
ENDBRANCH   8   9
ENDBRANCH   7   8
ENDBRANCH   6   7
ENDBRANCH   5   6
ENDBRANCH   4   5
ENDBRANCH   3   4
ENDBRANCH   2   3
ENDBRANCH   1   2
BRANCH   1  15
ATOM     15  C   UNL     1      61.559 154.521   7.157  1.00  0.00     0.000 C 
BRANCH  15  16
ATOM     16  C   UNL     1      60.744 154.717   8.447  1.00  0.00     0.000 C 
BRANCH  16  17
ATOM     17  C   UNL     1      59.265 155.065   8.165  1.00  0.00     0.000 C 
BRANCH  17  18
ATOM     18  C   UNL     1      59.077 156.117   7.057  1.00  0.00    -0.000 C 
BRANCH  18  19
ATOM     19  C   UNL     1      57.959 155.800   6.045  1.00  0.00    -0.000 C 
BRANCH  19  20
ATOM     20  C   UNL     1      58.217 156.303   4.610  1.00  0.00    -0.000 C 
BRANCH  20  21
ATOM     21  C   UNL     1      58.293 155.203   3.533  1.00  0.00    -0.000 C 
BRANCH  21  22
ATOM     22  C   UNL     1      58.880 153.862   4.011  1.00  0.00    -0.000 C 
BRANCH  22  23
ATOM     23  C   UNL     1      59.017 152.833   2.879  1.00  0.00    -0.000 C 
BRANCH  23  24
ATOM     24  C   UNL     1      60.494 152.608   2.521  1.00  0.00    -0.000 C 
BRANCH  24  25
ATOM     25  C   UNL     1      60.913 153.353   1.243  1.00  0.00    -0.003 C 
ATOM     26  C   UNL     1      59.726 153.959   0.494  1.00  0.00     0.004 C 
ENDBRANCH  24  25
ENDBRANCH  23  24
ENDBRANCH  22  23
ENDBRANCH  21  22
ENDBRANCH  20  21
ENDBRANCH  19  20
ENDBRANCH  18  19
ENDBRANCH  17  18
ENDBRANCH  16  17
ENDBRANCH  15  16
ENDBRANCH   1  15
TORSDOF 22
ENDMDL
MODEL 9
REMARK VINA RESULT:    -4.533      3.119      6.467
REMARK INTER + INTRA:         -13.960
REMARK INTER:                 -10.167
REMARK INTRA:                  -3.794
REMARK UNBOUND:                -3.598
REMARK SMILES CCCCCCCCCCCCCCCCCCCCCCCC(=O)[O-]
REMARK SMILES IDX 13 1 14 2 15 3 16 4 17 5 18 6 19 7 20 8 21 9 22 10 23 11
REMARK SMILES IDX 24 12 25 13 26 14 12 15 11 16 10 17 9 18 8 19 7 20 6 21 5 22
REMARK SMILES IDX 4 23 3 24 2 25 1 26
REMARK H PARENT
REMARK Flexibility Score: inf
ROOT
ATOM      1  C   UNL     1      58.017 152.749   5.619  1.00  0.00     0.000 C 
ENDROOT
BRANCH   1   2
ATOM      2  C   UNL     1      58.103 154.262   5.897  1.00  0.00     0.000 C 
BRANCH   2   3
ATOM      3  C   UNL     1      58.751 154.584   7.254  1.00  0.00     0.000 C 
BRANCH   3   4
ATOM      4  C   UNL     1      60.285 154.628   7.179  1.00  0.00     0.000 C 
BRANCH   4   5
ATOM      5  C   UNL     1      60.959 153.592   8.097  1.00  0.00     0.000 C 
BRANCH   5   6
ATOM      6  C   UNL     1      61.622 152.443   7.316  1.00  0.00     0.000 C 
BRANCH   6   7
ATOM      7  C   UNL     1      61.931 152.758   5.842  1.00  0.00     0.000 C 
BRANCH   7   8
ATOM      8  C   UNL     1      61.243 151.791   4.867  1.00  0.00     0.000 C 
BRANCH   8   9
ATOM      9  C   UNL     1      61.889 151.863   3.476  1.00  0.00     0.000 C 
BRANCH   9  10
ATOM     10  C   UNL     1      60.864 151.756   2.337  1.00  0.00     0.006 C 
BRANCH  10  11
ATOM     11  C   UNL     1      59.855 152.913   2.336  1.00  0.00     0.053 C 
BRANCH  11  12
ATOM     12  C   UNL     1      60.003 153.746   1.100  1.00  0.00     0.041 C 
ATOM     13  O   UNL     1      61.111 153.806   0.505  1.00  0.00    -0.550 OA
ATOM     14  O   UNL     1      58.922 154.475   0.618  1.00  0.00    -0.550 OA
ENDBRANCH  11  12
ENDBRANCH  10  11
ENDBRANCH   9  10
ENDBRANCH   8   9
ENDBRANCH   7   8
ENDBRANCH   6   7
ENDBRANCH   5   6
ENDBRANCH   4   5
ENDBRANCH   3   4
ENDBRANCH   2   3
ENDBRANCH   1   2
BRANCH   1  15
ATOM     15  C   UNL     1      57.959 151.854   6.871  1.00  0.00     0.000 C 
BRANCH  15  16
ATOM     16  C   UNL     1      58.386 150.402   6.591  1.00  0.00     0.000 C 
BRANCH  16  17
ATOM     17  C   UNL     1      58.348 149.520   7.859  1.00  0.00     0.000 C 
BRANCH  17  18
ATOM     18  C   UNL     1      59.654 149.551   8.674  1.00  0.00    -0.000 C 
BRANCH  18  19
ATOM     19  C   UNL     1      60.915 149.131   7.894  1.00  0.00    -0.000 C 
BRANCH  19  20
ATOM     20  C   UNL     1      60.698 148.007   6.860  1.00  0.00    -0.000 C 
BRANCH  20  21
ATOM     21  C   UNL     1      61.742 147.945   5.728  1.00  0.00    -0.000 C 
BRANCH  21  22
ATOM     22  C   UNL     1      62.849 149.012   5.805  1.00  0.00    -0.000 C 
BRANCH  22  23
ATOM     23  C   UNL     1      64.171 148.548   5.175  1.00  0.00    -0.000 C 
BRANCH  23  24
ATOM     24  C   UNL     1      64.894 149.720   4.494  1.00  0.00    -0.000 C 
BRANCH  24  25
ATOM     25  C   UNL     1      64.977 150.965   5.393  1.00  0.00    -0.003 C 
ATOM     26  C   UNL     1      65.284 152.241   4.610  1.00  0.00     0.004 C 
ENDBRANCH  24  25
ENDBRANCH  23  24
ENDBRANCH  22  23
ENDBRANCH  21  22
ENDBRANCH  20  21
ENDBRANCH  19  20
ENDBRANCH  18  19
ENDBRANCH  17  18
ENDBRANCH  16  17
ENDBRANCH  15  16
ENDBRANCH   1  15
TORSDOF 22
ENDMDL
