MODEL 1
REMARK VINA RESULT:    -3.211      0.000      0.000
REMARK INTER + INTRA:          -3.211
REMARK INTER:                  -3.211
REMARK INTRA:                   0.000
REMARK UNBOUND:                 0.000
REMARK SMILES CC1(C)[C@H]2CC[C@]1(C)C(=O)C2
REMARK SMILES IDX 1 1 2 2 4 3 5 4 6 5 7 6 9 7 10 8 11 9 8 10 3 11
REMARK H PARENT
REMARK Flexibility Score: inf
ROOT
ATOM      1  C   UNL     1     116.485 114.264 114.346  1.00  0.00     0.012 C 
ATOM      2  C   UNL     1     117.560 114.565 113.255  1.00  0.00    -0.020 C 
ATOM      3  C   UNL     1     118.919 113.874 113.517  1.00  0.00     0.003 C 
ATOM      4  C   UNL     1     119.826 114.470 112.404  1.00  0.00     0.005 C 
ATOM      5  C   UNL     1     119.316 115.927 112.283  1.00  0.00     0.015 C 
ATOM      6  C   UNL     1     118.180 115.976 113.332  1.00  0.00     0.032 C 
ATOM      7  C   UNL     1     118.883 115.900 114.665  1.00  0.00     0.139 C 
ATOM      8  O   UNL     1     119.079 116.834 115.428  1.00  0.00    -0.299 OA
ATOM      9  C   UNL     1     119.397 114.507 114.854  1.00  0.00     0.080 C 
ATOM     10  C   UNL     1     117.213 117.157 113.178  1.00  0.00     0.020 C 
ATOM     11  C   UNL     1     116.916 114.189 111.887  1.00  0.00     0.012 C 
ENDROOT
TORSDOF 0
ENDMDL
MODEL 2
REMARK VINA RESULT:    -3.179      2.572      4.015
REMARK INTER + INTRA:          -3.179
REMARK INTER:                  -3.179
REMARK INTRA:                   0.000
REMARK UNBOUND:                 0.000
REMARK SMILES CC1(C)[C@H]2CC[C@]1(C)C(=O)C2
REMARK SMILES IDX 1 1 2 2 4 3 5 4 6 5 7 6 9 7 10 8 11 9 8 10 3 11
REMARK H PARENT
REMARK Flexibility Score: inf
ROOT
ATOM      1  C   UNL     1     118.744 116.679 114.292  1.00  0.00     0.012 C 
ATOM      2  C   UNL     1     118.570 117.780 113.199  1.00  0.00    -0.020 C 
ATOM      3  C   UNL     1     119.195 119.141 113.587  1.00  0.00     0.003 C 
ATOM      4  C   UNL     1     118.736 120.070 112.429  1.00  0.00     0.005 C 
ATOM      5  C   UNL     1     117.317 119.542 112.104  1.00  0.00     0.015 C 
ATOM      6  C   UNL     1     117.150 118.376 113.106  1.00  0.00     0.032 C 
ATOM      7  C   UNL     1     117.037 119.042 114.456  1.00  0.00     0.139 C 
ATOM      8  O   UNL     1     116.008 119.203 115.093  1.00  0.00    -0.299 OA
ATOM      9  C   UNL     1     118.384 119.570 114.841  1.00  0.00     0.080 C 
ATOM     10  C   UNL     1     116.018 117.398 112.771  1.00  0.00     0.020 C 
ATOM     11  C   UNL     1     119.135 117.180 111.876  1.00  0.00     0.012 C 
ENDROOT
TORSDOF 0
ENDMDL
MODEL 3
REMARK VINA RESULT:    -3.140      4.124      5.125
REMARK INTER + INTRA:          -3.140
REMARK INTER:                  -3.140
REMARK INTRA:                   0.000
REMARK UNBOUND:                 0.000
REMARK SMILES CC1(C)[C@H]2CC[C@]1(C)C(=O)C2
REMARK SMILES IDX 1 1 2 2 4 3 5 4 6 5 7 6 9 7 10 8 11 9 8 10 3 11
REMARK H PARENT
REMARK Flexibility Score: inf
ROOT
ATOM      1  C   UNL     1     114.182 116.579 114.201  1.00  0.00     0.012 C 
ATOM      2  C   UNL     1     114.972 117.455 113.179  1.00  0.00    -0.020 C 
ATOM      3  C   UNL     1     116.114 118.278 113.822  1.00  0.00     0.003 C 
ATOM      4  C   UNL     1     116.603 119.162 112.642  1.00  0.00     0.005 C 
ATOM      5  C   UNL     1     115.295 119.474 111.875  1.00  0.00     0.015 C 
ATOM      6  C   UNL     1     114.228 118.722 112.705  1.00  0.00     0.032 C 
ATOM      7  C   UNL     1     114.134 119.491 114.000  1.00  0.00     0.139 C 
ATOM      8  O   UNL     1     113.244 120.268 114.310  1.00  0.00    -0.299 OA
ATOM      9  C   UNL     1     115.370 119.228 114.802  1.00  0.00     0.080 C 
ATOM     10  C   UNL     1     112.892 118.501 111.986  1.00  0.00     0.020 C 
ATOM     11  C   UNL     1     115.447 116.493 112.049  1.00  0.00     0.012 C 
ENDROOT
TORSDOF 0
ENDMDL
MODEL 4
REMARK VINA RESULT:    -3.133      3.438      5.553
REMARK INTER + INTRA:          -3.133
REMARK INTER:                  -3.133
REMARK INTRA:                   0.000
REMARK UNBOUND:                 0.000
REMARK SMILES CC1(C)[C@H]2CC[C@]1(C)C(=O)C2
REMARK SMILES IDX 1 1 2 2 4 3 5 4 6 5 7 6 9 7 10 8 11 9 8 10 3 11
REMARK H PARENT
REMARK Flexibility Score: inf
ROOT
ATOM      1  C   UNL     1     116.522 119.057 114.328  1.00  0.00     0.012 C 
ATOM      2  C   UNL     1     115.451 118.777 113.227  1.00  0.00    -0.020 C 
ATOM      3  C   UNL     1     114.075 119.417 113.525  1.00  0.00     0.003 C 
ATOM      4  C   UNL     1     113.180 118.848 112.389  1.00  0.00     0.005 C 
ATOM      5  C   UNL     1     113.729 117.413 112.201  1.00  0.00     0.015 C 
ATOM      6  C   UNL     1     114.870 117.346 113.243  1.00  0.00     0.032 C 
ATOM      7  C   UNL     1     114.171 117.343 114.580  1.00  0.00     0.139 C 
ATOM      8  O   UNL     1     114.003 116.371 115.300  1.00  0.00    -0.299 OA
ATOM      9  C   UNL     1     113.620 118.712 114.834  1.00  0.00     0.080 C 
ATOM     10  C   UNL     1     115.867 116.201 113.032  1.00  0.00     0.020 C 
ATOM     11  C   UNL     1     116.079 119.231 111.876  1.00  0.00     0.012 C 
ENDROOT
TORSDOF 0
ENDMDL
MODEL 5
REMARK VINA RESULT:    -3.102      2.441      3.832
REMARK INTER + INTRA:          -3.102
REMARK INTER:                  -3.102
REMARK INTRA:                   0.000
REMARK UNBOUND:                 0.000
REMARK SMILES CC1(C)[C@H]2CC[C@]1(C)C(=O)C2
REMARK SMILES IDX 1 1 2 2 4 3 5 4 6 5 7 6 9 7 10 8 11 9 8 10 3 11
REMARK H PARENT
REMARK Flexibility Score: inf
ROOT
ATOM      1  C   UNL     1     114.308 116.756 114.335  1.00  0.00     0.012 C 
ATOM      2  C   UNL     1     114.531 115.693 113.214  1.00  0.00    -0.020 C 
ATOM      3  C   UNL     1     113.846 114.336 113.502  1.00  0.00     0.003 C 
ATOM      4  C   UNL     1     114.363 113.440 112.343  1.00  0.00     0.005 C 
ATOM      5  C   UNL     1     115.814 113.939 112.140  1.00  0.00     0.015 C 
ATOM      6  C   UNL     1     115.939 115.060 113.198  1.00  0.00     0.032 C 
ATOM      7  C   UNL     1     115.938 114.341 114.524  1.00  0.00     0.139 C 
ATOM      8  O   UNL     1     116.915 114.126 115.225  1.00  0.00    -0.299 OA
ATOM      9  C   UNL     1     114.554 113.836 114.792  1.00  0.00     0.080 C 
ATOM     10  C   UNL     1     117.117 116.018 112.983  1.00  0.00     0.020 C 
ATOM     11  C   UNL     1     114.078 116.359 111.880  1.00  0.00     0.012 C 
ENDROOT
TORSDOF 0
ENDMDL
MODEL 6
REMARK VINA RESULT:    -3.023      3.816      5.214
REMARK INTER + INTRA:          -3.023
REMARK INTER:                  -3.023
REMARK INTRA:                   0.000
REMARK UNBOUND:                 0.000
REMARK SMILES CC1(C)[C@H]2CC[C@]1(C)C(=O)C2
REMARK SMILES IDX 1 1 2 2 4 3 5 4 6 5 7 6 9 7 10 8 11 9 8 10 3 11
REMARK H PARENT
REMARK Flexibility Score: inf
ROOT
ATOM      1  C   UNL     1     114.958 117.424 115.222  1.00  0.00     0.012 C 
ATOM      2  C   UNL     1     114.564 118.362 114.038  1.00  0.00    -0.020 C 
ATOM      3  C   UNL     1     113.638 117.690 112.997  1.00  0.00     0.003 C 
ATOM      4  C   UNL     1     113.551 118.761 111.875  1.00  0.00     0.005 C 
ATOM      5  C   UNL     1     114.971 119.380 111.875  1.00  0.00     0.015 C 
ATOM      6  C   UNL     1     115.684 118.593 113.000  1.00  0.00     0.032 C 
ATOM      7  C   UNL     1     115.848 117.198 112.451  1.00  0.00     0.139 C 
ATOM      8  O   UNL     1     116.881 116.715 112.013  1.00  0.00    -0.299 OA
ATOM      9  C   UNL     1     114.507 116.532 112.431  1.00  0.00     0.080 C 
ATOM     10  C   UNL     1     116.974 119.240 113.519  1.00  0.00     0.020 C 
ATOM     11  C   UNL     1     113.965 119.650 114.677  1.00  0.00     0.012 C 
ENDROOT
TORSDOF 0
ENDMDL
MODEL 7
REMARK VINA RESULT:    -2.993      2.282      3.461
REMARK INTER + INTRA:          -2.993
REMARK INTER:                  -2.993
REMARK INTRA:                   0.000
REMARK UNBOUND:                 0.000
REMARK SMILES CC1(C)[C@H]2CC[C@]1(C)C(=O)C2
REMARK SMILES IDX 1 1 2 2 4 3 5 4 6 5 7 6 9 7 10 8 11 9 8 10 3 11
REMARK H PARENT
REMARK Flexibility Score: inf
ROOT
ATOM      1  C   UNL     1     116.006 116.982 113.013  1.00  0.00     0.012 C 
ATOM      2  C   UNL     1     116.972 118.163 112.686  1.00  0.00    -0.020 C 
ATOM      3  C   UNL     1     118.240 117.731 111.912  1.00  0.00     0.003 C 
ATOM      4  C   UNL     1     119.080 119.037 111.875  1.00  0.00     0.005 C 
ATOM      5  C   UNL     1     118.774 119.685 113.248  1.00  0.00     0.015 C 
ATOM      6  C   UNL     1     117.793 118.676 113.889  1.00  0.00     0.032 C 
ATOM      7  C   UNL     1     118.635 117.460 114.191  1.00  0.00     0.139 C 
ATOM      8  O   UNL     1     119.054 117.133 115.290  1.00  0.00    -0.299 OA
ATOM      9  C   UNL     1     118.962 116.774 112.901  1.00  0.00     0.080 C 
ATOM     10  C   UNL     1     116.995 119.222 115.079  1.00  0.00     0.020 C 
ATOM     11  C   UNL     1     116.119 119.239 111.949  1.00  0.00     0.012 C 
ENDROOT
TORSDOF 0
ENDMDL
MODEL 8
REMARK VINA RESULT:    -0.740      1.573      2.766
REMARK INTER + INTRA:          -0.740
REMARK INTER:                  -0.740
REMARK INTRA:                   0.000
REMARK UNBOUND:                 0.000
REMARK SMILES CC1(C)[C@H]2CC[C@]1(C)C(=O)C2
REMARK SMILES IDX 1 1 2 2 4 3 5 4 6 5 7 6 9 7 10 8 11 9 8 10 3 11
REMARK H PARENT
REMARK Flexibility Score: inf
ROOT
ATOM      1  C   UNL     1     118.878 116.510 114.906  1.00  0.00     0.012 C 
ATOM      2  C   UNL     1     118.768 115.268 113.966  1.00  0.00    -0.020 C 
ATOM      3  C   UNL     1     119.624 115.384 112.684  1.00  0.00     0.003 C 
ATOM      4  C   UNL     1     119.201 114.127 111.875  1.00  0.00     0.005 C 
ATOM      5  C   UNL     1     117.694 113.993 112.206  1.00  0.00     0.015 C 
ATOM      6  C   UNL     1     117.450 115.181 113.166  1.00  0.00     0.032 C 
ATOM      7  C   UNL     1     117.569 116.409 112.298  1.00  0.00     0.139 C 
ATOM      8  O   UNL     1     116.642 117.083 111.878  1.00  0.00    -0.299 OA
ATOM      9  C   UNL     1     119.010 116.607 111.945  1.00  0.00     0.080 C 
ATOM     10  C   UNL     1     116.158 115.090 113.985  1.00  0.00     0.020 C 
ATOM     11  C   UNL     1     119.106 114.023 114.841  1.00  0.00     0.012 C 
ENDROOT
TORSDOF 0
ENDMDL
