MODEL 1
REMARK VINA RESULT:    -1.789      0.000      0.000
REMARK INTER + INTRA:          -1.883
REMARK INTER:                  -2.103
REMARK INTRA:                   0.220
REMARK UNBOUND:                 0.220
REMARK SMILES CCCCC(=O)[O-]
REMARK SMILES IDX 4 1 5 2 6 3 7 4 3 5 2 6 1 7
REMARK H PARENT
REMARK Flexibility Score: inf
ROOT
ATOM      1  C   UNL     1     -18.924  18.097  13.500  1.00  0.00     0.053 C 
ENDROOT
BRANCH   1   2
ATOM      2  C   UNL     1     -19.002  16.971  14.484  1.00  0.00     0.041 C 
ATOM      3  O   UNL     1     -18.929  15.778  14.089  1.00  0.00    -0.550 OA
ATOM      4  O   UNL     1     -19.123  17.241  15.842  1.00  0.00    -0.550 OA
ENDBRANCH   1   2
BRANCH   1   5
ATOM      5  C   UNL     1     -19.125  17.609  12.059  1.00  0.00     0.006 C 
BRANCH   5   6
ATOM      6  C   UNL     1     -17.855  16.966  11.482  1.00  0.00    -0.003 C 
ATOM      7  C   UNL     1     -17.796  17.132   9.966  1.00  0.00     0.004 C 
ENDBRANCH   5   6
ENDBRANCH   1   5
TORSDOF 3
ENDMDL
MODEL 2
REMARK VINA RESULT:    -1.297      6.267      7.821
REMARK INTER + INTRA:          -1.304
REMARK INTER:                  -1.285
REMARK INTRA:                  -0.019
REMARK UNBOUND:                 0.220
REMARK SMILES CCCCC(=O)[O-]
REMARK SMILES IDX 4 1 5 2 6 3 7 4 3 5 2 6 1 7
REMARK H PARENT
REMARK Flexibility Score: inf
ROOT
ATOM      1  C   UNL     1     -18.907  18.635  21.111  1.00  0.00     0.053 C 
ENDROOT
BRANCH   1   2
ATOM      2  C   UNL     1     -18.746  20.105  21.348  1.00  0.00     0.041 C 
ATOM      3  O   UNL     1     -18.368  20.528  22.472  1.00  0.00    -0.550 OA
ATOM      4  O   UNL     1     -18.983  21.006  20.318  1.00  0.00    -0.550 OA
ENDBRANCH   1   2
BRANCH   1   5
ATOM      5  C   UNL     1     -19.104  18.316  19.623  1.00  0.00     0.006 C 
BRANCH   5   6
ATOM      6  C   UNL     1     -19.121  16.804  19.351  1.00  0.00    -0.003 C 
ATOM      7  C   UNL     1     -19.125  16.516  17.852  1.00  0.00     0.004 C 
ENDBRANCH   5   6
ENDBRANCH   1   5
TORSDOF 3
ENDMDL
MODEL 3
REMARK VINA RESULT:    -1.267      2.967      4.174
REMARK INTER + INTRA:          -1.269
REMARK INTER:                  -1.245
REMARK INTRA:                  -0.023
REMARK UNBOUND:                 0.220
REMARK SMILES CCCCC(=O)[O-]
REMARK SMILES IDX 4 1 5 2 6 3 7 4 3 5 2 6 1 7
REMARK H PARENT
REMARK Flexibility Score: inf
ROOT
ATOM      1  C   UNL     1     -17.796  16.812  11.909  1.00  0.00     0.053 C 
ENDROOT
BRANCH   1   2
ATOM      2  C   UNL     1     -17.660  16.650  10.426  1.00  0.00     0.041 C 
ATOM      3  O   UNL     1     -18.077  17.550   9.649  1.00  0.00    -0.550 OA
ATOM      4  O   UNL     1     -17.045  15.520   9.903  1.00  0.00    -0.550 OA
ENDBRANCH   1   2
BRANCH   1   5
ATOM      5  C   UNL     1     -19.107  17.514  12.288  1.00  0.00     0.006 C 
BRANCH   5   6
ATOM      6  C   UNL     1     -19.125  17.955  13.759  1.00  0.00    -0.003 C 
ATOM      7  C   UNL     1     -19.081  16.750  14.694  1.00  0.00     0.004 C 
ENDBRANCH   5   6
ENDBRANCH   1   5
TORSDOF 3
ENDMDL
MODEL 4
REMARK VINA RESULT:    -0.998      7.168      8.203
REMARK INTER + INTRA:          -0.953
REMARK INTER:                  -0.930
REMARK INTRA:                  -0.023
REMARK UNBOUND:                 0.220
REMARK SMILES CCCCC(=O)[O-]
REMARK SMILES IDX 4 1 5 2 6 3 7 4 3 5 2 6 1 7
REMARK H PARENT
REMARK Flexibility Score: inf
ROOT
ATOM      1  C   UNL     1     -19.008  19.313  20.787  1.00  0.00     0.053 C 
ENDROOT
BRANCH   1   2
ATOM      2  C   UNL     1     -18.124  19.742  21.918  1.00  0.00     0.041 C 
ATOM      3  O   UNL     1     -18.272  20.877  22.442  1.00  0.00    -0.550 OA
ATOM      4  O   UNL     1     -17.159  18.875  22.414  1.00  0.00    -0.550 OA
ENDBRANCH   1   2
BRANCH   1   5
ATOM      5  C   UNL     1     -18.798  17.836  20.427  1.00  0.00     0.006 C 
BRANCH   5   6
ATOM      6  C   UNL     1     -19.119  17.546  18.954  1.00  0.00    -0.003 C 
ATOM      7  C   UNL     1     -19.125  16.046  18.679  1.00  0.00     0.004 C 
ENDBRANCH   5   6
ENDBRANCH   1   5
TORSDOF 3
ENDMDL
MODEL 5
REMARK VINA RESULT:    -0.154      9.681     10.105
REMARK INTER + INTRA:           0.039
REMARK INTER:                   0.064
REMARK INTRA:                  -0.026
REMARK UNBOUND:                 0.220
REMARK SMILES CCCCC(=O)[O-]
REMARK SMILES IDX 4 1 5 2 6 3 7 4 3 5 2 6 1 7
REMARK H PARENT
REMARK Flexibility Score: inf
ROOT
ATOM      1  C   UNL     1     -15.995  25.740  15.782  1.00  0.00     0.053 C 
ENDROOT
BRANCH   1   2
ATOM      2  C   UNL     1     -14.614  25.365  16.226  1.00  0.00     0.041 C 
ATOM      3  O   UNL     1     -13.660  25.372  15.405  1.00  0.00    -0.550 OA
ATOM      4  O   UNL     1     -14.376  25.038  17.555  1.00  0.00    -0.550 OA
ENDBRANCH   1   2
BRANCH   1   5
ATOM      5  C   UNL     1     -16.887  26.136  16.967  1.00  0.00     0.006 C 
BRANCH   5   6
ATOM      6  C   UNL     1     -18.357  25.760  16.736  1.00  0.00    -0.003 C 
ATOM      7  C   UNL     1     -19.125  26.912  16.096  1.00  0.00     0.004 C 
ENDBRANCH   5   6
ENDBRANCH   1   5
TORSDOF 3
ENDMDL
MODEL 6
REMARK VINA RESULT:     0.339      6.294      8.026
REMARK INTER + INTRA:           0.619
REMARK INTER:                   0.658
REMARK INTRA:                  -0.039
REMARK UNBOUND:                 0.220
REMARK SMILES CCCCC(=O)[O-]
REMARK SMILES IDX 4 1 5 2 6 3 7 4 3 5 2 6 1 7
REMARK H PARENT
REMARK Flexibility Score: inf
ROOT
ATOM      1  C   UNL     1     -18.937  18.061  20.466  1.00  0.00     0.053 C 
ENDROOT
BRANCH   1   2
ATOM      2  C   UNL     1     -19.006  17.347  19.151  1.00  0.00     0.041 C 
ATOM      3  O   UNL     1     -18.930  17.994  18.073  1.00  0.00    -0.550 OA
ATOM      4  O   UNL     1     -19.122  15.963  19.116  1.00  0.00    -0.550 OA
ENDBRANCH   1   2
BRANCH   1   5
ATOM      5  C   UNL     1     -19.101  19.578  20.300  1.00  0.00     0.006 C 
BRANCH   5   6
ATOM      6  C   UNL     1     -18.763  20.342  21.588  1.00  0.00    -0.003 C 
ATOM      7  C   UNL     1     -17.735  19.585  22.423  1.00  0.00     0.004 C 
ENDBRANCH   5   6
ENDBRANCH   1   5
TORSDOF 3
ENDMDL
MODEL 7
REMARK VINA RESULT:     0.488      7.844      9.056
REMARK INTER + INTRA:           0.794
REMARK INTER:                   0.861
REMARK INTRA:                  -0.067
REMARK UNBOUND:                 0.220
REMARK SMILES CCCCC(=O)[O-]
REMARK SMILES IDX 4 1 5 2 6 3 7 4 3 5 2 6 1 7
REMARK H PARENT
REMARK Flexibility Score: inf
ROOT
ATOM      1  C   UNL     1     -18.101  20.311  22.444  1.00  0.00     0.053 C 
ENDROOT
BRANCH   1   2
ATOM      2  C   UNL     1     -17.612  18.956  22.032  1.00  0.00     0.041 C 
ATOM      3  O   UNL     1     -16.638  18.426  22.628  1.00  0.00    -0.550 OA
ATOM      4  O   UNL     1     -18.254  18.266  21.012  1.00  0.00    -0.550 OA
ENDBRANCH   1   2
BRANCH   1   5
ATOM      5  C   UNL     1     -19.125  20.874  21.449  1.00  0.00     0.006 C 
BRANCH   5   6
ATOM      6  C   UNL     1     -18.500  21.901  20.493  1.00  0.00    -0.003 C 
ATOM      7  C   UNL     1     -19.125  21.808  19.104  1.00  0.00     0.004 C 
ENDBRANCH   5   6
ENDBRANCH   1   5
TORSDOF 3
ENDMDL
MODEL 8
REMARK VINA RESULT:     0.846      8.458      9.520
REMARK INTER + INTRA:           1.215
REMARK INTER:                   1.167
REMARK INTRA:                   0.047
REMARK UNBOUND:                 0.220
REMARK SMILES CCCCC(=O)[O-]
REMARK SMILES IDX 4 1 5 2 6 3 7 4 3 5 2 6 1 7
REMARK H PARENT
REMARK Flexibility Score: inf
ROOT
ATOM      1  C   UNL     1     -18.395  20.507  22.257  1.00  0.00     0.053 C 
ENDROOT
BRANCH   1   2
ATOM      2  C   UNL     1     -18.874  20.205  20.870  1.00  0.00     0.041 C 
ATOM      3  O   UNL     1     -19.125  19.018  20.530  1.00  0.00    -0.550 OA
ATOM      4  O   UNL     1     -19.073  21.238  19.962  1.00  0.00    -0.550 OA
ENDBRANCH   1   2
BRANCH   1   5
ATOM      5  C   UNL     1     -17.673  19.307  22.884  1.00  0.00     0.006 C 
BRANCH   5   6
ATOM      6  C   UNL     1     -16.325  19.022  22.206  1.00  0.00    -0.003 C 
ATOM      7  C   UNL     1     -15.617  17.842  22.865  1.00  0.00     0.004 C 
ENDBRANCH   5   6
ENDBRANCH   1   5
TORSDOF 3
ENDMDL
MODEL 9
REMARK VINA RESULT:     0.850      9.169      9.741
REMARK INTER + INTRA:           1.219
REMARK INTER:                   1.263
REMARK INTRA:                  -0.045
REMARK UNBOUND:                 0.220
REMARK SMILES CCCCC(=O)[O-]
REMARK SMILES IDX 4 1 5 2 6 3 7 4 3 5 2 6 1 7
REMARK H PARENT
REMARK Flexibility Score: inf
ROOT
ATOM      1  C   UNL     1     -16.699  26.398  16.505  1.00  0.00     0.053 C 
ENDROOT
BRANCH   1   2
ATOM      2  C   UNL     1     -18.147  26.039  16.644  1.00  0.00     0.041 C 
ATOM      3  O   UNL     1     -18.484  24.992  17.258  1.00  0.00    -0.550 OA
ATOM      4  O   UNL     1     -19.125  26.877  16.124  1.00  0.00    -0.550 OA
ENDBRANCH   1   2
BRANCH   1   5
ATOM      5  C   UNL     1     -15.991  25.517  15.467  1.00  0.00     0.006 C 
BRANCH   5   6
ATOM      6  C   UNL     1     -14.490  25.373  15.755  1.00  0.00    -0.003 C 
ATOM      7  C   UNL     1     -14.251  24.730  17.118  1.00  0.00     0.004 C 
ENDBRANCH   5   6
ENDBRANCH   1   5
TORSDOF 3
ENDMDL
