MODEL 1
REMARK VINA RESULT:    -3.415      0.000      0.000
REMARK INTER + INTRA:          -4.770
REMARK INTER:                  -4.613
REMARK INTRA:                  -0.157
REMARK UNBOUND:                -0.157
REMARK SMILES [NH3+]CCCC[C@@H]([NH3+])C(=O)[O-]
REMARK SMILES IDX 4 1 3 2 2 3 1 4 5 8 6 9 7 10 8 14 9 15 10 16
REMARK H PARENT 1 5 1 6 1 7 7 11 7 12 7 13
REMARK Flexibility Score: inf
ROOT
ATOM      1  C   UNL     1     -15.599 -15.600  13.686  1.00  0.00     0.012 C 
ENDROOT
BRANCH   1   2
ATOM      2  C   UNL     1     -15.109 -15.371  15.128  1.00  0.00     0.061 C 
BRANCH   2   3
ATOM      3  C   UNL     1     -13.577 -15.395  15.251  1.00  0.00     0.258 C 
BRANCH   3   4
ATOM      4  N   UNL     1     -13.061 -14.068  15.584  1.00  0.00    -0.358 N 
ATOM      5  H   UNL     1     -12.199 -13.867  15.027  1.00  0.00     0.344 HD
ATOM      6  H   UNL     1     -12.843 -14.013  16.606  1.00  0.00     0.344 HD
ATOM      7  H   UNL     1     -13.785 -13.351  15.354  1.00  0.00     0.344 HD
ENDBRANCH   3   4
ENDBRANCH   2   3
ENDBRANCH   1   2
BRANCH   1   8
ATOM      8  C   UNL     1     -16.648 -14.585  13.182  1.00  0.00     0.072 C 
BRANCH   8   9
ATOM      9  C   UNL     1     -17.234 -13.667  14.279  1.00  0.00     0.227 C 
BRANCH   9  10
ATOM     10  N   UNL     1     -17.001 -12.258  13.941  1.00  0.00    -0.350 N 
ATOM     11  H   UNL     1     -16.090 -11.944  14.347  1.00  0.00     0.345 HD
ATOM     12  H   UNL     1     -16.975 -12.124  12.903  1.00  0.00     0.345 HD
ATOM     13  H   UNL     1     -17.761 -11.664  14.345  1.00  0.00     0.345 HD
ENDBRANCH   9  10
BRANCH   9  14
ATOM     14  C   UNL     1     -18.710 -13.912  14.462  1.00  0.00     0.099 C 
ATOM     15  O   UNL     1     -19.454 -14.070  13.460  1.00  0.00    -0.544 OA
ATOM     16  O   UNL     1     -19.259 -13.964  15.738  1.00  0.00    -0.544 OA
ENDBRANCH   9  14
ENDBRANCH   8   9
ENDBRANCH   1   8
TORSDOF 7
ENDMDL
MODEL 2
REMARK VINA RESULT:    -3.068      1.768      2.208
REMARK INTER + INTRA:          -4.301
REMARK INTER:                  -4.218
REMARK INTRA:                  -0.083
REMARK UNBOUND:                -0.157
REMARK SMILES [NH3+]CCCC[C@@H]([NH3+])C(=O)[O-]
REMARK SMILES IDX 4 1 3 2 2 3 1 4 5 8 6 9 7 10 8 14 9 15 10 16
REMARK H PARENT 1 5 1 6 1 7 7 11 7 12 7 13
REMARK Flexibility Score: inf
ROOT
ATOM      1  C   UNL     1     -14.131 -15.622  14.881  1.00  0.00     0.012 C 
ENDROOT
BRANCH   1   2
ATOM      2  C   UNL     1     -13.243 -15.222  16.073  1.00  0.00     0.061 C 
BRANCH   2   3
ATOM      3  C   UNL     1     -12.059 -14.330  15.667  1.00  0.00     0.258 C 
BRANCH   3   4
ATOM      4  N   UNL     1     -12.364 -12.920  15.903  1.00  0.00    -0.358 N 
ATOM      5  H   UNL     1     -12.681 -12.780  16.889  1.00  0.00     0.344 HD
ATOM      6  H   UNL     1     -13.109 -12.598  15.242  1.00  0.00     0.344 HD
ATOM      7  H   UNL     1     -11.501 -12.351  15.742  1.00  0.00     0.344 HD
ENDBRANCH   3   4
ENDBRANCH   2   3
ENDBRANCH   1   2
BRANCH   1   8
ATOM      8  C   UNL     1     -15.595 -15.140  14.963  1.00  0.00     0.072 C 
BRANCH   8   9
ATOM      9  C   UNL     1     -16.117 -14.444  13.684  1.00  0.00     0.227 C 
BRANCH   9  10
ATOM     10  N   UNL     1     -16.554 -15.443  12.703  1.00  0.00    -0.350 N 
ATOM     11  H   UNL     1     -16.909 -14.963  11.844  1.00  0.00     0.345 HD
ATOM     12  H   UNL     1     -15.762 -16.074  12.438  1.00  0.00     0.345 HD
ATOM     13  H   UNL     1     -17.332 -16.017  13.102  1.00  0.00     0.345 HD
ENDBRANCH   9  10
BRANCH   9  14
ATOM     14  C   UNL     1     -17.253 -13.505  14.001  1.00  0.00     0.099 C 
ATOM     15  O   UNL     1     -18.330 -13.952  14.472  1.00  0.00    -0.544 OA
ATOM     16  O   UNL     1     -17.118 -12.140  13.773  1.00  0.00    -0.544 OA
ENDBRANCH   9  14
ENDBRANCH   8   9
ENDBRANCH   1   8
TORSDOF 7
ENDMDL
MODEL 3
REMARK VINA RESULT:    -2.506      2.616      3.193
REMARK INTER + INTRA:          -3.542
REMARK INTER:                  -3.393
REMARK INTRA:                  -0.149
REMARK UNBOUND:                -0.157
REMARK SMILES [NH3+]CCCC[C@@H]([NH3+])C(=O)[O-]
REMARK SMILES IDX 4 1 3 2 2 3 1 4 5 8 6 9 7 10 8 14 9 15 10 16
REMARK H PARENT 1 5 1 6 1 7 7 11 7 12 7 13
REMARK Flexibility Score: inf
ROOT
ATOM      1  C   UNL     1     -13.678 -15.050  14.914  1.00  0.00     0.012 C 
ENDROOT
BRANCH   1   2
ATOM      2  C   UNL     1     -12.667 -14.939  16.070  1.00  0.00     0.061 C 
BRANCH   2   3
ATOM      3  C   UNL     1     -11.824 -13.656  16.008  1.00  0.00     0.258 C 
BRANCH   3   4
ATOM      4  N   UNL     1     -12.669 -12.470  16.144  1.00  0.00    -0.358 N 
ATOM      5  H   UNL     1     -13.515 -12.560  15.537  1.00  0.00     0.344 HD
ATOM      6  H   UNL     1     -12.130 -11.613  15.878  1.00  0.00     0.344 HD
ATOM      7  H   UNL     1     -12.976 -12.382  17.139  1.00  0.00     0.344 HD
ENDBRANCH   3   4
ENDBRANCH   2   3
ENDBRANCH   1   2
BRANCH   1   8
ATOM      8  C   UNL     1     -15.105 -15.467  15.330  1.00  0.00     0.072 C 
BRANCH   8   9
ATOM      9  C   UNL     1     -16.185 -15.237  14.246  1.00  0.00     0.227 C 
BRANCH   9  10
ATOM     10  N   UNL     1     -16.428 -13.802  14.067  1.00  0.00    -0.350 N 
ATOM     11  H   UNL     1     -15.888 -13.260  14.781  1.00  0.00     0.345 HD
ATOM     12  H   UNL     1     -16.136 -13.492  13.111  1.00  0.00     0.345 HD
ATOM     13  H   UNL     1     -17.445 -13.594  14.200  1.00  0.00     0.345 HD
ENDBRANCH   9  10
BRANCH   9  14
ATOM     14  C   UNL     1     -15.778 -15.856  12.933  1.00  0.00     0.099 C 
ATOM     15  O   UNL     1     -15.555 -15.126  11.932  1.00  0.00    -0.544 OA
ATOM     16  O   UNL     1     -15.648 -17.235  12.818  1.00  0.00    -0.544 OA
ENDBRANCH   9  14
ENDBRANCH   8   9
ENDBRANCH   1   8
TORSDOF 7
ENDMDL
MODEL 4
REMARK VINA RESULT:    -2.370      3.020      4.673
REMARK INTER + INTRA:          -3.357
REMARK INTER:                  -3.234
REMARK INTRA:                  -0.124
REMARK UNBOUND:                -0.157
REMARK SMILES [NH3+]CCCC[C@@H]([NH3+])C(=O)[O-]
REMARK SMILES IDX 4 1 3 2 2 3 1 4 5 8 6 9 7 10 8 14 9 15 10 16
REMARK H PARENT 1 5 1 6 1 7 7 11 7 12 7 13
REMARK Flexibility Score: inf
ROOT
ATOM      1  C   UNL     1     -17.507 -13.926  14.473  1.00  0.00     0.012 C 
ENDROOT
BRANCH   1   2
ATOM      2  C   UNL     1     -18.947 -13.720  13.970  1.00  0.00     0.061 C 
BRANCH   2   3
ATOM      3  C   UNL     1     -20.007 -14.072  15.026  1.00  0.00     0.258 C 
BRANCH   3   4
ATOM      4  N   UNL     1     -19.458 -13.952  16.376  1.00  0.00    -0.358 N 
ATOM      5  H   UNL     1     -18.643 -13.297  16.376  1.00  0.00     0.344 HD
ATOM      6  H   UNL     1     -19.158 -14.891  16.727  1.00  0.00     0.344 HD
ATOM      7  H   UNL     1     -20.195 -13.572  17.012  1.00  0.00     0.344 HD
ENDBRANCH   3   4
ENDBRANCH   2   3
ENDBRANCH   1   2
BRANCH   1   8
ATOM      8  C   UNL     1     -16.496 -14.384  13.400  1.00  0.00     0.072 C 
BRANCH   8   9
ATOM      9  C   UNL     1     -15.857 -15.767  13.666  1.00  0.00     0.227 C 
BRANCH   9  10
ATOM     10  N   UNL     1     -15.143 -16.235  12.473  1.00  0.00    -0.350 N 
ATOM     11  H   UNL     1     -14.113 -16.108  12.604  1.00  0.00     0.345 HD
ATOM     12  H   UNL     1     -15.341 -17.248  12.295  1.00  0.00     0.345 HD
ATOM     13  H   UNL     1     -15.438 -15.677  11.639  1.00  0.00     0.345 HD
ENDBRANCH   9  10
BRANCH   9  14
ATOM     14  C   UNL     1     -14.914 -15.714  14.840  1.00  0.00     0.099 C 
ATOM     15  O   UNL     1     -15.186 -16.337  15.899  1.00  0.00    -0.544 OA
ATOM     16  O   UNL     1     -13.739 -14.975  14.763  1.00  0.00    -0.544 OA
ENDBRANCH   9  14
ENDBRANCH   8   9
ENDBRANCH   1   8
TORSDOF 7
ENDMDL
MODEL 5
REMARK VINA RESULT:    -1.778      2.780      4.657
REMARK INTER + INTRA:          -2.559
REMARK INTER:                  -2.405
REMARK INTRA:                  -0.154
REMARK UNBOUND:                -0.157
REMARK SMILES [NH3+]CCCC[C@@H]([NH3+])C(=O)[O-]
REMARK SMILES IDX 4 1 3 2 2 3 1 4 5 8 6 9 7 10 8 14 9 15 10 16
REMARK H PARENT 1 5 1 6 1 7 7 11 7 12 7 13
REMARK Flexibility Score: inf
ROOT
ATOM      1  C   UNL     1     -17.094 -13.901  13.665  1.00  0.00     0.012 C 
ENDROOT
BRANCH   1   2
ATOM      2  C   UNL     1     -18.312 -13.106  14.170  1.00  0.00     0.061 C 
BRANCH   2   3
ATOM      3  C   UNL     1     -19.511 -14.003  14.519  1.00  0.00     0.258 C 
BRANCH   3   4
ATOM      4  N   UNL     1     -19.702 -14.076  15.967  1.00  0.00    -0.358 N 
ATOM      5  H   UNL     1     -20.723 -14.102  16.194  1.00  0.00     0.344 HD
ATOM      6  H   UNL     1     -19.257 -13.250  16.431  1.00  0.00     0.344 HD
ATOM      7  H   UNL     1     -19.255 -14.949  16.328  1.00  0.00     0.344 HD
ENDBRANCH   3   4
ENDBRANCH   2   3
ENDBRANCH   1   2
BRANCH   1   8
ATOM      8  C   UNL     1     -16.263 -14.597  14.765  1.00  0.00     0.072 C 
BRANCH   8   9
ATOM      9  C   UNL     1     -14.992 -15.315  14.254  1.00  0.00     0.227 C 
BRANCH   9  10
ATOM     10  N   UNL     1     -14.374 -16.087  15.337  1.00  0.00    -0.350 N 
ATOM     11  H   UNL     1     -14.931 -15.973  16.215  1.00  0.00     0.345 HD
ATOM     12  H   UNL     1     -14.331 -17.104  15.091  1.00  0.00     0.345 HD
ATOM     13  H   UNL     1     -13.405 -15.736  15.517  1.00  0.00     0.345 HD
ENDBRANCH   9  10
BRANCH   9  14
ATOM     14  C   UNL     1     -15.310 -16.223  13.093  1.00  0.00     0.099 C 
ATOM     15  O   UNL     1     -15.978 -17.273  13.276  1.00  0.00    -0.544 OA
ATOM     16  O   UNL     1     -14.865 -15.907  11.814  1.00  0.00    -0.544 OA
ENDBRANCH   9  14
ENDBRANCH   8   9
ENDBRANCH   1   8
TORSDOF 7
ENDMDL
MODEL 6
REMARK VINA RESULT:    -1.695      3.522      5.221
REMARK INTER + INTRA:          -2.447
REMARK INTER:                  -2.371
REMARK INTRA:                  -0.076
REMARK UNBOUND:                -0.157
REMARK SMILES [NH3+]CCCC[C@@H]([NH3+])C(=O)[O-]
REMARK SMILES IDX 4 1 3 2 2 3 1 4 5 8 6 9 7 10 8 14 9 15 10 16
REMARK H PARENT 1 5 1 6 1 7 7 11 7 12 7 13
REMARK Flexibility Score: inf
ROOT
ATOM      1  C   UNL     1     -15.930 -15.406  14.372  1.00  0.00     0.012 C 
ENDROOT
BRANCH   1   2
ATOM      2  C   UNL     1     -16.655 -14.440  13.416  1.00  0.00     0.061 C 
BRANCH   2   3
ATOM      3  C   UNL     1     -17.543 -13.424  14.150  1.00  0.00     0.258 C 
BRANCH   3   4
ATOM      4  N   UNL     1     -17.020 -12.067  13.997  1.00  0.00    -0.358 N 
ATOM      5  H   UNL     1     -17.786 -11.416  13.710  1.00  0.00     0.344 HD
ATOM      6  H   UNL     1     -16.258 -12.055  13.279  1.00  0.00     0.344 HD
ATOM      7  H   UNL     1     -16.629 -11.745  14.911  1.00  0.00     0.344 HD
ENDBRANCH   3   4
ENDBRANCH   2   3
ENDBRANCH   1   2
BRANCH   1   8
ATOM      8  C   UNL     1     -14.392 -15.280  14.389  1.00  0.00     0.072 C 
BRANCH   8   9
ATOM      9  C   UNL     1     -13.774 -15.129  15.799  1.00  0.00     0.227 C 
BRANCH   9  10
ATOM     10  N   UNL     1     -13.592 -16.447  16.418  1.00  0.00    -0.350 N 
ATOM     11  H   UNL     1     -13.767 -17.198  15.710  1.00  0.00     0.345 HD
ATOM     12  H   UNL     1     -12.619 -16.551  16.791  1.00  0.00     0.345 HD
ATOM     13  H   UNL     1     -14.275 -16.570  17.200  1.00  0.00     0.345 HD
ENDBRANCH   9  10
BRANCH   9  14
ATOM     14  C   UNL     1     -12.454 -14.404  15.740  1.00  0.00     0.099 C 
ATOM     15  O   UNL     1     -12.334 -13.265  16.262  1.00  0.00    -0.544 OA
ATOM     16  O   UNL     1     -11.361 -14.985  15.107  1.00  0.00    -0.544 OA
ENDBRANCH   9  14
ENDBRANCH   8   9
ENDBRANCH   1   8
TORSDOF 7
ENDMDL
MODEL 7
REMARK VINA RESULT:    -0.740      1.971      2.077
REMARK INTER + INTRA:          -1.157
REMARK INTER:                  -1.082
REMARK INTRA:                  -0.075
REMARK UNBOUND:                -0.157
REMARK SMILES [NH3+]CCCC[C@@H]([NH3+])C(=O)[O-]
REMARK SMILES IDX 4 1 3 2 2 3 1 4 5 8 6 9 7 10 8 14 9 15 10 16
REMARK H PARENT 1 5 1 6 1 7 7 11 7 12 7 13
REMARK Flexibility Score: inf
ROOT
ATOM      1  C   UNL     1     -15.789 -15.483  14.610  1.00  0.00     0.012 C 
ENDROOT
BRANCH   1   2
ATOM      2  C   UNL     1     -14.256 -15.423  14.481  1.00  0.00     0.061 C 
BRANCH   2   3
ATOM      3  C   UNL     1     -13.555 -15.112  15.813  1.00  0.00     0.258 C 
BRANCH   3   4
ATOM      4  N   UNL     1     -12.175 -14.683  15.588  1.00  0.00    -0.358 N 
ATOM      5  H   UNL     1     -12.027 -14.465  14.576  1.00  0.00     0.344 HD
ATOM      6  H   UNL     1     -11.512 -15.435  15.889  1.00  0.00     0.344 HD
ATOM      7  H   UNL     1     -11.988 -13.822  16.149  1.00  0.00     0.344 HD
ENDBRANCH   3   4
ENDBRANCH   2   3
ENDBRANCH   1   2
BRANCH   1   8
ATOM      8  C   UNL     1     -16.571 -14.869  13.429  1.00  0.00     0.072 C 
BRANCH   8   9
ATOM      9  C   UNL     1     -17.574 -13.762  13.827  1.00  0.00     0.227 C 
BRANCH   9  10
ATOM     10  N   UNL     1     -18.226 -14.099  15.098  1.00  0.00    -0.350 N 
ATOM     11  H   UNL     1     -17.518 -14.474  15.770  1.00  0.00     0.345 HD
ATOM     12  H   UNL     1     -18.680 -13.254  15.517  1.00  0.00     0.345 HD
ATOM     13  H   UNL     1     -18.951 -14.836  14.941  1.00  0.00     0.345 HD
ENDBRANCH   9  10
BRANCH   9  14
ATOM     14  C   UNL     1     -16.891 -12.423  13.940  1.00  0.00     0.099 C 
ATOM     15  O   UNL     1     -17.246 -11.467  13.203  1.00  0.00    -0.544 OA
ATOM     16  O   UNL     1     -15.863 -12.236  14.857  1.00  0.00    -0.544 OA
ENDBRANCH   9  14
ENDBRANCH   8   9
ENDBRANCH   1   8
TORSDOF 7
ENDMDL
MODEL 8
REMARK VINA RESULT:    -0.683      2.259      3.189
REMARK INTER + INTRA:          -1.079
REMARK INTER:                  -0.982
REMARK INTRA:                  -0.097
REMARK UNBOUND:                -0.157
REMARK SMILES [NH3+]CCCC[C@@H]([NH3+])C(=O)[O-]
REMARK SMILES IDX 4 1 3 2 2 3 1 4 5 8 6 9 7 10 8 14 9 15 10 16
REMARK H PARENT 1 5 1 6 1 7 7 11 7 12 7 13
REMARK Flexibility Score: inf
ROOT
ATOM      1  C   UNL     1     -13.541 -14.990  15.733  1.00  0.00     0.012 C 
ENDROOT
BRANCH   1   2
ATOM      2  C   UNL     1     -12.056 -14.589  15.666  1.00  0.00     0.061 C 
BRANCH   2   3
ATOM      3  C   UNL     1     -11.750 -13.292  16.430  1.00  0.00     0.258 C 
BRANCH   3   4
ATOM      4  N   UNL     1     -12.787 -12.288  16.189  1.00  0.00    -0.358 N 
ATOM      5  H   UNL     1     -13.254 -12.031  17.088  1.00  0.00     0.344 HD
ATOM      6  H   UNL     1     -13.496 -12.659  15.515  1.00  0.00     0.344 HD
ATOM      7  H   UNL     1     -12.347 -11.433  15.781  1.00  0.00     0.344 HD
ENDBRANCH   3   4
ENDBRANCH   2   3
ENDBRANCH   1   2
BRANCH   1   8
ATOM      8  C   UNL     1     -14.103 -15.639  14.449  1.00  0.00     0.072 C 
BRANCH   8   9
ATOM      9  C   UNL     1     -15.644 -15.775  14.418  1.00  0.00     0.227 C 
BRANCH   9  10
ATOM     10  N   UNL     1     -16.202 -15.543  15.755  1.00  0.00    -0.350 N 
ATOM     11  H   UNL     1     -16.783 -16.364  16.043  1.00  0.00     0.345 HD
ATOM     12  H   UNL     1     -15.438 -15.403  16.458  1.00  0.00     0.345 HD
ATOM     13  H   UNL     1     -16.816 -14.696  15.743  1.00  0.00     0.345 HD
ENDBRANCH   9  10
BRANCH   9  14
ATOM     14  C   UNL     1     -16.255 -14.812  13.433  1.00  0.00     0.099 C 
ATOM     15  O   UNL     1     -17.072 -13.939  13.826  1.00  0.00    -0.544 OA
ATOM     16  O   UNL     1     -15.923 -14.882  12.086  1.00  0.00    -0.544 OA
ENDBRANCH   9  14
ENDBRANCH   8   9
ENDBRANCH   1   8
TORSDOF 7
ENDMDL
