MODEL 1
REMARK VINA RESULT:    -2.638      0.000      0.000
REMARK INTER + INTRA:          -2.959
REMARK INTER:                  -2.947
REMARK INTRA:                  -0.012
REMARK UNBOUND:                -0.012
REMARK SMILES CCCC(=O)[O-]
REMARK SMILES IDX 3 1 4 2 5 3 6 4 2 5 1 6
REMARK H PARENT
REMARK Flexibility Score: inf
ROOT
ATOM      1  C   UNL     1      29.889  10.672  28.806  1.00  0.00     0.052 C 
ENDROOT
BRANCH   1   2
ATOM      2  C   UNL     1      30.503  11.244  30.048  1.00  0.00     0.041 C 
ATOM      3  O   UNL     1      31.108  10.494  30.858  1.00  0.00    -0.550 OA
ATOM      4  O   UNL     1      30.376  12.599  30.328  1.00  0.00    -0.550 OA
ENDBRANCH   1   2
BRANCH   1   5
ATOM      5  C   UNL     1      29.584   9.176  28.959  1.00  0.00     0.003 C 
ATOM      6  C   UNL     1      28.273   8.777  28.283  1.00  0.00     0.004 C 
ENDBRANCH   1   5
TORSDOF 2
ENDMDL
MODEL 2
REMARK VINA RESULT:    -2.626      1.177      1.667
REMARK INTER + INTRA:          -2.945
REMARK INTER:                  -2.928
REMARK INTRA:                  -0.016
REMARK UNBOUND:                -0.012
REMARK SMILES CCCC(=O)[O-]
REMARK SMILES IDX 3 1 4 2 5 3 6 4 2 5 1 6
REMARK H PARENT
REMARK Flexibility Score: inf
ROOT
ATOM      1  C   UNL     1      30.497  10.547  30.085  1.00  0.00     0.052 C 
ENDROOT
BRANCH   1   2
ATOM      2  C   UNL     1      30.032  11.883  30.578  1.00  0.00     0.041 C 
ATOM      3  O   UNL     1      29.538  12.718  29.775  1.00  0.00    -0.550 OA
ATOM      4  O   UNL     1      30.176  12.220  31.919  1.00  0.00    -0.550 OA
ENDBRANCH   1   2
BRANCH   1   5
ATOM      5  C   UNL     1      29.868  10.189  28.732  1.00  0.00     0.003 C 
ATOM      6  C   UNL     1      29.327   8.760  28.701  1.00  0.00     0.004 C 
ENDBRANCH   1   5
TORSDOF 2
ENDMDL
MODEL 3
REMARK VINA RESULT:    -2.529     17.623     18.512
REMARK INTER + INTRA:          -2.837
REMARK INTER:                  -2.832
REMARK INTRA:                  -0.006
REMARK UNBOUND:                -0.012
REMARK SMILES CCCC(=O)[O-]
REMARK SMILES IDX 3 1 4 2 5 3 6 4 2 5 1 6
REMARK H PARENT
REMARK Flexibility Score: inf
ROOT
ATOM      1  C   UNL     1      18.808  14.826  16.407  1.00  0.00     0.052 C 
ENDROOT
BRANCH   1   2
ATOM      2  C   UNL     1      17.542  15.277  15.746  1.00  0.00     0.041 C 
ATOM      3  O   UNL     1      16.525  15.545  16.439  1.00  0.00    -0.550 OA
ATOM      4  O   UNL     1      17.473  15.369  14.361  1.00  0.00    -0.550 OA
ENDBRANCH   1   2
BRANCH   1   5
ATOM      5  C   UNL     1      19.087  13.340  16.147  1.00  0.00     0.003 C 
ATOM      6  C   UNL     1      19.925  12.702  17.255  1.00  0.00     0.004 C 
ENDBRANCH   1   5
TORSDOF 2
ENDMDL
MODEL 4
REMARK VINA RESULT:    -2.515     18.247     18.758
REMARK INTER + INTRA:          -2.821
REMARK INTER:                  -2.749
REMARK INTRA:                  -0.072
REMARK UNBOUND:                -0.012
REMARK SMILES CCCC(=O)[O-]
REMARK SMILES IDX 3 1 4 2 5 3 6 4 2 5 1 6
REMARK H PARENT
REMARK Flexibility Score: inf
ROOT
ATOM      1  C   UNL     1      17.603  15.295  15.083  1.00  0.00     0.052 C 
ENDROOT
BRANCH   1   2
ATOM      2  C   UNL     1      18.871  14.592  15.462  1.00  0.00     0.041 C 
ATOM      3  O   UNL     1      19.986  15.075  15.131  1.00  0.00    -0.550 OA
ATOM      4  O   UNL     1      18.821  13.387  16.152  1.00  0.00    -0.550 OA
ENDBRANCH   1   2
BRANCH   1   5
ATOM      5  C   UNL     1      16.766  15.662  16.316  1.00  0.00     0.003 C 
ATOM      6  C   UNL     1      17.514  16.591  17.272  1.00  0.00     0.004 C 
ENDBRANCH   1   5
TORSDOF 2
ENDMDL
MODEL 5
REMARK VINA RESULT:    -2.513     17.910     18.774
REMARK INTER + INTRA:          -2.819
REMARK INTER:                  -2.754
REMARK INTRA:                  -0.066
REMARK UNBOUND:                -0.012
REMARK SMILES CCCC(=O)[O-]
REMARK SMILES IDX 3 1 4 2 5 3 6 4 2 5 1 6
REMARK H PARENT
REMARK Flexibility Score: inf
ROOT
ATOM      1  C   UNL     1      16.747  15.661  16.278  1.00  0.00     0.052 C 
ENDROOT
BRANCH   1   2
ATOM      2  C   UNL     1      17.439  16.770  17.011  1.00  0.00     0.041 C 
ATOM      3  O   UNL     1      17.974  17.715  16.372  1.00  0.00    -0.550 OA
ATOM      4  O   UNL     1      17.524  16.743  18.398  1.00  0.00    -0.550 OA
ENDBRANCH   1   2
BRANCH   1   5
ATOM      5  C   UNL     1      17.696  14.939  15.313  1.00  0.00     0.003 C 
ATOM      6  C   UNL     1      18.701  14.047  16.042  1.00  0.00     0.004 C 
ENDBRANCH   1   5
TORSDOF 2
ENDMDL
MODEL 6
REMARK VINA RESULT:    -2.433     18.991     19.731
REMARK INTER + INTRA:          -2.729
REMARK INTER:                  -2.678
REMARK INTRA:                  -0.051
REMARK UNBOUND:                -0.012
REMARK SMILES CCCC(=O)[O-]
REMARK SMILES IDX 3 1 4 2 5 3 6 4 2 5 1 6
REMARK H PARENT
REMARK Flexibility Score: inf
ROOT
ATOM      1  C   UNL     1      17.791  14.873  15.472  1.00  0.00     0.052 C 
ENDROOT
BRANCH   1   2
ATOM      2  C   UNL     1      18.289  15.639  14.284  1.00  0.00     0.041 C 
ATOM      3  O   UNL     1      17.588  15.716  13.241  1.00  0.00    -0.550 OA
ATOM      4  O   UNL     1      19.542  16.239  14.317  1.00  0.00    -0.550 OA
ENDBRANCH   1   2
BRANCH   1   5
ATOM      5  C   UNL     1      16.784  15.690  16.293  1.00  0.00     0.003 C 
ATOM      6  C   UNL     1      17.465  16.724  17.189  1.00  0.00     0.004 C 
ENDBRANCH   1   5
TORSDOF 2
ENDMDL
MODEL 7
REMARK VINA RESULT:    -2.335      2.925      3.784
REMARK INTER + INTRA:          -2.620
REMARK INTER:                  -2.609
REMARK INTRA:                  -0.010
REMARK UNBOUND:                -0.012
REMARK SMILES CCCC(=O)[O-]
REMARK SMILES IDX 3 1 4 2 5 3 6 4 2 5 1 6
REMARK H PARENT
REMARK Flexibility Score: inf
ROOT
ATOM      1  C   UNL     1      29.714   9.418  29.092  1.00  0.00     0.052 C 
ENDROOT
BRANCH   1   2
ATOM      2  C   UNL     1      29.434   8.549  27.904  1.00  0.00     0.041 C 
ATOM      3  O   UNL     1      28.489   7.717  27.937  1.00  0.00    -0.550 OA
ATOM      4  O   UNL     1      30.237   8.633  26.773  1.00  0.00    -0.550 OA
ENDBRANCH   1   2
BRANCH   1   5
ATOM      5  C   UNL     1      29.992  10.870  28.681  1.00  0.00     0.003 C 
ATOM      6  C   UNL     1      30.799  11.629  29.734  1.00  0.00     0.004 C 
ENDBRANCH   1   5
TORSDOF 2
ENDMDL
MODEL 8
REMARK VINA RESULT:    -2.310     17.314     18.152
REMARK INTER + INTRA:          -2.593
REMARK INTER:                  -2.561
REMARK INTRA:                  -0.032
REMARK UNBOUND:                -0.012
REMARK SMILES CCCC(=O)[O-]
REMARK SMILES IDX 3 1 4 2 5 3 6 4 2 5 1 6
REMARK H PARENT
REMARK Flexibility Score: inf
ROOT
ATOM      1  C   UNL     1      18.948  14.963  15.142  1.00  0.00     0.052 C 
ENDROOT
BRANCH   1   2
ATOM      2  C   UNL     1      19.751  13.923  15.863  1.00  0.00     0.041 C 
ATOM      3  O   UNL     1      19.193  12.883  16.302  1.00  0.00    -0.550 OA
ATOM      4  O   UNL     1      21.110  14.119  16.080  1.00  0.00    -0.550 OA
ENDBRANCH   1   2
BRANCH   1   5
ATOM      5  C   UNL     1      17.473  14.934  15.563  1.00  0.00     0.003 C 
ATOM      6  C   UNL     1      17.103  16.109  16.468  1.00  0.00     0.004 C 
ENDBRANCH   1   5
TORSDOF 2
ENDMDL
MODEL 9
REMARK VINA RESULT:    -2.228      2.319      3.164
REMARK INTER + INTRA:          -2.501
REMARK INTER:                  -2.435
REMARK INTRA:                  -0.066
REMARK UNBOUND:                -0.012
REMARK SMILES CCCC(=O)[O-]
REMARK SMILES IDX 3 1 4 2 5 3 6 4 2 5 1 6
REMARK H PARENT
REMARK Flexibility Score: inf
ROOT
ATOM      1  C   UNL     1      29.798  10.016  28.996  1.00  0.00     0.052 C 
ENDROOT
BRANCH   1   2
ATOM      2  C   UNL     1      29.871  10.948  27.825  1.00  0.00     0.041 C 
ATOM      3  O   UNL     1      28.827  11.498  27.387  1.00  0.00    -0.550 OA
ATOM      4  O   UNL     1      31.088  11.182  27.196  1.00  0.00    -0.550 OA
ENDBRANCH   1   2
BRANCH   1   5
ATOM      5  C   UNL     1      30.607  10.538  30.191  1.00  0.00     0.003 C 
ATOM      6  C   UNL     1      30.200  11.956  30.594  1.00  0.00     0.004 C 
ENDBRANCH   1   5
TORSDOF 2
ENDMDL
