MODEL 1
REMARK VINA RESULT:    -3.672      0.000      0.000
REMARK INTER + INTRA:          -3.767
REMARK INTER:                  -3.994
REMARK INTRA:                   0.227
REMARK UNBOUND:                 0.227
REMARK SMILES C=C(C)[C@@H]1CC[C@H](C)C[C@H]1O
REMARK SMILES IDX 8 1 7 2 6 3 5 4 4 5 10 6 9 7 11 8 2 10 1 11 3 12
REMARK H PARENT 11 9
REMARK Flexibility Score: inf
ROOT
ATOM      1  C   UNL     1     -15.758 -16.242   8.417  1.00  0.00     0.008 C 
ATOM      2  C   UNL     1     -16.908 -15.369   7.888  1.00  0.00    -0.012 C 
ATOM      3  C   UNL     1     -18.291 -15.953   8.245  1.00  0.00     0.004 C 
ATOM      4  C   UNL     1     -18.639 -15.770   9.727  1.00  0.00     0.011 C 
ATOM      5  C   UNL     1     -18.542 -14.291  10.145  1.00  0.00     0.043 C 
ATOM      6  C   UNL     1     -17.136 -13.715   9.840  1.00  0.00     0.121 C 
ATOM      7  C   UNL     1     -16.789 -13.903   8.352  1.00  0.00     0.035 C 
ENDROOT
BRANCH   6   8
ATOM      8  O   UNL     1     -17.106 -12.341  10.132  1.00  0.00    -0.392 OA
ATOM      9  H   UNL     1     -17.109 -12.253  11.121  1.00  0.00     0.210 HD
ENDBRANCH   6   8
BRANCH   5  10
ATOM     10  C   UNL     1     -18.912 -14.124  11.614  1.00  0.00    -0.075 C 
ATOM     11  C   UNL     1     -19.054 -15.203  12.400  1.00  0.00     0.008 C 
ATOM     12  C   UNL     1     -19.125 -12.758  12.220  1.00  0.00     0.039 C 
ENDBRANCH   5  10
TORSDOF 2
ENDMDL
MODEL 2
REMARK VINA RESULT:    -2.857      1.893      3.512
REMARK INTER + INTRA:          -2.881
REMARK INTER:                  -2.777
REMARK INTRA:                  -0.104
REMARK UNBOUND:                 0.227
REMARK SMILES C=C(C)[C@@H]1CC[C@H](C)C[C@H]1O
REMARK SMILES IDX 8 1 7 2 6 3 5 4 4 5 10 6 9 7 11 8 2 10 1 11 3 12
REMARK H PARENT 11 9
REMARK Flexibility Score: inf
ROOT
ATOM      1  C   UNL     1     -18.997 -15.648  12.973  1.00  0.00     0.008 C 
ATOM      2  C   UNL     1     -18.332 -16.458  11.848  1.00  0.00    -0.012 C 
ATOM      3  C   UNL     1     -19.125 -16.378  10.527  1.00  0.00     0.004 C 
ATOM      4  C   UNL     1     -18.974 -15.017   9.836  1.00  0.00     0.011 C 
ATOM      5  C   UNL     1     -17.492 -14.667   9.609  1.00  0.00     0.043 C 
ATOM      6  C   UNL     1     -16.702 -14.692  10.942  1.00  0.00     0.121 C 
ATOM      7  C   UNL     1     -16.858 -16.057  11.635  1.00  0.00     0.035 C 
ENDROOT
BRANCH   6   8
ATOM      8  O   UNL     1     -15.336 -14.472  10.695  1.00  0.00    -0.392 OA
ATOM      9  H   UNL     1     -15.057 -13.705  11.258  1.00  0.00     0.210 HD
ENDBRANCH   6   8
BRANCH   5  10
ATOM     10  C   UNL     1     -17.361 -13.323   8.901  1.00  0.00    -0.075 C 
ATOM     11  C   UNL     1     -16.508 -13.182   7.876  1.00  0.00     0.008 C 
ATOM     12  C   UNL     1     -18.181 -12.129   9.327  1.00  0.00     0.039 C 
ENDBRANCH   5  10
TORSDOF 2
ENDMDL
MODEL 3
REMARK VINA RESULT:    -1.892      1.773      4.189
REMARK INTER + INTRA:          -1.831
REMARK INTER:                  -1.723
REMARK INTRA:                  -0.108
REMARK UNBOUND:                 0.227
REMARK SMILES C=C(C)[C@@H]1CC[C@H](C)C[C@H]1O
REMARK SMILES IDX 8 1 7 2 6 3 5 4 4 5 10 6 9 7 11 8 2 10 1 11 3 12
REMARK H PARENT 11 9
REMARK Flexibility Score: inf
ROOT
ATOM      1  C   UNL     1     -18.832 -12.962  11.763  1.00  0.00     0.008 C 
ATOM      2  C   UNL     1     -18.580 -12.672  10.274  1.00  0.00    -0.012 C 
ATOM      3  C   UNL     1     -17.092 -12.393   9.980  1.00  0.00     0.004 C 
ATOM      4  C   UNL     1     -16.237 -13.665  10.028  1.00  0.00     0.011 C 
ATOM      5  C   UNL     1     -16.791 -14.746   9.081  1.00  0.00     0.043 C 
ATOM      6  C   UNL     1     -18.270 -15.070   9.408  1.00  0.00     0.121 C 
ATOM      7  C   UNL     1     -19.125 -13.791   9.362  1.00  0.00     0.035 C 
ENDROOT
BRANCH   6   8
ATOM      8  O   UNL     1     -18.782 -15.980   8.467  1.00  0.00    -0.392 OA
ATOM      9  H   UNL     1     -18.966 -16.827   8.950  1.00  0.00     0.210 HD
ENDBRANCH   6   8
BRANCH   5  10
ATOM     10  C   UNL     1     -15.918 -15.995   9.124  1.00  0.00    -0.075 C 
ATOM     11  C   UNL     1     -15.377 -16.399  10.283  1.00  0.00     0.008 C 
ATOM     12  C   UNL     1     -15.643 -16.803   7.879  1.00  0.00     0.039 C 
ENDBRANCH   5  10
TORSDOF 2
ENDMDL
MODEL 4
REMARK VINA RESULT:    -1.538      1.827      4.225
REMARK INTER + INTRA:          -1.447
REMARK INTER:                  -1.278
REMARK INTRA:                  -0.168
REMARK UNBOUND:                 0.227
REMARK SMILES C=C(C)[C@@H]1CC[C@H](C)C[C@H]1O
REMARK SMILES IDX 8 1 7 2 6 3 5 4 4 5 10 6 9 7 11 8 2 10 1 11 3 12
REMARK H PARENT 11 9
REMARK Flexibility Score: inf
ROOT
ATOM      1  C   UNL     1     -18.060 -12.292  11.996  1.00  0.00     0.008 C 
ATOM      2  C   UNL     1     -19.125 -13.139  11.280  1.00  0.00    -0.012 C 
ATOM      3  C   UNL     1     -18.994 -13.059   9.745  1.00  0.00     0.004 C 
ATOM      4  C   UNL     1     -17.795 -13.856   9.217  1.00  0.00     0.011 C 
ATOM      5  C   UNL     1     -17.847 -15.321   9.689  1.00  0.00     0.043 C 
ATOM      6  C   UNL     1     -17.922 -15.408  11.234  1.00  0.00     0.121 C 
ATOM      7  C   UNL     1     -19.125 -14.604  11.761  1.00  0.00     0.035 C 
ENDROOT
BRANCH   6   8
ATOM      8  O   UNL     1     -18.074 -16.747  11.633  1.00  0.00    -0.392 OA
ATOM      9  H   UNL     1     -17.267 -17.236  11.326  1.00  0.00     0.210 HD
ENDBRANCH   6   8
BRANCH   5  10
ATOM     10  C   UNL     1     -16.661 -16.104   9.137  1.00  0.00    -0.075 C 
ATOM     11  C   UNL     1     -15.430 -15.898   9.630  1.00  0.00     0.008 C 
ATOM     12  C   UNL     1     -16.837 -17.123   8.037  1.00  0.00     0.039 C 
ENDBRANCH   5  10
TORSDOF 2
ENDMDL
MODEL 5
REMARK VINA RESULT:    -1.532      1.619      3.614
REMARK INTER + INTRA:          -1.440
REMARK INTER:                  -2.055
REMARK INTRA:                   0.615
REMARK UNBOUND:                 0.227
REMARK SMILES C=C(C)[C@@H]1CC[C@H](C)C[C@H]1O
REMARK SMILES IDX 8 1 7 2 6 3 5 4 4 5 10 6 9 7 11 8 2 10 1 11 3 12
REMARK H PARENT 11 9
REMARK Flexibility Score: inf
ROOT
ATOM      1  C   UNL     1     -19.125 -17.123  11.213  1.00  0.00     0.008 C 
ATOM      2  C   UNL     1     -18.073 -16.278  11.951  1.00  0.00    -0.012 C 
ATOM      3  C   UNL     1     -16.727 -16.242  11.200  1.00  0.00     0.004 C 
ATOM      4  C   UNL     1     -16.777 -15.354   9.950  1.00  0.00     0.011 C 
ATOM      5  C   UNL     1     -17.252 -13.930  10.296  1.00  0.00     0.043 C 
ATOM      6  C   UNL     1     -18.631 -13.958  11.001  1.00  0.00     0.121 C 
ATOM      7  C   UNL     1     -18.578 -14.852  12.253  1.00  0.00     0.035 C 
ENDROOT
BRANCH   6   8
ATOM      8  O   UNL     1     -18.994 -12.659  11.399  1.00  0.00    -0.392 OA
ATOM      9  H   UNL     1     -18.363 -12.032  10.957  1.00  0.00     0.210 HD
ENDBRANCH   6   8
BRANCH   5  10
ATOM     10  C   UNL     1     -17.275 -13.056   9.048  1.00  0.00    -0.075 C 
ATOM     11  C   UNL     1     -18.117 -12.013   8.970  1.00  0.00     0.008 C 
ATOM     12  C   UNL     1     -16.359 -13.332   7.880  1.00  0.00     0.039 C 
ENDBRANCH   5  10
TORSDOF 2
ENDMDL
MODEL 6
REMARK VINA RESULT:    -0.739      1.847      4.182
REMARK INTER + INTRA:          -0.577
REMARK INTER:                  -0.498
REMARK INTRA:                  -0.079
REMARK UNBOUND:                 0.227
REMARK SMILES C=C(C)[C@@H]1CC[C@H](C)C[C@H]1O
REMARK SMILES IDX 8 1 7 2 6 3 5 4 4 5 10 6 9 7 11 8 2 10 1 11 3 12
REMARK H PARENT 11 9
REMARK Flexibility Score: inf
ROOT
ATOM      1  C   UNL     1     -18.156 -15.674  13.475  1.00  0.00     0.008 C 
ATOM      2  C   UNL     1     -19.125 -15.288  12.345  1.00  0.00    -0.012 C 
ATOM      3  C   UNL     1     -18.965 -13.813  11.922  1.00  0.00     0.004 C 
ATOM      4  C   UNL     1     -17.687 -13.573  11.108  1.00  0.00     0.011 C 
ATOM      5  C   UNL     1     -17.621 -14.507   9.885  1.00  0.00     0.043 C 
ATOM      6  C   UNL     1     -17.724 -15.992  10.310  1.00  0.00     0.121 C 
ATOM      7  C   UNL     1     -19.006 -16.230  11.130  1.00  0.00     0.035 C 
ENDROOT
BRANCH   6   8
ATOM      8  O   UNL     1     -17.766 -16.816   9.172  1.00  0.00    -0.392 OA
ATOM      9  H   UNL     1     -17.753 -17.756   9.491  1.00  0.00     0.210 HD
ENDBRANCH   6   8
BRANCH   5  10
ATOM     10  C   UNL     1     -16.357 -14.239   9.076  1.00  0.00    -0.075 C 
ATOM     11  C   UNL     1     -15.199 -14.822   9.421  1.00  0.00     0.008 C 
ATOM     12  C   UNL     1     -16.374 -13.323   7.875  1.00  0.00     0.039 C 
ENDBRANCH   5  10
TORSDOF 2
ENDMDL
