MODEL 1
REMARK VINA RESULT:    -6.816      0.000      0.000
REMARK INTER + INTRA:          -8.649
REMARK INTER:                  -8.210
REMARK INTRA:                  -0.438
REMARK UNBOUND:                -0.438
REMARK SMILES Oc1cc(O)c2c(c1)O[C@H](c1ccc(O)c(O)c1)[C@@H](O)C2
REMARK SMILES IDX 21 1 19 2 10 3 9 4 7 5 8 6 2 7 3 8 4 9 6 10 20 11 11 13
REMARK SMILES IDX 18 14 12 15 16 16 13 17 14 18 17 19 15 21 5 23 1 25
REMARK H PARENT 20 12 17 20 15 22 5 24 1 26
REMARK Flexibility Score: inf
ROOT
ATOM      1  C   UNL     1      -2.317  70.664 164.249  1.00  0.00     0.079 C 
ATOM      2  C   UNL     1      -3.412  69.902 165.027  1.00  0.00     0.164 C 
ATOM      3  C   UNL     1      -2.876  68.688 165.869  1.00  0.00     0.232 C 
ATOM      4  O   UNL     1      -1.530  68.343 165.516  1.00  0.00    -0.482 OA
ATOM      5  C   UNL     1      -1.016  68.561 164.239  1.00  0.00     0.131 A 
ATOM      6  C   UNL     1      -0.129  67.642 163.675  1.00  0.00     0.093 A 
ATOM      7  C   UNL     1       0.319  67.819 162.360  1.00  0.00     0.122 A 
ATOM      8  C   UNL     1      -0.059  68.963 161.647  1.00  0.00     0.092 A 
ATOM      9  C   UNL     1      -0.888  69.929 162.233  1.00  0.00     0.126 A 
ATOM     10  C   UNL     1      -1.409  69.703 163.529  1.00  0.00     0.039 A 
ENDROOT
BRANCH   2  11
ATOM     11  O   UNL     1      -4.129  70.798 165.845  1.00  0.00    -0.389 OA
ATOM     12  H   UNL     1      -3.734  71.701 165.720  1.00  0.00     0.211 HD
ENDBRANCH   2  11
BRANCH   3  13
ATOM     13  C   UNL     1      -3.774  67.459 165.744  1.00  0.00    -0.001 A 
ATOM     14  C   UNL     1      -5.177  67.599 165.677  1.00  0.00     0.057 A 
ATOM     15  C   UNL     1      -3.230  66.158 165.780  1.00  0.00     0.012 A 
ATOM     16  C   UNL     1      -6.008  66.474 165.579  1.00  0.00     0.157 A 
ATOM     17  C   UNL     1      -4.060  65.040 165.714  1.00  0.00     0.050 A 
ATOM     18  C   UNL     1      -5.448  65.186 165.607  1.00  0.00     0.157 A 
BRANCH  16  19
ATOM     19  O   UNL     1      -7.386  66.660 165.460  1.00  0.00    -0.504 OA
ATOM     20  H   UNL     1      -7.959  66.953 166.245  1.00  0.00     0.293 HD
ENDBRANCH  16  19
BRANCH  18  21
ATOM     21  O   UNL     1      -6.268  64.059 165.516  1.00  0.00    -0.504 OA
ATOM     22  H   UNL     1      -6.861  63.766 166.280  1.00  0.00     0.293 HD
ENDBRANCH  18  21
ENDBRANCH   3  13
BRANCH   9  23
ATOM     23  O   UNL     1      -1.149  71.091 161.504  1.00  0.00    -0.507 OA
ATOM     24  H   UNL     1      -1.544  71.929 161.903  1.00  0.00     0.293 HD
ENDBRANCH   9  23
BRANCH   7  25
ATOM     25  O   UNL     1       1.134  66.865 161.753  1.00  0.00    -0.508 OA
ATOM     26  H   UNL     1       0.813  66.318 160.963  1.00  0.00     0.293 HD
ENDBRANCH   7  25
TORSDOF 6
ENDMDL
MODEL 2
REMARK VINA RESULT:    -6.227      2.228      5.954
REMARK INTER + INTRA:          -7.940
REMARK INTER:                  -7.476
REMARK INTRA:                  -0.463
REMARK UNBOUND:                -0.438
REMARK SMILES Oc1cc(O)c2c(c1)O[C@H](c1ccc(O)c(O)c1)[C@@H](O)C2
REMARK SMILES IDX 21 1 19 2 10 3 9 4 7 5 8 6 2 7 3 8 4 9 6 10 20 11 11 13
REMARK SMILES IDX 18 14 12 15 16 16 13 17 14 18 17 19 15 21 5 23 1 25
REMARK H PARENT 20 12 17 20 15 22 5 24 1 26
REMARK Flexibility Score: inf
ROOT
ATOM      1  C   UNL     1      -0.136  68.876 165.200  1.00  0.00     0.079 C 
ATOM      2  C   UNL     1      -0.039  69.772 163.946  1.00  0.00     0.164 C 
ATOM      3  C   UNL     1      -1.274  70.722 163.736  1.00  0.00     0.232 C 
ATOM      4  O   UNL     1      -2.378  70.357 164.576  1.00  0.00    -0.482 OA
ATOM      5  C   UNL     1      -2.595  69.045 164.994  1.00  0.00     0.131 A 
ATOM      6  C   UNL     1      -3.896  68.552 165.106  1.00  0.00     0.093 A 
ATOM      7  C   UNL     1      -4.107  67.210 165.444  1.00  0.00     0.122 A 
ATOM      8  C   UNL     1      -3.015  66.391 165.751  1.00  0.00     0.092 A 
ATOM      9  C   UNL     1      -1.709  66.899 165.715  1.00  0.00     0.126 A 
ATOM     10  C   UNL     1      -1.494  68.231 165.289  1.00  0.00     0.039 A 
ENDROOT
BRANCH   2  11
ATOM     11  O   UNL     1       1.159  70.515 163.981  1.00  0.00    -0.389 OA
ATOM     12  H   UNL     1       1.876  69.912 164.314  1.00  0.00     0.211 HD
ENDBRANCH   2  11
BRANCH   3  13
ATOM     13  C   UNL     1      -1.726  70.765 162.278  1.00  0.00    -0.001 A 
ATOM     14  C   UNL     1      -3.093  70.906 161.955  1.00  0.00     0.057 A 
ATOM     15  C   UNL     1      -0.803  70.578 161.228  1.00  0.00     0.012 A 
ATOM     16  C   UNL     1      -3.516  70.929 160.618  1.00  0.00     0.157 A 
ATOM     17  C   UNL     1      -1.230  70.571 159.901  1.00  0.00     0.050 A 
ATOM     18  C   UNL     1      -2.582  70.751 159.584  1.00  0.00     0.157 A 
BRANCH  16  19
ATOM     19  O   UNL     1      -4.870  71.125 160.342  1.00  0.00    -0.504 OA
ATOM     20  H   UNL     1      -5.284  70.848 159.457  1.00  0.00     0.293 HD
ENDBRANCH  16  19
BRANCH  18  21
ATOM     21  O   UNL     1      -2.995  70.767 158.250  1.00  0.00    -0.504 OA
ATOM     22  H   UNL     1      -3.506  69.997 157.840  1.00  0.00     0.293 HD
ENDBRANCH  18  21
ENDBRANCH   3  13
BRANCH   9  23
ATOM     23  O   UNL     1      -0.672  66.058 166.126  1.00  0.00    -0.507 OA
ATOM     24  H   UNL     1       0.227  66.010 165.670  1.00  0.00     0.293 HD
ENDBRANCH   9  23
BRANCH   7  25
ATOM     25  O   UNL     1      -5.397  66.680 165.474  1.00  0.00    -0.508 OA
ATOM     26  H   UNL     1      -5.606  65.771 165.077  1.00  0.00     0.293 HD
ENDBRANCH   7  25
TORSDOF 6
ENDMDL
MODEL 3
REMARK VINA RESULT:    -6.090      1.246      1.908
REMARK INTER + INTRA:          -7.775
REMARK INTER:                  -7.387
REMARK INTRA:                  -0.388
REMARK UNBOUND:                -0.438
REMARK SMILES Oc1cc(O)c2c(c1)O[C@H](c1ccc(O)c(O)c1)[C@@H](O)C2
REMARK SMILES IDX 21 1 19 2 10 3 9 4 7 5 8 6 2 7 3 8 4 9 6 10 20 11 11 13
REMARK SMILES IDX 18 14 12 15 16 16 13 17 14 18 17 19 15 21 5 23 1 25
REMARK H PARENT 20 12 17 20 15 22 5 24 1 26
REMARK Flexibility Score: inf
ROOT
ATOM      1  C   UNL     1      -2.074  69.670 164.796  1.00  0.00     0.079 C 
ATOM      2  C   UNL     1      -3.441  69.188 165.329  1.00  0.00     0.164 C 
ATOM      3  C   UNL     1      -3.374  67.859 166.165  1.00  0.00     0.232 C 
ATOM      4  O   UNL     1      -2.111  67.197 166.016  1.00  0.00    -0.482 OA
ATOM      5  C   UNL     1      -1.342  67.309 164.859  1.00  0.00     0.131 A 
ATOM      6  C   UNL     1      -0.620  66.211 164.390  1.00  0.00     0.093 A 
ATOM      7  C   UNL     1       0.083  66.302 163.182  1.00  0.00     0.122 A 
ATOM      8  C   UNL     1       0.126  67.520 162.495  1.00  0.00     0.092 A 
ATOM      9  C   UNL     1      -0.534  68.648 162.998  1.00  0.00     0.126 A 
ATOM     10  C   UNL     1      -1.314  68.530 164.173  1.00  0.00     0.039 A 
ENDROOT
BRANCH   2  11
ATOM     11  O   UNL     1      -4.053  70.216 166.075  1.00  0.00    -0.389 OA
ATOM     12  H   UNL     1      -5.036  70.076 166.029  1.00  0.00     0.211 HD
ENDBRANCH   2  11
BRANCH   3  13
ATOM     13  C   UNL     1      -4.507  66.898 165.811  1.00  0.00    -0.001 A 
ATOM     14  C   UNL     1      -4.234  65.543 165.525  1.00  0.00     0.057 A 
ATOM     15  C   UNL     1      -5.833  67.359 165.678  1.00  0.00     0.012 A 
ATOM     16  C   UNL     1      -5.267  64.659 165.183  1.00  0.00     0.157 A 
ATOM     17  C   UNL     1      -6.854  66.486 165.307  1.00  0.00     0.050 A 
ATOM     18  C   UNL     1      -6.584  65.134 165.063  1.00  0.00     0.157 A 
BRANCH  16  19
ATOM     19  O   UNL     1      -4.961  63.315 164.961  1.00  0.00    -0.504 OA
ATOM     20  H   UNL     1      -4.059  62.921 165.208  1.00  0.00     0.293 HD
ENDBRANCH  16  19
BRANCH  18  21
ATOM     21  O   UNL     1      -7.619  64.262 164.717  1.00  0.00    -0.504 OA
ATOM     22  H   UNL     1      -7.486  63.512 164.053  1.00  0.00     0.293 HD
ENDBRANCH  18  21
ENDBRANCH   3  13
BRANCH   9  23
ATOM     23  O   UNL     1      -0.372  69.856 162.316  1.00  0.00    -0.507 OA
ATOM     24  H   UNL     1       0.523  70.283 162.131  1.00  0.00     0.293 HD
ENDBRANCH   9  23
BRANCH   7  25
ATOM     25  O   UNL     1       0.736  65.188 162.655  1.00  0.00    -0.508 OA
ATOM     26  H   UNL     1       0.841  64.332 163.188  1.00  0.00     0.293 HD
ENDBRANCH   7  25
TORSDOF 6
ENDMDL
MODEL 4
REMARK VINA RESULT:    -5.205      2.505      3.371
REMARK INTER + INTRA:          -6.708
REMARK INTER:                  -6.312
REMARK INTRA:                  -0.395
REMARK UNBOUND:                -0.438
REMARK SMILES Oc1cc(O)c2c(c1)O[C@H](c1ccc(O)c(O)c1)[C@@H](O)C2
REMARK SMILES IDX 21 1 19 2 10 3 9 4 7 5 8 6 2 7 3 8 4 9 6 10 20 11 11 13
REMARK SMILES IDX 18 14 12 15 16 16 13 17 14 18 17 19 15 21 5 23 1 25
REMARK H PARENT 20 12 17 20 15 22 5 24 1 26
REMARK Flexibility Score: inf
ROOT
ATOM      1  C   UNL     1      -0.612  70.770 163.982  1.00  0.00     0.079 C 
ATOM      2  C   UNL     1      -1.876  69.921 163.729  1.00  0.00     0.164 C 
ATOM      3  C   UNL     1      -2.857  69.844 164.955  1.00  0.00     0.232 C 
ATOM      4  O   UNL     1      -2.246  70.325 166.160  1.00  0.00    -0.482 OA
ATOM      5  C   UNL     1      -0.873  70.241 166.384  1.00  0.00     0.131 A 
ATOM      6  C   UNL     1      -0.388  69.972 167.665  1.00  0.00     0.093 A 
ATOM      7  C   UNL     1       0.987  69.804 167.870  1.00  0.00     0.122 A 
ATOM      8  C   UNL     1       1.875  69.992 166.805  1.00  0.00     0.092 A 
ATOM      9  C   UNL     1       1.402  70.337 165.532  1.00  0.00     0.126 A 
ATOM     10  C   UNL     1       0.007  70.421 165.309  1.00  0.00     0.039 A 
ENDROOT
BRANCH   2  11
ATOM     11  O   UNL     1      -2.548  70.393 162.583  1.00  0.00    -0.389 OA
ATOM     12  H   UNL     1      -2.330  69.778 161.833  1.00  0.00     0.211 HD
ENDBRANCH   2  11
BRANCH   3  13
ATOM     13  C   UNL     1      -3.394  68.432 165.176  1.00  0.00    -0.001 A 
ATOM     14  C   UNL     1      -4.783  68.180 165.158  1.00  0.00     0.057 A 
ATOM     15  C   UNL     1      -2.523  67.367 165.488  1.00  0.00     0.012 A 
ATOM     16  C   UNL     1      -5.282  66.889 165.377  1.00  0.00     0.157 A 
ATOM     17  C   UNL     1      -3.023  66.090 165.736  1.00  0.00     0.050 A 
ATOM     18  C   UNL     1      -4.400  65.838 165.678  1.00  0.00     0.157 A 
BRANCH  16  19
ATOM     19  O   UNL     1      -6.659  66.675 165.297  1.00  0.00    -0.504 OA
ATOM     20  H   UNL     1      -7.253  67.215 164.675  1.00  0.00     0.293 HD
ENDBRANCH  16  19
BRANCH  18  21
ATOM     21  O   UNL     1      -4.889  64.550 165.903  1.00  0.00    -0.504 OA
ATOM     22  H   UNL     1      -5.363  64.025 165.182  1.00  0.00     0.293 HD
ENDBRANCH  18  21
ENDBRANCH   3  13
BRANCH   9  23
ATOM     23  O   UNL     1       2.345  70.605 164.537  1.00  0.00    -0.507 OA
ATOM     24  H   UNL     1       2.758  71.511 164.382  1.00  0.00     0.293 HD
ENDBRANCH   9  23
BRANCH   7  25
ATOM     25  O   UNL     1       1.479  69.448 169.125  1.00  0.00    -0.508 OA
ATOM     26  H   UNL     1       2.471  69.470 169.332  1.00  0.00     0.293 HD
ENDBRANCH   7  25
TORSDOF 6
ENDMDL
MODEL 5
REMARK VINA RESULT:    -4.748      1.640      2.222
REMARK INTER + INTRA:          -6.158
REMARK INTER:                  -5.614
REMARK INTRA:                  -0.543
REMARK UNBOUND:                -0.438
REMARK SMILES Oc1cc(O)c2c(c1)O[C@H](c1ccc(O)c(O)c1)[C@@H](O)C2
REMARK SMILES IDX 21 1 19 2 10 3 9 4 7 5 8 6 2 7 3 8 4 9 6 10 20 11 11 13
REMARK SMILES IDX 18 14 12 15 16 16 13 17 14 18 17 19 15 21 5 23 1 25
REMARK H PARENT 20 12 17 20 15 22 5 24 1 26
REMARK Flexibility Score: inf
ROOT
ATOM      1  C   UNL     1       0.038  69.519 165.877  1.00  0.00     0.079 C 
ATOM      2  C   UNL     1      -1.255  68.999 166.541  1.00  0.00     0.164 C 
ATOM      3  C   UNL     1      -1.526  67.468 166.310  1.00  0.00     0.232 C 
ATOM      4  O   UNL     1      -0.684  66.924 165.284  1.00  0.00    -0.482 OA
ATOM      5  C   UNL     1      -0.206  67.695 164.226  1.00  0.00     0.131 A 
ATOM      6  C   UNL     1      -0.088  67.137 162.952  1.00  0.00     0.093 A 
ATOM      7  C   UNL     1       0.311  67.937 161.874  1.00  0.00     0.122 A 
ATOM      8  C   UNL     1       0.671  69.271 162.095  1.00  0.00     0.092 A 
ATOM      9  C   UNL     1       0.627  69.818 163.384  1.00  0.00     0.126 A 
ATOM     10  C   UNL     1       0.141  69.032 164.456  1.00  0.00     0.039 A 
ENDROOT
BRANCH   2  11
ATOM     11  O   UNL     1      -1.241  69.299 167.918  1.00  0.00    -0.389 OA
ATOM     12  H   UNL     1      -2.171  69.527 168.185  1.00  0.00     0.211 HD
ENDBRANCH   2  11
BRANCH   3  13
ATOM     13  C   UNL     1      -2.990  67.185 165.981  1.00  0.00    -0.001 A 
ATOM     14  C   UNL     1      -3.445  65.859 165.816  1.00  0.00     0.057 A 
ATOM     15  C   UNL     1      -3.897  68.240 165.749  1.00  0.00     0.012 A 
ATOM     16  C   UNL     1      -4.784  65.593 165.497  1.00  0.00     0.157 A 
ATOM     17  C   UNL     1      -5.221  67.974 165.402  1.00  0.00     0.050 A 
ATOM     18  C   UNL     1      -5.676  66.656 165.279  1.00  0.00     0.157 A 
BRANCH  16  19
ATOM     19  O   UNL     1      -5.204  64.266 165.397  1.00  0.00    -0.504 OA
ATOM     20  H   UNL     1      -6.024  63.922 165.888  1.00  0.00     0.293 HD
ENDBRANCH  16  19
BRANCH  18  21
ATOM     21  O   UNL     1      -7.010  66.401 164.955  1.00  0.00    -0.504 OA
ATOM     22  H   UNL     1      -7.535  67.004 164.337  1.00  0.00     0.293 HD
ENDBRANCH  18  21
ENDBRANCH   3  13
BRANCH   9  23
ATOM     23  O   UNL     1       1.090  71.125 163.554  1.00  0.00    -0.507 OA
ATOM     24  H   UNL     1       1.903  71.499 163.089  1.00  0.00     0.293 HD
ENDBRANCH   9  23
BRANCH   7  25
ATOM     25  O   UNL     1       0.349  67.418 160.580  1.00  0.00    -0.508 OA
ATOM     26  H   UNL     1       0.126  66.447 160.391  1.00  0.00     0.293 HD
ENDBRANCH   7  25
TORSDOF 6
ENDMDL
MODEL 6
REMARK VINA RESULT:    -4.459      3.052      5.181
REMARK INTER + INTRA:          -5.810
REMARK INTER:                  -5.363
REMARK INTRA:                  -0.447
REMARK UNBOUND:                -0.438
REMARK SMILES Oc1cc(O)c2c(c1)O[C@H](c1ccc(O)c(O)c1)[C@@H](O)C2
REMARK SMILES IDX 21 1 19 2 10 3 9 4 7 5 8 6 2 7 3 8 4 9 6 10 20 11 11 13
REMARK SMILES IDX 18 14 12 15 16 16 13 17 14 18 17 19 15 21 5 23 1 25
REMARK H PARENT 20 12 17 20 15 22 5 24 1 26
REMARK Flexibility Score: inf
ROOT
ATOM      1  C   UNL     1      -3.712  70.822 163.677  1.00  0.00     0.079 C 
ATOM      2  C   UNL     1      -2.743  69.805 164.320  1.00  0.00     0.164 C 
ATOM      3  C   UNL     1      -1.252  69.946 163.843  1.00  0.00     0.232 C 
ATOM      4  O   UNL     1      -1.137  70.787 162.687  1.00  0.00    -0.482 OA
ATOM      5  C   UNL     1      -2.163  70.912 161.751  1.00  0.00     0.131 A 
ATOM      6  C   UNL     1      -1.862  71.039 160.394  1.00  0.00     0.093 A 
ATOM      7  C   UNL     1      -2.895  71.079 159.450  1.00  0.00     0.122 A 
ATOM      8  C   UNL     1      -4.227  71.077 159.878  1.00  0.00     0.092 A 
ATOM      9  C   UNL     1      -4.538  71.026 161.243  1.00  0.00     0.126 A 
ATOM     10  C   UNL     1      -3.494  70.898 162.190  1.00  0.00     0.039 A 
ENDROOT
BRANCH   2  11
ATOM     11  O   UNL     1      -2.826  69.887 165.725  1.00  0.00    -0.389 OA
ATOM     12  H   UNL     1      -2.732  70.845 165.975  1.00  0.00     0.211 HD
ENDBRANCH   2  11
BRANCH   3  13
ATOM     13  C   UNL     1      -0.607  68.591 163.562  1.00  0.00    -0.001 A 
ATOM     14  C   UNL     1       0.298  68.435 162.489  1.00  0.00     0.057 A 
ATOM     15  C   UNL     1      -0.964  67.449 164.309  1.00  0.00     0.012 A 
ATOM     16  C   UNL     1       0.880  67.190 162.215  1.00  0.00     0.157 A 
ATOM     17  C   UNL     1      -0.407  66.206 164.017  1.00  0.00     0.050 A 
ATOM     18  C   UNL     1       0.520  66.065 162.976  1.00  0.00     0.157 A 
BRANCH  16  19
ATOM     19  O   UNL     1       1.811  67.093 161.179  1.00  0.00    -0.504 OA
ATOM     20  H   UNL     1       2.811  67.083 161.353  1.00  0.00     0.293 HD
ENDBRANCH  16  19
BRANCH  18  21
ATOM     21  O   UNL     1       1.091  64.820 162.707  1.00  0.00    -0.504 OA
ATOM     22  H   UNL     1       1.085  64.418 161.780  1.00  0.00     0.293 HD
ENDBRANCH  18  21
ENDBRANCH   3  13
BRANCH   9  23
ATOM     23  O   UNL     1      -5.883  71.124 161.609  1.00  0.00    -0.507 OA
ATOM     24  H   UNL     1      -6.624  71.365 160.970  1.00  0.00     0.293 HD
ENDBRANCH   9  23
BRANCH   7  25
ATOM     25  O   UNL     1      -2.609  71.117 158.086  1.00  0.00    -0.508 OA
ATOM     26  H   UNL     1      -1.783  70.669 157.704  1.00  0.00     0.293 HD
ENDBRANCH   7  25
TORSDOF 6
ENDMDL
MODEL 7
REMARK VINA RESULT:    -3.873      2.820      6.475
REMARK INTER + INTRA:          -5.103
REMARK INTER:                  -4.631
REMARK INTRA:                  -0.472
REMARK UNBOUND:                -0.438
REMARK SMILES Oc1cc(O)c2c(c1)O[C@H](c1ccc(O)c(O)c1)[C@@H](O)C2
REMARK SMILES IDX 21 1 19 2 10 3 9 4 7 5 8 6 2 7 3 8 4 9 6 10 20 11 11 13
REMARK SMILES IDX 18 14 12 15 16 16 13 17 14 18 17 19 15 21 5 23 1 25
REMARK H PARENT 20 12 17 20 15 22 5 24 1 26
REMARK Flexibility Score: inf
ROOT
ATOM      1  C   UNL     1       0.312  67.664 163.160  1.00  0.00     0.079 C 
ATOM      2  C   UNL     1       0.061  67.910 161.657  1.00  0.00     0.164 C 
ATOM      3  C   UNL     1      -0.105  69.425 161.271  1.00  0.00     0.232 C 
ATOM      4  O   UNL     1      -0.292  70.254 162.426  1.00  0.00    -0.482 OA
ATOM      5  C   UNL     1      -0.890  69.782 163.593  1.00  0.00     0.131 A 
ATOM      6  C   UNL     1      -1.723  70.617 164.340  1.00  0.00     0.093 A 
ATOM      7  C   UNL     1      -2.389  70.114 165.464  1.00  0.00     0.122 A 
ATOM      8  C   UNL     1      -2.150  68.801 165.883  1.00  0.00     0.092 A 
ATOM      9  C   UNL     1      -1.256  67.979 165.183  1.00  0.00     0.126 A 
ATOM     10  C   UNL     1      -0.652  68.462 163.998  1.00  0.00     0.039 A 
ENDROOT
BRANCH   2  11
ATOM     11  O   UNL     1       1.088  67.313 160.897  1.00  0.00    -0.389 OA
ATOM     12  H   UNL     1       1.742  68.025 160.663  1.00  0.00     0.211 HD
ENDBRANCH   2  11
BRANCH   3  13
ATOM     13  C   UNL     1      -1.251  69.646 160.286  1.00  0.00    -0.001 A 
ATOM     14  C   UNL     1      -1.685  68.600 159.443  1.00  0.00     0.057 A 
ATOM     15  C   UNL     1      -1.841  70.919 160.135  1.00  0.00     0.012 A 
ATOM     16  C   UNL     1      -2.724  68.801 158.525  1.00  0.00     0.157 A 
ATOM     17  C   UNL     1      -2.853  71.125 159.200  1.00  0.00     0.050 A 
ATOM     18  C   UNL     1      -3.307  70.073 158.394  1.00  0.00     0.157 A 
BRANCH  16  19
ATOM     19  O   UNL     1      -3.158  67.725 157.749  1.00  0.00    -0.504 OA
ATOM     20  H   UNL     1      -3.389  66.825 158.158  1.00  0.00     0.293 HD
ENDBRANCH  16  19
BRANCH  18  21
ATOM     21  O   UNL     1      -4.339  70.285 157.478  1.00  0.00    -0.504 OA
ATOM     22  H   UNL     1      -4.157  70.518 156.512  1.00  0.00     0.293 HD
ENDBRANCH  18  21
ENDBRANCH   3  13
BRANCH   9  23
ATOM     23  O   UNL     1      -0.988  66.713 165.707  1.00  0.00    -0.507 OA
ATOM     24  H   UNL     1      -0.205  66.506 166.307  1.00  0.00     0.293 HD
ENDBRANCH   9  23
BRANCH   7  25
ATOM     25  O   UNL     1      -3.292  70.909 166.169  1.00  0.00    -0.508 OA
ATOM     26  H   UNL     1      -3.139  71.903 166.294  1.00  0.00     0.293 HD
ENDBRANCH   7  25
TORSDOF 6
ENDMDL
