MODEL 1
REMARK VINA RESULT:    -6.062      0.000      0.000
REMARK INTER + INTRA:          -7.705
REMARK INTER:                  -7.302
REMARK INTRA:                  -0.403
REMARK UNBOUND:                -0.403
REMARK SMILES O=c1c(O)c(-c2ccc(O)cc2O)oc2cc(O)cc(O)c12
REMARK SMILES IDX 5 1 3 2 2 3 1 4 22 5 20 6 19 7 17 8 16 9 15 10 14 11 6 12
REMARK SMILES IDX 8 13 7 14 9 15 11 16 12 17 10 18 13 20 4 22 21 24 18 26
REMARK H PARENT 10 19 13 21 4 23 21 25 18 27
REMARK Flexibility Score: inf
ROOT
ATOM      1  C   UNL     1       1.783  16.116  26.167  1.00  0.00     0.184 A 
ATOM      2  C   UNL     1       1.288  16.764  25.022  1.00  0.00     0.208 A 
ATOM      3  C   UNL     1       0.499  17.913  25.181  1.00  0.00     0.238 A 
ATOM      4  O   UNL     1       0.051  18.505  24.161  1.00  0.00    -0.285 OA
ATOM      5  C   UNL     1       0.213  18.387  26.479  1.00  0.00     0.111 A 
ATOM      6  C   UNL     1      -0.576  19.535  26.728  1.00  0.00     0.134 A 
ATOM      7  C   UNL     1      -0.818  19.941  28.049  1.00  0.00     0.093 A 
ATOM      8  C   UNL     1      -0.285  19.220  29.124  1.00  0.00     0.123 A 
ATOM      9  C   UNL     1       0.495  18.088  28.884  1.00  0.00     0.094 A 
ATOM     10  C   UNL     1       0.748  17.668  27.575  1.00  0.00     0.146 A 
ATOM     11  O   UNL     1       1.494  16.587  27.376  1.00  0.00    -0.451 OA
ENDROOT
BRANCH   1  12
ATOM     12  C   UNL     1       2.635  14.911  26.061  1.00  0.00     0.063 A 
ATOM     13  C   UNL     1       4.822  13.937  25.624  1.00  0.00     0.047 A 
ATOM     14  C   UNL     1       3.981  15.051  25.679  1.00  0.00     0.020 A 
ATOM     15  C   UNL     1       4.336  12.672  25.957  1.00  0.00     0.119 A 
ATOM     16  C   UNL     1       2.997  12.521  26.342  1.00  0.00     0.093 A 
ATOM     17  C   UNL     1       2.142  13.628  26.391  1.00  0.00     0.130 A 
BRANCH  15  18
ATOM     18  O   UNL     1       5.188  11.572  25.903  1.00  0.00    -0.508 OA
ATOM     19  H   UNL     1       5.057  10.834  25.221  1.00  0.00     0.293 HD
ENDBRANCH  15  18
BRANCH  17  20
ATOM     20  O   UNL     1       0.808  13.415  26.747  1.00  0.00    -0.507 OA
ATOM     21  H   UNL     1       0.219  12.728  26.295  1.00  0.00     0.293 HD
ENDBRANCH  17  20
ENDBRANCH   1  12
BRANCH   2  22
ATOM     22  O   UNL     1       1.570  16.255  23.752  1.00  0.00    -0.502 OA
ATOM     23  H   UNL     1       1.631  15.262  23.568  1.00  0.00     0.293 HD
ENDBRANCH   2  22
BRANCH   6  24
ATOM     24  O   UNL     1      -1.122  20.273  25.676  1.00  0.00    -0.507 OA
ATOM     25  H   UNL     1      -0.569  20.938  25.148  1.00  0.00     0.293 HD
ENDBRANCH   6  24
BRANCH   8  26
ATOM     26  O   UNL     1      -0.525  19.623  30.436  1.00  0.00    -0.508 OA
ATOM     27  H   UNL     1       0.233  19.883  31.057  1.00  0.00     0.293 HD
ENDBRANCH   8  26
TORSDOF 6
ENDMDL
MODEL 2
REMARK VINA RESULT:    -5.773      0.851      1.479
REMARK INTER + INTRA:          -7.358
REMARK INTER:                  -7.067
REMARK INTRA:                  -0.291
REMARK UNBOUND:                -0.403
REMARK SMILES O=c1c(O)c(-c2ccc(O)cc2O)oc2cc(O)cc(O)c12
REMARK SMILES IDX 5 1 3 2 2 3 1 4 22 5 20 6 19 7 17 8 16 9 15 10 14 11 6 12
REMARK SMILES IDX 8 13 7 14 9 15 11 16 12 17 10 18 13 20 4 22 21 24 18 26
REMARK H PARENT 10 19 13 21 4 23 21 25 18 27
REMARK Flexibility Score: inf
ROOT
ATOM      1  C   UNL     1       1.433  16.072  26.364  1.00  0.00     0.184 A 
ATOM      2  C   UNL     1       1.046  16.728  25.183  1.00  0.00     0.208 A 
ATOM      3  C   UNL     1       0.337  17.935  25.278  1.00  0.00     0.238 A 
ATOM      4  O   UNL     1      -0.013  18.534  24.225  1.00  0.00    -0.285 OA
ATOM      5  C   UNL     1       0.023  18.460  26.549  1.00  0.00     0.111 A 
ATOM      6  C   UNL     1      -0.689  19.669  26.734  1.00  0.00     0.134 A 
ATOM      7  C   UNL     1      -0.965  20.123  28.032  1.00  0.00     0.093 A 
ATOM      8  C   UNL     1      -0.543  19.391  29.148  1.00  0.00     0.123 A 
ATOM      9  C   UNL     1       0.162  18.199  28.971  1.00  0.00     0.094 A 
ATOM     10  C   UNL     1       0.448  17.730  27.686  1.00  0.00     0.146 A 
ATOM     11  O   UNL     1       1.120  16.593  27.547  1.00  0.00    -0.451 OA
ENDROOT
BRANCH   1  12
ATOM     12  C   UNL     1       2.197  14.806  26.327  1.00  0.00     0.063 A 
ATOM     13  C   UNL     1       2.256  12.397  26.666  1.00  0.00     0.047 A 
ATOM     14  C   UNL     1       1.577  13.615  26.742  1.00  0.00     0.020 A 
ATOM     15  C   UNL     1       3.559  12.350  26.167  1.00  0.00     0.119 A 
ATOM     16  C   UNL     1       4.187  13.530  25.748  1.00  0.00     0.093 A 
ATOM     17  C   UNL     1       3.520  14.758  25.829  1.00  0.00     0.130 A 
BRANCH  15  18
ATOM     18  O   UNL     1       4.222  11.127  26.092  1.00  0.00    -0.508 OA
ATOM     19  H   UNL     1       3.850  10.356  25.549  1.00  0.00     0.293 HD
ENDBRANCH  15  18
BRANCH  17  20
ATOM     20  O   UNL     1       4.205  15.908  25.431  1.00  0.00    -0.507 OA
ATOM     21  H   UNL     1       4.481  16.083  24.474  1.00  0.00     0.293 HD
ENDBRANCH  17  20
ENDBRANCH   1  12
BRANCH   2  22
ATOM     22  O   UNL     1       1.352  16.169  23.939  1.00  0.00    -0.502 OA
ATOM     23  H   UNL     1       2.250  16.303  23.491  1.00  0.00     0.293 HD
ENDBRANCH   2  22
BRANCH   6  24
ATOM     24  O   UNL     1      -1.125  20.419  25.642  1.00  0.00    -0.507 OA
ATOM     25  H   UNL     1      -2.110  20.540  25.436  1.00  0.00     0.293 HD
ENDBRANCH   6  24
BRANCH   8  26
ATOM     26  O   UNL     1      -0.816  19.841  30.437  1.00  0.00    -0.508 OA
ATOM     27  H   UNL     1      -1.283  20.726  30.602  1.00  0.00     0.293 HD
ENDBRANCH   8  26
TORSDOF 6
ENDMDL
MODEL 3
REMARK VINA RESULT:    -5.632      1.928      6.831
REMARK INTER + INTRA:          -7.187
REMARK INTER:                  -6.936
REMARK INTRA:                  -0.251
REMARK UNBOUND:                -0.403
REMARK SMILES O=c1c(O)c(-c2ccc(O)cc2O)oc2cc(O)cc(O)c12
REMARK SMILES IDX 5 1 3 2 2 3 1 4 22 5 20 6 19 7 17 8 16 9 15 10 14 11 6 12
REMARK SMILES IDX 8 13 7 14 9 15 11 16 12 17 10 18 13 20 4 22 21 24 18 26
REMARK H PARENT 10 19 13 21 4 23 21 25 18 27
REMARK Flexibility Score: inf
ROOT
ATOM      1  C   UNL     1       1.239  17.379  26.383  1.00  0.00     0.184 A 
ATOM      2  C   UNL     1       0.412  16.269  26.629  1.00  0.00     0.208 A 
ATOM      3  C   UNL     1       0.958  14.981  26.527  1.00  0.00     0.238 A 
ATOM      4  O   UNL     1       0.226  13.977  26.748  1.00  0.00    -0.285 OA
ATOM      5  C   UNL     1       2.315  14.825  26.175  1.00  0.00     0.111 A 
ATOM      6  C   UNL     1       2.943  13.563  26.049  1.00  0.00     0.134 A 
ATOM      7  C   UNL     1       4.298  13.492  25.692  1.00  0.00     0.093 A 
ATOM      8  C   UNL     1       5.035  14.659  25.459  1.00  0.00     0.123 A 
ATOM      9  C   UNL     1       4.421  15.906  25.584  1.00  0.00     0.094 A 
ATOM     10  C   UNL     1       3.072  15.998  25.940  1.00  0.00     0.146 A 
ATOM     11  O   UNL     1       2.514  17.198  26.052  1.00  0.00    -0.451 OA
ENDROOT
BRANCH   1  12
ATOM     12  C   UNL     1       0.724  18.761  26.493  1.00  0.00     0.063 A 
ATOM     13  C   UNL     1      -0.942  20.420  25.866  1.00  0.00     0.047 A 
ATOM     14  C   UNL     1      -0.403  19.138  25.741  1.00  0.00     0.020 A 
ATOM     15  C   UNL     1      -0.371  21.340  26.748  1.00  0.00     0.119 A 
ATOM     16  C   UNL     1       0.750  20.974  27.504  1.00  0.00     0.093 A 
ATOM     17  C   UNL     1       1.306  19.696  27.379  1.00  0.00     0.130 A 
BRANCH  15  18
ATOM     18  O   UNL     1      -0.924  22.614  26.866  1.00  0.00    -0.508 OA
ATOM     19  H   UNL     1      -0.482  23.423  26.446  1.00  0.00     0.293 HD
ENDBRANCH  15  18
BRANCH  17  20
ATOM     20  O   UNL     1       2.445  19.397  28.130  1.00  0.00    -0.507 OA
ATOM     21  H   UNL     1       2.952  20.090  28.666  1.00  0.00     0.293 HD
ENDBRANCH  17  20
ENDBRANCH   1  12
BRANCH   2  22
ATOM     22  O   UNL     1      -0.935  16.457  26.951  1.00  0.00    -0.502 OA
ATOM     23  H   UNL     1      -1.265  16.476  27.908  1.00  0.00     0.293 HD
ENDBRANCH   2  22
BRANCH   6  24
ATOM     24  O   UNL     1       2.233  12.383  26.273  1.00  0.00    -0.507 OA
ATOM     25  H   UNL     1       2.223  11.930  27.179  1.00  0.00     0.293 HD
ENDBRANCH   6  24
BRANCH   8  26
ATOM     26  O   UNL     1       6.381  14.589  25.105  1.00  0.00    -0.508 OA
ATOM     27  H   UNL     1       6.995  13.882  25.493  1.00  0.00     0.293 HD
ENDBRANCH   8  26
TORSDOF 6
ENDMDL
MODEL 4
REMARK VINA RESULT:    -4.935      1.664      6.593
REMARK INTER + INTRA:          -6.347
REMARK INTER:                  -5.999
REMARK INTRA:                  -0.348
REMARK UNBOUND:                -0.403
REMARK SMILES O=c1c(O)c(-c2ccc(O)cc2O)oc2cc(O)cc(O)c12
REMARK SMILES IDX 5 1 3 2 2 3 1 4 22 5 20 6 19 7 17 8 16 9 15 10 14 11 6 12
REMARK SMILES IDX 8 13 7 14 9 15 11 16 12 17 10 18 13 20 4 22 21 24 18 26
REMARK H PARENT 10 19 13 21 4 23 21 25 18 27
REMARK Flexibility Score: inf
ROOT
ATOM      1  C   UNL     1       1.866  15.975  26.361  1.00  0.00     0.184 A 
ATOM      2  C   UNL     1       3.147  15.961  25.783  1.00  0.00     0.208 A 
ATOM      3  C   UNL     1       3.875  14.761  25.777  1.00  0.00     0.238 A 
ATOM      4  O   UNL     1       5.025  14.736  25.259  1.00  0.00    -0.285 OA
ATOM      5  C   UNL     1       3.313  13.603  26.353  1.00  0.00     0.111 A 
ATOM      6  C   UNL     1       3.979  12.355  26.391  1.00  0.00     0.134 A 
ATOM      7  C   UNL     1       3.354  11.249  26.985  1.00  0.00     0.093 A 
ATOM      8  C   UNL     1       2.075  11.368  27.542  1.00  0.00     0.123 A 
ATOM      9  C   UNL     1       1.413  12.596  27.506  1.00  0.00     0.094 A 
ATOM     10  C   UNL     1       2.019  13.710  26.918  1.00  0.00     0.146 A 
ATOM     11  O   UNL     1       1.366  14.867  26.897  1.00  0.00    -0.451 OA
ENDROOT
BRANCH   1  12
ATOM     12  C   UNL     1       1.045  17.205  26.381  1.00  0.00     0.063 A 
ATOM     13  C   UNL     1       0.752  19.503  27.127  1.00  0.00     0.047 A 
ATOM     14  C   UNL     1       1.479  18.311  27.133  1.00  0.00     0.020 A 
ATOM     15  C   UNL     1      -0.413  19.612  26.364  1.00  0.00     0.119 A 
ATOM     16  C   UNL     1      -0.854  18.517  25.609  1.00  0.00     0.093 A 
ATOM     17  C   UNL     1      -0.139  17.314  25.616  1.00  0.00     0.130 A 
BRANCH  15  18
ATOM     18  O   UNL     1      -1.125  20.810  26.364  1.00  0.00    -0.508 OA
ATOM     19  H   UNL     1      -0.680  21.690  26.598  1.00  0.00     0.293 HD
ENDBRANCH  15  18
BRANCH  17  20
ATOM     20  O   UNL     1      -0.643  16.244  24.873  1.00  0.00    -0.507 OA
ATOM     21  H   UNL     1      -0.054  15.604  24.356  1.00  0.00     0.293 HD
ENDBRANCH  17  20
ENDBRANCH   1  12
BRANCH   2  22
ATOM     22  O   UNL     1       3.685  17.132  25.243  1.00  0.00    -0.502 OA
ATOM     23  H   UNL     1       4.650  17.402  25.388  1.00  0.00     0.293 HD
ENDBRANCH   2  22
BRANCH   6  24
ATOM     24  O   UNL     1       5.255  12.206  25.845  1.00  0.00    -0.507 OA
ATOM     25  H   UNL     1       5.878  12.996  25.722  1.00  0.00     0.293 HD
ENDBRANCH   6  24
BRANCH   8  26
ATOM     26  O   UNL     1       1.453  10.270  28.132  1.00  0.00    -0.508 OA
ATOM     27  H   UNL     1       0.467  10.083  27.995  1.00  0.00     0.293 HD
ENDBRANCH   8  26
TORSDOF 6
ENDMDL
MODEL 5
REMARK VINA RESULT:    -4.825      1.989      6.619
REMARK INTER + INTRA:          -6.215
REMARK INTER:                  -5.845
REMARK INTRA:                  -0.370
REMARK UNBOUND:                -0.403
REMARK SMILES O=c1c(O)c(-c2ccc(O)cc2O)oc2cc(O)cc(O)c12
REMARK SMILES IDX 5 1 3 2 2 3 1 4 22 5 20 6 19 7 17 8 16 9 15 10 14 11 6 12
REMARK SMILES IDX 8 13 7 14 9 15 11 16 12 17 10 18 13 20 4 22 21 24 18 26
REMARK H PARENT 10 19 13 21 4 23 21 25 18 27
REMARK Flexibility Score: inf
ROOT
ATOM      1  C   UNL     1       0.748  17.708  26.525  1.00  0.00     0.184 A 
ATOM      2  C   UNL     1       2.072  17.491  26.108  1.00  0.00     0.208 A 
ATOM      3  C   UNL     1       2.525  16.173  25.944  1.00  0.00     0.238 A 
ATOM      4  O   UNL     1       3.711  15.966  25.569  1.00  0.00    -0.285 OA
ATOM      5  C   UNL     1       1.649  15.099  26.205  1.00  0.00     0.111 A 
ATOM      6  C   UNL     1       2.025  13.741  26.067  1.00  0.00     0.134 A 
ATOM      7  C   UNL     1       1.096  12.729  26.349  1.00  0.00     0.093 A 
ATOM      8  C   UNL     1      -0.201  13.049  26.767  1.00  0.00     0.123 A 
ATOM      9  C   UNL     1      -0.577  14.386  26.903  1.00  0.00     0.094 A 
ATOM     10  C   UNL     1       0.333  15.409  26.626  1.00  0.00     0.146 A 
ATOM     11  O   UNL     1      -0.052  16.673  26.764  1.00  0.00    -0.451 OA
ENDROOT
BRANCH   1  12
ATOM     12  C   UNL     1       0.209  19.074  26.698  1.00  0.00     0.063 A 
ATOM     13  C   UNL     1       0.046  21.095  28.044  1.00  0.00     0.047 A 
ATOM     14  C   UNL     1       0.496  19.783  27.877  1.00  0.00     0.020 A 
ATOM     15  C   UNL     1      -0.687  21.720  27.034  1.00  0.00     0.119 A 
ATOM     16  C   UNL     1      -0.976  21.024  25.853  1.00  0.00     0.093 A 
ATOM     17  C   UNL     1      -0.540  19.706  25.679  1.00  0.00     0.130 A 
BRANCH  15  18
ATOM     18  O   UNL     1      -1.124  23.031  27.213  1.00  0.00    -0.508 OA
ATOM     19  H   UNL     1      -0.697  23.803  26.714  1.00  0.00     0.293 HD
ENDBRANCH  15  18
BRANCH  17  20
ATOM     20  O   UNL     1      -0.887  19.048  24.497  1.00  0.00    -0.507 OA
ATOM     21  H   UNL     1      -0.745  19.448  23.579  1.00  0.00     0.293 HD
ENDBRANCH  17  20
ENDBRANCH   1  12
BRANCH   2  22
ATOM     22  O   UNL     1       2.922  18.577  25.881  1.00  0.00    -0.502 OA
ATOM     23  H   UNL     1       3.442  18.687  25.020  1.00  0.00     0.293 HD
ENDBRANCH   2  22
BRANCH   6  24
ATOM     24  O   UNL     1       3.311  13.391  25.654  1.00  0.00    -0.507 OA
ATOM     25  H   UNL     1       3.659  12.443  25.738  1.00  0.00     0.293 HD
ENDBRANCH   6  24
BRANCH   8  26
ATOM     26  O   UNL     1      -1.124  12.044  27.047  1.00  0.00    -0.508 OA
ATOM     27  H   UNL     1      -1.873  11.817  26.402  1.00  0.00     0.293 HD
ENDBRANCH   8  26
TORSDOF 6
ENDMDL
MODEL 6
REMARK VINA RESULT:    -4.701      1.878      7.011
REMARK INTER + INTRA:          -6.065
REMARK INTER:                  -5.726
REMARK INTRA:                  -0.339
REMARK UNBOUND:                -0.403
REMARK SMILES O=c1c(O)c(-c2ccc(O)cc2O)oc2cc(O)cc(O)c12
REMARK SMILES IDX 5 1 3 2 2 3 1 4 22 5 20 6 19 7 17 8 16 9 15 10 14 11 6 12
REMARK SMILES IDX 8 13 7 14 9 15 11 16 12 17 10 18 13 20 4 22 21 24 18 26
REMARK H PARENT 10 19 13 21 4 23 21 25 18 27
REMARK Flexibility Score: inf
ROOT
ATOM      1  C   UNL     1       1.449  15.418  26.077  1.00  0.00     0.184 A 
ATOM      2  C   UNL     1       0.733  14.413  26.750  1.00  0.00     0.208 A 
ATOM      3  C   UNL     1       1.340  13.164  26.947  1.00  0.00     0.238 A 
ATOM      4  O   UNL     1       0.709  12.255  27.553  1.00  0.00    -0.285 OA
ATOM      5  C   UNL     1       2.646  12.940  26.463  1.00  0.00     0.111 A 
ATOM      6  C   UNL     1       3.330  11.710  26.617  1.00  0.00     0.134 A 
ATOM      7  C   UNL     1       4.627  11.566  26.103  1.00  0.00     0.093 A 
ATOM      8  C   UNL     1       5.252  12.627  25.438  1.00  0.00     0.123 A 
ATOM      9  C   UNL     1       4.583  13.842  25.285  1.00  0.00     0.094 A 
ATOM     10  C   UNL     1       3.290  14.007  25.790  1.00  0.00     0.146 A 
ATOM     11  O   UNL     1       2.677  15.174  25.631  1.00  0.00    -0.451 OA
ENDROOT
BRANCH   1  12
ATOM     12  C   UNL     1       0.868  16.760  25.855  1.00  0.00     0.063 A 
ATOM     13  C   UNL     1      -0.870  18.139  24.855  1.00  0.00     0.047 A 
ATOM     14  C   UNL     1      -0.268  16.892  25.037  1.00  0.00     0.020 A 
ATOM     15  C   UNL     1      -0.353  19.269  25.492  1.00  0.00     0.119 A 
ATOM     16  C   UNL     1       0.777  19.148  26.311  1.00  0.00     0.093 A 
ATOM     17  C   UNL     1       1.395  17.906  26.494  1.00  0.00     0.130 A 
BRANCH  15  18
ATOM     18  O   UNL     1      -0.967  20.505  25.304  1.00  0.00    -0.508 OA
ATOM     19  H   UNL     1      -0.600  21.348  25.730  1.00  0.00     0.293 HD
ENDBRANCH  15  18
BRANCH  17  20
ATOM     20  O   UNL     1       2.538  17.850  27.293  1.00  0.00    -0.507 OA
ATOM     21  H   UNL     1       2.616  18.326  28.182  1.00  0.00     0.293 HD
ENDBRANCH  17  20
ENDBRANCH   1  12
BRANCH   2  22
ATOM     22  O   UNL     1      -0.568  14.659  27.197  1.00  0.00    -0.502 OA
ATOM     23  H   UNL     1      -0.917  14.295  28.074  1.00  0.00     0.293 HD
ENDBRANCH   2  22
BRANCH   6  24
ATOM     24  O   UNL     1       2.731  10.634  27.273  1.00  0.00    -0.507 OA
ATOM     25  H   UNL     1       3.253  10.038  27.906  1.00  0.00     0.293 HD
ENDBRANCH   6  24
BRANCH   8  26
ATOM     26  O   UNL     1       6.540  12.484  24.928  1.00  0.00    -0.508 OA
ATOM     27  H   UNL     1       7.359  12.693  25.488  1.00  0.00     0.293 HD
ENDBRANCH   8  26
TORSDOF 6
ENDMDL
MODEL 7
REMARK VINA RESULT:    -4.612      2.804      7.509
REMARK INTER + INTRA:          -5.959
REMARK INTER:                  -5.644
REMARK INTRA:                  -0.315
REMARK UNBOUND:                -0.403
REMARK SMILES O=c1c(O)c(-c2ccc(O)cc2O)oc2cc(O)cc(O)c12
REMARK SMILES IDX 5 1 3 2 2 3 1 4 22 5 20 6 19 7 17 8 16 9 15 10 14 11 6 12
REMARK SMILES IDX 8 13 7 14 9 15 11 16 12 17 10 18 13 20 4 22 21 24 18 26
REMARK H PARENT 10 19 13 21 4 23 21 25 18 27
REMARK Flexibility Score: inf
ROOT
ATOM      1  C   UNL     1       2.369  14.004  26.101  1.00  0.00     0.184 A 
ATOM      2  C   UNL     1       1.795  13.474  27.270  1.00  0.00     0.208 A 
ATOM      3  C   UNL     1       2.337  12.303  27.821  1.00  0.00     0.238 A 
ATOM      4  O   UNL     1       1.832  11.820  28.871  1.00  0.00    -0.285 OA
ATOM      5  C   UNL     1       3.434  11.681  27.191  1.00  0.00     0.111 A 
ATOM      6  C   UNL     1       4.039  10.498  27.679  1.00  0.00     0.134 A 
ATOM      7  C   UNL     1       5.127   9.937  26.993  1.00  0.00     0.093 A 
ATOM      8  C   UNL     1       5.621  10.538  25.829  1.00  0.00     0.123 A 
ATOM      9  C   UNL     1       5.030  11.705  25.345  1.00  0.00     0.094 A 
ATOM     10  C   UNL     1       3.945  12.280  26.014  1.00  0.00     0.146 A 
ATOM     11  O   UNL     1       3.402  13.392  25.531  1.00  0.00    -0.451 OA
ENDROOT
BRANCH   1  12
ATOM     12  C   UNL     1       1.853  15.245  25.485  1.00  0.00     0.063 A 
ATOM     13  C   UNL     1      -0.005  16.461  24.488  1.00  0.00     0.047 A 
ATOM     14  C   UNL     1       0.525  15.286  25.025  1.00  0.00     0.020 A 
ATOM     15  C   UNL     1       0.778  17.614  24.411  1.00  0.00     0.119 A 
ATOM     16  C   UNL     1       2.102  17.587  24.869  1.00  0.00     0.093 A 
ATOM     17  C   UNL     1       2.648  16.412  25.399  1.00  0.00     0.130 A 
BRANCH  15  18
ATOM     18  O   UNL     1       0.233  18.781  23.879  1.00  0.00    -0.508 OA
ATOM     19  H   UNL     1       0.691  19.678  23.993  1.00  0.00     0.293 HD
ENDBRANCH  15  18
BRANCH  17  20
ATOM     20  O   UNL     1       3.983  16.431  25.807  1.00  0.00    -0.507 OA
ATOM     21  H   UNL     1       4.537  17.276  25.845  1.00  0.00     0.293 HD
ENDBRANCH  17  20
ENDBRANCH   1  12
BRANCH   2  22
ATOM     22  O   UNL     1       0.693  14.102  27.855  1.00  0.00    -0.502 OA
ATOM     23  H   UNL     1       0.602  15.109  27.897  1.00  0.00     0.293 HD
ENDBRANCH   2  22
BRANCH   6  24
ATOM     24  O   UNL     1       3.567   9.875  28.835  1.00  0.00    -0.507 OA
ATOM     25  H   UNL     1       4.151   9.760  29.656  1.00  0.00     0.293 HD
ENDBRANCH   6  24
BRANCH   8  26
ATOM     26  O   UNL     1       6.701   9.982  25.148  1.00  0.00    -0.508 OA
ATOM     27  H   UNL     1       6.570   9.422  24.313  1.00  0.00     0.293 HD
ENDBRANCH   8  26
TORSDOF 6
ENDMDL
MODEL 8
REMARK VINA RESULT:    -4.527      2.576      6.952
REMARK INTER + INTRA:          -5.856
REMARK INTER:                  -5.455
REMARK INTRA:                  -0.401
REMARK UNBOUND:                -0.403
REMARK SMILES O=c1c(O)c(-c2ccc(O)cc2O)oc2cc(O)cc(O)c12
REMARK SMILES IDX 5 1 3 2 2 3 1 4 22 5 20 6 19 7 17 8 16 9 15 10 14 11 6 12
REMARK SMILES IDX 8 13 7 14 9 15 11 16 12 17 10 18 13 20 4 22 21 24 18 26
REMARK H PARENT 10 19 13 21 4 23 21 25 18 27
REMARK Flexibility Score: inf
ROOT
ATOM      1  C   UNL     1       2.835  14.107  26.242  1.00  0.00     0.184 A 
ATOM      2  C   UNL     1       3.961  13.535  25.625  1.00  0.00     0.208 A 
ATOM      3  C   UNL     1       4.536  12.387  26.192  1.00  0.00     0.238 A 
ATOM      4  O   UNL     1       5.545  11.864  25.645  1.00  0.00    -0.285 OA
ATOM      5  C   UNL     1       3.981  11.838  27.367  1.00  0.00     0.111 A 
ATOM      6  C   UNL     1       4.500  10.686  28.004  1.00  0.00     0.134 A 
ATOM      7  C   UNL     1       3.892  10.203  29.172  1.00  0.00     0.093 A 
ATOM      8  C   UNL     1       2.776  10.851  29.715  1.00  0.00     0.123 A 
ATOM      9  C   UNL     1       2.260  11.986  29.090  1.00  0.00     0.094 A 
ATOM     10  C   UNL     1       2.850  12.483  27.924  1.00  0.00     0.146 A 
ATOM     11  O   UNL     1       2.337  13.565  27.350  1.00  0.00    -0.451 OA
ENDROOT
BRANCH   1  12
ATOM     12  C   UNL     1       2.176  15.305  25.681  1.00  0.00     0.063 A 
ATOM     13  C   UNL     1       0.360  16.267  24.377  1.00  0.00     0.047 A 
ATOM     14  C   UNL     1       1.034  15.150  24.875  1.00  0.00     0.020 A 
ATOM     15  C   UNL     1       0.809  17.553  24.682  1.00  0.00     0.119 A 
ATOM     16  C   UNL     1       1.944  17.720  25.486  1.00  0.00     0.093 A 
ATOM     17  C   UNL     1       2.634  16.608  25.983  1.00  0.00     0.130 A 
BRANCH  15  18
ATOM     18  O   UNL     1       0.122  18.657  24.182  1.00  0.00    -0.508 OA
ATOM     19  H   UNL     1      -0.737  18.552  23.654  1.00  0.00     0.293 HD
ENDBRANCH  15  18
BRANCH  17  20
ATOM     20  O   UNL     1       3.779  16.833  26.750  1.00  0.00    -0.507 OA
ATOM     21  H   UNL     1       4.532  17.441  26.455  1.00  0.00     0.293 HD
ENDBRANCH  17  20
ENDBRANCH   1  12
BRANCH   2  22
ATOM     22  O   UNL     1       4.502  14.117  24.475  1.00  0.00    -0.502 OA
ATOM     23  H   UNL     1       5.438  13.910  24.152  1.00  0.00     0.293 HD
ENDBRANCH   2  22
BRANCH   6  24
ATOM     24  O   UNL     1       5.612  10.020  27.487  1.00  0.00    -0.507 OA
ATOM     25  H   UNL     1       6.545  10.411  27.551  1.00  0.00     0.293 HD
ENDBRANCH   6  24
BRANCH   8  26
ATOM     26  O   UNL     1       2.172  10.371  30.875  1.00  0.00    -0.508 OA
ATOM     27  H   UNL     1       2.717   9.964  31.627  1.00  0.00     0.293 HD
ENDBRANCH   8  26
TORSDOF 6
ENDMDL
MODEL 9
REMARK VINA RESULT:    -4.300      1.894      2.239
REMARK INTER + INTRA:          -5.583
REMARK INTER:                  -5.246
REMARK INTRA:                  -0.338
REMARK UNBOUND:                -0.403
REMARK SMILES O=c1c(O)c(-c2ccc(O)cc2O)oc2cc(O)cc(O)c12
REMARK SMILES IDX 5 1 3 2 2 3 1 4 22 5 20 6 19 7 17 8 16 9 15 10 14 11 6 12
REMARK SMILES IDX 8 13 7 14 9 15 11 16 12 17 10 18 13 20 4 22 21 24 18 26
REMARK H PARENT 10 19 13 21 4 23 21 25 18 27
REMARK Flexibility Score: inf
ROOT
ATOM      1  C   UNL     1       2.197  14.764  26.346  1.00  0.00     0.184 A 
ATOM      2  C   UNL     1       0.852  14.793  25.938  1.00  0.00     0.208 A 
ATOM      3  C   UNL     1       0.166  16.017  25.952  1.00  0.00     0.238 A 
ATOM      4  O   UNL     1      -1.041  16.056  25.585  1.00  0.00    -0.285 OA
ATOM      5  C   UNL     1       0.832  17.184  26.381  1.00  0.00     0.111 A 
ATOM      6  C   UNL     1       0.213  18.456  26.428  1.00  0.00     0.134 A 
ATOM      7  C   UNL     1       0.943  19.570  26.870  1.00  0.00     0.093 A 
ATOM      8  C   UNL     1       2.279  19.434  27.265  1.00  0.00     0.123 A 
ATOM      9  C   UNL     1       2.894  18.182  27.218  1.00  0.00     0.094 A 
ATOM     10  C   UNL     1       2.185  17.061  26.781  1.00  0.00     0.146 A 
ATOM     11  O   UNL     1       2.795  15.882  26.746  1.00  0.00    -0.451 OA
ENDROOT
BRANCH   1  12
ATOM     12  C   UNL     1       2.977  13.507  26.335  1.00  0.00     0.063 A 
ATOM     13  C   UNL     1       4.826  12.210  25.429  1.00  0.00     0.047 A 
ATOM     14  C   UNL     1       4.038  13.363  25.425  1.00  0.00     0.020 A 
ATOM     15  C   UNL     1       4.571  11.189  26.347  1.00  0.00     0.119 A 
ATOM     16  C   UNL     1       3.518  11.323  27.261  1.00  0.00     0.093 A 
ATOM     17  C   UNL     1       2.715  12.469  27.259  1.00  0.00     0.130 A 
BRANCH  15  18
ATOM     18  O   UNL     1       5.369  10.047  26.343  1.00  0.00    -0.508 OA
ATOM     19  H   UNL     1       5.972   9.820  27.126  1.00  0.00     0.293 HD
ENDBRANCH  15  18
BRANCH  17  20
ATOM     20  O   UNL     1       1.657  12.534  28.168  1.00  0.00    -0.507 OA
ATOM     21  H   UNL     1       1.773  12.392  29.162  1.00  0.00     0.293 HD
ENDBRANCH  17  20
ENDBRANCH   1  12
BRANCH   2  22
ATOM     22  O   UNL     1       0.214  13.615  25.542  1.00  0.00    -0.502 OA
ATOM     23  H   UNL     1       0.296  12.753  26.065  1.00  0.00     0.293 HD
ENDBRANCH   2  22
BRANCH   6  24
ATOM     24  O   UNL     1      -1.118  18.622  26.043  1.00  0.00    -0.507 OA
ATOM     25  H   UNL     1      -1.886  18.348  26.645  1.00  0.00     0.293 HD
ENDBRANCH   6  24
BRANCH   8  26
ATOM     26  O   UNL     1       3.005  20.540  27.703  1.00  0.00    -0.508 OA
ATOM     27  H   UNL     1       4.017  20.565  27.649  1.00  0.00     0.293 HD
ENDBRANCH   8  26
TORSDOF 6
ENDMDL
