MODEL 1
REMARK VINA RESULT:    -4.638      0.000      0.000
REMARK INTER + INTRA:          -7.647
REMARK INTER:                  -7.078
REMARK INTRA:                  -0.569
REMARK UNBOUND:                -0.569
REMARK SMILES CCCCCCCCCCC(=O)[O-]
REMARK SMILES IDX 7 1 8 2 9 3 10 4 11 5 12 6 13 7 6 8 5 9 4 10 3 11 2 12 1 13
REMARK H PARENT
REMARK Flexibility Score: inf
ROOT
ATOM      1  C   UNL     1      -1.358  -0.074   8.653  1.00  0.00     0.000 C 
ENDROOT
BRANCH   1   2
ATOM      2  C   UNL     1      -1.292   0.139   7.136  1.00  0.00     0.000 C 
BRANCH   2   3
ATOM      3  C   UNL     1      -1.142  -1.199   6.398  1.00  0.00     0.006 C 
BRANCH   3   4
ATOM      4  C   UNL     1      -1.537  -1.095   4.920  1.00  0.00     0.053 C 
BRANCH   4   5
ATOM      5  C   UNL     1      -1.572  -2.439   4.257  1.00  0.00     0.041 C 
ATOM      6  O   UNL     1      -1.890  -3.462   4.917  1.00  0.00    -0.550 OA
ATOM      7  O   UNL     1      -1.219  -2.565   2.920  1.00  0.00    -0.550 OA
ENDBRANCH   4   5
ENDBRANCH   3   4
ENDBRANCH   2   3
ENDBRANCH   1   2
BRANCH   1   8
ATOM      8  C   UNL     1      -0.024  -0.602   9.193  1.00  0.00     0.000 C 
BRANCH   8   9
ATOM      9  C   UNL     1      -0.230  -1.886  10.013  1.00  0.00    -0.000 C 
BRANCH   9  10
ATOM     10  C   UNL     1       0.667  -3.043   9.524  1.00  0.00    -0.000 C 
BRANCH  10  11
ATOM     11  C   UNL     1      -0.119  -4.231   8.936  1.00  0.00    -0.000 C 
BRANCH  11  12
ATOM     12  C   UNL     1       0.728  -5.224   8.124  1.00  0.00    -0.003 C 
ATOM     13  C   UNL     1       0.019  -5.718   6.863  1.00  0.00     0.004 C 
ENDBRANCH  11  12
ENDBRANCH  10  11
ENDBRANCH   9  10
ENDBRANCH   8   9
ENDBRANCH   1   8
TORSDOF 9
ENDMDL
MODEL 2
REMARK VINA RESULT:    -4.479      2.238      3.706
REMARK INTER + INTRA:          -7.405
REMARK INTER:                  -6.730
REMARK INTRA:                  -0.675
REMARK UNBOUND:                -0.569
REMARK SMILES CCCCCCCCCCC(=O)[O-]
REMARK SMILES IDX 7 1 8 2 9 3 10 4 11 5 12 6 13 7 6 8 5 9 4 10 3 11 2 12 1 13
REMARK H PARENT
REMARK Flexibility Score: inf
ROOT
ATOM      1  C   UNL     1      -0.488  -4.418   6.670  1.00  0.00     0.000 C 
ENDROOT
BRANCH   1   2
ATOM      2  C   UNL     1      -1.352  -3.966   5.486  1.00  0.00     0.000 C 
BRANCH   2   3
ATOM      3  C   UNL     1      -1.309  -2.439   5.325  1.00  0.00     0.006 C 
BRANCH   3   4
ATOM      4  C   UNL     1      -1.121  -1.718   6.665  1.00  0.00     0.053 C 
BRANCH   4   5
ATOM      5  C   UNL     1      -1.348  -0.242   6.540  1.00  0.00     0.041 C 
ATOM      6  O   UNL     1      -1.588   0.450   7.563  1.00  0.00    -0.550 OA
ATOM      7  O   UNL     1      -1.330   0.362   5.289  1.00  0.00    -0.550 OA
ENDBRANCH   4   5
ENDBRANCH   3   4
ENDBRANCH   2   3
ENDBRANCH   1   2
BRANCH   1   8
ATOM      8  C   UNL     1      -0.689  -5.909   6.960  1.00  0.00     0.000 C 
BRANCH   8   9
ATOM      9  C   UNL     1      -0.558  -6.201   8.464  1.00  0.00    -0.000 C 
BRANCH   9  10
ATOM     10  C   UNL     1       0.170  -5.069   9.219  1.00  0.00    -0.000 C 
BRANCH  10  11
ATOM     11  C   UNL     1       1.317  -5.565  10.122  1.00  0.00    -0.000 C 
BRANCH  11  12
ATOM     12  C   UNL     1       2.706  -5.014   9.759  1.00  0.00    -0.003 C 
ATOM     13  C   UNL     1       3.038  -5.173   8.275  1.00  0.00     0.004 C 
ENDBRANCH  11  12
ENDBRANCH  10  11
ENDBRANCH   9  10
ENDBRANCH   8   9
ENDBRANCH   1   8
TORSDOF 9
ENDMDL
MODEL 3
REMARK VINA RESULT:    -4.348      2.324      3.303
REMARK INTER + INTRA:          -7.205
REMARK INTER:                  -6.386
REMARK INTRA:                  -0.819
REMARK UNBOUND:                -0.569
REMARK SMILES CCCCCCCCCCC(=O)[O-]
REMARK SMILES IDX 7 1 8 2 9 3 10 4 11 5 12 6 13 7 6 8 5 9 4 10 3 11 2 12 1 13
REMARK H PARENT
REMARK Flexibility Score: inf
ROOT
ATOM      1  C   UNL     1      -0.351  -5.068   6.426  1.00  0.00     0.000 C 
ENDROOT
BRANCH   1   2
ATOM      2  C   UNL     1      -0.667  -3.699   7.039  1.00  0.00     0.000 C 
BRANCH   2   3
ATOM      3  C   UNL     1      -1.061  -2.687   5.953  1.00  0.00     0.006 C 
BRANCH   3   4
ATOM      4  C   UNL     1      -1.811  -3.346   4.789  1.00  0.00     0.053 C 
BRANCH   4   5
ATOM      5  C   UNL     1      -1.477  -2.703   3.477  1.00  0.00     0.041 C 
ATOM      6  O   UNL     1      -1.518  -1.451   3.357  1.00  0.00    -0.550 OA
ATOM      7  O   UNL     1      -1.153  -3.490   2.378  1.00  0.00    -0.550 OA
ENDBRANCH   4   5
ENDBRANCH   3   4
ENDBRANCH   2   3
ENDBRANCH   1   2
BRANCH   1   8
ATOM      8  C   UNL     1      -0.299  -6.156   7.505  1.00  0.00     0.000 C 
BRANCH   8   9
ATOM      9  C   UNL     1      -0.637  -5.577   8.888  1.00  0.00    -0.000 C 
BRANCH   9  10
ATOM     10  C   UNL     1       0.530  -5.727   9.887  1.00  0.00    -0.000 C 
BRANCH  10  11
ATOM     11  C   UNL     1       1.405  -4.465  10.010  1.00  0.00    -0.000 C 
BRANCH  11  12
ATOM     12  C   UNL     1       2.902  -4.692   9.742  1.00  0.00    -0.003 C 
ATOM     13  C   UNL     1       3.177  -5.249   8.345  1.00  0.00     0.004 C 
ENDBRANCH  11  12
ENDBRANCH  10  11
ENDBRANCH   9  10
ENDBRANCH   8   9
ENDBRANCH   1   8
TORSDOF 9
ENDMDL
MODEL 4
REMARK VINA RESULT:    -4.296      3.674      6.503
REMARK INTER + INTRA:          -7.125
REMARK INTER:                  -6.758
REMARK INTRA:                  -0.367
REMARK UNBOUND:                -0.569
REMARK SMILES CCCCCCCCCCC(=O)[O-]
REMARK SMILES IDX 7 1 8 2 9 3 10 4 11 5 12 6 13 7 6 8 5 9 4 10 3 11 2 12 1 13
REMARK H PARENT
REMARK Flexibility Score: inf
ROOT
ATOM      1  C   UNL     1      -0.879  -6.507   8.071  1.00  0.00     0.000 C 
ENDROOT
BRANCH   1   2
ATOM      2  C   UNL     1      -1.724  -7.739   7.725  1.00  0.00     0.000 C 
BRANCH   2   3
ATOM      3  C   UNL     1      -2.423  -8.296   8.974  1.00  0.00     0.006 C 
BRANCH   3   4
ATOM      4  C   UNL     1      -3.820  -7.696   9.175  1.00  0.00     0.053 C 
BRANCH   4   5
ATOM      5  C   UNL     1      -4.723  -7.987   8.015  1.00  0.00     0.041 C 
ATOM      6  O   UNL     1      -5.203  -7.044   7.334  1.00  0.00    -0.550 OA
ATOM      7  O   UNL     1      -5.060  -9.299   7.707  1.00  0.00    -0.550 OA
ENDBRANCH   4   5
ENDBRANCH   3   4
ENDBRANCH   2   3
ENDBRANCH   1   2
BRANCH   1   8
ATOM      8  C   UNL     1      -0.313  -5.854   6.805  1.00  0.00     0.000 C 
BRANCH   8   9
ATOM      9  C   UNL     1      -0.678  -4.362   6.743  1.00  0.00    -0.000 C 
BRANCH   9  10
ATOM     10  C   UNL     1      -1.174  -3.939   5.344  1.00  0.00    -0.000 C 
BRANCH  10  11
ATOM     11  C   UNL     1      -1.527  -2.443   5.239  1.00  0.00    -0.000 C 
BRANCH  11  12
ATOM     12  C   UNL     1      -1.556  -1.888   3.805  1.00  0.00    -0.003 C 
ATOM     13  C   UNL     1      -1.322  -2.966   2.746  1.00  0.00     0.004 C 
ENDBRANCH  11  12
ENDBRANCH  10  11
ENDBRANCH   9  10
ENDBRANCH   8   9
ENDBRANCH   1   8
TORSDOF 9
ENDMDL
MODEL 5
REMARK VINA RESULT:    -4.290      2.785      4.967
REMARK INTER + INTRA:          -7.116
REMARK INTER:                  -6.666
REMARK INTRA:                  -0.451
REMARK UNBOUND:                -0.569
REMARK SMILES CCCCCCCCCCC(=O)[O-]
REMARK SMILES IDX 7 1 8 2 9 3 10 4 11 5 12 6 13 7 6 8 5 9 4 10 3 11 2 12 1 13
REMARK H PARENT
REMARK Flexibility Score: inf
ROOT
ATOM      1  C   UNL     1      -0.974  -0.891   8.025  1.00  0.00     0.000 C 
ENDROOT
BRANCH   1   2
ATOM      2  C   UNL     1      -0.319  -0.646   9.389  1.00  0.00     0.000 C 
BRANCH   2   3
ATOM      3  C   UNL     1       0.241  -1.950   9.974  1.00  0.00     0.006 C 
BRANCH   3   4
ATOM      4  C   UNL     1       0.038  -3.144   9.032  1.00  0.00     0.053 C 
BRANCH   4   5
ATOM      5  C   UNL     1       1.040  -4.229   9.285  1.00  0.00     0.041 C 
ATOM      6  O   UNL     1       0.668  -5.428   9.364  1.00  0.00    -0.550 OA
ATOM      7  O   UNL     1       2.380  -3.911   9.467  1.00  0.00    -0.550 OA
ENDBRANCH   4   5
ENDBRANCH   3   4
ENDBRANCH   2   3
ENDBRANCH   1   2
BRANCH   1   8
ATOM      8  C   UNL     1      -1.191   0.427   7.273  1.00  0.00     0.000 C 
BRANCH   8   9
ATOM      9  C   UNL     1      -1.255   0.194   5.755  1.00  0.00    -0.000 C 
BRANCH   9  10
ATOM     10  C   UNL     1      -1.488  -1.290   5.401  1.00  0.00    -0.000 C 
BRANCH  10  11
ATOM     11  C   UNL     1      -1.503  -1.570   3.885  1.00  0.00    -0.000 C 
BRANCH  11  12
ATOM     12  C   UNL     1      -1.414  -3.057   3.505  1.00  0.00    -0.003 C 
ATOM     13  C   UNL     1      -1.320  -3.279   1.995  1.00  0.00     0.004 C 
ENDBRANCH  11  12
ENDBRANCH  10  11
ENDBRANCH   9  10
ENDBRANCH   8   9
ENDBRANCH   1   8
TORSDOF 9
ENDMDL
MODEL 6
REMARK VINA RESULT:    -4.275      1.659      2.517
REMARK INTER + INTRA:          -7.094
REMARK INTER:                  -6.563
REMARK INTRA:                  -0.531
REMARK UNBOUND:                -0.569
REMARK SMILES CCCCCCCCCCC(=O)[O-]
REMARK SMILES IDX 7 1 8 2 9 3 10 4 11 5 12 6 13 7 6 8 5 9 4 10 3 11 2 12 1 13
REMARK H PARENT
REMARK Flexibility Score: inf
ROOT
ATOM      1  C   UNL     1      -0.377  -2.325   8.859  1.00  0.00     0.000 C 
ENDROOT
BRANCH   1   2
ATOM      2  C   UNL     1      -0.365  -0.824   9.174  1.00  0.00     0.000 C 
BRANCH   2   3
ATOM      3  C   UNL     1      -0.787  -0.000   7.949  1.00  0.00     0.006 C 
BRANCH   3   4
ATOM      4  C   UNL     1      -1.208  -0.886   6.770  1.00  0.00     0.053 C 
BRANCH   4   5
ATOM      5  C   UNL     1      -1.321  -0.103   5.497  1.00  0.00     0.041 C 
ATOM      6  O   UNL     1      -1.176   1.147   5.509  1.00  0.00    -0.550 OA
ATOM      7  O   UNL     1      -1.620  -0.751   4.305  1.00  0.00    -0.550 OA
ENDBRANCH   4   5
ENDBRANCH   3   4
ENDBRANCH   2   3
ENDBRANCH   1   2
BRANCH   1   8
ATOM      8  C   UNL     1       0.754  -3.051   9.595  1.00  0.00     0.000 C 
BRANCH   8   9
ATOM      9  C   UNL     1       0.283  -4.416  10.122  1.00  0.00    -0.000 C 
BRANCH   9  10
ATOM     10  C   UNL     1       0.923  -5.593   9.355  1.00  0.00    -0.000 C 
BRANCH  10  11
ATOM     11  C   UNL     1       1.201  -5.287   7.871  1.00  0.00    -0.000 C 
BRANCH  11  12
ATOM     12  C   UNL     1       0.036  -5.605   6.920  1.00  0.00    -0.003 C 
ATOM     13  C   UNL     1      -0.915  -6.664   7.479  1.00  0.00     0.004 C 
ENDBRANCH  11  12
ENDBRANCH  10  11
ENDBRANCH   9  10
ENDBRANCH   8   9
ENDBRANCH   1   8
TORSDOF 9
ENDMDL
MODEL 7
REMARK VINA RESULT:    -4.259      4.385      6.677
REMARK INTER + INTRA:          -7.069
REMARK INTER:                  -6.575
REMARK INTRA:                  -0.495
REMARK UNBOUND:                -0.569
REMARK SMILES CCCCCCCCCCC(=O)[O-]
REMARK SMILES IDX 7 1 8 2 9 3 10 4 11 5 12 6 13 7 6 8 5 9 4 10 3 11 2 12 1 13
REMARK H PARENT
REMARK Flexibility Score: inf
ROOT
ATOM      1  C   UNL     1      -1.471  -7.195   7.809  1.00  0.00     0.000 C 
ENDROOT
BRANCH   1   2
ATOM      2  C   UNL     1      -1.922  -8.660   7.842  1.00  0.00     0.000 C 
BRANCH   2   3
ATOM      3  C   UNL     1      -3.149  -8.839   8.748  1.00  0.00     0.006 C 
BRANCH   3   4
ATOM      4  C   UNL     1      -4.317  -9.515   8.018  1.00  0.00     0.053 C 
BRANCH   4   5
ATOM      5  C   UNL     1      -5.419  -8.547   7.714  1.00  0.00     0.041 C 
ATOM      6  O   UNL     1      -5.155  -7.338   7.488  1.00  0.00    -0.550 OA
ATOM      7  O   UNL     1      -6.741  -8.974   7.716  1.00  0.00    -0.550 OA
ENDBRANCH   4   5
ENDBRANCH   3   4
ENDBRANCH   2   3
ENDBRANCH   1   2
BRANCH   1   8
ATOM      8  C   UNL     1      -0.365  -6.982   6.770  1.00  0.00     0.000 C 
BRANCH   8   9
ATOM      9  C   UNL     1       0.300  -5.608   6.945  1.00  0.00    -0.000 C 
BRANCH   9  10
ATOM     10  C   UNL     1      -0.091  -4.933   8.277  1.00  0.00    -0.000 C 
BRANCH  10  11
ATOM     11  C   UNL     1       0.981  -5.064   9.376  1.00  0.00    -0.000 C 
BRANCH  11  12
ATOM     12  C   UNL     1       2.411  -5.284   8.857  1.00  0.00    -0.003 C 
ATOM     13  C   UNL     1       3.424  -5.503   9.981  1.00  0.00     0.004 C 
ENDBRANCH  11  12
ENDBRANCH  10  11
ENDBRANCH   9  10
ENDBRANCH   8   9
ENDBRANCH   1   8
TORSDOF 9
ENDMDL
MODEL 8
REMARK VINA RESULT:    -4.198      2.530      4.078
REMARK INTER + INTRA:          -6.976
REMARK INTER:                  -6.315
REMARK INTRA:                  -0.660
REMARK UNBOUND:                -0.569
REMARK SMILES CCCCCCCCCCC(=O)[O-]
REMARK SMILES IDX 7 1 8 2 9 3 10 4 11 5 12 6 13 7 6 8 5 9 4 10 3 11 2 12 1 13
REMARK H PARENT
REMARK Flexibility Score: inf
ROOT
ATOM      1  C   UNL     1      -0.565  -5.276   6.252  1.00  0.00     0.000 C 
ENDROOT
BRANCH   1   2
ATOM      2  C   UNL     1      -0.430  -3.936   6.984  1.00  0.00     0.000 C 
BRANCH   2   3
ATOM      3  C   UNL     1      -1.140  -2.813   6.213  1.00  0.00     0.006 C 
BRANCH   3   4
ATOM      4  C   UNL     1      -1.757  -3.311   4.900  1.00  0.00     0.053 C 
BRANCH   4   5
ATOM      5  C   UNL     1      -1.432  -2.403   3.753  1.00  0.00     0.041 C 
ATOM      6  O   UNL     1      -1.525  -1.155   3.887  1.00  0.00    -0.550 OA
ATOM      7  O   UNL     1      -1.060  -2.938   2.526  1.00  0.00    -0.550 OA
ENDBRANCH   4   5
ENDBRANCH   3   4
ENDBRANCH   2   3
ENDBRANCH   1   2
BRANCH   1   8
ATOM      8  C   UNL     1      -0.336  -6.451   7.210  1.00  0.00     0.000 C 
BRANCH   8   9
ATOM      9  C   UNL     1      -0.781  -6.095   8.637  1.00  0.00    -0.000 C 
BRANCH   9  10
ATOM     10  C   UNL     1      -1.803  -7.105   9.201  1.00  0.00    -0.000 C 
BRANCH  10  11
ATOM     11  C   UNL     1      -2.536  -7.916   8.116  1.00  0.00    -0.000 C 
BRANCH  11  12
ATOM     12  C   UNL     1      -2.480  -9.441   8.304  1.00  0.00    -0.003 C 
ATOM     13  C   UNL     1      -1.382 -10.102   7.472  1.00  0.00     0.004 C 
ENDBRANCH  11  12
ENDBRANCH  10  11
ENDBRANCH   9  10
ENDBRANCH   8   9
ENDBRANCH   1   8
TORSDOF 9
ENDMDL
MODEL 9
REMARK VINA RESULT:    -4.163      1.558      4.511
REMARK INTER + INTRA:          -6.923
REMARK INTER:                  -6.416
REMARK INTRA:                  -0.508
REMARK UNBOUND:                -0.569
REMARK SMILES CCCCCCCCCCC(=O)[O-]
REMARK SMILES IDX 7 1 8 2 9 3 10 4 11 5 12 6 13 7 6 8 5 9 4 10 3 11 2 12 1 13
REMARK H PARENT
REMARK Flexibility Score: inf
ROOT
ATOM      1  C   UNL     1       0.189  -2.973   9.377  1.00  0.00     0.000 C 
ENDROOT
BRANCH   1   2
ATOM      2  C   UNL     1       1.421  -3.872   9.536  1.00  0.00     0.000 C 
BRANCH   2   3
ATOM      3  C   UNL     1       1.142  -5.288   9.013  1.00  0.00     0.006 C 
BRANCH   3   4
ATOM      4  C   UNL     1      -0.313  -5.463   8.559  1.00  0.00     0.053 C 
BRANCH   4   5
ATOM      5  C   UNL     1      -0.405  -5.764   7.093  1.00  0.00     0.041 C 
ATOM      6  O   UNL     1      -0.289  -6.948   6.682  1.00  0.00    -0.550 OA
ATOM      7  O   UNL     1      -0.586  -4.733   6.181  1.00  0.00    -0.550 OA
ENDBRANCH   4   5
ENDBRANCH   3   4
ENDBRANCH   2   3
ENDBRANCH   1   2
BRANCH   1   8
ATOM      8  C   UNL     1       0.521  -1.517   9.723  1.00  0.00     0.000 C 
BRANCH   8   9
ATOM      9  C   UNL     1      -0.572  -0.565   9.211  1.00  0.00    -0.000 C 
BRANCH   9  10
ATOM     10  C   UNL     1      -0.984  -0.875   7.756  1.00  0.00    -0.000 C 
BRANCH  10  11
ATOM     11  C   UNL     1      -1.310   0.380   6.924  1.00  0.00    -0.000 C 
BRANCH  11  12
ATOM     12  C   UNL     1      -1.177   0.196   5.403  1.00  0.00    -0.003 C 
ATOM     13  C   UNL     1      -1.435  -1.243   4.955  1.00  0.00     0.004 C 
ENDBRANCH  11  12
ENDBRANCH  10  11
ENDBRANCH   9  10
ENDBRANCH   8   9
ENDBRANCH   1   8
TORSDOF 9
ENDMDL
