MODEL 1
REMARK VINA RESULT:    -3.479      0.000      0.000
REMARK INTER + INTRA:          -3.891
REMARK INTER:                  -3.886
REMARK INTRA:                  -0.005
REMARK UNBOUND:                -0.005
REMARK SMILES CCCC(=O)[O-]
REMARK SMILES IDX 3 1 4 2 5 3 6 4 2 5 1 6
REMARK H PARENT
REMARK Flexibility Score: inf
ROOT
ATOM      1  C   UNL     1     -22.031  31.466   8.763  1.00  0.00     0.052 C 
ENDROOT
BRANCH   1   2
ATOM      2  C   UNL     1     -23.434  31.503   8.246  1.00  0.00     0.041 C 
ATOM      3  O   UNL     1     -24.125  32.549   8.363  1.00  0.00    -0.550 OA
ATOM      4  O   UNL     1     -23.965  30.398   7.593  1.00  0.00    -0.550 OA
ENDBRANCH   1   2
BRANCH   1   5
ATOM      5  C   UNL     1     -21.032  31.487   7.602  1.00  0.00     0.003 C 
ATOM      6  C   UNL     1     -19.649  31.926   8.072  1.00  0.00     0.004 C 
ENDBRANCH   1   5
TORSDOF 2
ENDMDL
MODEL 2
REMARK VINA RESULT:    -2.881      2.376      3.314
REMARK INTER + INTRA:          -3.223
REMARK INTER:                  -3.229
REMARK INTRA:                   0.006
REMARK UNBOUND:                -0.005
REMARK SMILES CCCC(=O)[O-]
REMARK SMILES IDX 3 1 4 2 5 3 6 4 2 5 1 6
REMARK H PARENT
REMARK Flexibility Score: inf
ROOT
ATOM      1  C   UNL     1     -22.078  31.476   8.947  1.00  0.00     0.052 C 
ENDROOT
BRANCH   1   2
ATOM      2  C   UNL     1     -20.954  31.634   7.973  1.00  0.00     0.041 C 
ATOM      3  O   UNL     1     -21.194  31.882   6.763  1.00  0.00    -0.550 OA
ATOM      4  O   UNL     1     -19.637  31.556   8.411  1.00  0.00    -0.550 OA
ENDBRANCH   1   2
BRANCH   1   5
ATOM      5  C   UNL     1     -23.424  31.496   8.218  1.00  0.00     0.003 C 
ATOM      6  C   UNL     1     -23.859  30.088   7.824  1.00  0.00     0.004 C 
ENDBRANCH   1   5
TORSDOF 2
ENDMDL
MODEL 3
REMARK VINA RESULT:    -2.869      5.407      6.232
REMARK INTER + INTRA:          -3.210
REMARK INTER:                  -3.182
REMARK INTRA:                  -0.028
REMARK UNBOUND:                -0.005
REMARK SMILES CCCC(=O)[O-]
REMARK SMILES IDX 3 1 4 2 5 3 6 4 2 5 1 6
REMARK H PARENT
REMARK Flexibility Score: inf
ROOT
ATOM      1  C   UNL     1     -23.882  25.749   8.957  1.00  0.00     0.052 C 
ENDROOT
BRANCH   1   2
ATOM      2  C   UNL     1     -22.742  25.700   9.924  1.00  0.00     0.041 C 
ATOM      3  O   UNL     1     -21.638  25.203   9.577  1.00  0.00    -0.550 OA
ATOM      4  O   UNL     1     -22.881  26.246  11.194  1.00  0.00    -0.550 OA
ENDBRANCH   1   2
BRANCH   1   5
ATOM      5  C   UNL     1     -23.486  26.527   7.701  1.00  0.00     0.003 C 
ATOM      6  C   UNL     1     -24.124  27.913   7.687  1.00  0.00     0.004 C 
ENDBRANCH   1   5
TORSDOF 2
ENDMDL
MODEL 4
REMARK VINA RESULT:    -2.865      5.458      6.196
REMARK INTER + INTRA:          -3.205
REMARK INTER:                  -3.175
REMARK INTRA:                  -0.030
REMARK UNBOUND:                -0.005
REMARK SMILES CCCC(=O)[O-]
REMARK SMILES IDX 3 1 4 2 5 3 6 4 2 5 1 6
REMARK H PARENT
REMARK Flexibility Score: inf
ROOT
ATOM      1  C   UNL     1     -23.913  25.736   9.106  1.00  0.00     0.052 C 
ENDROOT
BRANCH   1   2
ATOM      2  C   UNL     1     -22.704  25.692   9.985  1.00  0.00     0.041 C 
ATOM      3  O   UNL     1     -22.753  26.158  11.154  1.00  0.00    -0.550 OA
ATOM      4  O   UNL     1     -21.535  25.094   9.532  1.00  0.00    -0.550 OA
ENDBRANCH   1   2
BRANCH   1   5
ATOM      5  C   UNL     1     -23.598  26.465   7.798  1.00  0.00     0.003 C 
ATOM      6  C   UNL     1     -24.125  27.896   7.822  1.00  0.00     0.004 C 
ENDBRANCH   1   5
TORSDOF 2
ENDMDL
MODEL 5
REMARK VINA RESULT:    -2.470      6.606      7.318
REMARK INTER + INTRA:          -2.764
REMARK INTER:                  -2.692
REMARK INTRA:                  -0.072
REMARK UNBOUND:                -0.005
REMARK SMILES CCCC(=O)[O-]
REMARK SMILES IDX 3 1 4 2 5 3 6 4 2 5 1 6
REMARK H PARENT
REMARK Flexibility Score: inf
ROOT
ATOM      1  C   UNL     1     -22.823  25.967  10.091  1.00  0.00     0.052 C 
ENDROOT
BRANCH   1   2
ATOM      2  C   UNL     1     -22.487  24.957   9.039  1.00  0.00     0.041 C 
ATOM      3  O   UNL     1     -23.372  24.171   8.610  1.00  0.00    -0.550 OA
ATOM      4  O   UNL     1     -21.208  24.915   8.498  1.00  0.00    -0.550 OA
ENDBRANCH   1   2
BRANCH   1   5
ATOM      5  C   UNL     1     -23.234  25.270  11.390  1.00  0.00     0.003 C 
ATOM      6  C   UNL     1     -22.089  24.432  11.952  1.00  0.00     0.004 C 
ENDBRANCH   1   5
TORSDOF 2
ENDMDL
MODEL 6
REMARK VINA RESULT:    -2.462      9.331      9.827
REMARK INTER + INTRA:          -2.755
REMARK INTER:                  -2.716
REMARK INTRA:                  -0.039
REMARK UNBOUND:                -0.005
REMARK SMILES CCCC(=O)[O-]
REMARK SMILES IDX 3 1 4 2 5 3 6 4 2 5 1 6
REMARK H PARENT
REMARK Flexibility Score: inf
ROOT
ATOM      1  C   UNL     1     -19.953  23.427  13.368  1.00  0.00     0.052 C 
ENDROOT
BRANCH   1   2
ATOM      2  C   UNL     1     -21.340  23.762  12.917  1.00  0.00     0.041 C 
ATOM      3  O   UNL     1     -21.531  24.279  11.785  1.00  0.00    -0.550 OA
ATOM      4  O   UNL     1     -22.428  23.459  13.727  1.00  0.00    -0.550 OA
ENDBRANCH   1   2
BRANCH   1   5
ATOM      5  C   UNL     1     -19.505  24.384  14.476  1.00  0.00     0.003 C 
ATOM      6  C   UNL     1     -19.498  23.690  15.834  1.00  0.00     0.004 C 
ENDBRANCH   1   5
TORSDOF 2
ENDMDL
MODEL 7
REMARK VINA RESULT:    -2.319     12.613     13.132
REMARK INTER + INTRA:          -2.596
REMARK INTER:                  -2.557
REMARK INTRA:                  -0.039
REMARK UNBOUND:                -0.005
REMARK SMILES CCCC(=O)[O-]
REMARK SMILES IDX 3 1 4 2 5 3 6 4 2 5 1 6
REMARK H PARENT
REMARK Flexibility Score: inf
ROOT
ATOM      1  C   UNL     1     -19.604  29.651  20.421  1.00  0.00     0.052 C 
ENDROOT
BRANCH   1   2
ATOM      2  C   UNL     1     -20.553  30.427  21.277  1.00  0.00     0.041 C 
ATOM      3  O   UNL     1     -21.789  30.396  21.042  1.00  0.00    -0.550 OA
ATOM      4  O   UNL     1     -20.079  31.148  22.366  1.00  0.00    -0.550 OA
ENDBRANCH   1   2
BRANCH   1   5
ATOM      5  C   UNL     1     -20.371  28.811  19.397  1.00  0.00     0.003 C 
ATOM      6  C   UNL     1     -20.377  27.336  19.787  1.00  0.00     0.004 C 
ENDBRANCH   1   5
TORSDOF 2
ENDMDL
MODEL 8
REMARK VINA RESULT:    -2.311     11.887     12.311
REMARK INTER + INTRA:          -2.587
REMARK INTER:                  -2.539
REMARK INTRA:                  -0.048
REMARK UNBOUND:                -0.005
REMARK SMILES CCCC(=O)[O-]
REMARK SMILES IDX 3 1 4 2 5 3 6 4 2 5 1 6
REMARK H PARENT
REMARK Flexibility Score: inf
ROOT
ATOM      1  C   UNL     1     -20.464  28.866  19.151  1.00  0.00     0.052 C 
ENDROOT
BRANCH   1   2
ATOM      2  C   UNL     1     -21.905  28.695  19.516  1.00  0.00     0.041 C 
ATOM      3  O   UNL     1     -22.499  27.616  19.260  1.00  0.00    -0.550 OA
ATOM      4  O   UNL     1     -22.580  29.710  20.183  1.00  0.00    -0.550 OA
ENDBRANCH   1   2
BRANCH   1   5
ATOM      5  C   UNL     1     -19.744  29.719  20.198  1.00  0.00     0.003 C 
ATOM      6  C   UNL     1     -19.159  28.851  21.308  1.00  0.00     0.004 C 
ENDBRANCH   1   5
TORSDOF 2
ENDMDL
MODEL 9
REMARK VINA RESULT:    -1.460     18.871     19.739
REMARK INTER + INTRA:          -1.636
REMARK INTER:                  -1.627
REMARK INTRA:                  -0.009
REMARK UNBOUND:                -0.005
REMARK SMILES CCCC(=O)[O-]
REMARK SMILES IDX 3 1 4 2 5 3 6 4 2 5 1 6
REMARK H PARENT
REMARK Flexibility Score: inf
ROOT
ATOM      1  C   UNL     1      -6.664  42.045   6.658  1.00  0.00     0.052 C 
ENDROOT
BRANCH   1   2
ATOM      2  C   UNL     1      -5.210  41.779   6.890  1.00  0.00     0.041 C 
ATOM      3  O   UNL     1      -4.621  40.874   6.243  1.00  0.00    -0.550 OA
ATOM      4  O   UNL     1      -4.493  42.563   7.785  1.00  0.00    -0.550 OA
ENDBRANCH   1   2
BRANCH   1   5
ATOM      5  C   UNL     1      -7.246  42.875   7.806  1.00  0.00     0.003 C 
ATOM      6  C   UNL     1      -8.737  43.125   7.604  1.00  0.00     0.004 C 
ENDBRANCH   1   5
TORSDOF 2
ENDMDL
