MODEL 1
REMARK VINA RESULT:    -8.193      0.000      0.000
REMARK INTER + INTRA:         -10.001
REMARK INTER:                  -9.869
REMARK INTRA:                  -0.132
REMARK UNBOUND:                -0.132
REMARK SMILES O=c1c(O)c(-c2ccc(O)c(O)c2)oc2cc(O)cc(O)c12
REMARK SMILES IDX 5 1 3 2 2 3 1 4 22 5 20 6 19 7 17 8 16 9 15 10 14 11 6 12
REMARK SMILES IDX 7 13 8 14 9 15 13 16 11 17 10 18 12 20 4 22 21 24 18 26
REMARK H PARENT 10 19 12 21 4 23 21 25 18 27
REMARK Flexibility Score: inf
ROOT
ATOM      1  C   UNL     1       9.805  48.523  21.377  1.00  0.00     0.180 A 
ATOM      2  C   UNL     1       9.362  47.512  20.503  1.00  0.00     0.208 A 
ATOM      3  C   UNL     1       8.353  47.813  19.574  1.00  0.00     0.238 A 
ATOM      4  O   UNL     1       7.955  46.919  18.778  1.00  0.00    -0.285 OA
ATOM      5  C   UNL     1       7.795  49.107  19.546  1.00  0.00     0.111 A 
ATOM      6  C   UNL     1       6.772  49.490  18.644  1.00  0.00     0.134 A 
ATOM      7  C   UNL     1       6.262  50.796  18.686  1.00  0.00     0.093 A 
ATOM      8  C   UNL     1       6.751  51.724  19.612  1.00  0.00     0.123 A 
ATOM      9  C   UNL     1       7.760  51.351  20.503  1.00  0.00     0.094 A 
ATOM     10  C   UNL     1       8.283  50.054  20.476  1.00  0.00     0.146 A 
ATOM     11  O   UNL     1       9.245  49.728  21.332  1.00  0.00    -0.452 OA
ENDROOT
BRANCH   1  12
ATOM     12  C   UNL     1      10.878  48.289  22.371  1.00  0.00     0.025 A 
ATOM     13  C   UNL     1      10.624  48.533  23.730  1.00  0.00     0.016 A 
ATOM     14  C   UNL     1      11.627  48.339  24.683  1.00  0.00     0.051 A 
ATOM     15  C   UNL     1      12.902  47.913  24.290  1.00  0.00     0.157 A 
ATOM     16  C   UNL     1      12.165  47.882  21.977  1.00  0.00     0.062 A 
ATOM     17  C   UNL     1      13.174  47.688  22.930  1.00  0.00     0.158 A 
BRANCH  15  18
ATOM     18  O   UNL     1      13.900  47.717  25.244  1.00  0.00    -0.504 OA
ATOM     19  H   UNL     1      13.677  47.499  26.207  1.00  0.00     0.293 HD
ENDBRANCH  15  18
BRANCH  17  20
ATOM     20  O   UNL     1      14.436  47.278  22.504  1.00  0.00    -0.504 OA
ATOM     21  H   UNL     1      15.170  47.032  23.158  1.00  0.00     0.293 HD
ENDBRANCH  17  20
ENDBRANCH   1  12
BRANCH   2  22
ATOM     22  O   UNL     1       9.897  46.224  20.583  1.00  0.00    -0.502 OA
ATOM     23  H   UNL     1      10.805  45.988  20.202  1.00  0.00     0.293 HD
ENDBRANCH   2  22
BRANCH   6  24
ATOM     24  O   UNL     1       6.263  48.588  17.710  1.00  0.00    -0.507 OA
ATOM     25  H   UNL     1       6.866  47.964  17.188  1.00  0.00     0.293 HD
ENDBRANCH   6  24
BRANCH   8  26
ATOM     26  O   UNL     1       6.244  53.020  19.655  1.00  0.00    -0.508 OA
ATOM     27  H   UNL     1       6.606  53.751  19.054  1.00  0.00     0.293 HD
ENDBRANCH   8  26
TORSDOF 6
ENDMDL
MODEL 2
REMARK VINA RESULT:    -8.031      1.610      3.208
REMARK INTER + INTRA:          -9.806
REMARK INTER:                  -9.772
REMARK INTRA:                  -0.034
REMARK UNBOUND:                -0.132
REMARK SMILES O=c1c(O)c(-c2ccc(O)c(O)c2)oc2cc(O)cc(O)c12
REMARK SMILES IDX 5 1 3 2 2 3 1 4 22 5 20 6 19 7 17 8 16 9 15 10 14 11 6 12
REMARK SMILES IDX 7 13 8 14 9 15 13 16 11 17 10 18 12 20 4 22 21 24 18 26
REMARK H PARENT 10 19 12 21 4 23 21 25 18 27
REMARK Flexibility Score: inf
ROOT
ATOM      1  C   UNL     1       9.935  48.343  20.490  1.00  0.00     0.180 A 
ATOM      2  C   UNL     1       9.143  49.506  20.556  1.00  0.00     0.208 A 
ATOM      3  C   UNL     1       8.070  49.646  19.662  1.00  0.00     0.238 A 
ATOM      4  O   UNL     1       7.345  50.677  19.719  1.00  0.00    -0.285 OA
ATOM      5  C   UNL     1       7.819  48.637  18.710  1.00  0.00     0.111 A 
ATOM      6  C   UNL     1       6.760  48.704  17.771  1.00  0.00     0.134 A 
ATOM      7  C   UNL     1       6.583  47.662  16.849  1.00  0.00     0.093 A 
ATOM      8  C   UNL     1       7.442  46.558  16.845  1.00  0.00     0.123 A 
ATOM      9  C   UNL     1       8.487  46.488  17.770  1.00  0.00     0.094 A 
ATOM     10  C   UNL     1       8.680  47.515  18.698  1.00  0.00     0.146 A 
ATOM     11  O   UNL     1       9.679  47.420  19.569  1.00  0.00    -0.452 OA
ENDROOT
BRANCH   1  12
ATOM     12  C   UNL     1      11.072  48.114  21.410  1.00  0.00     0.025 A 
ATOM     13  C   UNL     1      10.866  48.198  22.796  1.00  0.00     0.016 A 
ATOM     14  C   UNL     1      11.928  48.006  23.683  1.00  0.00     0.051 A 
ATOM     15  C   UNL     1      13.215  47.741  23.197  1.00  0.00     0.157 A 
ATOM     16  C   UNL     1      12.369  47.869  20.926  1.00  0.00     0.062 A 
ATOM     17  C   UNL     1      13.437  47.677  21.811  1.00  0.00     0.158 A 
BRANCH  15  18
ATOM     18  O   UNL     1      14.273  47.547  24.084  1.00  0.00    -0.504 OA
ATOM     19  H   UNL     1      14.132  47.118  24.991  1.00  0.00     0.293 HD
ENDBRANCH  15  18
BRANCH  17  20
ATOM     20  O   UNL     1      14.709  47.430  21.295  1.00  0.00    -0.504 OA
ATOM     21  H   UNL     1      14.848  47.061  20.363  1.00  0.00     0.293 HD
ENDBRANCH  17  20
ENDBRANCH   1  12
BRANCH   2  22
ATOM     22  O   UNL     1       9.442  50.513  21.476  1.00  0.00    -0.502 OA
ATOM     23  H   UNL     1      10.100  51.256  21.274  1.00  0.00     0.293 HD
ENDBRANCH   2  22
BRANCH   6  24
ATOM     24  O   UNL     1       5.887  49.792  17.749  1.00  0.00    -0.507 OA
ATOM     25  H   UNL     1       4.882  49.669  17.762  1.00  0.00     0.293 HD
ENDBRANCH   6  24
BRANCH   8  26
ATOM     26  O   UNL     1       7.267  45.524  15.929  1.00  0.00    -0.508 OA
ATOM     27  H   UNL     1       7.996  44.844  15.751  1.00  0.00     0.293 HD
ENDBRANCH   8  26
TORSDOF 6
ENDMDL
MODEL 3
REMARK VINA RESULT:    -8.019      3.579      5.106
REMARK INTER + INTRA:          -9.792
REMARK INTER:                  -9.582
REMARK INTRA:                  -0.210
REMARK UNBOUND:                -0.132
REMARK SMILES O=c1c(O)c(-c2ccc(O)c(O)c2)oc2cc(O)cc(O)c12
REMARK SMILES IDX 5 1 3 2 2 3 1 4 22 5 20 6 19 7 17 8 16 9 15 10 14 11 6 12
REMARK SMILES IDX 7 13 8 14 9 15 13 16 11 17 10 18 12 20 4 22 21 24 18 26
REMARK H PARENT 10 19 12 21 4 23 21 25 18 27
REMARK Flexibility Score: inf
ROOT
ATOM      1  C   UNL     1       9.324  47.756  23.199  1.00  0.00     0.180 A 
ATOM      2  C   UNL     1       8.686  48.917  23.675  1.00  0.00     0.208 A 
ATOM      3  C   UNL     1       7.343  48.836  24.077  1.00  0.00     0.238 A 
ATOM      4  O   UNL     1       6.764  49.867  24.516  1.00  0.00    -0.285 OA
ATOM      5  C   UNL     1       6.659  47.607  23.980  1.00  0.00     0.111 A 
ATOM      6  C   UNL     1       5.305  47.442  24.360  1.00  0.00     0.134 A 
ATOM      7  C   UNL     1       4.692  46.188  24.223  1.00  0.00     0.093 A 
ATOM      8  C   UNL     1       5.406  45.098  23.712  1.00  0.00     0.123 A 
ATOM      9  C   UNL     1       6.742  45.256  23.337  1.00  0.00     0.094 A 
ATOM     10  C   UNL     1       7.371  46.498  23.467  1.00  0.00     0.146 A 
ATOM     11  O   UNL     1       8.643  46.618  23.106  1.00  0.00    -0.452 OA
ENDROOT
BRANCH   1  12
ATOM     12  C   UNL     1      10.743  47.756  22.775  1.00  0.00     0.025 A 
ATOM     13  C   UNL     1      11.063  47.479  21.436  1.00  0.00     0.016 A 
ATOM     14  C   UNL     1      12.395  47.454  21.018  1.00  0.00     0.051 A 
ATOM     15  C   UNL     1      13.428  47.690  21.933  1.00  0.00     0.157 A 
ATOM     16  C   UNL     1      11.783  47.972  23.696  1.00  0.00     0.062 A 
ATOM     17  C   UNL     1      13.121  47.946  23.280  1.00  0.00     0.158 A 
BRANCH  15  18
ATOM     18  O   UNL     1      14.758  47.667  21.513  1.00  0.00    -0.504 OA
ATOM     19  H   UNL     1      15.493  47.295  22.101  1.00  0.00     0.293 HD
ENDBRANCH  15  18
BRANCH  17  20
ATOM     20  O   UNL     1      14.126  48.170  24.220  1.00  0.00    -0.504 OA
ATOM     21  H   UNL     1      15.042  47.746  24.138  1.00  0.00     0.293 HD
ENDBRANCH  17  20
ENDBRANCH   1  12
BRANCH   2  22
ATOM     22  O   UNL     1       9.371  50.134  23.716  1.00  0.00    -0.502 OA
ATOM     23  H   UNL     1      10.373  50.189  23.855  1.00  0.00     0.293 HD
ENDBRANCH   2  22
BRANCH   6  24
ATOM     24  O   UNL     1       4.567  48.510  24.871  1.00  0.00    -0.507 OA
ATOM     25  H   UNL     1       4.903  49.464  24.817  1.00  0.00     0.293 HD
ENDBRANCH   6  24
BRANCH   8  26
ATOM     26  O   UNL     1       4.797  43.853  23.575  1.00  0.00    -0.508 OA
ATOM     27  H   UNL     1       4.079  43.540  24.218  1.00  0.00     0.293 HD
ENDBRANCH   8  26
TORSDOF 6
ENDMDL
MODEL 4
REMARK VINA RESULT:    -8.010      3.886      5.097
REMARK INTER + INTRA:          -9.781
REMARK INTER:                  -9.464
REMARK INTRA:                  -0.317
REMARK UNBOUND:                -0.132
REMARK SMILES O=c1c(O)c(-c2ccc(O)c(O)c2)oc2cc(O)cc(O)c12
REMARK SMILES IDX 5 1 3 2 2 3 1 4 22 5 20 6 19 7 17 8 16 9 15 10 14 11 6 12
REMARK SMILES IDX 7 13 8 14 9 15 13 16 11 17 10 18 12 20 4 22 21 24 18 26
REMARK H PARENT 10 19 12 21 4 23 21 25 18 27
REMARK Flexibility Score: inf
ROOT
ATOM      1  C   UNL     1       7.679  48.272  23.771  1.00  0.00     0.180 A 
ATOM      2  C   UNL     1       7.329  46.967  23.374  1.00  0.00     0.208 A 
ATOM      3  C   UNL     1       7.756  46.502  22.120  1.00  0.00     0.238 A 
ATOM      4  O   UNL     1       7.458  45.331  21.758  1.00  0.00    -0.285 OA
ATOM      5  C   UNL     1       8.506  47.350  21.280  1.00  0.00     0.111 A 
ATOM      6  C   UNL     1       8.971  46.960  20.000  1.00  0.00     0.134 A 
ATOM      7  C   UNL     1       9.703  47.867  19.221  1.00  0.00     0.093 A 
ATOM      8  C   UNL     1       9.978  49.155  19.694  1.00  0.00     0.123 A 
ATOM      9  C   UNL     1       9.523  49.544  20.955  1.00  0.00     0.094 A 
ATOM     10  C   UNL     1       8.792  48.654  21.749  1.00  0.00     0.146 A 
ATOM     11  O   UNL     1       8.374  49.049  22.946  1.00  0.00    -0.452 OA
ENDROOT
BRANCH   1  12
ATOM     12  C   UNL     1       7.283  48.827  25.085  1.00  0.00     0.025 A 
ATOM     13  C   UNL     1       6.195  49.711  25.161  1.00  0.00     0.016 A 
ATOM     14  C   UNL     1       5.817  50.264  26.387  1.00  0.00     0.051 A 
ATOM     15  C   UNL     1       6.528  49.953  27.552  1.00  0.00     0.157 A 
ATOM     16  C   UNL     1       8.009  48.534  26.253  1.00  0.00     0.062 A 
ATOM     17  C   UNL     1       7.633  49.087  27.484  1.00  0.00     0.158 A 
BRANCH  15  18
ATOM     18  O   UNL     1       6.147  50.503  28.775  1.00  0.00    -0.504 OA
ATOM     19  H   UNL     1       5.344  50.155  29.285  1.00  0.00     0.293 HD
ENDBRANCH  15  18
BRANCH  17  20
ATOM     20  O   UNL     1       8.372  48.769  28.623  1.00  0.00    -0.504 OA
ATOM     21  H   UNL     1       8.227  49.241  29.507  1.00  0.00     0.293 HD
ENDBRANCH  17  20
ENDBRANCH   1  12
BRANCH   2  22
ATOM     22  O   UNL     1       6.544  46.163  24.203  1.00  0.00    -0.502 OA
ATOM     23  H   UNL     1       5.987  46.542  24.960  1.00  0.00     0.293 HD
ENDBRANCH   2  22
BRANCH   6  24
ATOM     24  O   UNL     1       8.712  45.684  19.501  1.00  0.00    -0.507 OA
ATOM     25  H   UNL     1       9.451  45.006  19.360  1.00  0.00     0.293 HD
ENDBRANCH   6  24
BRANCH   8  26
ATOM     26  O   UNL     1      10.705  50.056  18.919  1.00  0.00    -0.508 OA
ATOM     27  H   UNL     1      10.251  50.808  18.416  1.00  0.00     0.293 HD
ENDBRANCH   8  26
TORSDOF 6
ENDMDL
MODEL 5
REMARK VINA RESULT:    -8.002      4.175      4.731
REMARK INTER + INTRA:          -9.772
REMARK INTER:                  -9.616
REMARK INTRA:                  -0.155
REMARK UNBOUND:                -0.132
REMARK SMILES O=c1c(O)c(-c2ccc(O)c(O)c2)oc2cc(O)cc(O)c12
REMARK SMILES IDX 5 1 3 2 2 3 1 4 22 5 20 6 19 7 17 8 16 9 15 10 14 11 6 12
REMARK SMILES IDX 7 13 8 14 9 15 13 16 11 17 10 18 12 20 4 22 21 24 18 26
REMARK H PARENT 10 19 12 21 4 23 21 25 18 27
REMARK Flexibility Score: inf
ROOT
ATOM      1  C   UNL     1       8.974  47.754  24.395  1.00  0.00     0.180 A 
ATOM      2  C   UNL     1       8.211  46.602  24.126  1.00  0.00     0.208 A 
ATOM      3  C   UNL     1       6.835  46.620  24.403  1.00  0.00     0.238 A 
ATOM      4  O   UNL     1       6.139  45.597  24.156  1.00  0.00    -0.285 OA
ATOM      5  C   UNL     1       6.252  47.776  24.960  1.00  0.00     0.111 A 
ATOM      6  C   UNL     1       4.874  47.874  25.273  1.00  0.00     0.134 A 
ATOM      7  C   UNL     1       4.371  49.057  25.835  1.00  0.00     0.093 A 
ATOM      8  C   UNL     1       5.218  50.141  26.090  1.00  0.00     0.123 A 
ATOM      9  C   UNL     1       6.577  50.049  25.783  1.00  0.00     0.094 A 
ATOM     10  C   UNL     1       7.097  48.879  25.221  1.00  0.00     0.146 A 
ATOM     11  O   UNL     1       8.393  48.820  24.935  1.00  0.00    -0.452 OA
ENDROOT
BRANCH   1  12
ATOM     12  C   UNL     1      10.427  47.819  24.112  1.00  0.00     0.025 A 
ATOM     13  C   UNL     1      11.322  48.089  25.159  1.00  0.00     0.016 A 
ATOM     14  C   UNL     1      12.694  48.176  24.911  1.00  0.00     0.051 A 
ATOM     15  C   UNL     1      13.190  48.009  23.612  1.00  0.00     0.157 A 
ATOM     16  C   UNL     1      10.925  47.674  22.805  1.00  0.00     0.062 A 
ATOM     17  C   UNL     1      12.300  47.762  22.553  1.00  0.00     0.158 A 
BRANCH  15  18
ATOM     18  O   UNL     1      14.560  48.094  23.368  1.00  0.00    -0.504 OA
ATOM     19  H   UNL     1      15.109  48.880  23.694  1.00  0.00     0.293 HD
ENDBRANCH  15  18
BRANCH  17  20
ATOM     20  O   UNL     1      12.760  47.606  21.246  1.00  0.00    -0.504 OA
ATOM     21  H   UNL     1      13.332  48.306  20.790  1.00  0.00     0.293 HD
ENDBRANCH  17  20
ENDBRANCH   1  12
BRANCH   2  22
ATOM     22  O   UNL     1       8.822  45.452  23.620  1.00  0.00    -0.502 OA
ATOM     23  H   UNL     1       8.943  44.612  24.173  1.00  0.00     0.293 HD
ENDBRANCH   2  22
BRANCH   6  24
ATOM     24  O   UNL     1       4.004  46.810  25.031  1.00  0.00    -0.507 OA
ATOM     25  H   UNL     1       4.326  45.850  25.022  1.00  0.00     0.293 HD
ENDBRANCH   6  24
BRANCH   8  26
ATOM     26  O   UNL     1       4.719  51.315  26.649  1.00  0.00    -0.508 OA
ATOM     27  H   UNL     1       3.792  51.357  27.056  1.00  0.00     0.293 HD
ENDBRANCH   8  26
TORSDOF 6
ENDMDL
MODEL 6
REMARK VINA RESULT:    -7.918      2.200      7.062
REMARK INTER + INTRA:          -9.670
REMARK INTER:                  -9.370
REMARK INTRA:                  -0.300
REMARK UNBOUND:                -0.132
REMARK SMILES O=c1c(O)c(-c2ccc(O)c(O)c2)oc2cc(O)cc(O)c12
REMARK SMILES IDX 5 1 3 2 2 3 1 4 22 5 20 6 19 7 17 8 16 9 15 10 14 11 6 12
REMARK SMILES IDX 7 13 8 14 9 15 13 16 11 17 10 18 12 20 4 22 21 24 18 26
REMARK H PARENT 10 19 12 21 4 23 21 25 18 27
REMARK Flexibility Score: inf
ROOT
ATOM      1  C   UNL     1       9.300  48.026  19.909  1.00  0.00     0.180 A 
ATOM      2  C   UNL     1       8.591  48.286  21.098  1.00  0.00     0.208 A 
ATOM      3  C   UNL     1       9.294  48.320  22.313  1.00  0.00     0.238 A 
ATOM      4  O   UNL     1       8.672  48.563  23.383  1.00  0.00    -0.285 OA
ATOM      5  C   UNL     1      10.682  48.077  22.322  1.00  0.00     0.111 A 
ATOM      6  C   UNL     1      11.463  48.088  23.504  1.00  0.00     0.134 A 
ATOM      7  C   UNL     1      12.839  47.827  23.430  1.00  0.00     0.093 A 
ATOM      8  C   UNL     1      13.448  47.552  22.201  1.00  0.00     0.123 A 
ATOM      9  C   UNL     1      12.682  47.540  21.033  1.00  0.00     0.094 A 
ATOM     10  C   UNL     1      11.309  47.800  21.085  1.00  0.00     0.146 A 
ATOM     11  O   UNL     1      10.606  47.786  19.958  1.00  0.00    -0.452 OA
ENDROOT
BRANCH   1  12
ATOM     12  C   UNL     1       8.633  47.993  18.587  1.00  0.00     0.025 A 
ATOM     13  C   UNL     1       8.340  49.199  17.931  1.00  0.00     0.016 A 
ATOM     14  C   UNL     1       7.693  49.193  16.694  1.00  0.00     0.051 A 
ATOM     15  C   UNL     1       7.315  47.982  16.100  1.00  0.00     0.157 A 
ATOM     16  C   UNL     1       8.233  46.780  17.999  1.00  0.00     0.062 A 
ATOM     17  C   UNL     1       7.582  46.770  16.759  1.00  0.00     0.158 A 
BRANCH  15  18
ATOM     18  O   UNL     1       6.672  47.978  14.863  1.00  0.00    -0.504 OA
ATOM     19  H   UNL     1       7.193  47.955  13.995  1.00  0.00     0.293 HD
ENDBRANCH  15  18
BRANCH  17  20
ATOM     20  O   UNL     1       7.206  45.548  16.202  1.00  0.00    -0.504 OA
ATOM     21  H   UNL     1       6.264  45.375  15.874  1.00  0.00     0.293 HD
ENDBRANCH  17  20
ENDBRANCH   1  12
BRANCH   2  22
ATOM     22  O   UNL     1       7.207  48.476  21.069  1.00  0.00    -0.502 OA
ATOM     23  H   UNL     1       6.782  49.326  20.718  1.00  0.00     0.293 HD
ENDBRANCH   2  22
BRANCH   6  24
ATOM     24  O   UNL     1      10.885  48.358  24.744  1.00  0.00    -0.507 OA
ATOM     25  H   UNL     1      11.359  48.141  25.612  1.00  0.00     0.293 HD
ENDBRANCH   6  24
BRANCH   8  26
ATOM     26  O   UNL     1      14.814  47.291  22.128  1.00  0.00    -0.508 OA
ATOM     27  H   UNL     1      15.171  46.345  22.069  1.00  0.00     0.293 HD
ENDBRANCH   8  26
TORSDOF 6
ENDMDL
MODEL 7
REMARK VINA RESULT:    -7.915      3.230      6.009
REMARK INTER + INTRA:          -9.666
REMARK INTER:                  -9.485
REMARK INTRA:                  -0.181
REMARK UNBOUND:                -0.132
REMARK SMILES O=c1c(O)c(-c2ccc(O)c(O)c2)oc2cc(O)cc(O)c12
REMARK SMILES IDX 5 1 3 2 2 3 1 4 22 5 20 6 19 7 17 8 16 9 15 10 14 11 6 12
REMARK SMILES IDX 7 13 8 14 9 15 13 16 11 17 10 18 12 20 4 22 21 24 18 26
REMARK H PARENT 10 19 12 21 4 23 21 25 18 27
REMARK Flexibility Score: inf
ROOT
ATOM      1  C   UNL     1       8.689  47.356  19.303  1.00  0.00     0.180 A 
ATOM      2  C   UNL     1       8.575  46.320  20.250  1.00  0.00     0.208 A 
ATOM      3  C   UNL     1       8.514  46.651  21.613  1.00  0.00     0.238 A 
ATOM      4  O   UNL     1       8.401  45.732  22.470  1.00  0.00    -0.285 OA
ATOM      5  C   UNL     1       8.586  48.003  22.006  1.00  0.00     0.111 A 
ATOM      6  C   UNL     1       8.536  48.420  23.358  1.00  0.00     0.134 A 
ATOM      7  C   UNL     1       8.623  49.785  23.668  1.00  0.00     0.093 A 
ATOM      8  C   UNL     1       8.762  50.739  22.654  1.00  0.00     0.123 A 
ATOM      9  C   UNL     1       8.811  50.332  21.319  1.00  0.00     0.094 A 
ATOM     10  C   UNL     1       8.724  48.976  20.989  1.00  0.00     0.146 A 
ATOM     11  O   UNL     1       8.770  48.618  19.711  1.00  0.00    -0.452 OA
ENDROOT
BRANCH   1  12
ATOM     12  C   UNL     1       8.740  47.088  17.847  1.00  0.00     0.025 A 
ATOM     13  C   UNL     1       7.616  46.544  17.206  1.00  0.00     0.016 A 
ATOM     14  C   UNL     1       7.649  46.264  15.838  1.00  0.00     0.051 A 
ATOM     15  C   UNL     1       8.809  46.510  15.093  1.00  0.00     0.157 A 
ATOM     16  C   UNL     1       9.910  47.314  17.101  1.00  0.00     0.062 A 
ATOM     17  C   UNL     1       9.947  47.033  15.730  1.00  0.00     0.158 A 
BRANCH  15  18
ATOM     18  O   UNL     1       8.838  46.232  13.727  1.00  0.00    -0.504 OA
ATOM     19  H   UNL     1       7.995  46.000  13.216  1.00  0.00     0.293 HD
ENDBRANCH  15  18
BRANCH  17  20
ATOM     20  O   UNL     1      11.123  47.276  15.021  1.00  0.00    -0.504 OA
ATOM     21  H   UNL     1      11.130  47.806  14.158  1.00  0.00     0.293 HD
ENDBRANCH  17  20
ENDBRANCH   1  12
BRANCH   2  22
ATOM     22  O   UNL     1       8.555  44.985  19.838  1.00  0.00    -0.502 OA
ATOM     23  H   UNL     1       8.816  44.701  18.901  1.00  0.00     0.293 HD
ENDBRANCH   2  22
BRANCH   6  24
ATOM     24  O   UNL     1       8.399  47.493  24.391  1.00  0.00    -0.507 OA
ATOM     25  H   UNL     1       8.525  46.500  24.237  1.00  0.00     0.293 HD
ENDBRANCH   6  24
BRANCH   8  26
ATOM     26  O   UNL     1       8.850  52.095  22.962  1.00  0.00    -0.508 OA
ATOM     27  H   UNL     1       9.585  52.456  23.557  1.00  0.00     0.293 HD
ENDBRANCH   8  26
TORSDOF 6
ENDMDL
MODEL 8
REMARK VINA RESULT:    -7.914      5.297      7.479
REMARK INTER + INTRA:          -9.665
REMARK INTER:                  -9.340
REMARK INTRA:                  -0.325
REMARK UNBOUND:                -0.132
REMARK SMILES O=c1c(O)c(-c2ccc(O)c(O)c2)oc2cc(O)cc(O)c12
REMARK SMILES IDX 5 1 3 2 2 3 1 4 22 5 20 6 19 7 17 8 16 9 15 10 14 11 6 12
REMARK SMILES IDX 7 13 8 14 9 15 13 16 11 17 10 18 12 20 4 22 21 24 18 26
REMARK H PARENT 10 19 12 21 4 23 21 25 18 27
REMARK Flexibility Score: inf
ROOT
ATOM      1  C   UNL     1       7.264  49.086  25.158  1.00  0.00     0.180 A 
ATOM      2  C   UNL     1       6.063  48.350  25.139  1.00  0.00     0.208 A 
ATOM      3  C   UNL     1       5.447  48.027  26.358  1.00  0.00     0.238 A 
ATOM      4  O   UNL     1       4.366  47.378  26.354  1.00  0.00    -0.285 OA
ATOM      5  C   UNL     1       6.048  48.426  27.570  1.00  0.00     0.111 A 
ATOM      6  C   UNL     1       5.493  48.136  28.841  1.00  0.00     0.134 A 
ATOM      7  C   UNL     1       6.157  48.560  30.001  1.00  0.00     0.093 A 
ATOM      8  C   UNL     1       7.363  49.265  29.916  1.00  0.00     0.123 A 
ATOM      9  C   UNL     1       7.913  49.553  28.665  1.00  0.00     0.094 A 
ATOM     10  C   UNL     1       7.266  49.141  27.496  1.00  0.00     0.146 A 
ATOM     11  O   UNL     1       7.809  49.432  26.320  1.00  0.00    -0.452 OA
ENDROOT
BRANCH   1  12
ATOM     12  C   UNL     1       7.963  49.482  23.913  1.00  0.00     0.025 A 
ATOM     13  C   UNL     1       7.619  50.688  23.282  1.00  0.00     0.016 A 
ATOM     14  C   UNL     1       8.251  51.071  22.097  1.00  0.00     0.051 A 
ATOM     15  C   UNL     1       9.224  50.248  21.517  1.00  0.00     0.157 A 
ATOM     16  C   UNL     1       8.926  48.648  23.317  1.00  0.00     0.062 A 
ATOM     17  C   UNL     1       9.560  49.028  22.128  1.00  0.00     0.158 A 
BRANCH  15  18
ATOM     18  O   UNL     1       9.856  50.635  20.335  1.00  0.00    -0.504 OA
ATOM     19  H   UNL     1      10.848  50.833  20.305  1.00  0.00     0.293 HD
ENDBRANCH  15  18
BRANCH  17  20
ATOM     20  O   UNL     1      10.514  48.180  21.568  1.00  0.00    -0.504 OA
ATOM     21  H   UNL     1      11.408  48.521  21.235  1.00  0.00     0.293 HD
ENDBRANCH  17  20
ENDBRANCH   1  12
BRANCH   2  22
ATOM     22  O   UNL     1       5.514  47.925  23.927  1.00  0.00    -0.502 OA
ATOM     23  H   UNL     1       4.714  48.379  23.503  1.00  0.00     0.293 HD
ENDBRANCH   2  22
BRANCH   6  24
ATOM     24  O   UNL     1       4.293  47.435  28.958  1.00  0.00    -0.507 OA
ATOM     25  H   UNL     1       3.774  47.408  29.827  1.00  0.00     0.293 HD
ENDBRANCH   6  24
BRANCH   8  26
ATOM     26  O   UNL     1       8.023  49.685  31.068  1.00  0.00    -0.508 OA
ATOM     27  H   UNL     1       7.901  49.207  31.953  1.00  0.00     0.293 HD
ENDBRANCH   8  26
TORSDOF 6
ENDMDL
MODEL 9
REMARK VINA RESULT:    -7.880      3.042      6.733
REMARK INTER + INTRA:          -9.624
REMARK INTER:                  -9.355
REMARK INTRA:                  -0.269
REMARK UNBOUND:                -0.132
REMARK SMILES O=c1c(O)c(-c2ccc(O)c(O)c2)oc2cc(O)cc(O)c12
REMARK SMILES IDX 5 1 3 2 2 3 1 4 22 5 20 6 19 7 17 8 16 9 15 10 14 11 6 12
REMARK SMILES IDX 7 13 8 14 9 15 13 16 11 17 10 18 12 20 4 22 21 24 18 26
REMARK H PARENT 10 19 12 21 4 23 21 25 18 27
REMARK Flexibility Score: inf
ROOT
ATOM      1  C   UNL     1       8.924  47.678  18.915  1.00  0.00     0.180 A 
ATOM      2  C   UNL     1       9.023  49.050  19.216  1.00  0.00     0.208 A 
ATOM      3  C   UNL     1       9.077  49.446  20.562  1.00  0.00     0.238 A 
ATOM      4  O   UNL     1       9.176  50.671  20.845  1.00  0.00    -0.285 OA
ATOM      5  C   UNL     1       9.013  48.472  21.578  1.00  0.00     0.111 A 
ATOM      6  C   UNL     1       9.057  48.788  22.959  1.00  0.00     0.134 A 
ATOM      7  C   UNL     1       8.978  47.760  23.910  1.00  0.00     0.093 A 
ATOM      8  C   UNL     1       8.855  46.425  23.509  1.00  0.00     0.123 A 
ATOM      9  C   UNL     1       8.812  46.109  22.150  1.00  0.00     0.094 A 
ATOM     10  C   UNL     1       8.890  47.118  21.186  1.00  0.00     0.146 A 
ATOM     11  O   UNL     1       8.851  46.789  19.900  1.00  0.00    -0.452 OA
ENDROOT
BRANCH   1  12
ATOM     12  C   UNL     1       8.882  47.180  17.520  1.00  0.00     0.025 A 
ATOM     13  C   UNL     1       7.686  46.648  17.014  1.00  0.00     0.016 A 
ATOM     14  C   UNL     1       7.628  46.154  15.709  1.00  0.00     0.051 A 
ATOM     15  C   UNL     1       8.768  46.170  14.896  1.00  0.00     0.157 A 
ATOM     16  C   UNL     1      10.030  47.175  16.709  1.00  0.00     0.062 A 
ATOM     17  C   UNL     1       9.976  46.679  15.400  1.00  0.00     0.158 A 
BRANCH  15  18
ATOM     18  O   UNL     1       8.707  45.679  13.592  1.00  0.00    -0.504 OA
ATOM     19  H   UNL     1       9.510  45.249  13.150  1.00  0.00     0.293 HD
ENDBRANCH  15  18
BRANCH  17  20
ATOM     20  O   UNL     1      11.133  46.696  14.622  1.00  0.00    -0.504 OA
ATOM     21  H   UNL     1      11.655  45.852  14.416  1.00  0.00     0.293 HD
ENDBRANCH  17  20
ENDBRANCH   1  12
BRANCH   2  22
ATOM     22  O   UNL     1       9.035  50.000  18.192  1.00  0.00    -0.502 OA
ATOM     23  H   UNL     1       9.627  49.911  17.375  1.00  0.00     0.293 HD
ENDBRANCH   2  22
BRANCH   6  24
ATOM     24  O   UNL     1       9.178  50.109  23.389  1.00  0.00    -0.507 OA
ATOM     25  H   UNL     1      10.035  50.634  23.264  1.00  0.00     0.293 HD
ENDBRANCH   6  24
BRANCH   8  26
ATOM     26  O   UNL     1       8.775  45.405  24.454  1.00  0.00    -0.508 OA
ATOM     27  H   UNL     1       9.204  45.494  25.367  1.00  0.00     0.293 HD
ENDBRANCH   8  26
TORSDOF 6
ENDMDL
