MODEL 1
REMARK VINA RESULT:    -3.894      0.000      0.000
REMARK INTER + INTRA:          -7.307
REMARK INTER:                  -6.170
REMARK INTRA:                  -1.136
REMARK UNBOUND:                -1.136
REMARK SMILES CCCCCCCCCCCC(=O)[O-]
REMARK SMILES IDX 7 1 8 2 9 3 10 4 11 5 12 6 13 7 14 8 6 9 5 10 4 11 3 12 2 13
REMARK SMILES IDX 1 14
REMARK H PARENT
REMARK Flexibility Score: inf
ROOT
ATOM      1  C   UNL     1       8.668   6.350  50.337  1.00  0.00     0.000 C 
ENDROOT
BRANCH   1   2
ATOM      2  C   UNL     1      10.200   6.327  50.188  1.00  0.00     0.000 C 
BRANCH   2   3
ATOM      3  C   UNL     1      10.933   6.458  51.534  1.00  0.00     0.000 C 
BRANCH   3   4
ATOM      4  C   UNL     1      11.694   5.174  51.918  1.00  0.00     0.006 C 
BRANCH   4   5
ATOM      5  C   UNL     1      11.567   4.049  50.878  1.00  0.00     0.053 C 
BRANCH   5   6
ATOM      6  C   UNL     1      11.174   2.744  51.494  1.00  0.00     0.041 C 
ATOM      7  O   UNL     1      10.075   2.207  51.194  1.00  0.00    -0.550 OA
ATOM      8  O   UNL     1      12.007   2.132  52.422  1.00  0.00    -0.550 OA
ENDBRANCH   5   6
ENDBRANCH   4   5
ENDBRANCH   3   4
ENDBRANCH   2   3
ENDBRANCH   1   2
BRANCH   1   9
ATOM      9  C   UNL     1       8.002   4.966  50.471  1.00  0.00     0.000 C 
BRANCH   9  10
ATOM     10  C   UNL     1       7.011   4.824  51.640  1.00  0.00    -0.000 C 
BRANCH  10  11
ATOM     11  C   UNL     1       7.610   4.073  52.842  1.00  0.00    -0.000 C 
BRANCH  11  12
ATOM     12  C   UNL     1       8.562   4.950  53.671  1.00  0.00    -0.000 C 
BRANCH  12  13
ATOM     13  C   UNL     1       8.134   5.062  55.143  1.00  0.00    -0.003 C 
ATOM     14  C   UNL     1       6.691   4.603  55.331  1.00  0.00     0.004 C 
ENDBRANCH  12  13
ENDBRANCH  11  12
ENDBRANCH  10  11
ENDBRANCH   9  10
ENDBRANCH   1   9
TORSDOF 10
ENDMDL
MODEL 2
REMARK VINA RESULT:    -3.886      2.395      4.702
REMARK INTER + INTRA:          -7.294
REMARK INTER:                  -5.725
REMARK INTRA:                  -1.569
REMARK UNBOUND:                -1.136
REMARK SMILES CCCCCCCCCCCC(=O)[O-]
REMARK SMILES IDX 7 1 8 2 9 3 10 4 11 5 12 6 13 7 14 8 6 9 5 10 4 11 3 12 2 13
REMARK SMILES IDX 1 14
REMARK H PARENT
REMARK Flexibility Score: inf
ROOT
ATOM      1  C   UNL     1       8.869   2.860  50.361  1.00  0.00     0.000 C 
ENDROOT
BRANCH   1   2
ATOM      2  C   UNL     1       8.342   4.265  50.022  1.00  0.00     0.000 C 
BRANCH   2   3
ATOM      3  C   UNL     1       7.715   4.976  51.233  1.00  0.00     0.000 C 
BRANCH   3   4
ATOM      4  C   UNL     1       7.765   4.116  52.512  1.00  0.00     0.006 C 
BRANCH   4   5
ATOM      5  C   UNL     1       8.554   4.767  53.660  1.00  0.00     0.053 C 
BRANCH   5   6
ATOM      6  C   UNL     1       7.765   4.834  54.928  1.00  0.00     0.041 C 
ATOM      7  O   UNL     1       8.320   5.188  56.002  1.00  0.00    -0.550 OA
ATOM      8  O   UNL     1       6.421   4.481  54.933  1.00  0.00    -0.550 OA
ENDBRANCH   5   6
ENDBRANCH   4   5
ENDBRANCH   3   4
ENDBRANCH   2   3
ENDBRANCH   1   2
BRANCH   1   9
ATOM      9  C   UNL     1      10.396   2.685  50.233  1.00  0.00     0.000 C 
BRANCH   9  10
ATOM     10  C   UNL     1      11.167   2.653  51.564  1.00  0.00    -0.000 C 
BRANCH  10  11
ATOM     11  C   UNL     1      11.851   3.992  51.890  1.00  0.00    -0.000 C 
BRANCH  11  12
ATOM     12  C   UNL     1      12.036   4.878  50.648  1.00  0.00    -0.000 C 
BRANCH  12  13
ATOM     13  C   UNL     1      11.347   6.245  50.787  1.00  0.00    -0.003 C 
ATOM     14  C   UNL     1      11.112   6.594  52.253  1.00  0.00     0.004 C 
ENDBRANCH  12  13
ENDBRANCH  11  12
ENDBRANCH  10  11
ENDBRANCH   9  10
ENDBRANCH   1   9
TORSDOF 10
ENDMDL
MODEL 3
REMARK VINA RESULT:    -3.790      2.013      2.935
REMARK INTER + INTRA:          -7.142
REMARK INTER:                  -5.795
REMARK INTRA:                  -1.347
REMARK UNBOUND:                -1.136
REMARK SMILES CCCCCCCCCCCC(=O)[O-]
REMARK SMILES IDX 7 1 8 2 9 3 10 4 11 5 12 6 13 7 14 8 6 9 5 10 4 11 3 12 2 13
REMARK SMILES IDX 1 14
REMARK H PARENT
REMARK Flexibility Score: inf
ROOT
ATOM      1  C   UNL     1       8.447   2.506  50.538  1.00  0.00     0.000 C 
ENDROOT
BRANCH   1   2
ATOM      2  C   UNL     1       9.974   2.348  50.648  1.00  0.00     0.000 C 
BRANCH   2   3
ATOM      3  C   UNL     1      10.527   2.825  52.001  1.00  0.00     0.000 C 
BRANCH   3   4
ATOM      4  C   UNL     1      11.740   3.765  51.844  1.00  0.00     0.006 C 
BRANCH   4   5
ATOM      5  C   UNL     1      11.518   4.888  50.818  1.00  0.00     0.053 C 
BRANCH   5   6
ATOM      6  C   UNL     1      10.824   6.073  51.411  1.00  0.00     0.041 C 
ATOM      7  O   UNL     1      11.050   6.409  52.604  1.00  0.00    -0.550 OA
ATOM      8  O   UNL     1       9.905   6.792  50.656  1.00  0.00    -0.550 OA
ENDBRANCH   5   6
ENDBRANCH   4   5
ENDBRANCH   3   4
ENDBRANCH   2   3
ENDBRANCH   1   2
BRANCH   1   9
ATOM      9  C   UNL     1       7.960   3.915  50.144  1.00  0.00     0.000 C 
BRANCH   9  10
ATOM     10  C   UNL     1       7.105   4.634  51.202  1.00  0.00    -0.000 C 
BRANCH  10  11
ATOM     11  C   UNL     1       6.509   3.672  52.244  1.00  0.00    -0.000 C 
BRANCH  11  12
ATOM     12  C   UNL     1       6.813   4.102  53.688  1.00  0.00    -0.000 C 
BRANCH  12  13
ATOM     13  C   UNL     1       8.211   4.721  53.839  1.00  0.00    -0.003 C 
ATOM     14  C   UNL     1       8.353   5.435  55.180  1.00  0.00     0.004 C 
ENDBRANCH  12  13
ENDBRANCH  11  12
ENDBRANCH  10  11
ENDBRANCH   9  10
ENDBRANCH   1   9
TORSDOF 10
ENDMDL
MODEL 4
REMARK VINA RESULT:    -3.632      2.344      3.868
REMARK INTER + INTRA:          -6.892
REMARK INTER:                  -5.826
REMARK INTRA:                  -1.066
REMARK UNBOUND:                -1.136
REMARK SMILES CCCCCCCCCCCC(=O)[O-]
REMARK SMILES IDX 7 1 8 2 9 3 10 4 11 5 12 6 13 7 14 8 6 9 5 10 4 11 3 12 2 13
REMARK SMILES IDX 1 14
REMARK H PARENT
REMARK Flexibility Score: inf
ROOT
ATOM      1  C   UNL     1       8.162   4.194  52.888  1.00  0.00     0.000 C 
ENDROOT
BRANCH   1   2
ATOM      2  C   UNL     1       8.696   3.373  51.700  1.00  0.00     0.000 C 
BRANCH   2   3
ATOM      3  C   UNL     1       8.938   4.227  50.445  1.00  0.00     0.000 C 
BRANCH   3   4
ATOM      4  C   UNL     1       8.881   5.740  50.741  1.00  0.00     0.006 C 
BRANCH   4   5
ATOM      5  C   UNL     1      10.238   6.447  50.590  1.00  0.00     0.053 C 
BRANCH   5   6
ATOM      6  C   UNL     1      11.247   5.963  51.582  1.00  0.00     0.041 C 
ATOM      7  O   UNL     1      11.107   6.222  52.807  1.00  0.00    -0.550 OA
ATOM      8  O   UNL     1      12.359   5.249  51.154  1.00  0.00    -0.550 OA
ENDBRANCH   5   6
ENDBRANCH   4   5
ENDBRANCH   3   4
ENDBRANCH   2   3
ENDBRANCH   1   2
BRANCH   1   9
ATOM      9  C   UNL     1       6.632   4.151  53.079  1.00  0.00     0.000 C 
BRANCH   9  10
ATOM     10  C   UNL     1       5.880   3.185  52.145  1.00  0.00    -0.000 C 
BRANCH  10  11
ATOM     11  C   UNL     1       4.953   3.912  51.156  1.00  0.00    -0.000 C 
BRANCH  11  12
ATOM     12  C   UNL     1       5.316   5.396  50.987  1.00  0.00    -0.000 C 
BRANCH  12  13
ATOM     13  C   UNL     1       4.089   6.318  51.052  1.00  0.00    -0.003 C 
ATOM     14  C   UNL     1       4.353   7.635  50.328  1.00  0.00     0.004 C 
ENDBRANCH  12  13
ENDBRANCH  11  12
ENDBRANCH  10  11
ENDBRANCH   9  10
ENDBRANCH   1   9
TORSDOF 10
ENDMDL
MODEL 5
REMARK VINA RESULT:    -3.581      2.109      4.787
REMARK INTER + INTRA:          -6.810
REMARK INTER:                  -5.340
REMARK INTRA:                  -1.470
REMARK UNBOUND:                -1.136
REMARK SMILES CCCCCCCCCCCC(=O)[O-]
REMARK SMILES IDX 7 1 8 2 9 3 10 4 11 5 12 6 13 7 14 8 6 9 5 10 4 11 3 12 2 13
REMARK SMILES IDX 1 14
REMARK H PARENT
REMARK Flexibility Score: inf
ROOT
ATOM      1  C   UNL     1      10.259   2.372  51.597  1.00  0.00     0.000 C 
ENDROOT
BRANCH   1   2
ATOM      2  C   UNL     1       9.677   2.564  50.185  1.00  0.00     0.000 C 
BRANCH   2   3
ATOM      3  C   UNL     1       8.201   2.995  50.202  1.00  0.00     0.000 C 
BRANCH   3   4
ATOM      4  C   UNL     1       7.597   2.975  51.620  1.00  0.00     0.006 C 
BRANCH   4   5
ATOM      5  C   UNL     1       7.193   4.366  52.137  1.00  0.00     0.053 C 
BRANCH   5   6
ATOM      6  C   UNL     1       7.508   4.549  53.588  1.00  0.00     0.041 C 
ATOM      7  O   UNL     1       6.647   4.270  54.463  1.00  0.00    -0.550 OA
ATOM      8  O   UNL     1       8.743   5.053  53.974  1.00  0.00    -0.550 OA
ENDBRANCH   5   6
ENDBRANCH   4   5
ENDBRANCH   3   4
ENDBRANCH   2   3
ENDBRANCH   1   2
BRANCH   1   9
ATOM      9  C   UNL     1      11.668   2.962  51.810  1.00  0.00     0.000 C 
BRANCH   9  10
ATOM     10  C   UNL     1      11.720   4.489  51.992  1.00  0.00    -0.000 C 
BRANCH  10  11
ATOM     11  C   UNL     1      12.360   5.212  50.795  1.00  0.00    -0.000 C 
BRANCH  11  12
ATOM     12  C   UNL     1      11.423   6.254  50.164  1.00  0.00    -0.000 C 
BRANCH  12  13
ATOM     13  C   UNL     1      10.109   6.418  50.943  1.00  0.00    -0.003 C 
ATOM     14  C   UNL     1       8.952   6.744  50.004  1.00  0.00     0.004 C 
ENDBRANCH  12  13
ENDBRANCH  11  12
ENDBRANCH  10  11
ENDBRANCH   9  10
ENDBRANCH   1   9
TORSDOF 10
ENDMDL
MODEL 6
REMARK VINA RESULT:    -3.555      2.741      4.416
REMARK INTER + INTRA:          -6.770
REMARK INTER:                  -5.762
REMARK INTRA:                  -1.008
REMARK UNBOUND:                -1.136
REMARK SMILES CCCCCCCCCCCC(=O)[O-]
REMARK SMILES IDX 7 1 8 2 9 3 10 4 11 5 12 6 13 7 14 8 6 9 5 10 4 11 3 12 2 13
REMARK SMILES IDX 1 14
REMARK H PARENT
REMARK Flexibility Score: inf
ROOT
ATOM      1  C   UNL     1      11.763   4.692  51.362  1.00  0.00     0.000 C 
ENDROOT
BRANCH   1   2
ATOM      2  C   UNL     1      11.036   5.525  52.433  1.00  0.00     0.000 C 
BRANCH   2   3
ATOM      3  C   UNL     1       9.515   5.584  52.213  1.00  0.00     0.000 C 
BRANCH   3   4
ATOM      4  C   UNL     1       8.732   4.837  53.312  1.00  0.00     0.006 C 
BRANCH   4   5
ATOM      5  C   UNL     1       8.834   5.497  54.697  1.00  0.00     0.053 C 
BRANCH   5   6
ATOM      6  C   UNL     1       7.892   4.891  55.688  1.00  0.00     0.041 C 
ATOM      7  O   UNL     1       6.724   4.572  55.339  1.00  0.00    -0.550 OA
ATOM      8  O   UNL     1       8.291   4.703  57.005  1.00  0.00    -0.550 OA
ENDBRANCH   5   6
ENDBRANCH   4   5
ENDBRANCH   3   4
ENDBRANCH   2   3
ENDBRANCH   1   2
BRANCH   1   9
ATOM      9  C   UNL     1      11.477   3.178  51.405  1.00  0.00     0.000 C 
BRANCH   9  10
ATOM     10  C   UNL     1      10.617   2.638  50.248  1.00  0.00    -0.000 C 
BRANCH  10  11
ATOM     11  C   UNL     1       9.371   1.879  50.734  1.00  0.00    -0.000 C 
BRANCH  11  12
ATOM     12  C   UNL     1       8.063   2.613  50.395  1.00  0.00    -0.000 C 
BRANCH  12  13
ATOM     13  C   UNL     1       6.850   2.035  51.139  1.00  0.00    -0.003 C 
ATOM     14  C   UNL     1       6.021   3.144  51.781  1.00  0.00     0.004 C 
ENDBRANCH  12  13
ENDBRANCH  11  12
ENDBRANCH  10  11
ENDBRANCH   9  10
ENDBRANCH   1   9
TORSDOF 10
ENDMDL
MODEL 7
REMARK VINA RESULT:    -3.548      3.506      5.876
REMARK INTER + INTRA:          -6.758
REMARK INTER:                  -5.866
REMARK INTRA:                  -0.893
REMARK UNBOUND:                -1.136
REMARK SMILES CCCCCCCCCCCC(=O)[O-]
REMARK SMILES IDX 7 1 8 2 9 3 10 4 11 5 12 6 13 7 14 8 6 9 5 10 4 11 3 12 2 13
REMARK SMILES IDX 1 14
REMARK H PARENT
REMARK Flexibility Score: inf
ROOT
ATOM      1  C   UNL     1       8.794   4.223  52.913  1.00  0.00     0.000 C 
ENDROOT
BRANCH   1   2
ATOM      2  C   UNL     1       7.269   4.123  53.095  1.00  0.00     0.000 C 
BRANCH   2   3
ATOM      3  C   UNL     1       6.621   3.098  52.150  1.00  0.00     0.000 C 
BRANCH   3   4
ATOM      4  C   UNL     1       5.463   3.701  51.330  1.00  0.00     0.006 C 
BRANCH   4   5
ATOM      5  C   UNL     1       5.582   5.220  51.122  1.00  0.00     0.053 C 
BRANCH   5   6
ATOM      6  C   UNL     1       4.248   5.894  51.061  1.00  0.00     0.041 C 
ATOM      7  O   UNL     1       4.175   7.150  51.016  1.00  0.00    -0.550 OA
ATOM      8  O   UNL     1       3.084   5.137  51.081  1.00  0.00    -0.550 OA
ENDBRANCH   5   6
ENDBRANCH   4   5
ENDBRANCH   3   4
ENDBRANCH   2   3
ENDBRANCH   1   2
BRANCH   1   9
ATOM      9  C   UNL     1       9.382   3.328  51.804  1.00  0.00     0.000 C 
BRANCH   9  10
ATOM     10  C   UNL     1      10.865   2.957  51.977  1.00  0.00    -0.000 C 
BRANCH  10  11
ATOM     11  C   UNL     1      11.815   4.121  51.646  1.00  0.00    -0.000 C 
BRANCH  11  12
ATOM     12  C   UNL     1      11.433   4.842  50.344  1.00  0.00    -0.000 C 
BRANCH  12  13
ATOM     13  C   UNL     1      11.195   6.346  50.547  1.00  0.00    -0.003 C 
ATOM     14  C   UNL     1       9.722   6.699  50.359  1.00  0.00     0.004 C 
ENDBRANCH  12  13
ENDBRANCH  11  12
ENDBRANCH  10  11
ENDBRANCH   9  10
ENDBRANCH   1   9
TORSDOF 10
ENDMDL
MODEL 8
REMARK VINA RESULT:    -3.483      4.517      6.710
REMARK INTER + INTRA:          -6.656
REMARK INTER:                  -5.971
REMARK INTRA:                  -0.685
REMARK UNBOUND:                -1.136
REMARK SMILES CCCCCCCCCCCC(=O)[O-]
REMARK SMILES IDX 7 1 8 2 9 3 10 4 11 5 12 6 13 7 14 8 6 9 5 10 4 11 3 12 2 13
REMARK SMILES IDX 1 14
REMARK H PARENT
REMARK Flexibility Score: inf
ROOT
ATOM      1  C   UNL     1       6.409   5.035  50.712  1.00  0.00     0.000 C 
ENDROOT
BRANCH   1   2
ATOM      2  C   UNL     1       5.555   6.262  50.350  1.00  0.00     0.000 C 
BRANCH   2   3
ATOM      3  C   UNL     1       4.226   6.313  51.122  1.00  0.00     0.000 C 
BRANCH   3   4
ATOM      4  C   UNL     1       3.070   5.643  50.352  1.00  0.00     0.006 C 
BRANCH   4   5
ATOM      5  C   UNL     1       2.692   4.256  50.897  1.00  0.00     0.053 C 
BRANCH   5   6
ATOM      6  C   UNL     1       1.223   3.989  50.808  1.00  0.00     0.041 C 
ATOM      7  O   UNL     1       0.405   4.947  50.794  1.00  0.00    -0.550 OA
ATOM      8  O   UNL     1       0.752   2.683  50.767  1.00  0.00    -0.550 OA
ENDBRANCH   5   6
ENDBRANCH   4   5
ENDBRANCH   3   4
ENDBRANCH   2   3
ENDBRANCH   1   2
BRANCH   1   9
ATOM      9  C   UNL     1       6.149   4.445  52.113  1.00  0.00     0.000 C 
BRANCH   9  10
ATOM     10  C   UNL     1       7.358   3.759  52.773  1.00  0.00    -0.000 C 
BRANCH  10  11
ATOM     11  C   UNL     1       8.504   4.737  53.085  1.00  0.00    -0.000 C 
BRANCH  11  12
ATOM     12  C   UNL     1       9.729   4.520  52.183  1.00  0.00    -0.000 C 
BRANCH  12  13
ATOM     13  C   UNL     1       9.930   3.045  51.803  1.00  0.00    -0.003 C 
ATOM     14  C   UNL     1      11.363   2.598  52.077  1.00  0.00     0.004 C 
ENDBRANCH  12  13
ENDBRANCH  11  12
ENDBRANCH  10  11
ENDBRANCH   9  10
ENDBRANCH   1   9
TORSDOF 10
ENDMDL
MODEL 9
REMARK VINA RESULT:    -3.462      1.505      2.183
REMARK INTER + INTRA:          -6.622
REMARK INTER:                  -5.607
REMARK INTRA:                  -1.015
REMARK UNBOUND:                -1.136
REMARK SMILES CCCCCCCCCCCC(=O)[O-]
REMARK SMILES IDX 7 1 8 2 9 3 10 4 11 5 12 6 13 7 14 8 6 9 5 10 4 11 3 12 2 13
REMARK SMILES IDX 1 14
REMARK H PARENT
REMARK Flexibility Score: inf
ROOT
ATOM      1  C   UNL     1       6.524   5.348  50.817  1.00  0.00     0.000 C 
ENDROOT
BRANCH   1   2
ATOM      2  C   UNL     1       7.480   6.106  49.878  1.00  0.00     0.000 C 
BRANCH   2   3
ATOM      3  C   UNL     1       8.730   6.635  50.601  1.00  0.00     0.000 C 
BRANCH   3   4
ATOM      4  C   UNL     1      10.037   6.249  49.878  1.00  0.00     0.006 C 
BRANCH   4   5
ATOM      5  C   UNL     1      10.507   4.817  50.181  1.00  0.00     0.053 C 
BRANCH   5   6
ATOM      6  C   UNL     1      11.861   4.784  50.817  1.00  0.00     0.041 C 
ATOM      7  O   UNL     1      12.104   3.972  51.748  1.00  0.00    -0.550 OA
ATOM      8  O   UNL     1      12.848   5.668  50.400  1.00  0.00    -0.550 OA
ENDBRANCH   5   6
ENDBRANCH   4   5
ENDBRANCH   3   4
ENDBRANCH   2   3
ENDBRANCH   1   2
BRANCH   1   9
ATOM      9  C   UNL     1       6.734   3.821  50.871  1.00  0.00     0.000 C 
BRANCH   9  10
ATOM     10  C   UNL     1       7.766   3.336  51.905  1.00  0.00    -0.000 C 
BRANCH  10  11
ATOM     11  C   UNL     1       7.567   3.972  53.291  1.00  0.00    -0.000 C 
BRANCH  11  12
ATOM     12  C   UNL     1       8.706   4.932  53.670  1.00  0.00    -0.000 C 
BRANCH  12  13
ATOM     13  C   UNL     1       8.585   5.457  55.109  1.00  0.00    -0.003 C 
ATOM     14  C   UNL     1       7.437   4.775  55.846  1.00  0.00     0.004 C 
ENDBRANCH  12  13
ENDBRANCH  11  12
ENDBRANCH  10  11
ENDBRANCH   9  10
ENDBRANCH   1   9
TORSDOF 10
ENDMDL
