MODEL 1
REMARK VINA RESULT:     2.185      0.000      0.000
REMARK INTER + INTRA:           2.441
REMARK INTER:                   2.568
REMARK INTRA:                  -0.127
REMARK UNBOUND:                -0.127
REMARK SMILES O=C([O-])C=Cc1ccc(O)c(O)c1
REMARK SMILES IDX 6 1 13 2 7 3 11 4 8 5 9 6 5 7 4 8 2 9 1 10 3 11 12 12 10 14
REMARK H PARENT 12 13 10 15
REMARK Flexibility Score: inf
ROOT
ATOM      1  C   UNL     1      17.207  96.958   8.745  1.00  0.00    -0.022 A 
ATOM      2  C   UNL     1      18.010  95.921   8.230  1.00  0.00     0.058 A 
ATOM      3  C   UNL     1      15.960  96.636   9.302  1.00  0.00     0.012 A 
ATOM      4  C   UNL     1      17.582  94.588   8.294  1.00  0.00     0.157 A 
ATOM      5  C   UNL     1      15.532  95.308   9.368  1.00  0.00     0.051 A 
ATOM      6  C   UNL     1      16.339  94.279   8.868  1.00  0.00     0.157 A 
ENDROOT
BRANCH   1   7
ATOM      7  C   UNL     1      17.613  98.384   8.690  1.00  0.00     0.010 C 
ATOM      8  C   UNL     1      18.727  98.864   9.260  1.00  0.00     0.025 C 
BRANCH   8   9
ATOM      9  C   UNL     1      19.085 100.290   9.189  1.00  0.00     0.064 C 
ATOM     10  O   UNL     1      18.610 101.003   8.267  1.00  0.00    -0.545 OA
ATOM     11  O   UNL     1      19.938 100.863  10.125  1.00  0.00    -0.545 OA
ENDBRANCH   8   9
ENDBRANCH   1   7
BRANCH   4  12
ATOM     12  O   UNL     1      18.404  93.588   7.775  1.00  0.00    -0.504 OA
ATOM     13  H   UNL     1      19.092  93.776   7.054  1.00  0.00     0.293 HD
ENDBRANCH   4  12
BRANCH   6  14
ATOM     14  O   UNL     1      15.910  92.955   8.938  1.00  0.00    -0.504 OA
ATOM     15  H   UNL     1      15.105  92.629   8.415  1.00  0.00     0.293 HD
ENDBRANCH   6  14
TORSDOF 4
ENDMDL
MODEL 2
REMARK VINA RESULT:     3.091      1.125      2.035
REMARK INTER + INTRA:           3.507
REMARK INTER:                   3.629
REMARK INTRA:                  -0.123
REMARK UNBOUND:                -0.127
REMARK SMILES O=C([O-])C=Cc1ccc(O)c(O)c1
REMARK SMILES IDX 6 1 13 2 7 3 11 4 8 5 9 6 5 7 4 8 2 9 1 10 3 11 12 12 10 14
REMARK H PARENT 12 13 10 15
REMARK Flexibility Score: inf
ROOT
ATOM      1  C   UNL     1      17.488  96.520   8.928  1.00  0.00    -0.022 A 
ATOM      2  C   UNL     1      16.134  96.576   9.317  1.00  0.00     0.058 A 
ATOM      3  C   UNL     1      18.041  95.279   8.575  1.00  0.00     0.012 A 
ATOM      4  C   UNL     1      15.347  95.417   9.327  1.00  0.00     0.157 A 
ATOM      5  C   UNL     1      17.257  94.123   8.583  1.00  0.00     0.051 A 
ATOM      6  C   UNL     1      15.909  94.185   8.955  1.00  0.00     0.157 A 
ENDROOT
BRANCH   1   7
ATOM      7  C   UNL     1      18.364  97.718   8.913  1.00  0.00     0.010 C 
ATOM      8  C   UNL     1      17.909  98.975   9.015  1.00  0.00     0.025 C 
BRANCH   8   9
ATOM      9  C   UNL     1      18.814 100.134   8.984  1.00  0.00     0.064 C 
ATOM     10  O   UNL     1      18.662 101.017   8.099  1.00  0.00    -0.545 OA
ATOM     11  O   UNL     1      19.836 100.272   9.917  1.00  0.00    -0.545 OA
ENDBRANCH   8   9
ENDBRANCH   1   7
BRANCH   4  12
ATOM     12  O   UNL     1      14.010  95.511   9.715  1.00  0.00    -0.504 OA
ATOM     13  H   UNL     1      13.666  96.279  10.279  1.00  0.00     0.293 HD
ENDBRANCH   4  12
BRANCH   6  14
ATOM     14  O   UNL     1      15.129  93.030   8.960  1.00  0.00    -0.504 OA
ATOM     15  H   UNL     1      14.318  92.935   8.360  1.00  0.00     0.293 HD
ENDBRANCH   6  14
TORSDOF 4
ENDMDL
MODEL 3
REMARK VINA RESULT:     3.530      2.652      5.280
REMARK INTER + INTRA:           4.022
REMARK INTER:                   4.145
REMARK INTRA:                  -0.123
REMARK UNBOUND:                -0.127
REMARK SMILES O=C([O-])C=Cc1ccc(O)c(O)c1
REMARK SMILES IDX 6 1 13 2 7 3 11 4 8 5 9 6 5 7 4 8 2 9 1 10 3 11 12 12 10 14
REMARK H PARENT 12 13 10 15
REMARK Flexibility Score: inf
ROOT
ATOM      1  C   UNL     1      17.305  96.110   8.711  1.00  0.00    -0.022 A 
ATOM      2  C   UNL     1      16.036  95.763   9.216  1.00  0.00     0.058 A 
ATOM      3  C   UNL     1      17.644  97.468   8.605  1.00  0.00     0.012 A 
ATOM      4  C   UNL     1      15.136  96.755   9.628  1.00  0.00     0.157 A 
ATOM      5  C   UNL     1      16.750  98.459   9.018  1.00  0.00     0.051 A 
ATOM      6  C   UNL     1      15.495  98.109   9.533  1.00  0.00     0.157 A 
ENDROOT
BRANCH   1   7
ATOM      7  C   UNL     1      18.286  95.096   8.251  1.00  0.00     0.010 C 
ATOM      8  C   UNL     1      18.403  93.875   8.792  1.00  0.00     0.025 C 
BRANCH   8   9
ATOM      9  C   UNL     1      19.399  92.904   8.310  1.00  0.00     0.064 C 
ATOM     10  O   UNL     1      19.440  92.613   7.086  1.00  0.00    -0.545 OA
ATOM     11  O   UNL     1      20.296  92.303   9.186  1.00  0.00    -0.545 OA
ENDBRANCH   8   9
ENDBRANCH   1   7
BRANCH   4  12
ATOM     12  O   UNL     1      13.890  96.374  10.125  1.00  0.00    -0.504 OA
ATOM     13  H   UNL     1      13.670  95.409  10.344  1.00  0.00     0.293 HD
ENDBRANCH   4  12
BRANCH   6  14
ATOM     14  O   UNL     1      14.606  99.099   9.945  1.00  0.00    -0.504 OA
ATOM     15  H   UNL     1      14.873  99.804  10.622  1.00  0.00     0.293 HD
ENDBRANCH   6  14
TORSDOF 4
ENDMDL
MODEL 4
REMARK VINA RESULT:     3.661      1.935      5.239
REMARK INTER + INTRA:           4.176
REMARK INTER:                   4.300
REMARK INTRA:                  -0.123
REMARK UNBOUND:                -0.127
REMARK SMILES O=C([O-])C=Cc1ccc(O)c(O)c1
REMARK SMILES IDX 6 1 13 2 7 3 11 4 8 5 9 6 5 7 4 8 2 9 1 10 3 11 12 12 10 14
REMARK H PARENT 12 13 10 15
REMARK Flexibility Score: inf
ROOT
ATOM      1  C   UNL     1      16.754  96.005   8.902  1.00  0.00    -0.022 A 
ATOM      2  C   UNL     1      17.354  97.232   8.552  1.00  0.00     0.058 A 
ATOM      3  C   UNL     1      15.561  96.021   9.641  1.00  0.00     0.012 A 
ATOM      4  C   UNL     1      16.757  98.446   8.914  1.00  0.00     0.157 A 
ATOM      5  C   UNL     1      14.963  97.231  10.001  1.00  0.00     0.051 A 
ATOM      6  C   UNL     1      15.554  98.447   9.638  1.00  0.00     0.157 A 
ENDROOT
BRANCH   1   7
ATOM      7  C   UNL     1      17.355  94.694   8.552  1.00  0.00     0.010 C 
ATOM      8  C   UNL     1      18.605  94.547   8.090  1.00  0.00     0.025 C 
BRANCH   8   9
ATOM      9  C   UNL     1      19.156  93.227   7.744  1.00  0.00     0.064 C 
ATOM     10  O   UNL     1      18.825  92.682   6.659  1.00  0.00    -0.545 OA
ATOM     11  O   UNL     1      20.037  92.572   8.597  1.00  0.00    -0.545 OA
ENDBRANCH   8   9
ENDBRANCH   1   7
BRANCH   4  12
ATOM     12  O   UNL     1      17.378  99.640   8.548  1.00  0.00    -0.504 OA
ATOM     13  H   UNL     1      18.349  99.676   8.259  1.00  0.00     0.293 HD
ENDBRANCH   4  12
BRANCH   6  14
ATOM     14  O   UNL     1      14.954  99.653   9.997  1.00  0.00    -0.504 OA
ATOM     15  H   UNL     1      15.402 100.298  10.638  1.00  0.00     0.293 HD
ENDBRANCH   6  14
TORSDOF 4
ENDMDL
