MODEL 1
REMARK VINA RESULT:    -5.313      0.000      0.000
REMARK INTER + INTRA:          -6.349
REMARK INTER:                  -6.089
REMARK INTRA:                  -0.259
REMARK UNBOUND:                -0.259
REMARK SMILES O=C1C[C@@H](c2ccc(O)cc2)Oc2cc(O)cc(O)c21
REMARK SMILES IDX 3 1 4 2 12 3 13 4 14 5 15 6 17 7 18 8 20 9 2 10 1 11 5 12
REMARK SMILES IDX 6 13 11 14 7 15 10 16 8 17 9 18 19 20 16 22
REMARK H PARENT 9 19 19 21 16 23
REMARK Flexibility Score: inf
ROOT
ATOM      1  C   UNL     1      11.314   0.895  13.718  1.00  0.00     0.131 C 
ATOM      2  C   UNL     1      11.062  -0.486  14.345  1.00  0.00     0.211 C 
ATOM      3  O   UNL     1      10.025  -0.377  15.321  1.00  0.00    -0.484 OA
ATOM      4  C   UNL     1       8.839   0.318  15.064  1.00  0.00     0.138 A 
ATOM      5  C   UNL     1       7.745   0.119  15.909  1.00  0.00     0.093 A 
ATOM      6  C   UNL     1       6.538   0.777  15.665  1.00  0.00     0.123 A 
ATOM      7  C   UNL     1       6.422   1.625  14.563  1.00  0.00     0.093 A 
ATOM      8  C   UNL     1       7.502   1.837  13.699  1.00  0.00     0.133 A 
ATOM      9  C   UNL     1       8.753   1.212  13.972  1.00  0.00     0.102 A 
ATOM     10  C   UNL     1      10.020   1.493  13.236  1.00  0.00     0.174 C 
ATOM     11  O   UNL     1      10.064   2.306  12.277  1.00  0.00    -0.294 OA
ENDROOT
BRANCH   2  12
ATOM     12  C   UNL     1      12.277  -1.143  14.977  1.00  0.00    -0.007 A 
ATOM     13  C   UNL     1      12.890  -0.671  16.158  1.00  0.00     0.011 A 
ATOM     14  C   UNL     1      12.832  -2.265  14.334  1.00  0.00     0.011 A 
ATOM     15  C   UNL     1      14.014  -1.318  16.680  1.00  0.00     0.046 A 
ATOM     16  C   UNL     1      13.955  -2.908  14.860  1.00  0.00     0.046 A 
ATOM     17  C   UNL     1      14.549  -2.438  16.033  1.00  0.00     0.115 A 
BRANCH  17  18
ATOM     18  O   UNL     1      15.668  -3.089  16.547  1.00  0.00    -0.508 OA
ATOM     19  H   UNL     1      16.034  -3.932  16.118  1.00  0.00     0.293 HD
ENDBRANCH  17  18
ENDBRANCH   2  12
BRANCH   8  20
ATOM     20  O   UNL     1       7.272   2.655  12.590  1.00  0.00    -0.507 OA
ATOM     21  H   UNL     1       6.553   3.361  12.537  1.00  0.00     0.293 HD
ENDBRANCH   8  20
BRANCH   6  22
ATOM     22  O   UNL     1       5.443   0.589  16.507  1.00  0.00    -0.508 OA
ATOM     23  H   UNL     1       4.749  -0.125  16.320  1.00  0.00     0.293 HD
ENDBRANCH   6  22
TORSDOF 4
ENDMDL
MODEL 2
REMARK VINA RESULT:    -5.287      7.401      9.758
REMARK INTER + INTRA:          -6.319
REMARK INTER:                  -6.028
REMARK INTRA:                  -0.291
REMARK UNBOUND:                -0.259
REMARK SMILES O=C1C[C@@H](c2ccc(O)cc2)Oc2cc(O)cc(O)c21
REMARK SMILES IDX 3 1 4 2 12 3 13 4 14 5 15 6 17 7 18 8 20 9 2 10 1 11 5 12
REMARK SMILES IDX 6 13 11 14 7 15 10 16 8 17 9 18 19 20 16 22
REMARK H PARENT 9 19 19 21 16 23
REMARK Flexibility Score: inf
ROOT
ATOM      1  C   UNL     1      12.220  -5.655  19.847  1.00  0.00     0.131 C 
ATOM      2  C   UNL     1      11.407  -4.916  20.923  1.00  0.00     0.211 C 
ATOM      3  O   UNL     1      10.077  -5.433  20.946  1.00  0.00    -0.484 OA
ATOM      4  C   UNL     1       9.818  -6.808  20.932  1.00  0.00     0.138 A 
ATOM      5  C   UNL     1       8.543  -7.257  21.283  1.00  0.00     0.093 A 
ATOM      6  C   UNL     1       8.260  -8.624  21.304  1.00  0.00     0.123 A 
ATOM      7  C   UNL     1       9.260  -9.544  20.988  1.00  0.00     0.093 A 
ATOM      8  C   UNL     1      10.547  -9.118  20.638  1.00  0.00     0.133 A 
ATOM      9  C   UNL     1      10.829  -7.724  20.561  1.00  0.00     0.102 A 
ATOM     10  C   UNL     1      12.098  -7.144  20.033  1.00  0.00     0.174 C 
ATOM     11  O   UNL     1      13.045  -7.870  19.634  1.00  0.00    -0.294 OA
ENDROOT
BRANCH   2  12
ATOM     12  C   UNL     1      11.355  -3.405  20.772  1.00  0.00    -0.007 A 
ATOM     13  C   UNL     1      12.370  -2.651  20.145  1.00  0.00     0.011 A 
ATOM     14  C   UNL     1      10.247  -2.724  21.310  1.00  0.00     0.011 A 
ATOM     15  C   UNL     1      12.264  -1.260  20.049  1.00  0.00     0.046 A 
ATOM     16  C   UNL     1      10.146  -1.334  21.212  1.00  0.00     0.046 A 
ATOM     17  C   UNL     1      11.151  -0.598  20.581  1.00  0.00     0.115 A 
BRANCH  17  18
ATOM     18  O   UNL     1      11.037   0.787  20.490  1.00  0.00    -0.508 OA
ATOM     19  H   UNL     1      11.422   1.300  19.705  1.00  0.00     0.293 HD
ENDBRANCH  17  18
ENDBRANCH   2  12
BRANCH   8  20
ATOM     20  O   UNL     1      11.497 -10.115  20.397  1.00  0.00    -0.507 OA
ATOM     21  H   UNL     1      12.286 -10.312  20.993  1.00  0.00     0.293 HD
ENDBRANCH   8  20
BRANCH   6  22
ATOM     22  O   UNL     1       6.989  -9.081  21.648  1.00  0.00    -0.508 OA
ATOM     23  H   UNL     1       6.693  -9.144  22.614  1.00  0.00     0.293 HD
ENDBRANCH   6  22
TORSDOF 4
ENDMDL
MODEL 3
REMARK VINA RESULT:    -5.094      1.707      6.879
REMARK INTER + INTRA:          -6.097
REMARK INTER:                  -5.816
REMARK INTRA:                  -0.281
REMARK UNBOUND:                -0.259
REMARK SMILES O=C1C[C@@H](c2ccc(O)cc2)Oc2cc(O)cc(O)c21
REMARK SMILES IDX 3 1 4 2 12 3 13 4 14 5 15 6 17 7 18 8 20 9 2 10 1 11 5 12
REMARK SMILES IDX 6 13 11 14 7 15 10 16 8 17 9 18 19 20 16 22
REMARK H PARENT 9 19 19 21 16 23
REMARK Flexibility Score: inf
ROOT
ATOM      1  C   UNL     1       9.592  -1.735  13.844  1.00  0.00     0.131 C 
ATOM      2  C   UNL     1       9.764  -0.284  14.323  1.00  0.00     0.211 C 
ATOM      3  O   UNL     1      10.690  -0.254  15.409  1.00  0.00    -0.484 OA
ATOM      4  C   UNL     1      11.903  -0.950  15.366  1.00  0.00     0.138 A 
ATOM      5  C   UNL     1      12.897  -0.629  16.292  1.00  0.00     0.093 A 
ATOM      6  C   UNL     1      14.129  -1.287  16.259  1.00  0.00     0.123 A 
ATOM      7  C   UNL     1      14.370  -2.257  15.286  1.00  0.00     0.093 A 
ATOM      8  C   UNL     1      13.390  -2.593  14.343  1.00  0.00     0.133 A 
ATOM      9  C   UNL     1      12.113  -1.966  14.405  1.00  0.00     0.102 A 
ATOM     10  C   UNL     1      10.935  -2.359  13.577  1.00  0.00     0.174 C 
ATOM     11  O   UNL     1      11.001  -3.281  12.724  1.00  0.00    -0.294 OA
ENDROOT
BRANCH   2  12
ATOM     12  C   UNL     1       8.483   0.419  14.738  1.00  0.00    -0.007 A 
ATOM     13  C   UNL     1       7.878   1.444  13.979  1.00  0.00     0.011 A 
ATOM     14  C   UNL     1       7.886   0.042  15.955  1.00  0.00     0.011 A 
ATOM     15  C   UNL     1       6.703   2.057  14.425  1.00  0.00     0.046 A 
ATOM     16  C   UNL     1       6.711   0.657  16.396  1.00  0.00     0.046 A 
ATOM     17  C   UNL     1       6.116   1.664  15.634  1.00  0.00     0.115 A 
BRANCH  17  18
ATOM     18  O   UNL     1       4.945   2.269  16.085  1.00  0.00    -0.508 OA
ATOM     19  H   UNL     1       4.733   3.237  15.873  1.00  0.00     0.293 HD
ENDBRANCH  17  18
ENDBRANCH   2  12
BRANCH   8  20
ATOM     20  O   UNL     1      13.746  -3.533  13.372  1.00  0.00    -0.507 OA
ATOM     21  H   UNL     1      14.020  -4.483  13.567  1.00  0.00     0.293 HD
ENDBRANCH   8  20
BRANCH   6  22
ATOM     22  O   UNL     1      15.125  -0.977  17.183  1.00  0.00    -0.508 OA
ATOM     23  H   UNL     1      15.505  -1.679  17.806  1.00  0.00     0.293 HD
ENDBRANCH   6  22
TORSDOF 4
ENDMDL
MODEL 4
REMARK VINA RESULT:    -5.048      6.758      9.796
REMARK INTER + INTRA:          -6.045
REMARK INTER:                  -5.755
REMARK INTRA:                  -0.290
REMARK UNBOUND:                -0.259
REMARK SMILES O=C1C[C@@H](c2ccc(O)cc2)Oc2cc(O)cc(O)c21
REMARK SMILES IDX 3 1 4 2 12 3 13 4 14 5 15 6 17 7 18 8 20 9 2 10 1 11 5 12
REMARK SMILES IDX 6 13 11 14 7 15 10 16 8 17 9 18 19 20 16 22
REMARK H PARENT 9 19 19 21 16 23
REMARK Flexibility Score: inf
ROOT
ATOM      1  C   UNL     1      13.127  -5.271  19.527  1.00  0.00     0.131 C 
ATOM      2  C   UNL     1      12.178  -4.766  20.627  1.00  0.00     0.211 C 
ATOM      3  O   UNL     1      10.981  -5.543  20.608  1.00  0.00    -0.484 OA
ATOM      4  C   UNL     1      11.007  -6.939  20.525  1.00  0.00     0.138 A 
ATOM      5  C   UNL     1       9.849  -7.655  20.838  1.00  0.00     0.093 A 
ATOM      6  C   UNL     1       9.850  -9.050  20.791  1.00  0.00     0.123 A 
ATOM      7  C   UNL     1      11.018  -9.731  20.444  1.00  0.00     0.093 A 
ATOM      8  C   UNL     1      12.192  -9.036  20.131  1.00  0.00     0.133 A 
ATOM      9  C   UNL     1      12.184  -7.611  20.124  1.00  0.00     0.102 A 
ATOM     10  C   UNL     1      13.310  -6.760  19.640  1.00  0.00     0.174 C 
ATOM     11  O   UNL     1      14.386  -7.259  19.219  1.00  0.00    -0.294 OA
ENDROOT
BRANCH   2  12
ATOM     12  C   UNL     1      11.819  -3.292  20.547  1.00  0.00    -0.007 A 
ATOM     13  C   UNL     1      12.646  -2.322  19.939  1.00  0.00     0.011 A 
ATOM     14  C   UNL     1      10.612  -2.871  21.134  1.00  0.00     0.011 A 
ATOM     15  C   UNL     1      12.261  -0.979  19.909  1.00  0.00     0.046 A 
ATOM     16  C   UNL     1      10.231  -1.527  21.103  1.00  0.00     0.046 A 
ATOM     17  C   UNL     1      11.052  -0.578  20.490  1.00  0.00     0.115 A 
BRANCH  17  18
ATOM     18  O   UNL     1      10.659   0.758  20.465  1.00  0.00    -0.508 OA
ATOM     19  H   UNL     1      10.466   1.237  19.593  1.00  0.00     0.293 HD
ENDBRANCH  17  18
ENDBRANCH   2  12
BRANCH   8  20
ATOM     20  O   UNL     1      13.325  -9.806  19.855  1.00  0.00    -0.507 OA
ATOM     21  H   UNL     1      13.306 -10.736  19.466  1.00  0.00     0.293 HD
ENDBRANCH   8  20
BRANCH   6  22
ATOM     22  O   UNL     1       8.698  -9.772  21.096  1.00  0.00    -0.508 OA
ATOM     23  H   UNL     1       8.100  -9.511  21.871  1.00  0.00     0.293 HD
ENDBRANCH   6  22
TORSDOF 4
ENDMDL
MODEL 5
REMARK VINA RESULT:    -4.639      9.495     10.901
REMARK INTER + INTRA:          -5.576
REMARK INTER:                  -5.307
REMARK INTRA:                  -0.269
REMARK UNBOUND:                -0.259
REMARK SMILES O=C1C[C@@H](c2ccc(O)cc2)Oc2cc(O)cc(O)c21
REMARK SMILES IDX 3 1 4 2 12 3 13 4 14 5 15 6 17 7 18 8 20 9 2 10 1 11 5 12
REMARK SMILES IDX 6 13 11 14 7 15 10 16 8 17 9 18 19 20 16 22
REMARK H PARENT 9 19 19 21 16 23
REMARK Flexibility Score: inf
ROOT
ATOM      1  C   UNL     1      11.839   8.648  16.976  1.00  0.00     0.131 C 
ATOM      2  C   UNL     1      13.010   9.315  17.717  1.00  0.00     0.211 C 
ATOM      3  O   UNL     1      14.195   9.190  16.931  1.00  0.00    -0.484 OA
ATOM      4  C   UNL     1      14.204   9.464  15.559  1.00  0.00     0.138 A 
ATOM      5  C   UNL     1      15.431   9.645  14.916  1.00  0.00     0.093 A 
ATOM      6  C   UNL     1      15.474   9.945  13.553  1.00  0.00     0.123 A 
ATOM      7  C   UNL     1      14.285  10.081  12.836  1.00  0.00     0.093 A 
ATOM      8  C   UNL     1      13.043   9.910  13.459  1.00  0.00     0.133 A 
ATOM      9  C   UNL     1      12.992   9.549  14.836  1.00  0.00     0.102 A 
ATOM     10  C   UNL     1      11.748   9.168  15.567  1.00  0.00     0.174 C 
ATOM     11  O   UNL     1      10.622   9.166  15.005  1.00  0.00    -0.294 OA
ENDROOT
BRANCH   2  12
ATOM     12  C   UNL     1      13.278   8.786  19.115  1.00  0.00    -0.007 A 
ATOM     13  C   UNL     1      13.958   9.525  20.108  1.00  0.00     0.011 A 
ATOM     14  C   UNL     1      12.848   7.483  19.424  1.00  0.00     0.011 A 
ATOM     15  C   UNL     1      14.181   8.974  21.373  1.00  0.00     0.046 A 
ATOM     16  C   UNL     1      13.074   6.936  20.690  1.00  0.00     0.046 A 
ATOM     17  C   UNL     1      13.739   7.679  21.668  1.00  0.00     0.115 A 
BRANCH  17  18
ATOM     18  O   UNL     1      13.957   7.122  22.926  1.00  0.00    -0.508 OA
ATOM     19  H   UNL     1      14.004   6.118  23.060  1.00  0.00     0.293 HD
ENDBRANCH  17  18
ENDBRANCH   2  12
BRANCH   8  20
ATOM     20  O   UNL     1      11.908  10.125  12.672  1.00  0.00    -0.507 OA
ATOM     21  H   UNL     1      11.194  10.809  12.870  1.00  0.00     0.293 HD
ENDBRANCH   8  20
BRANCH   6  22
ATOM     22  O   UNL     1      16.694  10.121  12.903  1.00  0.00    -0.508 OA
ATOM     23  H   UNL     1      16.937   9.582  12.081  1.00  0.00     0.293 HD
ENDBRANCH   6  22
TORSDOF 4
ENDMDL
MODEL 6
REMARK VINA RESULT:    -4.544     11.071     11.923
REMARK INTER + INTRA:          -5.468
REMARK INTER:                  -5.168
REMARK INTRA:                  -0.300
REMARK UNBOUND:                -0.259
REMARK SMILES O=C1C[C@@H](c2ccc(O)cc2)Oc2cc(O)cc(O)c21
REMARK SMILES IDX 3 1 4 2 12 3 13 4 14 5 15 6 17 7 18 8 20 9 2 10 1 11 5 12
REMARK SMILES IDX 6 13 11 14 7 15 10 16 8 17 9 18 19 20 16 22
REMARK H PARENT 9 19 19 21 16 23
REMARK Flexibility Score: inf
ROOT
ATOM      1  C   UNL     1      12.776   8.209  23.361  1.00  0.00     0.131 C 
ATOM      2  C   UNL     1      13.860   8.857  22.483  1.00  0.00     0.211 C 
ATOM      3  O   UNL     1      14.080   8.043  21.331  1.00  0.00    -0.484 OA
ATOM      4  C   UNL     1      13.020   7.525  20.578  1.00  0.00     0.138 A 
ATOM      5  C   UNL     1      13.283   7.025  19.301  1.00  0.00     0.093 A 
ATOM      6  C   UNL     1      12.243   6.524  18.514  1.00  0.00     0.123 A 
ATOM      7  C   UNL     1      10.936   6.541  19.001  1.00  0.00     0.093 A 
ATOM      8  C   UNL     1      10.647   7.042  20.276  1.00  0.00     0.133 A 
ATOM      9  C   UNL     1      11.709   7.503  21.106  1.00  0.00     0.102 A 
ATOM     10  C   UNL     1      11.557   7.893  22.538  1.00  0.00     0.174 C 
ATOM     11  O   UNL     1      10.441   7.867  23.119  1.00  0.00    -0.294 OA
ENDROOT
BRANCH   2  12
ATOM     12  C   UNL     1      15.187   9.116  23.175  1.00  0.00    -0.007 A 
ATOM     13  C   UNL     1      15.318   9.919  24.329  1.00  0.00     0.011 A 
ATOM     14  C   UNL     1      16.346   8.544  22.618  1.00  0.00     0.011 A 
ATOM     15  C   UNL     1      16.573  10.125  24.910  1.00  0.00     0.046 A 
ATOM     16  C   UNL     1      17.598   8.754  23.202  1.00  0.00     0.046 A 
ATOM     17  C   UNL     1      17.716   9.542  24.349  1.00  0.00     0.115 A 
BRANCH  17  18
ATOM     18  O   UNL     1      18.970   9.742  24.921  1.00  0.00    -0.508 OA
ATOM     19  H   UNL     1      19.074   9.961  25.906  1.00  0.00     0.293 HD
ENDBRANCH  17  18
ENDBRANCH   2  12
BRANCH   8  20
ATOM     20  O   UNL     1       9.302   7.072  20.651  1.00  0.00    -0.507 OA
ATOM     21  H   UNL     1       8.705   7.883  20.586  1.00  0.00     0.293 HD
ENDBRANCH   8  20
BRANCH   6  22
ATOM     22  O   UNL     1      12.497   6.018  17.241  1.00  0.00    -0.508 OA
ATOM     23  H   UNL     1      12.581   6.627  16.436  1.00  0.00     0.293 HD
ENDBRANCH   6  22
TORSDOF 4
ENDMDL
MODEL 7
REMARK VINA RESULT:    -4.491      1.373      3.232
REMARK INTER + INTRA:          -5.407
REMARK INTER:                  -5.156
REMARK INTRA:                  -0.251
REMARK UNBOUND:                -0.259
REMARK SMILES O=C1C[C@@H](c2ccc(O)cc2)Oc2cc(O)cc(O)c21
REMARK SMILES IDX 3 1 4 2 12 3 13 4 14 5 15 6 17 7 18 8 20 9 2 10 1 11 5 12
REMARK SMILES IDX 6 13 11 14 7 15 10 16 8 17 9 18 19 20 16 22
REMARK H PARENT 9 19 19 21 16 23
REMARK Flexibility Score: inf
ROOT
ATOM      1  C   UNL     1       9.777  -0.656  14.999  1.00  0.00     0.131 C 
ATOM      2  C   UNL     1      11.145   0.044  15.073  1.00  0.00     0.211 C 
ATOM      3  O   UNL     1      11.354   0.795  13.877  1.00  0.00    -0.484 OA
ATOM      4  C   UNL     1      10.360   1.620  13.339  1.00  0.00     0.138 A 
ATOM      5  C   UNL     1      10.718   2.567  12.377  1.00  0.00     0.093 A 
ATOM      6  C   UNL     1       9.755   3.423  11.839  1.00  0.00     0.123 A 
ATOM      7  C   UNL     1       8.432   3.340  12.278  1.00  0.00     0.093 A 
ATOM      8  C   UNL     1       8.050   2.402  13.245  1.00  0.00     0.133 A 
ATOM      9  C   UNL     1       9.016   1.489  13.758  1.00  0.00     0.102 A 
ATOM     10  C   UNL     1       8.701   0.337  14.652  1.00  0.00     0.174 C 
ATOM     11  O   UNL     1       7.530   0.104  15.048  1.00  0.00    -0.294 OA
ENDROOT
BRANCH   2  12
ATOM     12  C   UNL     1      12.332  -0.875  15.301  1.00  0.00    -0.007 A 
ATOM     13  C   UNL     1      12.653  -1.957  14.452  1.00  0.00     0.011 A 
ATOM     14  C   UNL     1      13.137  -0.649  16.433  1.00  0.00     0.011 A 
ATOM     15  C   UNL     1      13.755  -2.771  14.726  1.00  0.00     0.046 A 
ATOM     16  C   UNL     1      14.238  -1.466  16.703  1.00  0.00     0.046 A 
ATOM     17  C   UNL     1      14.551  -2.527  15.852  1.00  0.00     0.115 A 
BRANCH  17  18
ATOM     18  O   UNL     1      15.652  -3.333  16.132  1.00  0.00    -0.508 OA
ATOM     19  H   UNL     1      16.586  -3.079  15.830  1.00  0.00     0.293 HD
ENDBRANCH  17  18
ENDBRANCH   2  12
BRANCH   8  20
ATOM     20  O   UNL     1       6.717   2.436  13.663  1.00  0.00    -0.507 OA
ATOM     21  H   UNL     1       6.358   1.957  14.474  1.00  0.00     0.293 HD
ENDBRANCH   8  20
BRANCH   6  22
ATOM     22  O   UNL     1      10.102   4.367  10.875  1.00  0.00    -0.508 OA
ATOM     23  H   UNL     1      10.505   4.092   9.988  1.00  0.00     0.293 HD
ENDBRANCH   6  22
TORSDOF 4
ENDMDL
MODEL 8
REMARK VINA RESULT:    -4.471      8.408     10.852
REMARK INTER + INTRA:          -5.383
REMARK INTER:                  -5.089
REMARK INTRA:                  -0.294
REMARK UNBOUND:                -0.259
REMARK SMILES O=C1C[C@@H](c2ccc(O)cc2)Oc2cc(O)cc(O)c21
REMARK SMILES IDX 3 1 4 2 12 3 13 4 14 5 15 6 17 7 18 8 20 9 2 10 1 11 5 12
REMARK SMILES IDX 6 13 11 14 7 15 10 16 8 17 9 18 19 20 16 22
REMARK H PARENT 9 19 19 21 16 23
REMARK Flexibility Score: inf
ROOT
ATOM      1  C   UNL     1      10.911  -8.387  20.751  1.00  0.00     0.131 C 
ATOM      2  C   UNL     1       9.563  -7.683  20.522  1.00  0.00     0.211 C 
ATOM      3  O   UNL     1       9.644  -6.343  21.008  1.00  0.00    -0.484 OA
ATOM      4  C   UNL     1      10.735  -5.516  20.717  1.00  0.00     0.138 A 
ATOM      5  C   UNL     1      10.615  -4.142  20.931  1.00  0.00     0.093 A 
ATOM      6  C   UNL     1      11.675  -3.286  20.627  1.00  0.00     0.123 A 
ATOM      7  C   UNL     1      12.854  -3.807  20.092  1.00  0.00     0.093 A 
ATOM      8  C   UNL     1      12.997  -5.181  19.863  1.00  0.00     0.133 A 
ATOM      9  C   UNL     1      11.939  -6.066  20.222  1.00  0.00     0.102 A 
ATOM     10  C   UNL     1      12.035  -7.555  20.195  1.00  0.00     0.174 C 
ATOM     11  O   UNL     1      13.078  -8.147  19.814  1.00  0.00    -0.294 OA
ENDROOT
BRANCH   2  12
ATOM     12  C   UNL     1       8.359  -8.369  21.145  1.00  0.00    -0.007 A 
ATOM     13  C   UNL     1       7.620  -9.381  20.496  1.00  0.00     0.011 A 
ATOM     14  C   UNL     1       7.948  -7.952  22.425  1.00  0.00     0.011 A 
ATOM     15  C   UNL     1       6.514  -9.964  21.122  1.00  0.00     0.046 A 
ATOM     16  C   UNL     1       6.842  -8.537  23.046  1.00  0.00     0.046 A 
ATOM     17  C   UNL     1       6.123  -9.545  22.399  1.00  0.00     0.115 A 
BRANCH  17  18
ATOM     18  O   UNL     1       5.023 -10.120  23.031  1.00  0.00    -0.508 OA
ATOM     19  H   UNL     1       4.900 -10.064  24.036  1.00  0.00     0.293 HD
ENDBRANCH  17  18
ENDBRANCH   2  12
BRANCH   8  20
ATOM     20  O   UNL     1      14.190  -5.600  19.269  1.00  0.00    -0.507 OA
ATOM     21  H   UNL     1      14.251  -6.103  18.397  1.00  0.00     0.293 HD
ENDBRANCH   8  20
BRANCH   6  22
ATOM     22  O   UNL     1      11.566  -1.914  20.843  1.00  0.00    -0.508 OA
ATOM     23  H   UNL     1      12.119  -1.250  20.315  1.00  0.00     0.293 HD
ENDBRANCH   6  22
TORSDOF 4
ENDMDL
MODEL 9
REMARK VINA RESULT:    -4.405      6.207     10.961
REMARK INTER + INTRA:          -5.308
REMARK INTER:                  -5.060
REMARK INTRA:                  -0.248
REMARK UNBOUND:                -0.259
REMARK SMILES O=C1C[C@@H](c2ccc(O)cc2)Oc2cc(O)cc(O)c21
REMARK SMILES IDX 3 1 4 2 12 3 13 4 14 5 15 6 17 7 18 8 20 9 2 10 1 11 5 12
REMARK SMILES IDX 6 13 11 14 7 15 10 16 8 17 9 18 19 20 16 22
REMARK H PARENT 9 19 19 21 16 23
REMARK Flexibility Score: inf
ROOT
ATOM      1  C   UNL     1      12.446  -6.021  20.193  1.00  0.00     0.131 C 
ATOM      2  C   UNL     1      13.266  -4.722  20.114  1.00  0.00     0.211 C 
ATOM      3  O   UNL     1      14.256  -4.729  21.142  1.00  0.00    -0.484 OA
ATOM      4  C   UNL     1      15.054  -5.850  21.393  1.00  0.00     0.138 A 
ATOM      5  C   UNL     1      16.206  -5.698  22.167  1.00  0.00     0.093 A 
ATOM      6  C   UNL     1      17.037  -6.792  22.415  1.00  0.00     0.123 A 
ATOM      7  C   UNL     1      16.722  -8.038  21.871  1.00  0.00     0.093 A 
ATOM      8  C   UNL     1      15.576  -8.215  21.087  1.00  0.00     0.133 A 
ATOM      9  C   UNL     1      14.694  -7.116  20.876  1.00  0.00     0.102 A 
ATOM     10  C   UNL     1      13.360  -7.215  20.214  1.00  0.00     0.174 C 
ATOM     11  O   UNL     1      12.924  -8.304  19.759  1.00  0.00    -0.294 OA
ENDROOT
BRANCH   2  12
ATOM     12  C   UNL     1      12.458  -3.439  20.204  1.00  0.00    -0.007 A 
ATOM     13  C   UNL     1      11.270  -3.319  20.957  1.00  0.00     0.011 A 
ATOM     14  C   UNL     1      12.908  -2.321  19.476  1.00  0.00     0.011 A 
ATOM     15  C   UNL     1      10.570  -2.110  20.989  1.00  0.00     0.046 A 
ATOM     16  C   UNL     1      12.204  -1.115  19.510  1.00  0.00     0.046 A 
ATOM     17  C   UNL     1      11.035  -1.005  20.266  1.00  0.00     0.115 A 
BRANCH  17  18
ATOM     18  O   UNL     1      10.343   0.204  20.292  1.00  0.00    -0.508 OA
ATOM     19  H   UNL     1      10.207   0.719  21.155  1.00  0.00     0.293 HD
ENDBRANCH  17  18
ENDBRANCH   2  12
BRANCH   8  20
ATOM     20  O   UNL     1      15.377  -9.484  20.538  1.00  0.00    -0.507 OA
ATOM     21  H   UNL     1      15.117 -10.303  21.065  1.00  0.00     0.293 HD
ENDBRANCH   8  20
BRANCH   6  22
ATOM     22  O   UNL     1      18.185  -6.651  23.191  1.00  0.00    -0.508 OA
ATOM     23  H   UNL     1      18.736  -7.453  23.472  1.00  0.00     0.293 HD
ENDBRANCH   6  22
TORSDOF 4
ENDMDL
