MODEL 1
REMARK VINA RESULT:    12.107      0.000      0.000
REMARK INTER + INTRA:          26.513
REMARK INTER:                  26.263
REMARK INTRA:                   0.250
REMARK UNBOUND:                 0.250
REMARK SMILES CCCCCCCCCCCCCCCCCCCCCC(=O)[O-]
REMARK SMILES IDX 12 1 11 2 10 3 9 4 8 5 7 6 6 7 5 8 4 9 3 10 2 11 1 12 13 13
REMARK SMILES IDX 14 14 15 15 16 16 17 17 18 18 19 19 20 20 21 21 22 22 23 23
REMARK SMILES IDX 24 24
REMARK H PARENT
REMARK Flexibility Score: inf
ROOT
ATOM      1  C   UNL     1      26.492  43.352   4.195  1.00  0.00     0.000 C 
ENDROOT
BRANCH   1   2
ATOM      2  C   UNL     1      25.048  43.384   3.649  1.00  0.00     0.000 C 
BRANCH   2   3
ATOM      3  C   UNL     1      24.872  42.618   2.326  1.00  0.00     0.000 C 
BRANCH   3   4
ATOM      4  C   UNL     1      23.490  41.950   2.223  1.00  0.00    -0.000 C 
BRANCH   4   5
ATOM      5  C   UNL     1      22.446  42.618   3.133  1.00  0.00    -0.000 C 
BRANCH   5   6
ATOM      6  C   UNL     1      22.780  42.538   4.639  1.00  0.00    -0.000 C 
BRANCH   6   7
ATOM      7  C   UNL     1      22.956  41.105   5.198  1.00  0.00    -0.000 C 
BRANCH   7   8
ATOM      8  C   UNL     1      24.370  40.762   5.712  1.00  0.00    -0.000 C 
BRANCH   8   9
ATOM      9  C   UNL     1      24.419  39.629   6.756  1.00  0.00    -0.000 C 
BRANCH   9  10
ATOM     10  C   UNL     1      25.855  39.234   7.136  1.00  0.00    -0.000 C 
BRANCH  10  11
ATOM     11  C   UNL     1      26.300  37.982   6.368  1.00  0.00    -0.003 C 
ATOM     12  C   UNL     1      25.119  37.314   5.668  1.00  0.00     0.004 C 
ENDBRANCH  10  11
ENDBRANCH   9  10
ENDBRANCH   8   9
ENDBRANCH   7   8
ENDBRANCH   6   7
ENDBRANCH   5   6
ENDBRANCH   4   5
ENDBRANCH   3   4
ENDBRANCH   2   3
ENDBRANCH   1   2
BRANCH   1  13
ATOM     13  C   UNL     1      26.669  44.153   5.505  1.00  0.00     0.000 C 
BRANCH  13  14
ATOM     14  C   UNL     1      27.366  45.505   5.275  1.00  0.00     0.000 C 
BRANCH  14  15
ATOM     15  C   UNL     1      27.855  45.654   3.817  1.00  0.00     0.000 C 
BRANCH  15  16
ATOM     16  C   UNL     1      29.008  44.704   3.458  1.00  0.00     0.000 C 
BRANCH  16  17
ATOM     17  C   UNL     1      29.456  44.837   1.992  1.00  0.00     0.000 C 
BRANCH  17  18
ATOM     18  C   UNL     1      29.503  43.491   1.251  1.00  0.00     0.000 C 
BRANCH  18  19
ATOM     19  C   UNL     1      30.467  43.478   0.045  1.00  0.00     0.000 C 
BRANCH  19  20
ATOM     20  C   UNL     1      30.131  42.352  -0.954  1.00  0.00     0.006 C 
BRANCH  20  21
ATOM     21  C   UNL     1      29.785  42.892  -2.349  1.00  0.00     0.053 C 
BRANCH  21  22
ATOM     22  C   UNL     1      28.858  41.972  -3.086  1.00  0.00     0.041 C 
ATOM     23  O   UNL     1      27.936  41.372  -2.470  1.00  0.00    -0.550 OA
ATOM     24  O   UNL     1      29.004  41.784  -4.455  1.00  0.00    -0.550 OA
ENDBRANCH  21  22
ENDBRANCH  20  21
ENDBRANCH  19  20
ENDBRANCH  18  19
ENDBRANCH  17  18
ENDBRANCH  16  17
ENDBRANCH  15  16
ENDBRANCH  14  15
ENDBRANCH  13  14
ENDBRANCH   1  13
TORSDOF 20
ENDMDL
MODEL 2
REMARK VINA RESULT:    12.979      0.868      1.413
REMARK INTER + INTRA:          28.404
REMARK INTER:                  29.365
REMARK INTRA:                  -0.961
REMARK UNBOUND:                 0.250
REMARK SMILES CCCCCCCCCCCCCCCCCCCCCC(=O)[O-]
REMARK SMILES IDX 12 1 11 2 10 3 9 4 8 5 7 6 6 7 5 8 4 9 3 10 2 11 1 12 13 13
REMARK SMILES IDX 14 14 15 15 16 16 17 17 18 18 19 19 20 20 21 21 22 22 23 23
REMARK SMILES IDX 24 24
REMARK H PARENT
REMARK Flexibility Score: inf
ROOT
ATOM      1  C   UNL     1      26.118  43.263   3.241  1.00  0.00     0.000 C 
ENDROOT
BRANCH   1   2
ATOM      2  C   UNL     1      24.853  43.598   2.420  1.00  0.00     0.000 C 
BRANCH   2   3
ATOM      3  C   UNL     1      23.964  42.375   2.131  1.00  0.00     0.000 C 
BRANCH   3   4
ATOM      4  C   UNL     1      22.630  42.437   2.895  1.00  0.00    -0.000 C 
BRANCH   4   5
ATOM      5  C   UNL     1      22.828  42.584   4.413  1.00  0.00    -0.000 C 
BRANCH   5   6
ATOM      6  C   UNL     1      23.066  41.247   5.148  1.00  0.00    -0.000 C 
BRANCH   6   7
ATOM      7  C   UNL     1      24.550  40.832   5.294  1.00  0.00    -0.000 C 
BRANCH   7   8
ATOM      8  C   UNL     1      24.897  39.418   4.782  1.00  0.00    -0.000 C 
BRANCH   8   9
ATOM      9  C   UNL     1      25.043  38.351   5.886  1.00  0.00    -0.000 C 
BRANCH   9  10
ATOM     10  C   UNL     1      26.478  38.248   6.426  1.00  0.00    -0.000 C 
BRANCH  10  11
ATOM     11  C   UNL     1      26.553  38.734   7.880  1.00  0.00    -0.003 C 
ATOM     12  C   UNL     1      25.238  39.377   8.316  1.00  0.00     0.004 C 
ENDBRANCH  10  11
ENDBRANCH   9  10
ENDBRANCH   8   9
ENDBRANCH   7   8
ENDBRANCH   6   7
ENDBRANCH   5   6
ENDBRANCH   4   5
ENDBRANCH   3   4
ENDBRANCH   2   3
ENDBRANCH   1   2
BRANCH   1  13
ATOM     13  C   UNL     1      25.984  43.615   4.740  1.00  0.00     0.000 C 
BRANCH  13  14
ATOM     14  C   UNL     1      27.045  44.631   5.199  1.00  0.00     0.000 C 
BRANCH  14  15
ATOM     15  C   UNL     1      27.781  45.269   3.999  1.00  0.00     0.000 C 
BRANCH  15  16
ATOM     16  C   UNL     1      29.007  44.468   3.537  1.00  0.00     0.000 C 
BRANCH  16  17
ATOM     17  C   UNL     1      29.389  44.753   2.075  1.00  0.00     0.000 C 
BRANCH  17  18
ATOM     18  C   UNL     1      29.515  43.478   1.224  1.00  0.00     0.000 C 
BRANCH  18  19
ATOM     19  C   UNL     1      30.608  43.562   0.136  1.00  0.00     0.000 C 
BRANCH  19  20
ATOM     20  C   UNL     1      30.510  42.400  -0.874  1.00  0.00     0.006 C 
BRANCH  20  21
ATOM     21  C   UNL     1      29.166  42.380  -1.616  1.00  0.00     0.053 C 
BRANCH  21  22
ATOM     22  C   UNL     1      29.350  42.452  -3.102  1.00  0.00     0.041 C 
ATOM     23  O   UNL     1      30.260  43.173  -3.594  1.00  0.00    -0.550 OA
ATOM     24  O   UNL     1      28.527  41.716  -3.943  1.00  0.00    -0.550 OA
ENDBRANCH  21  22
ENDBRANCH  20  21
ENDBRANCH  19  20
ENDBRANCH  18  19
ENDBRANCH  17  18
ENDBRANCH  16  17
ENDBRANCH  15  16
ENDBRANCH  14  15
ENDBRANCH  13  14
ENDBRANCH   1  13
TORSDOF 20
ENDMDL
MODEL 3
REMARK VINA RESULT:    12.980      3.063      8.261
REMARK INTER + INTRA:          28.407
REMARK INTER:                  28.379
REMARK INTRA:                   0.027
REMARK UNBOUND:                 0.250
REMARK SMILES CCCCCCCCCCCCCCCCCCCCCC(=O)[O-]
REMARK SMILES IDX 12 1 11 2 10 3 9 4 8 5 7 6 6 7 5 8 4 9 3 10 2 11 1 12 13 13
REMARK SMILES IDX 14 14 15 15 16 16 17 17 18 18 19 19 20 20 21 21 22 22 23 23
REMARK SMILES IDX 24 24
REMARK H PARENT
REMARK Flexibility Score: inf
ROOT
ATOM      1  C   UNL     1      25.972  43.250   4.582  1.00  0.00     0.000 C 
ENDROOT
BRANCH   1   2
ATOM      2  C   UNL     1      27.107  44.005   5.308  1.00  0.00     0.000 C 
BRANCH   2   3
ATOM      3  C   UNL     1      27.158  45.507   4.975  1.00  0.00     0.000 C 
BRANCH   3   4
ATOM      4  C   UNL     1      28.300  45.845   4.002  1.00  0.00    -0.000 C 
BRANCH   4   5
ATOM      5  C   UNL     1      28.978  44.588   3.431  1.00  0.00    -0.000 C 
BRANCH   5   6
ATOM      6  C   UNL     1      29.442  44.733   1.966  1.00  0.00    -0.000 C 
BRANCH   6   7
ATOM      7  C   UNL     1      29.576  43.404   1.183  1.00  0.00    -0.000 C 
BRANCH   7   8
ATOM      8  C   UNL     1      30.652  43.391   0.077  1.00  0.00    -0.000 C 
BRANCH   8   9
ATOM      9  C   UNL     1      30.331  42.480  -1.124  1.00  0.00    -0.000 C 
BRANCH   9  10
ATOM     10  C   UNL     1      29.615  43.227  -2.261  1.00  0.00    -0.000 C 
BRANCH  10  11
ATOM     11  C   UNL     1      29.326  42.286  -3.439  1.00  0.00    -0.003 C 
ATOM     12  C   UNL     1      28.097  41.422  -3.166  1.00  0.00     0.004 C 
ENDBRANCH  10  11
ENDBRANCH   9  10
ENDBRANCH   8   9
ENDBRANCH   7   8
ENDBRANCH   6   7
ENDBRANCH   5   6
ENDBRANCH   4   5
ENDBRANCH   3   4
ENDBRANCH   2   3
ENDBRANCH   1   2
BRANCH   1  13
ATOM     13  C   UNL     1      25.986  43.452   3.050  1.00  0.00     0.000 C 
BRANCH  13  14
ATOM     14  C   UNL     1      24.568  43.516   2.455  1.00  0.00     0.000 C 
BRANCH  14  15
ATOM     15  C   UNL     1      24.068  42.119   2.022  1.00  0.00     0.000 C 
BRANCH  15  16
ATOM     16  C   UNL     1      22.556  41.925   2.211  1.00  0.00     0.000 C 
BRANCH  16  17
ATOM     17  C   UNL     1      22.045  42.484   3.550  1.00  0.00     0.000 C 
BRANCH  17  18
ATOM     18  C   UNL     1      23.098  42.427   4.669  1.00  0.00     0.000 C 
BRANCH  18  19
ATOM     19  C   UNL     1      23.091  41.103   5.463  1.00  0.00     0.000 C 
BRANCH  19  20
ATOM     20  C   UNL     1      24.516  40.633   5.820  1.00  0.00     0.006 C 
BRANCH  20  21
ATOM     21  C   UNL     1      24.517  39.481   6.834  1.00  0.00     0.053 C 
BRANCH  21  22
ATOM     22  C   UNL     1      25.684  38.562   6.631  1.00  0.00     0.041 C 
ATOM     23  O   UNL     1      26.701  38.654   7.370  1.00  0.00    -0.550 OA
ATOM     24  O   UNL     1      25.645  37.597   5.633  1.00  0.00    -0.550 OA
ENDBRANCH  21  22
ENDBRANCH  20  21
ENDBRANCH  19  20
ENDBRANCH  18  19
ENDBRANCH  17  18
ENDBRANCH  16  17
ENDBRANCH  15  16
ENDBRANCH  14  15
ENDBRANCH  13  14
ENDBRANCH   1  13
TORSDOF 20
ENDMDL
MODEL 4
REMARK VINA RESULT:    13.807      3.948      7.746
REMARK INTER + INTRA:          30.200
REMARK INTER:                  31.178
REMARK INTRA:                  -0.979
REMARK UNBOUND:                 0.250
REMARK SMILES CCCCCCCCCCCCCCCCCCCCCC(=O)[O-]
REMARK SMILES IDX 12 1 11 2 10 3 9 4 8 5 7 6 6 7 5 8 4 9 3 10 2 11 1 12 13 13
REMARK SMILES IDX 14 14 15 15 16 16 17 17 18 18 19 19 20 20 21 21 22 22 23 23
REMARK SMILES IDX 24 24
REMARK H PARENT
REMARK Flexibility Score: inf
ROOT
ATOM      1  C   UNL     1      26.887  43.948   4.656  1.00  0.00     0.000 C 
ENDROOT
BRANCH   1   2
ATOM      2  C   UNL     1      28.130  44.156   3.762  1.00  0.00     0.000 C 
BRANCH   2   3
ATOM      3  C   UNL     1      28.626  45.613   3.726  1.00  0.00     0.000 C 
BRANCH   3   4
ATOM      4  C   UNL     1      27.603  46.587   4.336  1.00  0.00    -0.000 C 
BRANCH   4   5
ATOM      5  C   UNL     1      28.221  47.487   5.418  1.00  0.00    -0.000 C 
BRANCH   5   6
ATOM      6  C   UNL     1      27.422  47.523   6.739  1.00  0.00    -0.000 C 
BRANCH   6   7
ATOM      7  C   UNL     1      26.366  46.402   6.899  1.00  0.00    -0.000 C 
BRANCH   7   8
ATOM      8  C   UNL     1      25.605  46.394   8.241  1.00  0.00    -0.000 C 
BRANCH   8   9
ATOM      9  C   UNL     1      24.208  47.046   8.193  1.00  0.00    -0.000 C 
BRANCH   9  10
ATOM     10  C   UNL     1      23.168  46.283   9.029  1.00  0.00    -0.000 C 
BRANCH  10  11
ATOM     11  C   UNL     1      23.836  45.556  10.205  1.00  0.00    -0.003 C 
ATOM     12  C   UNL     1      22.954  45.595  11.450  1.00  0.00     0.004 C 
ENDBRANCH  10  11
ENDBRANCH   9  10
ENDBRANCH   8   9
ENDBRANCH   7   8
ENDBRANCH   6   7
ENDBRANCH   5   6
ENDBRANCH   4   5
ENDBRANCH   3   4
ENDBRANCH   2   3
ENDBRANCH   1   2
BRANCH   1  13
ATOM     13  C   UNL     1      25.865  42.954   4.059  1.00  0.00     0.000 C 
BRANCH  13  14
ATOM     14  C   UNL     1      24.987  43.599   2.972  1.00  0.00     0.000 C 
BRANCH  14  15
ATOM     15  C   UNL     1      24.317  42.534   2.075  1.00  0.00     0.000 C 
BRANCH  15  16
ATOM     16  C   UNL     1      23.063  41.907   2.701  1.00  0.00     0.000 C 
BRANCH  16  17
ATOM     17  C   UNL     1      22.639  42.599   4.007  1.00  0.00     0.000 C 
BRANCH  17  18
ATOM     18  C   UNL     1      22.712  41.673   5.233  1.00  0.00     0.000 C 
BRANCH  18  19
ATOM     19  C   UNL     1      24.091  41.007   5.428  1.00  0.00     0.000 C 
BRANCH  19  20
ATOM     20  C   UNL     1      24.027  39.818   6.409  1.00  0.00     0.006 C 
BRANCH  20  21
ATOM     21  C   UNL     1      25.325  39.650   7.210  1.00  0.00     0.053 C 
BRANCH  21  22
ATOM     22  C   UNL     1      26.117  38.466   6.742  1.00  0.00     0.041 C 
ATOM     23  O   UNL     1      25.831  37.902   5.651  1.00  0.00    -0.550 OA
ATOM     24  O   UNL     1      27.178  37.991   7.502  1.00  0.00    -0.550 OA
ENDBRANCH  21  22
ENDBRANCH  20  21
ENDBRANCH  19  20
ENDBRANCH  18  19
ENDBRANCH  17  18
ENDBRANCH  16  17
ENDBRANCH  15  16
ENDBRANCH  14  15
ENDBRANCH  13  14
ENDBRANCH   1  13
TORSDOF 20
ENDMDL
