MODEL 1
REMARK VINA RESULT:     9.208      0.000      0.000
REMARK INTER + INTRA:          11.877
REMARK INTER:                  11.899
REMARK INTRA:                  -0.022
REMARK UNBOUND:                -0.022
REMARK SMILES CCO[C@H]1O[C@@H](CO)[C@H](O)[C@H](O)[C@@H]1O
REMARK SMILES IDX 4 1 13 2 11 3 9 4 6 5 5 6 3 7 2 8 1 9 14 10 12 12 7 14 8 15
REMARK SMILES IDX 10 17
REMARK H PARENT 14 11 12 13 8 16 10 18
REMARK Flexibility Score: inf
ROOT
ATOM      1  C   UNL     1      93.675 117.990 112.726  1.00  0.00     0.281 C 
ATOM      2  C   UNL     1      93.689 119.379 112.029  1.00  0.00     0.202 C 
ATOM      3  C   UNL     1      93.645 119.233 110.488  1.00  0.00     0.179 C 
ATOM      4  C   UNL     1      94.399 117.976 110.006  1.00  0.00     0.177 C 
ATOM      5  C   UNL     1      93.940 116.704 110.794  1.00  0.00     0.178 C 
ATOM      6  O   UNL     1      93.086 117.006 111.889  1.00  0.00    -0.341 OA
ENDROOT
BRANCH   1   7
ATOM      7  O   UNL     1      93.020 118.057 113.985  1.00  0.00    -0.350 OA
BRANCH   7   8
ATOM      8  C   UNL     1      93.867 117.723 115.073  1.00  0.00     0.160 C 
ATOM      9  C   UNL     1      95.324 117.778 114.630  1.00  0.00     0.035 C 
ENDBRANCH   7   8
ENDBRANCH   1   7
BRANCH   2  10
ATOM     10  O   UNL     1      94.793 120.142 112.457  1.00  0.00    -0.385 OA
ATOM     11  H   UNL     1      95.526 120.016 111.803  1.00  0.00     0.211 HD
ENDBRANCH   2  10
BRANCH   3  12
ATOM     12  O   UNL     1      94.160 120.389 109.877  1.00  0.00    -0.387 OA
ATOM     13  H   UNL     1      93.397 120.839 109.426  1.00  0.00     0.211 HD
ENDBRANCH   3  12
BRANCH   5  14
ATOM     14  C   UNL     1      93.210 115.716 109.876  1.00  0.00     0.191 C 
BRANCH  14  15
ATOM     15  O   UNL     1      92.876 114.553 110.583  1.00  0.00    -0.394 OA
ATOM     16  H   UNL     1      93.079 114.742 111.535  1.00  0.00     0.210 HD
ENDBRANCH  14  15
ENDBRANCH   5  14
BRANCH   4  17
ATOM     17  O   UNL     1      95.782 118.166 110.161  1.00  0.00    -0.387 OA
ATOM     18  H   UNL     1      96.225 117.650 109.439  1.00  0.00     0.211 HD
ENDBRANCH   4  17
TORSDOF 7
ENDMDL
MODEL 2
REMARK VINA RESULT:     9.398      1.337      3.543
REMARK INTER + INTRA:          12.122
REMARK INTER:                  11.203
REMARK INTRA:                   0.919
REMARK UNBOUND:                -0.022
REMARK SMILES CCO[C@H]1O[C@@H](CO)[C@H](O)[C@H](O)[C@@H]1O
REMARK SMILES IDX 4 1 13 2 11 3 9 4 6 5 5 6 3 7 2 8 1 9 14 10 12 12 7 14 8 15
REMARK SMILES IDX 10 17
REMARK H PARENT 14 11 12 13 8 16 10 18
REMARK Flexibility Score: inf
ROOT
ATOM      1  C   UNL     1      93.463 118.238 113.089  1.00  0.00     0.281 C 
ATOM      2  C   UNL     1      93.957 117.123 112.125  1.00  0.00     0.202 C 
ATOM      3  C   UNL     1      94.804 117.714 110.972  1.00  0.00     0.179 C 
ATOM      4  C   UNL     1      94.308 119.113 110.550  1.00  0.00     0.177 C 
ATOM      5  C   UNL     1      94.149 120.055 111.791  1.00  0.00     0.178 C 
ATOM      6  O   UNL     1      94.310 119.376 113.028  1.00  0.00    -0.341 OA
ENDROOT
BRANCH   1   7
ATOM      7  O   UNL     1      93.346 117.750 114.418  1.00  0.00    -0.350 OA
BRANCH   7   8
ATOM      8  C   UNL     1      94.437 118.120 115.246  1.00  0.00     0.160 C 
ATOM      9  C   UNL     1      95.749 117.723 114.581  1.00  0.00     0.035 C 
ENDBRANCH   7   8
ENDBRANCH   1   7
BRANCH   2  10
ATOM     10  O   UNL     1      92.875 116.358 111.650  1.00  0.00    -0.385 OA
ATOM     11  H   UNL     1      92.056 116.659 112.119  1.00  0.00     0.211 HD
ENDBRANCH   2  10
BRANCH   3  12
ATOM     12  O   UNL     1      94.810 116.836 109.875  1.00  0.00    -0.387 OA
ATOM     13  H   UNL     1      95.426 117.225 109.199  1.00  0.00     0.211 HD
ENDBRANCH   3  12
BRANCH   5  14
ATOM     14  C   UNL     1      95.158 121.209 111.743  1.00  0.00     0.191 C 
BRANCH  14  15
ATOM     15  O   UNL     1      94.487 122.437 111.661  1.00  0.00    -0.394 OA
ATOM     16  H   UNL     1      93.542 122.220 111.452  1.00  0.00     0.210 HD
ENDBRANCH  14  15
ENDBRANCH   5  14
BRANCH   4  17
ATOM     17  O   UNL     1      93.081 118.996 109.875  1.00  0.00    -0.387 OA
ATOM     18  H   UNL     1      92.589 119.845 110.026  1.00  0.00     0.211 HD
ENDBRANCH   4  17
TORSDOF 7
ENDMDL
MODEL 3
REMARK VINA RESULT:    12.155      1.839      3.978
REMARK INTER + INTRA:          15.686
REMARK INTER:                  15.828
REMARK INTRA:                  -0.142
REMARK UNBOUND:                -0.022
REMARK SMILES CCO[C@H]1O[C@@H](CO)[C@H](O)[C@H](O)[C@@H]1O
REMARK SMILES IDX 4 1 13 2 11 3 9 4 6 5 5 6 3 7 2 8 1 9 14 10 12 12 7 14 8 15
REMARK SMILES IDX 10 17
REMARK H PARENT 14 11 12 13 8 16 10 18
REMARK Flexibility Score: inf
ROOT
ATOM      1  C   UNL     1      94.672 119.631 111.647  1.00  0.00     0.281 C 
ATOM      2  C   UNL     1      94.391 118.591 110.527  1.00  0.00     0.202 C 
ATOM      3  C   UNL     1      93.627 117.363 111.081  1.00  0.00     0.179 C 
ATOM      4  C   UNL     1      94.039 117.034 112.531  1.00  0.00     0.177 C 
ATOM      5  C   UNL     1      93.973 118.307 113.441  1.00  0.00     0.178 C 
ATOM      6  O   UNL     1      93.737 119.501 112.708  1.00  0.00    -0.341 OA
ENDROOT
BRANCH   1   7
ATOM      7  O   UNL     1      94.684 120.952 111.126  1.00  0.00    -0.350 OA
BRANCH   7   8
ATOM      8  C   UNL     1      94.621 121.949 112.133  1.00  0.00     0.160 C 
ATOM      9  C   UNL     1      95.579 123.086 111.796  1.00  0.00     0.035 C 
ENDBRANCH   7   8
ENDBRANCH   1   7
BRANCH   2  10
ATOM     10  O   UNL     1      95.583 118.223 109.876  1.00  0.00    -0.385 OA
ATOM     11  H   UNL     1      95.883 118.991 109.326  1.00  0.00     0.211 HD
ENDBRANCH   2  10
BRANCH   3  12
ATOM     12  O   UNL     1      93.823 116.252 110.243  1.00  0.00    -0.387 OA
ATOM     13  H   UNL     1      94.485 116.525 109.555  1.00  0.00     0.211 HD
ENDBRANCH   3  12
BRANCH   5  14
ATOM     14  C   UNL     1      92.875 118.173 114.503  1.00  0.00     0.191 C 
BRANCH  14  15
ATOM     15  O   UNL     1      93.440 117.863 115.748  1.00  0.00    -0.394 OA
ATOM     16  H   UNL     1      92.970 118.431 116.412  1.00  0.00     0.210 HD
ENDBRANCH  14  15
ENDBRANCH   5  14
BRANCH   4  17
ATOM     17  O   UNL     1      95.338 116.500 112.545  1.00  0.00    -0.387 OA
ATOM     18  H   UNL     1      95.777 116.793 111.704  1.00  0.00     0.211 HD
ENDBRANCH   4  17
TORSDOF 7
ENDMDL
