MODEL 1
REMARK VINA RESULT:    -5.958      0.000      0.000
REMARK INTER + INTRA:          -7.291
REMARK INTER:                  -7.177
REMARK INTRA:                  -0.114
REMARK UNBOUND:                -0.114
REMARK SMILES O=c1c(O)c(-c2ccc(O)c(O)c2)oc2cc(O)cc(O)c12
REMARK SMILES IDX 5 1 3 2 2 3 1 4 22 5 20 6 19 7 17 8 16 9 15 10 14 11 6 12
REMARK SMILES IDX 7 13 8 14 9 15 13 16 11 17 10 18 12 20 4 22 21 24 18 26
REMARK H PARENT 10 19 12 21 4 23 21 25 18 27
REMARK Flexibility Score: inf
ROOT
ATOM      1  C   UNL     1      25.057  29.542   6.090  1.00  0.00     0.180 A 
ATOM      2  C   UNL     1      24.817  29.770   4.723  1.00  0.00     0.208 A 
ATOM      3  C   UNL     1      23.775  30.633   4.349  1.00  0.00     0.238 A 
ATOM      4  O   UNL     1      23.600  30.875   3.127  1.00  0.00    -0.285 OA
ATOM      5  C   UNL     1      22.976  31.244   5.345  1.00  0.00     0.111 A 
ATOM      6  C   UNL     1      21.868  32.105   5.079  1.00  0.00     0.134 A 
ATOM      7  C   UNL     1      21.230  32.758   6.142  1.00  0.00     0.093 A 
ATOM      8  C   UNL     1      21.616  32.531   7.462  1.00  0.00     0.123 A 
ATOM      9  C   UNL     1      22.659  31.646   7.738  1.00  0.00     0.094 A 
ATOM     10  C   UNL     1      23.339  31.008   6.697  1.00  0.00     0.146 A 
ATOM     11  O   UNL     1      24.332  30.181   7.001  1.00  0.00    -0.452 OA
ENDROOT
BRANCH   1  12
ATOM     12  C   UNL     1      26.121  28.626   6.561  1.00  0.00     0.025 A 
ATOM     13  C   UNL     1      26.155  27.278   6.165  1.00  0.00     0.016 A 
ATOM     14  C   UNL     1      27.155  26.426   6.641  1.00  0.00     0.051 A 
ATOM     15  C   UNL     1      28.127  26.905   7.530  1.00  0.00     0.157 A 
ATOM     16  C   UNL     1      27.086  29.096   7.469  1.00  0.00     0.062 A 
ATOM     17  C   UNL     1      28.089  28.245   7.946  1.00  0.00     0.158 A 
BRANCH  15  18
ATOM     18  O   UNL     1      29.125  26.053   8.002  1.00  0.00    -0.504 OA
ATOM     19  H   UNL     1      30.097  26.338   8.027  1.00  0.00     0.293 HD
ENDBRANCH  15  18
BRANCH  17  20
ATOM     20  O   UNL     1      29.038  28.751   8.836  1.00  0.00    -0.504 OA
ATOM     21  H   UNL     1      29.451  28.180   9.563  1.00  0.00     0.293 HD
ENDBRANCH  17  20
ENDBRANCH   1  12
BRANCH   2  22
ATOM     22  O   UNL     1      25.633  29.173   3.757  1.00  0.00    -0.502 OA
ATOM     23  H   UNL     1      26.538  28.777   3.979  1.00  0.00     0.293 HD
ENDBRANCH   2  22
BRANCH   6  24
ATOM     24  O   UNL     1      21.342  32.328   3.804  1.00  0.00    -0.507 OA
ATOM     25  H   UNL     1      21.060  33.229   3.447  1.00  0.00     0.293 HD
ENDBRANCH   6  24
BRANCH   8  26
ATOM     26  O   UNL     1      20.950  33.185   8.495  1.00  0.00    -0.508 OA
ATOM     27  H   UNL     1      20.755  32.724   9.376  1.00  0.00     0.293 HD
ENDBRANCH   8  26
TORSDOF 6
ENDMDL
MODEL 2
REMARK VINA RESULT:    -5.875      1.648      7.099
REMARK INTER + INTRA:          -7.192
REMARK INTER:                  -7.207
REMARK INTRA:                   0.015
REMARK UNBOUND:                -0.114
REMARK SMILES O=c1c(O)c(-c2ccc(O)c(O)c2)oc2cc(O)cc(O)c12
REMARK SMILES IDX 5 1 3 2 2 3 1 4 22 5 20 6 19 7 17 8 16 9 15 10 14 11 6 12
REMARK SMILES IDX 7 13 8 14 9 15 13 16 11 17 10 18 12 20 4 22 21 24 18 26
REMARK H PARENT 10 19 12 21 4 23 21 25 18 27
REMARK Flexibility Score: inf
ROOT
ATOM      1  C   UNL     1      24.906  29.573   7.054  1.00  0.00     0.180 A 
ATOM      2  C   UNL     1      26.210  29.783   7.539  1.00  0.00     0.208 A 
ATOM      3  C   UNL     1      27.159  28.757   7.406  1.00  0.00     0.238 A 
ATOM      4  O   UNL     1      28.338  28.970   7.791  1.00  0.00    -0.285 OA
ATOM      5  C   UNL     1      26.789  27.530   6.804  1.00  0.00     0.111 A 
ATOM      6  C   UNL     1      27.658  26.406   6.654  1.00  0.00     0.134 A 
ATOM      7  C   UNL     1      27.224  25.290   5.927  1.00  0.00     0.093 A 
ATOM      8  C   UNL     1      25.933  25.229   5.403  1.00  0.00     0.123 A 
ATOM      9  C   UNL     1      25.055  26.296   5.596  1.00  0.00     0.094 A 
ATOM     10  C   UNL     1      25.471  27.438   6.285  1.00  0.00     0.146 A 
ATOM     11  O   UNL     1      24.608  28.436   6.437  1.00  0.00    -0.452 OA
ENDROOT
BRANCH   1  12
ATOM     12  C   UNL     1      23.845  30.599   7.182  1.00  0.00     0.025 A 
ATOM     13  C   UNL     1      23.614  31.266   8.397  1.00  0.00     0.016 A 
ATOM     14  C   UNL     1      22.590  32.212   8.500  1.00  0.00     0.051 A 
ATOM     15  C   UNL     1      21.775  32.495   7.396  1.00  0.00     0.157 A 
ATOM     16  C   UNL     1      23.011  30.870   6.084  1.00  0.00     0.062 A 
ATOM     17  C   UNL     1      21.987  31.818   6.184  1.00  0.00     0.158 A 
BRANCH  15  18
ATOM     18  O   UNL     1      20.757  33.441   7.501  1.00  0.00    -0.504 OA
ATOM     19  H   UNL     1      20.660  34.026   8.322  1.00  0.00     0.293 HD
ENDBRANCH  15  18
BRANCH  17  20
ATOM     20  O   UNL     1      21.188  32.072   5.068  1.00  0.00    -0.504 OA
ATOM     21  H   UNL     1      21.307  31.569   4.197  1.00  0.00     0.293 HD
ENDBRANCH  17  20
ENDBRANCH   1  12
BRANCH   2  22
ATOM     22  O   UNL     1      26.560  31.010   8.109  1.00  0.00    -0.502 OA
ATOM     23  H   UNL     1      26.126  31.360   8.954  1.00  0.00     0.293 HD
ENDBRANCH   2  22
BRANCH   6  24
ATOM     24  O   UNL     1      28.935  26.327   7.216  1.00  0.00    -0.507 OA
ATOM     25  H   UNL     1      29.243  26.854   8.020  1.00  0.00     0.293 HD
ENDBRANCH   6  24
BRANCH   8  26
ATOM     26  O   UNL     1      25.530  24.097   4.699  1.00  0.00    -0.508 OA
ATOM     27  H   UNL     1      24.555  23.921   4.490  1.00  0.00     0.293 HD
ENDBRANCH   8  26
TORSDOF 6
ENDMDL
MODEL 3
REMARK VINA RESULT:    -5.784      1.498      6.758
REMARK INTER + INTRA:          -7.082
REMARK INTER:                  -6.968
REMARK INTRA:                  -0.114
REMARK UNBOUND:                -0.114
REMARK SMILES O=c1c(O)c(-c2ccc(O)c(O)c2)oc2cc(O)cc(O)c12
REMARK SMILES IDX 5 1 3 2 2 3 1 4 22 5 20 6 19 7 17 8 16 9 15 10 14 11 6 12
REMARK SMILES IDX 7 13 8 14 9 15 13 16 11 17 10 18 12 20 4 22 21 24 18 26
REMARK H PARENT 10 19 12 21 4 23 21 25 18 27
REMARK Flexibility Score: inf
ROOT
ATOM      1  C   UNL     1      23.999  29.616   5.908  1.00  0.00     0.180 A 
ATOM      2  C   UNL     1      23.837  28.313   5.405  1.00  0.00     0.208 A 
ATOM      3  C   UNL     1      24.826  27.353   5.670  1.00  0.00     0.238 A 
ATOM      4  O   UNL     1      24.650  26.175   5.264  1.00  0.00    -0.285 OA
ATOM      5  C   UNL     1      25.971  27.711   6.422  1.00  0.00     0.111 A 
ATOM      6  C   UNL     1      27.056  26.830   6.717  1.00  0.00     0.134 A 
ATOM      7  C   UNL     1      28.075  27.254   7.579  1.00  0.00     0.093 A 
ATOM      8  C   UNL     1      28.085  28.546   8.102  1.00  0.00     0.123 A 
ATOM      9  C   UNL     1      27.062  29.435   7.773  1.00  0.00     0.094 A 
ATOM     10  C   UNL     1      26.012  29.030   6.945  1.00  0.00     0.146 A 
ATOM     11  O   UNL     1      25.052  29.903   6.664  1.00  0.00    -0.452 OA
ENDROOT
BRANCH   1  12
ATOM     12  C   UNL     1      23.011  30.689   5.648  1.00  0.00     0.025 A 
ATOM     13  C   UNL     1      22.666  31.064   4.339  1.00  0.00     0.016 A 
ATOM     14  C   UNL     1      21.750  32.096   4.117  1.00  0.00     0.051 A 
ATOM     15  C   UNL     1      21.176  32.776   5.200  1.00  0.00     0.157 A 
ATOM     16  C   UNL     1      22.449  31.388   6.730  1.00  0.00     0.062 A 
ATOM     17  C   UNL     1      21.531  32.420   6.511  1.00  0.00     0.158 A 
BRANCH  15  18
ATOM     18  O   UNL     1      20.260  33.803   4.976  1.00  0.00    -0.504 OA
ATOM     19  H   UNL     1      20.535  34.670   4.531  1.00  0.00     0.293 HD
ENDBRANCH  15  18
BRANCH  17  20
ATOM     20  O   UNL     1      20.983  33.082   7.611  1.00  0.00    -0.504 OA
ATOM     21  H   UNL     1      20.109  32.791   8.033  1.00  0.00     0.293 HD
ENDBRANCH  17  20
ENDBRANCH   1  12
BRANCH   2  22
ATOM     22  O   UNL     1      22.689  27.975   4.684  1.00  0.00    -0.502 OA
ATOM     23  H   UNL     1      22.156  28.657   4.158  1.00  0.00     0.293 HD
ENDBRANCH   2  22
BRANCH   6  24
ATOM     24  O   UNL     1      27.191  25.550   6.172  1.00  0.00    -0.507 OA
ATOM     25  H   UNL     1      28.047  25.017   6.160  1.00  0.00     0.293 HD
ENDBRANCH   6  24
BRANCH   8  26
ATOM     26  O   UNL     1      29.123  28.939   8.943  1.00  0.00    -0.508 OA
ATOM     27  H   UNL     1      29.468  28.333   9.679  1.00  0.00     0.293 HD
ENDBRANCH   8  26
TORSDOF 6
ENDMDL
MODEL 4
REMARK VINA RESULT:    -5.544      1.740      2.306
REMARK INTER + INTRA:          -6.792
REMARK INTER:                  -6.469
REMARK INTRA:                  -0.323
REMARK UNBOUND:                -0.114
REMARK SMILES O=c1c(O)c(-c2ccc(O)c(O)c2)oc2cc(O)cc(O)c12
REMARK SMILES IDX 5 1 3 2 2 3 1 4 22 5 20 6 19 7 17 8 16 9 15 10 14 11 6 12
REMARK SMILES IDX 7 13 8 14 9 15 13 16 11 17 10 18 12 20 4 22 21 24 18 26
REMARK H PARENT 10 19 12 21 4 23 21 25 18 27
REMARK Flexibility Score: inf
ROOT
ATOM      1  C   UNL     1      23.839  29.194   5.525  1.00  0.00     0.180 A 
ATOM      2  C   UNL     1      23.420  29.528   4.225  1.00  0.00     0.208 A 
ATOM      3  C   UNL     1      22.570  30.631   4.045  1.00  0.00     0.238 A 
ATOM      4  O   UNL     1      22.242  30.957   2.875  1.00  0.00    -0.285 OA
ATOM      5  C   UNL     1      22.138  31.376   5.168  1.00  0.00     0.111 A 
ATOM      6  C   UNL     1      21.244  32.488   5.108  1.00  0.00     0.134 A 
ATOM      7  C   UNL     1      20.988  33.232   6.267  1.00  0.00     0.093 A 
ATOM      8  C   UNL     1      21.539  32.866   7.494  1.00  0.00     0.123 A 
ATOM      9  C   UNL     1      22.366  31.745   7.576  1.00  0.00     0.094 A 
ATOM     10  C   UNL     1      22.669  31.005   6.431  1.00  0.00     0.146 A 
ATOM     11  O   UNL     1      23.469  29.952   6.551  1.00  0.00    -0.452 OA
ENDROOT
BRANCH   1  12
ATOM     12  C   UNL     1      24.714  28.030   5.796  1.00  0.00     0.025 A 
ATOM     13  C   UNL     1      26.114  28.148   5.781  1.00  0.00     0.016 A 
ATOM     14  C   UNL     1      26.920  27.031   6.015  1.00  0.00     0.051 A 
ATOM     15  C   UNL     1      26.340  25.778   6.253  1.00  0.00     0.157 A 
ATOM     16  C   UNL     1      24.137  26.768   6.014  1.00  0.00     0.062 A 
ATOM     17  C   UNL     1      24.942  25.647   6.250  1.00  0.00     0.158 A 
BRANCH  15  18
ATOM     18  O   UNL     1      27.147  24.666   6.489  1.00  0.00    -0.504 OA
ATOM     19  H   UNL     1      26.811  23.870   7.019  1.00  0.00     0.293 HD
ENDBRANCH  15  18
BRANCH  17  20
ATOM     20  O   UNL     1      24.333  24.413   6.477  1.00  0.00    -0.504 OA
ATOM     21  H   UNL     1      24.499  23.613   5.878  1.00  0.00     0.293 HD
ENDBRANCH  17  20
ENDBRANCH   1  12
BRANCH   2  22
ATOM     22  O   UNL     1      23.876  28.792   3.128  1.00  0.00    -0.502 OA
ATOM     23  H   UNL     1      23.989  27.785   3.157  1.00  0.00     0.293 HD
ENDBRANCH   2  22
BRANCH   6  24
ATOM     24  O   UNL     1      20.568  32.883   3.950  1.00  0.00    -0.507 OA
ATOM     25  H   UNL     1      20.085  33.762   3.837  1.00  0.00     0.293 HD
ENDBRANCH   6  24
BRANCH   8  26
ATOM     26  O   UNL     1      21.249  33.620   8.629  1.00  0.00    -0.508 OA
ATOM     27  H   UNL     1      20.432  33.431   9.197  1.00  0.00     0.293 HD
ENDBRANCH   8  26
TORSDOF 6
ENDMDL
MODEL 5
REMARK VINA RESULT:    -5.493      2.275      6.949
REMARK INTER + INTRA:          -6.731
REMARK INTER:                  -6.457
REMARK INTRA:                  -0.274
REMARK UNBOUND:                -0.114
REMARK SMILES O=c1c(O)c(-c2ccc(O)c(O)c2)oc2cc(O)cc(O)c12
REMARK SMILES IDX 5 1 3 2 2 3 1 4 22 5 20 6 19 7 17 8 16 9 15 10 14 11 6 12
REMARK SMILES IDX 7 13 8 14 9 15 13 16 11 17 10 18 12 20 4 22 21 24 18 26
REMARK H PARENT 10 19 12 21 4 23 21 25 18 27
REMARK Flexibility Score: inf
ROOT
ATOM      1  C   UNL     1      24.146  29.043   6.062  1.00  0.00     0.180 A 
ATOM      2  C   UNL     1      25.524  29.150   6.321  1.00  0.00     0.208 A 
ATOM      3  C   UNL     1      26.297  27.981   6.395  1.00  0.00     0.238 A 
ATOM      4  O   UNL     1      27.538  28.085   6.572  1.00  0.00    -0.285 OA
ATOM      5  C   UNL     1      25.680  26.718   6.224  1.00  0.00     0.111 A 
ATOM      6  C   UNL     1      26.358  25.465   6.318  1.00  0.00     0.134 A 
ATOM      7  C   UNL     1      25.674  24.284   6.003  1.00  0.00     0.093 A 
ATOM      8  C   UNL     1      24.322  24.303   5.661  1.00  0.00     0.123 A 
ATOM      9  C   UNL     1      23.634  25.517   5.624  1.00  0.00     0.094 A 
ATOM     10  C   UNL     1      24.298  26.715   5.899  1.00  0.00     0.146 A 
ATOM     11  O   UNL     1      23.609  27.849   5.842  1.00  0.00    -0.452 OA
ENDROOT
BRANCH   1  12
ATOM     12  C   UNL     1      23.263  30.230   5.995  1.00  0.00     0.025 A 
ATOM     13  C   UNL     1      22.850  30.766   4.764  1.00  0.00     0.016 A 
ATOM     14  C   UNL     1      22.037  31.902   4.725  1.00  0.00     0.051 A 
ATOM     15  C   UNL     1      21.635  32.525   5.914  1.00  0.00     0.157 A 
ATOM     16  C   UNL     1      22.876  30.871   7.184  1.00  0.00     0.062 A 
ATOM     17  C   UNL     1      22.060  32.007   7.148  1.00  0.00     0.158 A 
BRANCH  15  18
ATOM     18  O   UNL     1      20.821  33.656   5.872  1.00  0.00    -0.504 OA
ATOM     19  H   UNL     1      20.211  33.900   6.643  1.00  0.00     0.293 HD
ENDBRANCH  15  18
BRANCH  17  20
ATOM     20  O   UNL     1      21.684  32.609   8.350  1.00  0.00    -0.504 OA
ATOM     21  H   UNL     1      22.088  33.483   8.663  1.00  0.00     0.293 HD
ENDBRANCH  17  20
ENDBRANCH   1  12
BRANCH   2  22
ATOM     22  O   UNL     1      26.117  30.408   6.465  1.00  0.00    -0.502 OA
ATOM     23  H   UNL     1      26.729  30.804   5.761  1.00  0.00     0.293 HD
ENDBRANCH   2  22
BRANCH   6  24
ATOM     24  O   UNL     1      27.683  25.325   6.739  1.00  0.00    -0.507 OA
ATOM     25  H   UNL     1      27.967  25.088   7.679  1.00  0.00     0.293 HD
ENDBRANCH   6  24
BRANCH   8  26
ATOM     26  O   UNL     1      23.670  23.108   5.368  1.00  0.00    -0.508 OA
ATOM     27  H   UNL     1      23.916  22.555   4.557  1.00  0.00     0.293 HD
ENDBRANCH   8  26
TORSDOF 6
ENDMDL
MODEL 6
REMARK VINA RESULT:    -5.469      1.584      7.112
REMARK INTER + INTRA:          -6.702
REMARK INTER:                  -6.707
REMARK INTRA:                   0.004
REMARK UNBOUND:                -0.114
REMARK SMILES O=c1c(O)c(-c2ccc(O)c(O)c2)oc2cc(O)cc(O)c12
REMARK SMILES IDX 5 1 3 2 2 3 1 4 22 5 20 6 19 7 17 8 16 9 15 10 14 11 6 12
REMARK SMILES IDX 7 13 8 14 9 15 13 16 11 17 10 18 12 20 4 22 21 24 18 26
REMARK H PARENT 10 19 12 21 4 23 21 25 18 27
REMARK Flexibility Score: inf
ROOT
ATOM      1  C   UNL     1      24.795  29.488   6.532  1.00  0.00     0.180 A 
ATOM      2  C   UNL     1      25.907  29.794   7.338  1.00  0.00     0.208 A 
ATOM      3  C   UNL     1      26.921  28.836   7.492  1.00  0.00     0.238 A 
ATOM      4  O   UNL     1      27.938  29.135   8.169  1.00  0.00    -0.285 OA
ATOM      5  C   UNL     1      26.804  27.578   6.852  1.00  0.00     0.111 A 
ATOM      6  C   UNL     1      27.752  26.517   6.971  1.00  0.00     0.134 A 
ATOM      7  C   UNL     1      27.600  25.364   6.190  1.00  0.00     0.093 A 
ATOM      8  C   UNL     1      26.502  25.206   5.345  1.00  0.00     0.123 A 
ATOM      9  C   UNL     1      25.538  26.212   5.266  1.00  0.00     0.094 A 
ATOM     10  C   UNL     1      25.681  27.389   6.005  1.00  0.00     0.146 A 
ATOM     11  O   UNL     1      24.746  28.325   5.893  1.00  0.00    -0.452 OA
ENDROOT
BRANCH   1  12
ATOM     12  C   UNL     1      23.675  30.438   6.342  1.00  0.00     0.025 A 
ATOM     13  C   UNL     1      23.248  30.819   5.059  1.00  0.00     0.016 A 
ATOM     14  C   UNL     1      22.205  31.736   4.904  1.00  0.00     0.051 A 
ATOM     15  C   UNL     1      21.583  32.295   6.029  1.00  0.00     0.157 A 
ATOM     16  C   UNL     1      23.062  31.018   7.466  1.00  0.00     0.062 A 
ATOM     17  C   UNL     1      22.016  31.935   7.315  1.00  0.00     0.158 A 
BRANCH  15  18
ATOM     18  O   UNL     1      20.540  33.208   5.871  1.00  0.00    -0.504 OA
ATOM     19  H   UNL     1      20.104  33.363   4.970  1.00  0.00     0.293 HD
ENDBRANCH  15  18
BRANCH  17  20
ATOM     20  O   UNL     1      21.423  32.479   8.454  1.00  0.00    -0.504 OA
ATOM     21  H   UNL     1      21.953  32.679   9.293  1.00  0.00     0.293 HD
ENDBRANCH  17  20
ENDBRANCH   1  12
BRANCH   2  22
ATOM     22  O   UNL     1      26.012  31.050   7.942  1.00  0.00    -0.502 OA
ATOM     23  H   UNL     1      26.886  31.402   8.316  1.00  0.00     0.293 HD
ENDBRANCH   2  22
BRANCH   6  24
ATOM     24  O   UNL     1      28.835  26.534   7.854  1.00  0.00    -0.507 OA
ATOM     25  H   UNL     1      28.946  27.187   8.616  1.00  0.00     0.293 HD
ENDBRANCH   6  24
BRANCH   8  26
ATOM     26  O   UNL     1      26.375  24.040   4.595  1.00  0.00    -0.508 OA
ATOM     27  H   UNL     1      27.017  23.265   4.706  1.00  0.00     0.293 HD
ENDBRANCH   8  26
TORSDOF 6
ENDMDL
MODEL 7
REMARK VINA RESULT:    -5.345      2.121      7.052
REMARK INTER + INTRA:          -6.553
REMARK INTER:                  -6.275
REMARK INTRA:                  -0.278
REMARK UNBOUND:                -0.114
REMARK SMILES O=c1c(O)c(-c2ccc(O)c(O)c2)oc2cc(O)cc(O)c12
REMARK SMILES IDX 5 1 3 2 2 3 1 4 22 5 20 6 19 7 17 8 16 9 15 10 14 11 6 12
REMARK SMILES IDX 7 13 8 14 9 15 13 16 11 17 10 18 12 20 4 22 21 24 18 26
REMARK H PARENT 10 19 12 21 4 23 21 25 18 27
REMARK Flexibility Score: inf
ROOT
ATOM      1  C   UNL     1      23.641  29.002   5.916  1.00  0.00     0.180 A 
ATOM      2  C   UNL     1      22.970  27.783   5.706  1.00  0.00     0.208 A 
ATOM      3  C   UNL     1      23.694  26.584   5.795  1.00  0.00     0.238 A 
ATOM      4  O   UNL     1      23.078  25.495   5.660  1.00  0.00    -0.285 OA
ATOM      5  C   UNL     1      25.081  26.618   6.077  1.00  0.00     0.111 A 
ATOM      6  C   UNL     1      25.922  25.466   6.150  1.00  0.00     0.134 A 
ATOM      7  C   UNL     1      27.252  25.607   6.564  1.00  0.00     0.093 A 
ATOM      8  C   UNL     1      27.790  26.862   6.843  1.00  0.00     0.123 A 
ATOM      9  C   UNL     1      26.994  28.001   6.717  1.00  0.00     0.094 A 
ATOM     10  C   UNL     1      25.654  27.889   6.341  1.00  0.00     0.146 A 
ATOM     11  O   UNL     1      24.928  28.997   6.243  1.00  0.00    -0.452 OA
ENDROOT
BRANCH   1  12
ATOM     12  C   UNL     1      22.950  30.308   5.815  1.00  0.00     0.025 A 
ATOM     13  C   UNL     1      22.537  31.008   6.961  1.00  0.00     0.016 A 
ATOM     14  C   UNL     1      21.865  32.227   6.840  1.00  0.00     0.051 A 
ATOM     15  C   UNL     1      21.585  32.758   5.574  1.00  0.00     0.157 A 
ATOM     16  C   UNL     1      22.648  30.833   4.547  1.00  0.00     0.062 A 
ATOM     17  C   UNL     1      21.977  32.055   4.423  1.00  0.00     0.158 A 
BRANCH  15  18
ATOM     18  O   UNL     1      20.917  33.976   5.456  1.00  0.00    -0.504 OA
ATOM     19  H   UNL     1      21.420  34.854   5.408  1.00  0.00     0.293 HD
ENDBRANCH  15  18
BRANCH  17  20
ATOM     20  O   UNL     1      21.707  32.552   3.148  1.00  0.00    -0.504 OA
ATOM     21  H   UNL     1      21.086  32.076   2.505  1.00  0.00     0.293 HD
ENDBRANCH  17  20
ENDBRANCH   1  12
BRANCH   2  22
ATOM     22  O   UNL     1      21.596  27.772   5.451  1.00  0.00    -0.502 OA
ATOM     23  H   UNL     1      20.915  27.514   6.155  1.00  0.00     0.293 HD
ENDBRANCH   2  22
BRANCH   6  24
ATOM     24  O   UNL     1      25.509  24.176   5.803  1.00  0.00    -0.507 OA
ATOM     25  H   UNL     1      26.127  23.432   5.514  1.00  0.00     0.293 HD
ENDBRANCH   6  24
BRANCH   8  26
ATOM     26  O   UNL     1      29.122  26.967   7.237  1.00  0.00    -0.508 OA
ATOM     27  H   UNL     1      29.663  26.152   7.501  1.00  0.00     0.293 HD
ENDBRANCH   8  26
TORSDOF 6
ENDMDL
MODEL 8
REMARK VINA RESULT:    -5.338      2.467      7.054
REMARK INTER + INTRA:          -6.545
REMARK INTER:                  -6.226
REMARK INTRA:                  -0.320
REMARK UNBOUND:                -0.114
REMARK SMILES O=c1c(O)c(-c2ccc(O)c(O)c2)oc2cc(O)cc(O)c12
REMARK SMILES IDX 5 1 3 2 2 3 1 4 22 5 20 6 19 7 17 8 16 9 15 10 14 11 6 12
REMARK SMILES IDX 7 13 8 14 9 15 13 16 11 17 10 18 12 20 4 22 21 24 18 26
REMARK H PARENT 10 19 12 21 4 23 21 25 18 27
REMARK Flexibility Score: inf
ROOT
ATOM      1  C   UNL     1      23.918  29.028   6.014  1.00  0.00     0.180 A 
ATOM      2  C   UNL     1      25.308  29.018   6.225  1.00  0.00     0.208 A 
ATOM      3  C   UNL     1      25.979  27.786   6.280  1.00  0.00     0.238 A 
ATOM      4  O   UNL     1      27.231  27.785   6.415  1.00  0.00    -0.285 OA
ATOM      5  C   UNL     1      25.251  26.580   6.140  1.00  0.00     0.111 A 
ATOM      6  C   UNL     1      25.822  25.274   6.219  1.00  0.00     0.134 A 
ATOM      7  C   UNL     1      25.029  24.155   5.935  1.00  0.00     0.093 A 
ATOM      8  C   UNL     1      23.673  24.289   5.639  1.00  0.00     0.123 A 
ATOM      9  C   UNL     1      23.091  25.557   5.618  1.00  0.00     0.094 A 
ATOM     10  C   UNL     1      23.864  26.695   5.861  1.00  0.00     0.146 A 
ATOM     11  O   UNL     1      23.273  27.883   5.820  1.00  0.00    -0.452 OA
ENDROOT
BRANCH   1  12
ATOM     12  C   UNL     1      23.137  30.286   5.969  1.00  0.00     0.025 A 
ATOM     13  C   UNL     1      22.712  30.926   7.146  1.00  0.00     0.016 A 
ATOM     14  C   UNL     1      21.956  32.099   7.078  1.00  0.00     0.051 A 
ATOM     15  C   UNL     1      21.602  32.642   5.836  1.00  0.00     0.157 A 
ATOM     16  C   UNL     1      22.762  30.822   4.726  1.00  0.00     0.062 A 
ATOM     17  C   UNL     1      22.005  31.997   4.655  1.00  0.00     0.158 A 
BRANCH  15  18
ATOM     18  O   UNL     1      20.849  33.814   5.772  1.00  0.00    -0.504 OA
ATOM     19  H   UNL     1      20.912  34.441   4.980  1.00  0.00     0.293 HD
ENDBRANCH  15  18
BRANCH  17  20
ATOM     20  O   UNL     1      21.663  32.508   3.403  1.00  0.00    -0.504 OA
ATOM     21  H   UNL     1      21.441  31.906   2.619  1.00  0.00     0.293 HD
ENDBRANCH  17  20
ENDBRANCH   1  12
BRANCH   2  22
ATOM     22  O   UNL     1      26.011  30.220   6.339  1.00  0.00    -0.502 OA
ATOM     23  H   UNL     1      26.878  30.297   6.857  1.00  0.00     0.293 HD
ENDBRANCH   2  22
BRANCH   6  24
ATOM     24  O   UNL     1      27.145  25.023   6.596  1.00  0.00    -0.507 OA
ATOM     25  H   UNL     1      27.688  24.229   6.292  1.00  0.00     0.293 HD
ENDBRANCH   6  24
BRANCH   8  26
ATOM     26  O   UNL     1      22.911  23.153   5.377  1.00  0.00    -0.508 OA
ATOM     27  H   UNL     1      22.789  22.802   4.435  1.00  0.00     0.293 HD
ENDBRANCH   8  26
TORSDOF 6
ENDMDL
MODEL 9
REMARK VINA RESULT:    -4.977      2.764      6.572
REMARK INTER + INTRA:          -6.110
REMARK INTER:                  -5.817
REMARK INTRA:                  -0.293
REMARK UNBOUND:                -0.114
REMARK SMILES O=c1c(O)c(-c2ccc(O)c(O)c2)oc2cc(O)cc(O)c12
REMARK SMILES IDX 5 1 3 2 2 3 1 4 22 5 20 6 19 7 17 8 16 9 15 10 14 11 6 12
REMARK SMILES IDX 7 13 8 14 9 15 13 16 11 17 10 18 12 20 4 22 21 24 18 26
REMARK H PARENT 10 19 12 21 4 23 21 25 18 27
REMARK Flexibility Score: inf
ROOT
ATOM      1  C   UNL     1      23.956  29.340   5.721  1.00  0.00     0.180 A 
ATOM      2  C   UNL     1      24.928  29.518   4.719  1.00  0.00     0.208 A 
ATOM      3  C   UNL     1      25.464  28.388   4.083  1.00  0.00     0.238 A 
ATOM      4  O   UNL     1      26.292  28.555   3.150  1.00  0.00    -0.285 OA
ATOM      5  C   UNL     1      25.034  27.094   4.465  1.00  0.00     0.111 A 
ATOM      6  C   UNL     1      25.540  25.877   3.916  1.00  0.00     0.134 A 
ATOM      7  C   UNL     1      24.949  24.659   4.276  1.00  0.00     0.093 A 
ATOM      8  C   UNL     1      23.918  24.608   5.213  1.00  0.00     0.123 A 
ATOM      9  C   UNL     1      23.457  25.786   5.802  1.00  0.00     0.094 A 
ATOM     10  C   UNL     1      24.001  27.019   5.436  1.00  0.00     0.146 A 
ATOM     11  O   UNL     1      23.527  28.118   6.011  1.00  0.00    -0.452 OA
ENDROOT
BRANCH   1  12
ATOM     12  C   UNL     1      23.363  30.482   6.454  1.00  0.00     0.025 A 
ATOM     13  C   UNL     1      23.785  30.817   7.752  1.00  0.00     0.016 A 
ATOM     14  C   UNL     1      23.194  31.884   8.434  1.00  0.00     0.051 A 
ATOM     15  C   UNL     1      22.165  32.622   7.836  1.00  0.00     0.157 A 
ATOM     16  C   UNL     1      22.316  31.212   5.867  1.00  0.00     0.062 A 
ATOM     17  C   UNL     1      21.723  32.282   6.547  1.00  0.00     0.158 A 
BRANCH  15  18
ATOM     18  O   UNL     1      21.579  33.688   8.518  1.00  0.00    -0.504 OA
ATOM     19  H   UNL     1      21.251  33.590   9.472  1.00  0.00     0.293 HD
ENDBRANCH  15  18
BRANCH  17  20
ATOM     20  O   UNL     1      20.695  32.992   5.926  1.00  0.00    -0.504 OA
ATOM     21  H   UNL     1      20.379  32.772   4.989  1.00  0.00     0.293 HD
ENDBRANCH  17  20
ENDBRANCH   1  12
BRANCH   2  22
ATOM     22  O   UNL     1      25.321  30.805   4.342  1.00  0.00    -0.502 OA
ATOM     23  H   UNL     1      26.279  31.125   4.418  1.00  0.00     0.293 HD
ENDBRANCH   2  22
BRANCH   6  24
ATOM     24  O   UNL     1      26.627  25.808   3.041  1.00  0.00    -0.507 OA
ATOM     25  H   UNL     1      27.563  26.116   3.261  1.00  0.00     0.293 HD
ENDBRANCH   6  24
BRANCH   8  26
ATOM     26  O   UNL     1      23.365  23.378   5.560  1.00  0.00    -0.508 OA
ATOM     27  H   UNL     1      23.027  22.731   4.857  1.00  0.00     0.293 HD
ENDBRANCH   8  26
TORSDOF 6
ENDMDL
