MODEL 1
REMARK VINA RESULT:    -5.857      0.000      0.000
REMARK INTER + INTRA:         -11.518
REMARK INTER:                  -9.280
REMARK INTRA:                  -2.238
REMARK UNBOUND:                -2.238
REMARK SMILES C[C@H]1O[C@@H](O[C@H]2[C@@H](Oc3cc(O)c4c(c3)O[C@H](c3ccc(O)cc3)CC4=O)O[C@@H](CO)[C@@H](O)[C@@H]2O)[C@H](O)[C@@H](O)[C@H]1O
REMARK SMILES IDX 6 1 34 2 32 3 29 4 28 5 7 6 5 7 4 8 1 9 2 10 40 11 3 12
REMARK SMILES IDX 38 13 36 14 41 15 39 17 37 19 35 21 8 23 9 24 10 25 15 26
REMARK SMILES IDX 11 27 14 28 13 29 16 30 26 31 17 32 27 33 25 34 12 35 18 37
REMARK SMILES IDX 19 38 24 39 20 40 23 41 21 42 22 43 33 45 30 47 31 48
REMARK H PARENT 41 16 39 18 37 20 35 22 12 36 22 44 33 46 31 49
REMARK Flexibility Score: inf
ROOT
ATOM      1  C   UNL     1      15.089  -1.782  29.478  1.00  0.00     0.221 C 
ATOM      2  C   UNL     1      15.955  -2.701  28.607  1.00  0.00     0.181 C 
ATOM      3  C   UNL     1      15.674  -2.412  27.124  1.00  0.00     0.177 C 
ATOM      4  C   UNL     1      15.820  -0.906  26.799  1.00  0.00     0.179 C 
ATOM      5  O   UNL     1      15.033  -0.094  27.661  1.00  0.00    -0.332 OA
ATOM      6  C   UNL     1      15.270  -0.309  29.049  1.00  0.00     0.339 C 
ENDROOT
BRANCH   1   7
ATOM      7  O   UNL     1      15.497  -1.942  30.831  1.00  0.00    -0.337 OA
BRANCH   7   8
ATOM      8  C   UNL     1      14.423  -2.314  31.676  1.00  0.00     0.282 C 
ATOM      9  C   UNL     1      11.506  -4.416  30.950  1.00  0.00     0.041 C 
ATOM     10  C   UNL     1      12.574  -3.742  31.818  1.00  0.00     0.150 C 
ATOM     11  C   UNL     1      11.981  -2.756  32.880  1.00  0.00     0.174 C 
ATOM     12  O   UNL     1      13.501  -3.107  30.949  1.00  0.00    -0.344 OA
ATOM     13  C   UNL     1      12.222  -1.276  32.495  1.00  0.00     0.179 C 
ATOM     14  C   UNL     1      13.723  -1.025  32.166  1.00  0.00     0.202 C 
BRANCH  11  15
ATOM     15  O   UNL     1      10.631  -3.012  33.191  1.00  0.00    -0.388 OA
ATOM     16  H   UNL     1      10.069  -2.653  32.458  1.00  0.00     0.211 HD
ENDBRANCH  11  15
BRANCH  13  17
ATOM     17  O   UNL     1      11.397  -0.882  31.423  1.00  0.00    -0.387 OA
ATOM     18  H   UNL     1      10.524  -0.591  31.794  1.00  0.00     0.211 HD
ENDBRANCH  13  17
BRANCH  14  19
ATOM     19  O   UNL     1      14.394  -0.550  33.306  1.00  0.00    -0.385 OA
ATOM     20  H   UNL     1      15.360  -0.519  33.079  1.00  0.00     0.211 HD
ENDBRANCH  14  19
ENDBRANCH   7   8
ENDBRANCH   1   7
BRANCH   2  21
ATOM     21  O   UNL     1      15.649  -4.044  28.879  1.00  0.00    -0.387 OA
ATOM     22  H   UNL     1      16.513  -4.522  28.986  1.00  0.00     0.211 HD
ENDBRANCH   2  21
BRANCH   6  23
ATOM     23  O   UNL     1      16.555   0.176  29.446  1.00  0.00    -0.462 OA
BRANCH  23  24
ATOM     24  C   UNL     1      16.799   0.984  30.568  1.00  0.00     0.130 A 
ATOM     25  C   UNL     1      17.815   0.703  31.498  1.00  0.00     0.093 A 
ATOM     26  C   UNL     1      15.991   2.106  30.759  1.00  0.00     0.094 A 
ATOM     27  C   UNL     1      18.025   1.534  32.605  1.00  0.00     0.133 A 
ATOM     28  C   UNL     1      16.214   2.971  31.832  1.00  0.00     0.138 A 
ATOM     29  C   UNL     1      17.243   2.706  32.757  1.00  0.00     0.102 A 
ATOM     30  O   UNL     1      15.405   4.111  31.963  1.00  0.00    -0.484 OA
ATOM     31  C   UNL     1      17.451   3.704  33.828  1.00  0.00     0.174 C 
ATOM     32  C   UNL     1      15.641   5.156  32.916  1.00  0.00     0.211 C 
ATOM     33  O   UNL     1      18.564   3.836  34.403  1.00  0.00    -0.294 OA
ATOM     34  C   UNL     1      16.321   4.618  34.187  1.00  0.00     0.131 C 
BRANCH  27  35
ATOM     35  O   UNL     1      18.987   1.138  33.535  1.00  0.00    -0.507 OA
ATOM     36  H   UNL     1      18.767   0.815  34.467  1.00  0.00     0.293 HD
ENDBRANCH  27  35
BRANCH  32  37
ATOM     37  C   UNL     1      16.434   6.294  32.299  1.00  0.00    -0.007 A 
ATOM     38  C   UNL     1      16.886   6.180  30.972  1.00  0.00     0.011 A 
ATOM     39  C   UNL     1      16.683   7.489  33.001  1.00  0.00     0.011 A 
ATOM     40  C   UNL     1      17.594   7.224  30.371  1.00  0.00     0.046 A 
ATOM     41  C   UNL     1      17.392   8.531  32.397  1.00  0.00     0.046 A 
ATOM     42  C   UNL     1      17.853   8.400  31.081  1.00  0.00     0.115 A 
BRANCH  42  43
ATOM     43  O   UNL     1      18.565   9.431  30.471  1.00  0.00    -0.508 OA
ATOM     44  H   UNL     1      19.474   9.269  30.052  1.00  0.00     0.293 HD
ENDBRANCH  42  43
ENDBRANCH  32  37
ENDBRANCH  23  24
ENDBRANCH   6  23
BRANCH   3  45
ATOM     45  O   UNL     1      16.468  -3.208  26.277  1.00  0.00    -0.387 OA
ATOM     46  H   UNL     1      17.224  -3.569  26.810  1.00  0.00     0.211 HD
ENDBRANCH   3  45
BRANCH   4  47
ATOM     47  C   UNL     1      17.277  -0.393  26.691  1.00  0.00     0.191 C 
BRANCH  47  48
ATOM     48  O   UNL     1      17.323   1.008  26.713  1.00  0.00    -0.394 OA
ATOM     49  H   UNL     1      16.731   1.303  27.454  1.00  0.00     0.210 HD
ENDBRANCH  47  48
ENDBRANCH   4  47
TORSDOF 14
ENDMDL
MODEL 2
REMARK VINA RESULT:    -5.815      3.255      7.913
REMARK INTER + INTRA:         -11.451
REMARK INTER:                  -9.497
REMARK INTRA:                  -1.955
REMARK UNBOUND:                -2.238
REMARK SMILES C[C@H]1O[C@@H](O[C@H]2[C@@H](Oc3cc(O)c4c(c3)O[C@H](c3ccc(O)cc3)CC4=O)O[C@@H](CO)[C@@H](O)[C@@H]2O)[C@H](O)[C@@H](O)[C@H]1O
REMARK SMILES IDX 6 1 34 2 32 3 29 4 28 5 7 6 5 7 4 8 1 9 2 10 40 11 3 12
REMARK SMILES IDX 38 13 36 14 41 15 39 17 37 19 35 21 8 23 9 24 10 25 15 26
REMARK SMILES IDX 11 27 14 28 13 29 16 30 26 31 17 32 27 33 25 34 12 35 18 37
REMARK SMILES IDX 19 38 24 39 20 40 23 41 21 42 22 43 33 45 30 47 31 48
REMARK H PARENT 41 16 39 18 37 20 35 22 12 36 22 44 33 46 31 49
REMARK Flexibility Score: inf
ROOT
ATOM      1  C   UNL     1      12.551  -1.298  33.109  1.00  0.00     0.221 C 
ATOM      2  C   UNL     1      11.380  -2.028  33.779  1.00  0.00     0.181 C 
ATOM      3  C   UNL     1      10.148  -1.966  32.864  1.00  0.00     0.177 C 
ATOM      4  C   UNL     1      10.474  -2.464  31.435  1.00  0.00     0.179 C 
ATOM      5  O   UNL     1      11.592  -1.788  30.875  1.00  0.00    -0.332 OA
ATOM      6  C   UNL     1      12.768  -1.834  31.677  1.00  0.00     0.339 C 
ENDROOT
BRANCH   1   7
ATOM      7  O   UNL     1      13.718  -1.526  33.890  1.00  0.00    -0.337 OA
BRANCH   7   8
ATOM      8  C   UNL     1      14.644  -0.458  33.795  1.00  0.00     0.282 C 
ATOM      9  C   UNL     1      14.936   2.154  31.237  1.00  0.00     0.041 C 
ATOM     10  C   UNL     1      15.098   1.515  32.620  1.00  0.00     0.150 C 
ATOM     11  C   UNL     1      16.592   1.352  33.060  1.00  0.00     0.174 C 
ATOM     12  O   UNL     1      14.399   0.278  32.610  1.00  0.00    -0.344 OA
ATOM     13  C   UNL     1      17.059  -0.122  32.989  1.00  0.00     0.179 C 
ATOM     14  C   UNL     1      16.070  -1.055  33.748  1.00  0.00     0.202 C 
BRANCH  11  15
ATOM     15  O   UNL     1      17.472   2.222  32.387  1.00  0.00    -0.388 OA
ATOM     16  H   UNL     1      18.125   1.676  31.880  1.00  0.00     0.211 HD
ENDBRANCH  11  15
BRANCH  13  17
ATOM     17  O   UNL     1      17.231  -0.544  31.656  1.00  0.00    -0.387 OA
ATOM     18  H   UNL     1      17.859   0.081  31.211  1.00  0.00     0.211 HD
ENDBRANCH  13  17
BRANCH  14  19
ATOM     19  O   UNL     1      16.518  -1.265  35.063  1.00  0.00    -0.385 OA
ATOM     20  H   UNL     1      17.243  -0.608  35.229  1.00  0.00     0.211 HD
ENDBRANCH  14  19
ENDBRANCH   7   8
ENDBRANCH   1   7
BRANCH   2  21
ATOM     21  O   UNL     1      11.073  -1.414  35.005  1.00  0.00    -0.387 OA
ATOM     22  H   UNL     1      10.388  -0.720  34.818  1.00  0.00     0.211 HD
ENDBRANCH   2  21
BRANCH   6  23
ATOM     23  O   UNL     1      13.333  -3.147  31.712  1.00  0.00    -0.462 OA
BRANCH  23  24
ATOM     24  C   UNL     1      14.242  -3.658  30.771  1.00  0.00     0.130 A 
ATOM     25  C   UNL     1      13.880  -4.619  29.811  1.00  0.00     0.093 A 
ATOM     26  C   UNL     1      15.555  -3.187  30.802  1.00  0.00     0.094 A 
ATOM     27  C   UNL     1      14.817  -5.103  28.891  1.00  0.00     0.133 A 
ATOM     28  C   UNL     1      16.492  -3.624  29.865  1.00  0.00     0.138 A 
ATOM     29  C   UNL     1      16.132  -4.572  28.888  1.00  0.00     0.102 A 
ATOM     30  O   UNL     1      17.791  -3.092  29.907  1.00  0.00    -0.484 OA
ATOM     31  C   UNL     1      17.166  -4.936  27.896  1.00  0.00     0.174 C 
ATOM     32  C   UNL     1      18.788  -3.332  28.903  1.00  0.00     0.211 C 
ATOM     33  O   UNL     1      16.863  -5.378  26.756  1.00  0.00    -0.294 OA
ATOM     34  C   UNL     1      18.605  -4.709  28.243  1.00  0.00     0.131 C 
BRANCH  27  35
ATOM     35  O   UNL     1      14.411  -6.125  28.033  1.00  0.00    -0.507 OA
ATOM     36  H   UNL     1      13.960  -6.973  28.344  1.00  0.00     0.293 HD
ENDBRANCH  27  35
BRANCH  32  37
ATOM     37  C   UNL     1      18.808  -2.219  27.872  1.00  0.00    -0.007 A 
ATOM     38  C   UNL     1      18.600  -0.891  28.285  1.00  0.00     0.011 A 
ATOM     39  C   UNL     1      19.086  -2.471  26.514  1.00  0.00     0.011 A 
ATOM     40  C   UNL     1      18.640   0.157  27.361  1.00  0.00     0.046 A 
ATOM     41  C   UNL     1      19.125  -1.421  25.592  1.00  0.00     0.046 A 
ATOM     42  C   UNL     1      18.899  -0.105  26.012  1.00  0.00     0.115 A 
BRANCH  42  43
ATOM     43  O   UNL     1      18.931   0.949  25.100  1.00  0.00    -0.508 OA
ATOM     44  H   UNL     1      18.827   1.911  25.401  1.00  0.00     0.293 HD
ENDBRANCH  42  43
ENDBRANCH  32  37
ENDBRANCH  23  24
ENDBRANCH   6  23
BRANCH   3  45
ATOM     45  O   UNL     1       9.049  -2.650  33.417  1.00  0.00    -0.387 OA
ATOM     46  H   UNL     1       8.433  -1.979  33.812  1.00  0.00     0.211 HD
ENDBRANCH   3  45
BRANCH   4  47
ATOM     47  C   UNL     1      10.590  -4.001  31.284  1.00  0.00     0.191 C 
BRANCH  47  48
ATOM     48  O   UNL     1      11.098  -4.586  32.452  1.00  0.00    -0.394 OA
ATOM     49  H   UNL     1      11.989  -4.179  32.614  1.00  0.00     0.210 HD
ENDBRANCH  47  48
ENDBRANCH   4  47
TORSDOF 14
ENDMDL
MODEL 3
REMARK VINA RESULT:    -5.768      2.878      5.344
REMARK INTER + INTRA:         -11.377
REMARK INTER:                  -9.409
REMARK INTRA:                  -1.968
REMARK UNBOUND:                -2.238
REMARK SMILES C[C@H]1O[C@@H](O[C@H]2[C@@H](Oc3cc(O)c4c(c3)O[C@H](c3ccc(O)cc3)CC4=O)O[C@@H](CO)[C@@H](O)[C@@H]2O)[C@H](O)[C@@H](O)[C@H]1O
REMARK SMILES IDX 6 1 34 2 32 3 29 4 28 5 7 6 5 7 4 8 1 9 2 10 40 11 3 12
REMARK SMILES IDX 38 13 36 14 41 15 39 17 37 19 35 21 8 23 9 24 10 25 15 26
REMARK SMILES IDX 11 27 14 28 13 29 16 30 26 31 17 32 27 33 25 34 12 35 18 37
REMARK SMILES IDX 19 38 24 39 20 40 23 41 21 42 22 43 33 45 30 47 31 48
REMARK H PARENT 41 16 39 18 37 20 35 22 12 36 22 44 33 46 31 49
REMARK Flexibility Score: inf
ROOT
ATOM      1  C   UNL     1      14.892  -4.477  33.834  1.00  0.00     0.221 C 
ATOM      2  C   UNL     1      16.028  -4.685  34.844  1.00  0.00     0.181 C 
ATOM      3  C   UNL     1      16.863  -5.907  34.431  1.00  0.00     0.177 C 
ATOM      4  C   UNL     1      17.331  -5.805  32.959  1.00  0.00     0.179 C 
ATOM      5  O   UNL     1      16.249  -5.570  32.068  1.00  0.00    -0.332 OA
ATOM      6  C   UNL     1      15.455  -4.434  32.397  1.00  0.00     0.339 C 
ENDROOT
BRANCH   1   7
ATOM      7  O   UNL     1      14.251  -3.244  34.138  1.00  0.00    -0.337 OA
BRANCH   7   8
ATOM      8  C   UNL     1      12.849  -3.308  33.949  1.00  0.00     0.282 C 
ATOM      9  C   UNL     1      10.936  -3.975  30.892  1.00  0.00     0.041 C 
ATOM     10  C   UNL     1      11.204  -3.916  32.400  1.00  0.00     0.150 C 
ATOM     11  C   UNL     1      10.224  -2.967  33.170  1.00  0.00     0.174 C 
ATOM     12  O   UNL     1      12.565  -3.554  32.584  1.00  0.00    -0.344 OA
ATOM     13  C   UNL     1      10.916  -1.653  33.606  1.00  0.00     0.179 C 
ATOM     14  C   UNL     1      12.241  -1.948  34.367  1.00  0.00     0.202 C 
BRANCH  11  15
ATOM     15  O   UNL     1       9.017  -2.731  32.484  1.00  0.00    -0.388 OA
ATOM     16  H   UNL     1       8.279  -3.143  33.001  1.00  0.00     0.211 HD
ENDBRANCH  11  15
BRANCH  13  17
ATOM     17  O   UNL     1      11.143  -0.801  32.507  1.00  0.00    -0.387 OA
ATOM     18  H   UNL     1      10.633   0.037  32.652  1.00  0.00     0.211 HD
ENDBRANCH  13  17
BRANCH  14  19
ATOM     19  O   UNL     1      12.009  -1.962  35.753  1.00  0.00    -0.385 OA
ATOM     20  H   UNL     1      12.596  -1.266  36.150  1.00  0.00     0.211 HD
ENDBRANCH  14  19
ENDBRANCH   7   8
ENDBRANCH   1   7
BRANCH   2  21
ATOM     21  O   UNL     1      15.495  -4.905  36.125  1.00  0.00    -0.387 OA
ATOM     22  H   UNL     1      14.945  -5.730  36.072  1.00  0.00     0.211 HD
ENDBRANCH   2  21
BRANCH   6  23
ATOM     23  O   UNL     1      16.162  -3.212  32.170  1.00  0.00    -0.462 OA
BRANCH  23  24
ATOM     24  C   UNL     1      15.779  -2.218  31.255  1.00  0.00     0.130 A 
ATOM     25  C   UNL     1      14.450  -1.778  31.126  1.00  0.00     0.093 A 
ATOM     26  C   UNL     1      16.765  -1.656  30.443  1.00  0.00     0.094 A 
ATOM     27  C   UNL     1      14.110  -0.784  30.201  1.00  0.00     0.133 A 
ATOM     28  C   UNL     1      16.453  -0.634  29.545  1.00  0.00     0.138 A 
ATOM     29  C   UNL     1      15.127  -0.173  29.426  1.00  0.00     0.102 A 
ATOM     30  O   UNL     1      17.483  -0.067  28.778  1.00  0.00    -0.484 OA
ATOM     31  C   UNL     1      14.892   0.954  28.497  1.00  0.00     0.174 C 
ATOM     32  C   UNL     1      17.321   1.095  27.952  1.00  0.00     0.211 C 
ATOM     33  O   UNL     1      13.911   1.732  28.635  1.00  0.00    -0.294 OA
ATOM     34  C   UNL     1      15.887   1.205  27.407  1.00  0.00     0.131 C 
BRANCH  27  35
ATOM     35  O   UNL     1      12.758  -0.467  30.062  1.00  0.00    -0.507 OA
ATOM     36  H   UNL     1      12.408   0.477  29.985  1.00  0.00     0.293 HD
ENDBRANCH  27  35
BRANCH  32  37
ATOM     37  C   UNL     1      17.734   2.356  28.689  1.00  0.00    -0.007 A 
ATOM     38  C   UNL     1      17.346   3.609  28.184  1.00  0.00     0.011 A 
ATOM     39  C   UNL     1      18.450   2.304  29.901  1.00  0.00     0.011 A 
ATOM     40  C   UNL     1      17.690   4.785  28.858  1.00  0.00     0.046 A 
ATOM     41  C   UNL     1      18.793   3.482  30.572  1.00  0.00     0.046 A 
ATOM     42  C   UNL     1      18.417   4.725  30.051  1.00  0.00     0.115 A 
BRANCH  42  43
ATOM     43  O   UNL     1      18.757   5.906  30.709  1.00  0.00    -0.508 OA
ATOM     44  H   UNL     1      19.467   6.529  30.342  1.00  0.00     0.293 HD
ENDBRANCH  42  43
ENDBRANCH  32  37
ENDBRANCH  23  24
ENDBRANCH   6  23
BRANCH   3  45
ATOM     45  O   UNL     1      17.942  -6.125  35.308  1.00  0.00    -0.387 OA
ATOM     46  H   UNL     1      17.760  -5.632  36.151  1.00  0.00     0.211 HD
ENDBRANCH   3  45
BRANCH   4  47
ATOM     47  C   UNL     1      18.510  -4.833  32.709  1.00  0.00     0.191 C 
BRANCH  47  48
ATOM     48  O   UNL     1      18.720  -4.636  31.337  1.00  0.00    -0.394 OA
ATOM     49  H   UNL     1      18.831  -3.659  31.200  1.00  0.00     0.210 HD
ENDBRANCH  47  48
ENDBRANCH   4  47
TORSDOF 14
ENDMDL
MODEL 4
REMARK VINA RESULT:    -5.731      2.602      7.662
REMARK INTER + INTRA:         -11.320
REMARK INTER:                  -9.784
REMARK INTRA:                  -1.536
REMARK UNBOUND:                -2.238
REMARK SMILES C[C@H]1O[C@@H](O[C@H]2[C@@H](Oc3cc(O)c4c(c3)O[C@H](c3ccc(O)cc3)CC4=O)O[C@@H](CO)[C@@H](O)[C@@H]2O)[C@H](O)[C@@H](O)[C@H]1O
REMARK SMILES IDX 6 1 34 2 32 3 29 4 28 5 7 6 5 7 4 8 1 9 2 10 40 11 3 12
REMARK SMILES IDX 38 13 36 14 41 15 39 17 37 19 35 21 8 23 9 24 10 25 15 26
REMARK SMILES IDX 11 27 14 28 13 29 16 30 26 31 17 32 27 33 25 34 12 35 18 37
REMARK SMILES IDX 19 38 24 39 20 40 23 41 21 42 22 43 33 45 30 47 31 48
REMARK H PARENT 41 16 39 18 37 20 35 22 12 36 22 44 33 46 31 49
REMARK Flexibility Score: inf
ROOT
ATOM      1  C   UNL     1      16.880   0.180  28.957  1.00  0.00     0.221 C 
ATOM      2  C   UNL     1      16.827   0.375  27.436  1.00  0.00     0.181 C 
ATOM      3  C   UNL     1      18.257   0.469  26.882  1.00  0.00     0.177 C 
ATOM      4  C   UNL     1      19.125  -0.728  27.340  1.00  0.00     0.179 C 
ATOM      5  O   UNL     1      19.107  -0.893  28.752  1.00  0.00    -0.332 OA
ATOM      6  C   UNL     1      17.803  -1.007  29.313  1.00  0.00     0.339 C 
ENDROOT
BRANCH   1   7
ATOM      7  O   UNL     1      15.559  -0.084  29.415  1.00  0.00    -0.337 OA
BRANCH   7   8
ATOM      8  C   UNL     1      15.064   0.949  30.247  1.00  0.00     0.282 C 
ATOM      9  C   UNL     1      16.636   4.118  31.216  1.00  0.00     0.041 C 
ATOM     10  C   UNL     1      15.485   3.144  30.943  1.00  0.00     0.150 C 
ATOM     11  C   UNL     1      14.615   2.837  32.208  1.00  0.00     0.174 C 
ATOM     12  O   UNL     1      16.040   1.968  30.370  1.00  0.00    -0.344 OA
ATOM     13  C   UNL     1      14.884   1.418  32.765  1.00  0.00     0.179 C 
ATOM     14  C   UNL     1      14.766   0.348  31.641  1.00  0.00     0.202 C 
BRANCH  11  15
ATOM     15  O   UNL     1      14.708   3.828  33.206  1.00  0.00    -0.388 OA
ATOM     16  H   UNL     1      13.989   4.492  33.054  1.00  0.00     0.211 HD
ENDBRANCH  11  15
BRANCH  13  17
ATOM     17  O   UNL     1      16.137   1.345  33.404  1.00  0.00    -0.387 OA
ATOM     18  H   UNL     1      16.286   0.408  33.691  1.00  0.00     0.211 HD
ENDBRANCH  13  17
BRANCH  14  19
ATOM     19  O   UNL     1      13.473  -0.201  31.631  1.00  0.00    -0.385 OA
ATOM     20  H   UNL     1      12.900   0.399  32.177  1.00  0.00     0.211 HD
ENDBRANCH  14  19
ENDBRANCH   7   8
ENDBRANCH   1   7
BRANCH   2  21
ATOM     21  O   UNL     1      16.137   1.559  27.130  1.00  0.00    -0.387 OA
ATOM     22  H   UNL     1      15.170   1.371  27.252  1.00  0.00     0.211 HD
ENDBRANCH   2  21
BRANCH   6  23
ATOM     23  O   UNL     1      17.184  -2.248  28.964  1.00  0.00    -0.462 OA
BRANCH  23  24
ATOM     24  C   UNL     1      16.531  -3.103  29.866  1.00  0.00     0.130 A 
ATOM     25  C   UNL     1      17.207  -3.772  30.902  1.00  0.00     0.093 A 
ATOM     26  C   UNL     1      15.156  -3.291  29.717  1.00  0.00     0.094 A 
ATOM     27  C   UNL     1      16.518  -4.616  31.780  1.00  0.00     0.133 A 
ATOM     28  C   UNL     1      14.445  -4.095  30.609  1.00  0.00     0.138 A 
ATOM     29  C   UNL     1      15.112  -4.752  31.661  1.00  0.00     0.102 A 
ATOM     30  O   UNL     1      13.056  -4.223  30.447  1.00  0.00    -0.484 OA
ATOM     31  C   UNL     1      14.277  -5.534  32.598  1.00  0.00     0.174 C 
ATOM     32  C   UNL     1      12.196  -4.877  31.391  1.00  0.00     0.211 C 
ATOM     33  O   UNL     1      14.646  -5.766  33.779  1.00  0.00    -0.294 OA
ATOM     34  C   UNL     1      12.931  -6.003  32.139  1.00  0.00     0.131 C 
BRANCH  27  35
ATOM     35  O   UNL     1      17.271  -5.320  32.721  1.00  0.00    -0.507 OA
ATOM     36  H   UNL     1      16.867  -5.882  33.457  1.00  0.00     0.293 HD
ENDBRANCH  27  35
BRANCH  32  37
ATOM     37  C   UNL     1      11.578  -3.880  32.353  1.00  0.00    -0.007 A 
ATOM     38  C   UNL     1      12.323  -3.435  33.460  1.00  0.00     0.011 A 
ATOM     39  C   UNL     1      10.294  -3.342  32.139  1.00  0.00     0.011 A 
ATOM     40  C   UNL     1      11.787  -2.497  34.347  1.00  0.00     0.046 A 
ATOM     41  C   UNL     1       9.761  -2.404  33.028  1.00  0.00     0.046 A 
ATOM     42  C   UNL     1      10.505  -1.982  34.136  1.00  0.00     0.115 A 
BRANCH  42  43
ATOM     43  O   UNL     1       9.982  -1.051  35.032  1.00  0.00    -0.508 OA
ATOM     44  H   UNL     1       9.281  -0.378  34.746  1.00  0.00     0.293 HD
ENDBRANCH  42  43
ENDBRANCH  32  37
ENDBRANCH  23  24
ENDBRANCH   6  23
BRANCH   3  45
ATOM     45  O   UNL     1      18.268   0.617  25.482  1.00  0.00    -0.387 OA
ATOM     46  H   UNL     1      19.163   0.953  25.214  1.00  0.00     0.211 HD
ENDBRANCH   3  45
BRANCH   4  47
ATOM     47  C   UNL     1      18.855  -2.059  26.597  1.00  0.00     0.191 C 
BRANCH  47  48
ATOM     48  O   UNL     1      17.577  -2.066  26.020  1.00  0.00    -0.394 OA
ATOM     49  H   UNL     1      16.943  -1.766  26.723  1.00  0.00     0.210 HD
ENDBRANCH  47  48
ENDBRANCH   4  47
TORSDOF 14
ENDMDL
MODEL 5
REMARK VINA RESULT:    -5.425      1.479      2.177
REMARK INTER + INTRA:         -10.834
REMARK INTER:                  -9.162
REMARK INTRA:                  -1.672
REMARK UNBOUND:                -2.238
REMARK SMILES C[C@H]1O[C@@H](O[C@H]2[C@@H](Oc3cc(O)c4c(c3)O[C@H](c3ccc(O)cc3)CC4=O)O[C@@H](CO)[C@@H](O)[C@@H]2O)[C@H](O)[C@@H](O)[C@H]1O
REMARK SMILES IDX 6 1 34 2 32 3 29 4 28 5 7 6 5 7 4 8 1 9 2 10 40 11 3 12
REMARK SMILES IDX 38 13 36 14 41 15 39 17 37 19 35 21 8 23 9 24 10 25 15 26
REMARK SMILES IDX 11 27 14 28 13 29 16 30 26 31 17 32 27 33 25 34 12 35 18 37
REMARK SMILES IDX 19 38 24 39 20 40 23 41 21 42 22 43 33 45 30 47 31 48
REMARK H PARENT 41 16 39 18 37 20 35 22 12 36 22 44 33 46 31 49
REMARK Flexibility Score: inf
ROOT
ATOM      1  C   UNL     1      14.707  -0.330  29.434  1.00  0.00     0.221 C 
ATOM      2  C   UNL     1      15.741  -0.773  28.390  1.00  0.00     0.181 C 
ATOM      3  C   UNL     1      15.914   0.335  27.340  1.00  0.00     0.177 C 
ATOM      4  C   UNL     1      16.221   1.702  27.999  1.00  0.00     0.179 C 
ATOM      5  O   UNL     1      15.260   2.047  28.988  1.00  0.00    -0.332 OA
ATOM      6  C   UNL     1      15.078   1.059  29.998  1.00  0.00     0.339 C 
ENDROOT
BRANCH   1   7
ATOM      7  O   UNL     1      14.701  -1.290  30.484  1.00  0.00    -0.337 OA
BRANCH   7   8
ATOM      8  C   UNL     1      13.594  -2.168  30.401  1.00  0.00     0.282 C 
ATOM      9  C   UNL     1      10.410  -2.083  32.220  1.00  0.00     0.041 C 
ATOM     10  C   UNL     1      11.366  -2.426  31.073  1.00  0.00     0.150 C 
ATOM     11  C   UNL     1      11.549  -3.965  30.853  1.00  0.00     0.174 C 
ATOM     12  O   UNL     1      12.598  -1.764  31.324  1.00  0.00    -0.344 OA
ATOM     13  C   UNL     1      12.930  -4.460  31.349  1.00  0.00     0.179 C 
ATOM     14  C   UNL     1      14.077  -3.595  30.753  1.00  0.00     0.202 C 
BRANCH  11  15
ATOM     15  O   UNL     1      10.490  -4.736  31.371  1.00  0.00    -0.388 OA
ATOM     16  H   UNL     1      10.866  -5.398  32.004  1.00  0.00     0.211 HD
ENDBRANCH  11  15
BRANCH  13  17
ATOM     17  O   UNL     1      12.992  -4.484  32.757  1.00  0.00    -0.387 OA
ATOM     18  H   UNL     1      12.495  -5.281  33.076  1.00  0.00     0.211 HD
ENDBRANCH  13  17
BRANCH  14  19
ATOM     19  O   UNL     1      14.587  -4.201  29.592  1.00  0.00    -0.385 OA
ATOM     20  H   UNL     1      14.266  -5.141  29.594  1.00  0.00     0.211 HD
ENDBRANCH  14  19
ENDBRANCH   7   8
ENDBRANCH   1   7
BRANCH   2  21
ATOM     21  O   UNL     1      15.304  -1.946  27.753  1.00  0.00    -0.387 OA
ATOM     22  H   UNL     1      14.463  -1.720  27.275  1.00  0.00     0.211 HD
ENDBRANCH   2  21
BRANCH   6  23
ATOM     23  O   UNL     1      16.216   0.966  30.858  1.00  0.00    -0.462 OA
BRANCH  23  24
ATOM     24  C   UNL     1      16.592   1.934  31.803  1.00  0.00     0.130 A 
ATOM     25  C   UNL     1      17.691   1.765  32.665  1.00  0.00     0.093 A 
ATOM     26  C   UNL     1      15.836   3.103  31.885  1.00  0.00     0.094 A 
ATOM     27  C   UNL     1      18.032   2.755  33.594  1.00  0.00     0.133 A 
ATOM     28  C   UNL     1      16.187   4.120  32.774  1.00  0.00     0.138 A 
ATOM     29  C   UNL     1      17.298   3.967  33.626  1.00  0.00     0.102 A 
ATOM     30  O   UNL     1      15.423   5.298  32.793  1.00  0.00    -0.484 OA
ATOM     31  C   UNL     1      17.638   5.115  34.494  1.00  0.00     0.174 C 
ATOM     32  C   UNL     1      15.780   6.473  33.535  1.00  0.00     0.211 C 
ATOM     33  O   UNL     1      18.807   5.292  34.929  1.00  0.00    -0.294 OA
ATOM     34  C   UNL     1      16.573   6.120  34.805  1.00  0.00     0.131 C 
BRANCH  27  35
ATOM     35  O   UNL     1      19.074   2.476  34.479  1.00  0.00    -0.507 OA
ATOM     36  H   UNL     1      20.033   2.750  34.321  1.00  0.00     0.293 HD
ENDBRANCH  27  35
BRANCH  32  37
ATOM     37  C   UNL     1      16.533   7.463  32.666  1.00  0.00    -0.007 A 
ATOM     38  C   UNL     1      16.821   7.130  31.330  1.00  0.00     0.011 A 
ATOM     39  C   UNL     1      16.903   8.736  33.143  1.00  0.00     0.011 A 
ATOM     40  C   UNL     1      17.489   8.035  30.500  1.00  0.00     0.046 A 
ATOM     41  C   UNL     1      17.572   9.638  32.310  1.00  0.00     0.046 A 
ATOM     42  C   UNL     1      17.869   9.289  30.987  1.00  0.00     0.115 A 
BRANCH  42  43
ATOM     43  O   UNL     1      18.539  10.178  30.150  1.00  0.00    -0.508 OA
ATOM     44  H   UNL     1      19.473  10.508  30.367  1.00  0.00     0.293 HD
ENDBRANCH  42  43
ENDBRANCH  32  37
ENDBRANCH  23  24
ENDBRANCH   6  23
BRANCH   3  45
ATOM     45  O   UNL     1      16.878  -0.007  26.372  1.00  0.00    -0.387 OA
ATOM     46  H   UNL     1      17.133  -0.956  26.512  1.00  0.00     0.211 HD
ENDBRANCH   3  45
BRANCH   4  47
ATOM     47  C   UNL     1      17.671   1.873  28.514  1.00  0.00     0.191 C 
BRANCH  47  48
ATOM     48  O   UNL     1      18.543   2.206  27.468  1.00  0.00    -0.394 OA
ATOM     49  H   UNL     1      19.154   2.907  27.815  1.00  0.00     0.210 HD
ENDBRANCH  47  48
ENDBRANCH   4  47
TORSDOF 14
ENDMDL
MODEL 6
REMARK VINA RESULT:    -5.368      2.129      7.876
REMARK INTER + INTRA:         -10.744
REMARK INTER:                  -8.819
REMARK INTRA:                  -1.925
REMARK UNBOUND:                -2.238
REMARK SMILES C[C@H]1O[C@@H](O[C@H]2[C@@H](Oc3cc(O)c4c(c3)O[C@H](c3ccc(O)cc3)CC4=O)O[C@@H](CO)[C@@H](O)[C@@H]2O)[C@H](O)[C@@H](O)[C@H]1O
REMARK SMILES IDX 6 1 34 2 32 3 29 4 28 5 7 6 5 7 4 8 1 9 2 10 40 11 3 12
REMARK SMILES IDX 38 13 36 14 41 15 39 17 37 19 35 21 8 23 9 24 10 25 15 26
REMARK SMILES IDX 11 27 14 28 13 29 16 30 26 31 17 32 27 33 25 34 12 35 18 37
REMARK SMILES IDX 19 38 24 39 20 40 23 41 21 42 22 43 33 45 30 47 31 48
REMARK H PARENT 41 16 39 18 37 20 35 22 12 36 22 44 33 46 31 49
REMARK Flexibility Score: inf
ROOT
ATOM      1  C   UNL     1      17.100   2.112  29.312  1.00  0.00     0.221 C 
ATOM      2  C   UNL     1      18.243   3.134  29.365  1.00  0.00     0.181 C 
ATOM      3  C   UNL     1      17.668   4.531  29.644  1.00  0.00     0.177 C 
ATOM      4  C   UNL     1      16.756   4.531  30.896  1.00  0.00     0.179 C 
ATOM      5  O   UNL     1      15.741   3.539  30.818  1.00  0.00    -0.332 OA
ATOM      6  C   UNL     1      16.225   2.221  30.580  1.00  0.00     0.339 C 
ENDROOT
BRANCH   1   7
ATOM      7  O   UNL     1      17.673   0.812  29.234  1.00  0.00    -0.337 OA
BRANCH   7   8
ATOM      8  C   UNL     1      17.020  -0.005  28.279  1.00  0.00     0.282 C 
ATOM      9  C   UNL     1      15.494  -3.314  28.697  1.00  0.00     0.041 C 
ATOM     10  C   UNL     1      15.718  -1.938  28.062  1.00  0.00     0.150 C 
ATOM     11  C   UNL     1      16.198  -2.011  26.572  1.00  0.00     0.174 C 
ATOM     12  O   UNL     1      16.625  -1.222  28.888  1.00  0.00    -0.344 OA
ATOM     13  C   UNL     1      17.697  -1.652  26.429  1.00  0.00     0.179 C 
ATOM     14  C   UNL     1      18.014  -0.300  27.131  1.00  0.00     0.202 C 
BRANCH  11  15
ATOM     15  O   UNL     1      15.879  -3.228  25.940  1.00  0.00    -0.388 OA
ATOM     16  H   UNL     1      15.209  -3.046  25.233  1.00  0.00     0.211 HD
ENDBRANCH  11  15
BRANCH  13  17
ATOM     17  O   UNL     1      18.522  -2.683  26.920  1.00  0.00    -0.387 OA
ATOM     18  H   UNL     1      19.063  -2.319  27.667  1.00  0.00     0.211 HD
ENDBRANCH  13  17
BRANCH  14  19
ATOM     19  O   UNL     1      17.958   0.752  26.201  1.00  0.00    -0.385 OA
ATOM     20  H   UNL     1      18.805   1.263  26.292  1.00  0.00     0.211 HD
ENDBRANCH  14  19
ENDBRANCH   7   8
ENDBRANCH   1   7
BRANCH   2  21
ATOM     21  O   UNL     1      18.922   3.154  28.136  1.00  0.00    -0.387 OA
ATOM     22  H   UNL     1      19.840   2.814  28.306  1.00  0.00     0.211 HD
ENDBRANCH   2  21
BRANCH   6  23
ATOM     23  O   UNL     1      16.919   1.700  31.717  1.00  0.00    -0.462 OA
BRANCH  23  24
ATOM     24  C   UNL     1      16.446   0.671  32.547  1.00  0.00     0.130 A 
ATOM     25  C   UNL     1      16.436   0.771  33.949  1.00  0.00     0.093 A 
ATOM     26  C   UNL     1      15.973  -0.495  31.944  1.00  0.00     0.094 A 
ATOM     27  C   UNL     1      15.956  -0.279  34.740  1.00  0.00     0.133 A 
ATOM     28  C   UNL     1      15.450  -1.535  32.714  1.00  0.00     0.138 A 
ATOM     29  C   UNL     1      15.418  -1.433  34.118  1.00  0.00     0.102 A 
ATOM     30  O   UNL     1      14.945  -2.673  32.064  1.00  0.00    -0.484 OA
ATOM     31  C   UNL     1      14.792  -2.552  34.856  1.00  0.00     0.174 C 
ATOM     32  C   UNL     1      14.234  -3.726  32.729  1.00  0.00     0.211 C 
ATOM     33  O   UNL     1      14.295  -2.393  36.003  1.00  0.00    -0.294 OA
ATOM     34  C   UNL     1      14.696  -3.888  34.187  1.00  0.00     0.131 C 
BRANCH  27  35
ATOM     35  O   UNL     1      16.068  -0.146  36.125  1.00  0.00    -0.507 OA
ATOM     36  H   UNL     1      16.844   0.308  36.585  1.00  0.00     0.293 HD
ENDBRANCH  27  35
BRANCH  32  37
ATOM     37  C   UNL     1      12.733  -3.516  32.640  1.00  0.00    -0.007 A 
ATOM     38  C   UNL     1      11.986  -4.257  31.707  1.00  0.00     0.011 A 
ATOM     39  C   UNL     1      12.055  -2.639  33.509  1.00  0.00     0.011 A 
ATOM     40  C   UNL     1      10.599  -4.103  31.623  1.00  0.00     0.046 A 
ATOM     41  C   UNL     1      10.669  -2.487  33.422  1.00  0.00     0.046 A 
ATOM     42  C   UNL     1       9.937  -3.216  32.477  1.00  0.00     0.115 A 
BRANCH  42  43
ATOM     43  O   UNL     1       8.555  -3.069  32.379  1.00  0.00    -0.508 OA
ATOM     44  H   UNL     1       8.138  -2.224  32.004  1.00  0.00     0.293 HD
ENDBRANCH  42  43
ENDBRANCH  32  37
ENDBRANCH  23  24
ENDBRANCH   6  23
BRANCH   3  45
ATOM     45  O   UNL     1      18.679   5.505  29.735  1.00  0.00    -0.387 OA
ATOM     46  H   UNL     1      19.127   5.405  30.616  1.00  0.00     0.211 HD
ENDBRANCH   3  45
BRANCH   4  47
ATOM     47  C   UNL     1      17.500   4.494  32.253  1.00  0.00     0.191 C 
BRANCH  47  48
ATOM     48  O   UNL     1      18.103   5.729  32.532  1.00  0.00    -0.394 OA
ATOM     49  H   UNL     1      17.684   6.071  33.365  1.00  0.00     0.210 HD
ENDBRANCH  47  48
ENDBRANCH   4  47
TORSDOF 14
ENDMDL
MODEL 7
REMARK VINA RESULT:    -5.342      3.792     10.996
REMARK INTER + INTRA:         -10.703
REMARK INTER:                  -8.295
REMARK INTRA:                  -2.408
REMARK UNBOUND:                -2.238
REMARK SMILES C[C@H]1O[C@@H](O[C@H]2[C@@H](Oc3cc(O)c4c(c3)O[C@H](c3ccc(O)cc3)CC4=O)O[C@@H](CO)[C@@H](O)[C@@H]2O)[C@H](O)[C@@H](O)[C@H]1O
REMARK SMILES IDX 6 1 34 2 32 3 29 4 28 5 7 6 5 7 4 8 1 9 2 10 40 11 3 12
REMARK SMILES IDX 38 13 36 14 41 15 39 17 37 19 35 21 8 23 9 24 10 25 15 26
REMARK SMILES IDX 11 27 14 28 13 29 16 30 26 31 17 32 27 33 25 34 12 35 18 37
REMARK SMILES IDX 19 38 24 39 20 40 23 41 21 42 22 43 33 45 30 47 31 48
REMARK H PARENT 41 16 39 18 37 20 35 22 12 36 22 44 33 46 31 49
REMARK Flexibility Score: inf
ROOT
ATOM      1  C   UNL     1      16.429  10.061  32.544  1.00  0.00     0.221 C 
ATOM      2  C   UNL     1      17.161  10.583  33.787  1.00  0.00     0.181 C 
ATOM      3  C   UNL     1      16.163  10.726  34.946  1.00  0.00     0.177 C 
ATOM      4  C   UNL     1      15.368   9.418  35.178  1.00  0.00     0.179 C 
ATOM      5  O   UNL     1      14.745   8.952  33.989  1.00  0.00    -0.332 OA
ATOM      6  C   UNL     1      15.633   8.783  32.888  1.00  0.00     0.339 C 
ENDROOT
BRANCH   1   7
ATOM      7  O   UNL     1      17.402   9.768  31.549  1.00  0.00    -0.337 OA
BRANCH   7   8
ATOM      8  C   UNL     1      17.164  10.472  30.343  1.00  0.00     0.282 C 
ATOM      9  C   UNL     1      15.707  13.799  29.833  1.00  0.00     0.041 C 
ATOM     10  C   UNL     1      16.558  12.569  29.499  1.00  0.00     0.150 C 
ATOM     11  C   UNL     1      16.104  11.835  28.191  1.00  0.00     0.174 C 
ATOM     12  O   UNL     1      16.545  11.712  30.632  1.00  0.00    -0.344 OA
ATOM     13  C   UNL     1      15.379  10.502  28.498  1.00  0.00     0.179 C 
ATOM     14  C   UNL     1      16.225   9.618  29.459  1.00  0.00     0.202 C 
BRANCH  11  15
ATOM     15  O   UNL     1      15.364  12.655  27.316  1.00  0.00    -0.388 OA
ATOM     16  H   UNL     1      14.415  12.376  27.355  1.00  0.00     0.211 HD
ENDBRANCH  11  15
BRANCH  13  17
ATOM     17  O   UNL     1      14.089  10.726  29.019  1.00  0.00    -0.387 OA
ATOM     18  H   UNL     1      13.914  10.046  29.719  1.00  0.00     0.211 HD
ENDBRANCH  13  17
BRANCH  14  19
ATOM     19  O   UNL     1      16.999   8.707  28.722  1.00  0.00    -0.385 OA
ATOM     20  H   UNL     1      17.796   8.492  29.274  1.00  0.00     0.211 HD
ENDBRANCH  14  19
ENDBRANCH   7   8
ENDBRANCH   1   7
BRANCH   2  21
ATOM     21  O   UNL     1      17.731  11.837  33.514  1.00  0.00    -0.387 OA
ATOM     22  H   UNL     1      16.997  12.504  33.556  1.00  0.00     0.211 HD
ENDBRANCH   2  21
BRANCH   6  23
ATOM     23  O   UNL     1      16.517   7.678  33.089  1.00  0.00    -0.462 OA
BRANCH  23  24
ATOM     24  C   UNL     1      16.469   6.469  32.377  1.00  0.00     0.130 A 
ATOM     25  C   UNL     1      17.285   6.213  31.261  1.00  0.00     0.093 A 
ATOM     26  C   UNL     1      15.569   5.490  32.801  1.00  0.00     0.094 A 
ATOM     27  C   UNL     1      17.206   4.993  30.578  1.00  0.00     0.133 A 
ATOM     28  C   UNL     1      15.506   4.252  32.160  1.00  0.00     0.138 A 
ATOM     29  C   UNL     1      16.335   3.981  31.054  1.00  0.00     0.102 A 
ATOM     30  O   UNL     1      14.615   3.281  32.646  1.00  0.00    -0.484 OA
ATOM     31  C   UNL     1      16.251   2.625  30.471  1.00  0.00     0.174 C 
ATOM     32  C   UNL     1      14.580   1.924  32.184  1.00  0.00     0.211 C 
ATOM     33  O   UNL     1      17.209   2.119  29.829  1.00  0.00    -0.294 OA
ATOM     34  C   UNL     1      15.014   1.816  30.712  1.00  0.00     0.131 C 
BRANCH  27  35
ATOM     35  O   UNL     1      17.977   4.849  29.424  1.00  0.00    -0.507 OA
ATOM     36  H   UNL     1      18.987   4.869  29.417  1.00  0.00     0.293 HD
ENDBRANCH  27  35
BRANCH  32  37
ATOM     37  C   UNL     1      15.408   1.018  33.077  1.00  0.00    -0.007 A 
ATOM     38  C   UNL     1      15.714   1.431  34.386  1.00  0.00     0.011 A 
ATOM     39  C   UNL     1      15.833  -0.255  32.650  1.00  0.00     0.011 A 
ATOM     40  C   UNL     1      16.452   0.604  35.238  1.00  0.00     0.046 A 
ATOM     41  C   UNL     1      16.572  -1.079  33.504  1.00  0.00     0.046 A 
ATOM     42  C   UNL     1      16.886  -0.650  34.799  1.00  0.00     0.115 A 
BRANCH  42  43
ATOM     43  O   UNL     1      17.625  -1.462  35.658  1.00  0.00    -0.508 OA
ATOM     44  H   UNL     1      18.339  -1.076  36.265  1.00  0.00     0.293 HD
ENDBRANCH  42  43
ENDBRANCH  32  37
ENDBRANCH  23  24
ENDBRANCH   6  23
BRANCH   3  45
ATOM     45  O   UNL     1      16.789  11.173  36.125  1.00  0.00    -0.387 OA
ATOM     46  H   UNL     1      17.757  11.292  35.934  1.00  0.00     0.211 HD
ENDBRANCH   3  45
BRANCH   4  47
ATOM     47  C   UNL     1      16.148   8.293  35.903  1.00  0.00     0.191 C 
BRANCH  47  48
ATOM     48  O   UNL     1      15.404   7.106  35.941  1.00  0.00    -0.394 OA
ATOM     49  H   UNL     1      15.218   6.914  36.898  1.00  0.00     0.210 HD
ENDBRANCH  47  48
ENDBRANCH   4  47
TORSDOF 14
ENDMDL
MODEL 8
REMARK VINA RESULT:    -5.328      1.978      3.031
REMARK INTER + INTRA:         -10.680
REMARK INTER:                  -9.042
REMARK INTRA:                  -1.638
REMARK UNBOUND:                -2.238
REMARK SMILES C[C@H]1O[C@@H](O[C@H]2[C@@H](Oc3cc(O)c4c(c3)O[C@H](c3ccc(O)cc3)CC4=O)O[C@@H](CO)[C@@H](O)[C@@H]2O)[C@H](O)[C@@H](O)[C@H]1O
REMARK SMILES IDX 6 1 34 2 32 3 29 4 28 5 7 6 5 7 4 8 1 9 2 10 40 11 3 12
REMARK SMILES IDX 38 13 36 14 41 15 39 17 37 19 35 21 8 23 9 24 10 25 15 26
REMARK SMILES IDX 11 27 14 28 13 29 16 30 26 31 17 32 27 33 25 34 12 35 18 37
REMARK SMILES IDX 19 38 24 39 20 40 23 41 21 42 22 43 33 45 30 47 31 48
REMARK H PARENT 41 16 39 18 37 20 35 22 12 36 22 44 33 46 31 49
REMARK Flexibility Score: inf
ROOT
ATOM      1  C   UNL     1      14.691  -2.973  30.498  1.00  0.00     0.221 C 
ATOM      2  C   UNL     1      15.632  -4.124  30.117  1.00  0.00     0.181 C 
ATOM      3  C   UNL     1      15.701  -4.242  28.586  1.00  0.00     0.177 C 
ATOM      4  C   UNL     1      16.054  -2.886  27.926  1.00  0.00     0.179 C 
ATOM      5  O   UNL     1      15.182  -1.845  28.344  1.00  0.00    -0.332 OA
ATOM      6  C   UNL     1      15.098  -1.681  29.757  1.00  0.00     0.339 C 
ENDROOT
BRANCH   1   7
ATOM      7  O   UNL     1      14.787  -2.772  31.903  1.00  0.00    -0.337 OA
BRANCH   7   8
ATOM      8  C   UNL     1      13.524  -2.839  32.541  1.00  0.00     0.282 C 
ATOM      9  C   UNL     1      10.388  -4.327  31.357  1.00  0.00     0.041 C 
ATOM     10  C   UNL     1      11.408  -3.826  32.385  1.00  0.00     0.150 C 
ATOM     11  C   UNL     1      10.870  -2.654  33.274  1.00  0.00     0.174 C 
ATOM     12  O   UNL     1      12.593  -3.475  31.685  1.00  0.00    -0.344 OA
ATOM     13  C   UNL     1      11.501  -1.295  32.883  1.00  0.00     0.179 C 
ATOM     14  C   UNL     1      13.053  -1.395  32.837  1.00  0.00     0.202 C 
BRANCH  11  15
ATOM     15  O   UNL     1       9.464  -2.593  33.332  1.00  0.00    -0.388 OA
ATOM     16  H   UNL     1       9.175  -2.895  34.229  1.00  0.00     0.211 HD
ENDBRANCH  11  15
BRANCH  13  17
ATOM     17  O   UNL     1      10.987  -0.824  31.659  1.00  0.00    -0.387 OA
ATOM     18  H   UNL     1      11.184  -1.499  30.959  1.00  0.00     0.211 HD
ENDBRANCH  13  17
BRANCH  14  19
ATOM     19  O   UNL     1      13.600  -0.982  34.064  1.00  0.00    -0.385 OA
ATOM     20  H   UNL     1      14.257  -1.676  34.335  1.00  0.00     0.211 HD
ENDBRANCH  14  19
ENDBRANCH   7   8
ENDBRANCH   1   7
BRANCH   2  21
ATOM     21  O   UNL     1      15.150  -5.331  30.649  1.00  0.00    -0.387 OA
ATOM     22  H   UNL     1      15.504  -5.402  31.574  1.00  0.00     0.211 HD
ENDBRANCH   2  21
BRANCH   6  23
ATOM     23  O   UNL     1      16.309  -1.149  30.299  1.00  0.00    -0.462 OA
BRANCH  23  24
ATOM     24  C   UNL     1      16.709   0.194  30.212  1.00  0.00     0.130 A 
ATOM     25  C   UNL     1      16.350   1.023  29.135  1.00  0.00     0.093 A 
ATOM     26  C   UNL     1      17.497   0.714  31.239  1.00  0.00     0.094 A 
ATOM     27  C   UNL     1      16.770   2.357  29.085  1.00  0.00     0.133 A 
ATOM     28  C   UNL     1      17.889   2.054  31.229  1.00  0.00     0.138 A 
ATOM     29  C   UNL     1      17.516   2.896  30.163  1.00  0.00     0.102 A 
ATOM     30  O   UNL     1      18.647   2.547  32.304  1.00  0.00    -0.484 OA
ATOM     31  C   UNL     1      17.920   4.315  30.260  1.00  0.00     0.174 C 
ATOM     32  C   UNL     1      18.963   3.933  32.491  1.00  0.00     0.211 C 
ATOM     33  O   UNL     1      17.289   5.225  29.658  1.00  0.00    -0.294 OA
ATOM     34  C   UNL     1      19.069   4.676  31.148  1.00  0.00     0.131 C 
BRANCH  27  35
ATOM     35  O   UNL     1      16.456   3.090  27.940  1.00  0.00    -0.507 OA
ATOM     36  H   UNL     1      15.884   3.922  27.945  1.00  0.00     0.293 HD
ENDBRANCH  27  35
BRANCH  32  37
ATOM     37  C   UNL     1      17.968   4.603  33.421  1.00  0.00    -0.007 A 
ATOM     38  C   UNL     1      18.379   5.702  34.196  1.00  0.00     0.011 A 
ATOM     39  C   UNL     1      16.623   4.190  33.488  1.00  0.00     0.011 A 
ATOM     40  C   UNL     1      17.475   6.355  35.040  1.00  0.00     0.046 A 
ATOM     41  C   UNL     1      15.722   4.844  34.333  1.00  0.00     0.046 A 
ATOM     42  C   UNL     1      16.147   5.926  35.114  1.00  0.00     0.115 A 
BRANCH  42  43
ATOM     43  O   UNL     1      15.258   6.583  35.963  1.00  0.00    -0.508 OA
ATOM     44  H   UNL     1      14.725   6.079  36.662  1.00  0.00     0.293 HD
ENDBRANCH  42  43
ENDBRANCH  32  37
ENDBRANCH  23  24
ENDBRANCH   6  23
BRANCH   3  45
ATOM     45  O   UNL     1      16.578  -5.265  28.179  1.00  0.00    -0.387 OA
ATOM     46  H   UNL     1      17.004  -5.648  28.990  1.00  0.00     0.211 HD
ENDBRANCH   3  45
BRANCH   4  47
ATOM     47  C   UNL     1      17.542  -2.472  28.028  1.00  0.00     0.191 C 
BRANCH  47  48
ATOM     48  O   UNL     1      17.852  -1.470  27.098  1.00  0.00    -0.394 OA
ATOM     49  H   UNL     1      18.756  -1.676  26.743  1.00  0.00     0.210 HD
ENDBRANCH  47  48
ENDBRANCH   4  47
TORSDOF 14
ENDMDL
MODEL 9
REMARK VINA RESULT:    -5.308      2.159      8.197
REMARK INTER + INTRA:         -10.649
REMARK INTER:                  -8.660
REMARK INTRA:                  -1.990
REMARK UNBOUND:                -2.238
REMARK SMILES C[C@H]1O[C@@H](O[C@H]2[C@@H](Oc3cc(O)c4c(c3)O[C@H](c3ccc(O)cc3)CC4=O)O[C@@H](CO)[C@@H](O)[C@@H]2O)[C@H](O)[C@@H](O)[C@H]1O
REMARK SMILES IDX 6 1 34 2 32 3 29 4 28 5 7 6 5 7 4 8 1 9 2 10 40 11 3 12
REMARK SMILES IDX 38 13 36 14 41 15 39 17 37 19 35 21 8 23 9 24 10 25 15 26
REMARK SMILES IDX 11 27 14 28 13 29 16 30 26 31 17 32 27 33 25 34 12 35 18 37
REMARK SMILES IDX 19 38 24 39 20 40 23 41 21 42 22 43 33 45 30 47 31 48
REMARK H PARENT 41 16 39 18 37 20 35 22 12 36 22 44 33 46 31 49
REMARK Flexibility Score: inf
ROOT
ATOM      1  C   UNL     1      17.134   3.222  30.852  1.00  0.00     0.221 C 
ATOM      2  C   UNL     1      18.080   4.290  31.418  1.00  0.00     0.181 C 
ATOM      3  C   UNL     1      17.276   5.553  31.765  1.00  0.00     0.177 C 
ATOM      4  C   UNL     1      16.068   5.225  32.676  1.00  0.00     0.179 C 
ATOM      5  O   UNL     1      15.247   4.201  32.130  1.00  0.00    -0.332 OA
ATOM      6  C   UNL     1      15.943   3.001  31.809  1.00  0.00     0.339 C 
ENDROOT
BRANCH   1   7
ATOM      7  O   UNL     1      17.869   2.013  30.710  1.00  0.00    -0.337 OA
BRANCH   7   8
ATOM      8  C   UNL     1      17.628   1.382  29.465  1.00  0.00     0.282 C 
ATOM      9  C   UNL     1      14.649   1.504  27.328  1.00  0.00     0.041 C 
ATOM     10  C   UNL     1      16.133   1.325  27.664  1.00  0.00     0.150 C 
ATOM     11  C   UNL     1      16.675  -0.110  27.349  1.00  0.00     0.174 C 
ATOM     12  O   UNL     1      16.315   1.684  29.027  1.00  0.00    -0.344 OA
ATOM     13  C   UNL     1      16.904  -0.938  28.637  1.00  0.00     0.179 C 
ATOM     14  C   UNL     1      17.768  -0.146  29.660  1.00  0.00     0.202 C 
BRANCH  11  15
ATOM     15  O   UNL     1      15.901  -0.805  26.399  1.00  0.00    -0.388 OA
ATOM     16  H   UNL     1      15.236  -0.177  26.018  1.00  0.00     0.211 HD
ENDBRANCH  11  15
BRANCH  13  17
ATOM     17  O   UNL     1      15.683  -1.344  29.211  1.00  0.00    -0.387 OA
ATOM     18  H   UNL     1      15.619  -0.947  30.118  1.00  0.00     0.211 HD
ENDBRANCH  13  17
BRANCH  14  19
ATOM     19  O   UNL     1      19.122  -0.499  29.524  1.00  0.00    -0.385 OA
ATOM     20  H   UNL     1      19.218  -0.939  28.639  1.00  0.00     0.211 HD
ENDBRANCH  14  19
ENDBRANCH   7   8
ENDBRANCH   1   7
BRANCH   2  21
ATOM     21  O   UNL     1      19.057   4.616  30.464  1.00  0.00    -0.387 OA
ATOM     22  H   UNL     1      18.590   4.719  29.593  1.00  0.00     0.211 HD
ENDBRANCH   2  21
BRANCH   6  23
ATOM     23  O   UNL     1      16.364   2.304  32.984  1.00  0.00    -0.462 OA
BRANCH  23  24
ATOM     24  C   UNL     1      16.024   0.979  33.301  1.00  0.00     0.130 A 
ATOM     25  C   UNL     1      16.258   0.418  34.568  1.00  0.00     0.093 A 
ATOM     26  C   UNL     1      15.435   0.196  32.307  1.00  0.00     0.094 A 
ATOM     27  C   UNL     1      15.905  -0.908  34.843  1.00  0.00     0.133 A 
ATOM     28  C   UNL     1      15.035  -1.114  32.575  1.00  0.00     0.138 A 
ATOM     29  C   UNL     1      15.248  -1.676  33.849  1.00  0.00     0.102 A 
ATOM     30  O   UNL     1      14.407  -1.853  31.559  1.00  0.00    -0.484 OA
ATOM     31  C   UNL     1      14.740  -3.047  34.068  1.00  0.00     0.174 C 
ATOM     32  C   UNL     1      13.803  -3.138  31.759  1.00  0.00     0.211 C 
ATOM     33  O   UNL     1      14.451  -3.471  35.219  1.00  0.00    -0.294 OA
ATOM     34  C   UNL     1      14.507  -3.925  32.878  1.00  0.00     0.131 C 
BRANCH  27  35
ATOM     35  O   UNL     1      16.255  -1.424  36.091  1.00  0.00    -0.507 OA
ATOM     36  H   UNL     1      16.840  -2.237  36.218  1.00  0.00     0.293 HD
ENDBRANCH  27  35
BRANCH  32  37
ATOM     37  C   UNL     1      12.314  -3.010  32.021  1.00  0.00    -0.007 A 
ATOM     38  C   UNL     1      11.456  -4.063  31.656  1.00  0.00     0.011 A 
ATOM     39  C   UNL     1      11.770  -1.887  32.674  1.00  0.00     0.011 A 
ATOM     40  C   UNL     1      10.084  -3.983  31.910  1.00  0.00     0.046 A 
ATOM     41  C   UNL     1      10.397  -1.810  32.926  1.00  0.00     0.046 A 
ATOM     42  C   UNL     1       9.550  -2.857  32.542  1.00  0.00     0.115 A 
BRANCH  42  43
ATOM     43  O   UNL     1       8.179  -2.789  32.784  1.00  0.00    -0.508 OA
ATOM     44  H   UNL     1       7.809  -2.788  33.728  1.00  0.00     0.293 HD
ENDBRANCH  42  43
ENDBRANCH  32  37
ENDBRANCH  23  24
ENDBRANCH   6  23
BRANCH   3  45
ATOM     45  O   UNL     1      18.092   6.556  32.320  1.00  0.00    -0.387 OA
ATOM     46  H   UNL     1      18.324   6.289  33.248  1.00  0.00     0.211 HD
ENDBRANCH   3  45
BRANCH   4  47
ATOM     47  C   UNL     1      16.416   4.959  34.161  1.00  0.00     0.191 C 
BRANCH  47  48
ATOM     48  O   UNL     1      15.501   5.590  35.016  1.00  0.00    -0.394 OA
ATOM     49  H   UNL     1      15.071   4.876  35.555  1.00  0.00     0.210 HD
ENDBRANCH  47  48
ENDBRANCH   4  47
TORSDOF 14
ENDMDL
