MODEL 1
REMARK VINA RESULT:    -4.887      0.000      0.000
REMARK INTER + INTRA:          -5.507
REMARK INTER:                  -5.316
REMARK INTRA:                  -0.191
REMARK UNBOUND:                -0.191
REMARK SMILES C=C(C)[C@H]1CC[C@H](C)C[C@H]1O
REMARK SMILES IDX 8 1 7 2 6 3 5 4 4 5 10 6 9 7 11 8 2 10 1 11 3 12
REMARK H PARENT 11 9
REMARK Flexibility Score: inf
ROOT
ATOM      1  C   UNL     1     119.318 127.902 129.369  1.00  0.00     0.008 C 
ATOM      2  C   UNL     1     119.780 129.290 128.915  1.00  0.00    -0.012 C 
ATOM      3  C   UNL     1     118.857 130.381 129.493  1.00  0.00     0.004 C 
ATOM      4  C   UNL     1     119.324 131.782 129.072  1.00  0.00     0.011 C 
ATOM      5  C   UNL     1     120.788 132.021 129.498  1.00  0.00     0.043 C 
ATOM      6  C   UNL     1     121.727 130.939 128.916  1.00  0.00     0.121 C 
ATOM      7  C   UNL     1     121.245 129.536 129.335  1.00  0.00     0.035 C 
ENDROOT
BRANCH   6   8
ATOM      8  O   UNL     1     121.779 131.026 127.514  1.00  0.00    -0.392 OA
ATOM      9  H   UNL     1     121.670 131.984 127.281  1.00  0.00     0.210 HD
ENDBRANCH   6   8
BRANCH   5  10
ATOM     10  C   UNL     1     121.262 133.433 129.168  1.00  0.00    -0.075 C 
ATOM     11  C   UNL     1     120.540 134.260 128.392  1.00  0.00     0.008 C 
ATOM     12  C   UNL     1     122.570 133.937 129.725  1.00  0.00     0.039 C 
ENDBRANCH   5  10
TORSDOF 2
ENDMDL
MODEL 2
REMARK VINA RESULT:    -4.735     15.788     16.830
REMARK INTER + INTRA:          -5.341
REMARK INTER:                  -5.258
REMARK INTRA:                  -0.083
REMARK UNBOUND:                -0.191
REMARK SMILES C=C(C)[C@H]1CC[C@H](C)C[C@H]1O
REMARK SMILES IDX 8 1 7 2 6 3 5 4 4 5 10 6 9 7 11 8 2 10 1 11 3 12
REMARK H PARENT 11 9
REMARK Flexibility Score: inf
ROOT
ATOM      1  C   UNL     1     123.689 116.713 118.943  1.00  0.00     0.008 C 
ATOM      2  C   UNL     1     124.787 117.736 118.634  1.00  0.00    -0.012 C 
ATOM      3  C   UNL     1     124.355 119.144 119.090  1.00  0.00     0.004 C 
ATOM      4  C   UNL     1     125.457 120.177 118.815  1.00  0.00     0.011 C 
ATOM      5  C   UNL     1     126.778 119.763 119.495  1.00  0.00     0.043 C 
ATOM      6  C   UNL     1     127.229 118.355 119.037  1.00  0.00     0.121 C 
ATOM      7  C   UNL     1     126.113 117.327 119.309  1.00  0.00     0.035 C 
ENDROOT
BRANCH   6   8
ATOM      8  O   UNL     1     127.554 118.356 117.670  1.00  0.00    -0.392 OA
ATOM      9  H   UNL     1     126.701 118.436 117.171  1.00  0.00     0.210 HD
ENDBRANCH   6   8
BRANCH   5  10
ATOM     10  C   UNL     1     127.876 120.807 119.310  1.00  0.00    -0.075 C 
ATOM     11  C   UNL     1     127.594 122.079 118.980  1.00  0.00     0.008 C 
ATOM     12  C   UNL     1     129.320 120.423 119.509  1.00  0.00     0.039 C 
ENDBRANCH   5  10
TORSDOF 2
ENDMDL
MODEL 3
REMARK VINA RESULT:    -4.473      8.951     11.196
REMARK INTER + INTRA:          -5.057
REMARK INTER:                  -4.863
REMARK INTRA:                  -0.194
REMARK UNBOUND:                -0.191
REMARK SMILES C=C(C)[C@H]1CC[C@H](C)C[C@H]1O
REMARK SMILES IDX 8 1 7 2 6 3 5 4 4 5 10 6 9 7 11 8 2 10 1 11 3 12
REMARK H PARENT 11 9
REMARK Flexibility Score: inf
ROOT
ATOM      1  C   UNL     1     115.874 120.117 134.591  1.00  0.00     0.008 C 
ATOM      2  C   UNL     1     115.842 121.152 133.462  1.00  0.00    -0.012 C 
ATOM      3  C   UNL     1     117.211 121.223 132.756  1.00  0.00     0.004 C 
ATOM      4  C   UNL     1     117.187 122.234 131.602  1.00  0.00     0.011 C 
ATOM      5  C   UNL     1     116.070 121.890 130.595  1.00  0.00     0.043 C 
ATOM      6  C   UNL     1     114.688 121.826 131.288  1.00  0.00     0.121 C 
ATOM      7  C   UNL     1     114.725 120.816 132.452  1.00  0.00     0.035 C 
ENDROOT
BRANCH   6   8
ATOM      8  O   UNL     1     114.313 123.093 131.768  1.00  0.00    -0.392 OA
ATOM      9  H   UNL     1     114.484 123.093 132.745  1.00  0.00     0.210 HD
ENDBRANCH   6   8
BRANCH   5  10
ATOM     10  C   UNL     1     116.067 122.827 129.391  1.00  0.00    -0.075 C 
ATOM     11  C   UNL     1     116.881 123.896 129.324  1.00  0.00     0.008 C 
ATOM     12  C   UNL     1     115.142 122.559 128.231  1.00  0.00     0.039 C 
ENDBRANCH   5  10
TORSDOF 2
ENDMDL
MODEL 4
REMARK VINA RESULT:    -4.463      1.735      4.390
REMARK INTER + INTRA:          -5.045
REMARK INTER:                  -4.915
REMARK INTRA:                  -0.131
REMARK UNBOUND:                -0.191
REMARK SMILES C=C(C)[C@H]1CC[C@H](C)C[C@H]1O
REMARK SMILES IDX 8 1 7 2 6 3 5 4 4 5 10 6 9 7 11 8 2 10 1 11 3 12
REMARK H PARENT 11 9
REMARK Flexibility Score: inf
ROOT
ATOM      1  C   UNL     1     122.367 132.589 128.225  1.00  0.00     0.008 C 
ATOM      2  C   UNL     1     121.357 131.747 129.011  1.00  0.00    -0.012 C 
ATOM      3  C   UNL     1     119.927 131.993 128.488  1.00  0.00     0.004 C 
ATOM      4  C   UNL     1     118.905 131.133 129.246  1.00  0.00     0.011 C 
ATOM      5  C   UNL     1     119.272 129.637 129.152  1.00  0.00     0.043 C 
ATOM      6  C   UNL     1     120.701 129.375 129.684  1.00  0.00     0.121 C 
ATOM      7  C   UNL     1     121.719 130.249 128.924  1.00  0.00     0.035 C 
ENDROOT
BRANCH   6   8
ATOM      8  O   UNL     1     120.778 129.642 131.062  1.00  0.00    -0.392 OA
ATOM      9  H   UNL     1     121.380 130.422 131.170  1.00  0.00     0.210 HD
ENDBRANCH   6   8
BRANCH   5  10
ATOM     10  C   UNL     1     118.234 128.744 129.826  1.00  0.00    -0.075 C 
ATOM     11  C   UNL     1     117.443 129.199 130.813  1.00  0.00     0.008 C 
ATOM     12  C   UNL     1     118.071 127.313 129.381  1.00  0.00     0.039 C 
ENDBRANCH   5  10
TORSDOF 2
ENDMDL
MODEL 5
REMARK VINA RESULT:    -4.411     10.120     11.793
REMARK INTER + INTRA:          -4.989
REMARK INTER:                  -4.825
REMARK INTRA:                  -0.164
REMARK UNBOUND:                -0.191
REMARK SMILES C=C(C)[C@H]1CC[C@H](C)C[C@H]1O
REMARK SMILES IDX 8 1 7 2 6 3 5 4 4 5 10 6 9 7 11 8 2 10 1 11 3 12
REMARK H PARENT 11 9
REMARK Flexibility Score: inf
ROOT
ATOM      1  C   UNL     1     115.770 121.737 127.962  1.00  0.00     0.008 C 
ATOM      2  C   UNL     1     115.580 121.720 129.482  1.00  0.00    -0.012 C 
ATOM      3  C   UNL     1     115.427 120.272 129.990  1.00  0.00     0.004 C 
ATOM      4  C   UNL     1     115.265 120.235 131.516  1.00  0.00     0.011 C 
ATOM      5  C   UNL     1     116.453 120.935 132.209  1.00  0.00     0.043 C 
ATOM      6  C   UNL     1     116.612 122.393 131.716  1.00  0.00     0.121 C 
ATOM      7  C   UNL     1     116.763 122.421 130.182  1.00  0.00     0.035 C 
ENDROOT
BRANCH   6   8
ATOM      8  O   UNL     1     115.507 123.172 132.101  1.00  0.00    -0.392 OA
ATOM      9  H   UNL     1     114.824 123.074 131.388  1.00  0.00     0.210 HD
ENDBRANCH   6   8
BRANCH   5  10
ATOM     10  C   UNL     1     116.368 120.847 133.730  1.00  0.00    -0.075 C 
ATOM     11  C   UNL     1     117.460 120.956 134.507  1.00  0.00     0.008 C 
ATOM     12  C   UNL     1     115.032 120.642 134.398  1.00  0.00     0.039 C 
ENDBRANCH   5  10
TORSDOF 2
ENDMDL
MODEL 6
REMARK VINA RESULT:    -4.371     15.910     17.051
REMARK INTER + INTRA:          -4.945
REMARK INTER:                  -4.844
REMARK INTRA:                  -0.101
REMARK UNBOUND:                -0.191
REMARK SMILES C=C(C)[C@H]1CC[C@H](C)C[C@H]1O
REMARK SMILES IDX 8 1 7 2 6 3 5 4 4 5 10 6 9 7 11 8 2 10 1 11 3 12
REMARK H PARENT 11 9
REMARK Flexibility Score: inf
ROOT
ATOM      1  C   UNL     1     128.340 121.588 118.973  1.00  0.00     0.008 C 
ATOM      2  C   UNL     1     127.196 120.652 119.377  1.00  0.00    -0.012 C 
ATOM      3  C   UNL     1     125.964 120.887 118.480  1.00  0.00     0.004 C 
ATOM      4  C   UNL     1     124.818 119.936 118.852  1.00  0.00     0.011 C 
ATOM      5  C   UNL     1     125.279 118.466 118.773  1.00  0.00     0.043 C 
ATOM      6  C   UNL     1     126.509 118.213 119.677  1.00  0.00     0.121 C 
ATOM      7  C   UNL     1     127.651 119.179 119.302  1.00  0.00     0.035 C 
ENDROOT
BRANCH   6   8
ATOM      8  O   UNL     1     126.173 118.374 121.032  1.00  0.00    -0.392 OA
ATOM      9  H   UNL     1     126.056 119.347 121.186  1.00  0.00     0.210 HD
ENDBRANCH   6   8
BRANCH   5  10
ATOM     10  C   UNL     1     124.144 117.488 119.058  1.00  0.00    -0.075 C 
ATOM     11  C   UNL     1     124.085 116.280 118.468  1.00  0.00     0.008 C 
ATOM     12  C   UNL     1     123.054 117.862 120.030  1.00  0.00     0.039 C 
ENDBRANCH   5  10
TORSDOF 2
ENDMDL
MODEL 7
REMARK VINA RESULT:    -4.345      2.400      3.993
REMARK INTER + INTRA:          -4.917
REMARK INTER:                  -4.732
REMARK INTRA:                  -0.184
REMARK UNBOUND:                -0.191
REMARK SMILES C=C(C)[C@H]1CC[C@H](C)C[C@H]1O
REMARK SMILES IDX 8 1 7 2 6 3 5 4 4 5 10 6 9 7 11 8 2 10 1 11 3 12
REMARK H PARENT 11 9
REMARK Flexibility Score: inf
ROOT
ATOM      1  C   UNL     1     116.371 134.760 129.453  1.00  0.00     0.008 C 
ATOM      2  C   UNL     1     117.719 134.413 128.812  1.00  0.00    -0.012 C 
ATOM      3  C   UNL     1     118.871 135.099 129.575  1.00  0.00     0.004 C 
ATOM      4  C   UNL     1     120.231 134.738 128.963  1.00  0.00     0.011 C 
ATOM      5  C   UNL     1     120.430 133.208 128.933  1.00  0.00     0.043 C 
ATOM      6  C   UNL     1     119.286 132.508 128.162  1.00  0.00     0.121 C 
ATOM      7  C   UNL     1     117.923 132.884 128.776  1.00  0.00     0.035 C 
ENDROOT
BRANCH   6   8
ATOM      8  O   UNL     1     119.311 132.865 126.802  1.00  0.00    -0.392 OA
ATOM      9  H   UNL     1     119.992 132.291 126.367  1.00  0.00     0.210 HD
ENDBRANCH   6   8
BRANCH   5  10
ATOM     10  C   UNL     1     121.806 132.814 128.406  1.00  0.00    -0.075 C 
ATOM     11  C   UNL     1     122.601 133.694 127.773  1.00  0.00     0.008 C 
ATOM     12  C   UNL     1     122.310 131.406 128.598  1.00  0.00     0.039 C 
ENDBRANCH   5  10
TORSDOF 2
ENDMDL
MODEL 8
REMARK VINA RESULT:    -4.280      5.610      7.512
REMARK INTER + INTRA:          -4.847
REMARK INTER:                  -4.677
REMARK INTRA:                  -0.170
REMARK UNBOUND:                -0.191
REMARK SMILES C=C(C)[C@H]1CC[C@H](C)C[C@H]1O
REMARK SMILES IDX 8 1 7 2 6 3 5 4 4 5 10 6 9 7 11 8 2 10 1 11 3 12
REMARK H PARENT 11 9
REMARK Flexibility Score: inf
ROOT
ATOM      1  C   UNL     1     120.078 121.770 126.102  1.00  0.00     0.008 C 
ATOM      2  C   UNL     1     119.226 123.021 126.341  1.00  0.00    -0.012 C 
ATOM      3  C   UNL     1     117.982 122.673 127.183  1.00  0.00     0.004 C 
ATOM      4  C   UNL     1     117.132 123.921 127.458  1.00  0.00     0.011 C 
ATOM      5  C   UNL     1     117.973 125.015 128.150  1.00  0.00     0.043 C 
ATOM      6  C   UNL     1     119.220 125.381 127.310  1.00  0.00     0.121 C 
ATOM      7  C   UNL     1     120.061 124.120 127.031  1.00  0.00     0.035 C 
ENDROOT
BRANCH   6   8
ATOM      8  O   UNL     1     118.844 125.981 126.096  1.00  0.00    -0.392 OA
ATOM      9  H   UNL     1     118.897 125.278 125.398  1.00  0.00     0.210 HD
ENDBRANCH   6   8
BRANCH   5  10
ATOM     10  C   UNL     1     117.142 126.242 128.511  1.00  0.00    -0.075 C 
ATOM     11  C   UNL     1     115.947 126.480 127.942  1.00  0.00     0.008 C 
ATOM     12  C   UNL     1     117.652 127.220 129.539  1.00  0.00     0.039 C 
ENDBRANCH   5  10
TORSDOF 2
ENDMDL
MODEL 9
REMARK VINA RESULT:    -4.263      2.016      3.223
REMARK INTER + INTRA:          -4.828
REMARK INTER:                  -4.706
REMARK INTRA:                  -0.121
REMARK UNBOUND:                -0.191
REMARK SMILES C=C(C)[C@H]1CC[C@H](C)C[C@H]1O
REMARK SMILES IDX 8 1 7 2 6 3 5 4 4 5 10 6 9 7 11 8 2 10 1 11 3 12
REMARK H PARENT 11 9
REMARK Flexibility Score: inf
ROOT
ATOM      1  C   UNL     1     117.515 126.552 131.006  1.00  0.00     0.008 C 
ATOM      2  C   UNL     1     118.588 127.574 130.617  1.00  0.00    -0.012 C 
ATOM      3  C   UNL     1     118.928 127.454 129.118  1.00  0.00     0.004 C 
ATOM      4  C   UNL     1     119.980 128.492 128.704  1.00  0.00     0.011 C 
ATOM      5  C   UNL     1     119.504 129.920 129.045  1.00  0.00     0.043 C 
ATOM      6  C   UNL     1     119.169 130.057 130.549  1.00  0.00     0.121 C 
ATOM      7  C   UNL     1     118.119 129.005 130.957  1.00  0.00     0.035 C 
ENDROOT
BRANCH   6   8
ATOM      8  O   UNL     1     120.326 129.906 131.333  1.00  0.00    -0.392 OA
ATOM      9  H   UNL     1     120.360 130.684 131.948  1.00  0.00     0.210 HD
ENDBRANCH   6   8
BRANCH   5  10
ATOM     10  C   UNL     1     120.489 130.986 128.574  1.00  0.00    -0.075 C 
ATOM     11  C   UNL     1     121.801 130.724 128.432  1.00  0.00     0.008 C 
ATOM     12  C   UNL     1     119.997 132.373 128.247  1.00  0.00     0.039 C 
ENDBRANCH   5  10
TORSDOF 2
ENDMDL
