MODEL 1
REMARK VINA RESULT:    -3.346      0.000      0.000
REMARK INTER + INTRA:          -3.949
REMARK INTER:                  -3.933
REMARK INTRA:                  -0.016
REMARK UNBOUND:                -0.016
REMARK SMILES CCCCC(=O)[O-]
REMARK SMILES IDX 4 1 5 2 6 3 7 4 3 5 2 6 1 7
REMARK H PARENT
REMARK Flexibility Score: inf
ROOT
ATOM      1  C   UNL     1      -3.719  -0.068  -7.559  1.00  0.00     0.053 C 
ENDROOT
BRANCH   1   2
ATOM      2  C   UNL     1      -2.308  -0.500  -7.806  1.00  0.00     0.041 C 
ATOM      3  O   UNL     1      -2.062  -1.676  -8.184  1.00  0.00    -0.550 OA
ATOM      4  O   UNL     1      -1.260   0.381  -7.572  1.00  0.00    -0.550 OA
ENDBRANCH   1   2
BRANCH   1   5
ATOM      5  C   UNL     1      -4.294  -0.791  -6.334  1.00  0.00     0.006 C 
BRANCH   5   6
ATOM      6  C   UNL     1      -5.453  -0.021  -5.685  1.00  0.00    -0.003 C 
ATOM      7  C   UNL     1      -5.177   0.346  -4.228  1.00  0.00     0.004 C 
ENDBRANCH   5   6
ENDBRANCH   1   5
TORSDOF 3
ENDMDL
MODEL 2
REMARK VINA RESULT:    -3.331      0.481      1.314
REMARK INTER + INTRA:          -3.931
REMARK INTER:                  -3.904
REMARK INTRA:                  -0.028
REMARK UNBOUND:                -0.016
REMARK SMILES CCCCC(=O)[O-]
REMARK SMILES IDX 4 1 5 2 6 3 7 4 3 5 2 6 1 7
REMARK H PARENT
REMARK Flexibility Score: inf
ROOT
ATOM      1  C   UNL     1      -3.665  -0.168  -7.136  1.00  0.00     0.053 C 
ENDROOT
BRANCH   1   2
ATOM      2  C   UNL     1      -2.300  -0.461  -7.675  1.00  0.00     0.041 C 
ATOM      3  O   UNL     1      -1.394   0.410  -7.615  1.00  0.00    -0.550 OA
ATOM      4  O   UNL     1      -2.044  -1.681  -8.288  1.00  0.00    -0.550 OA
ENDBRANCH   1   2
BRANCH   1   5
ATOM      5  C   UNL     1      -4.168  -1.339  -6.283  1.00  0.00     0.006 C 
BRANCH   5   6
ATOM      6  C   UNL     1      -5.344  -0.946  -5.377  1.00  0.00    -0.003 C 
ATOM      7  C   UNL     1      -5.020   0.237  -4.465  1.00  0.00     0.004 C 
ENDBRANCH   5   6
ENDBRANCH   1   5
TORSDOF 3
ENDMDL
MODEL 3
REMARK VINA RESULT:    -3.213      1.249      1.589
REMARK INTER + INTRA:          -3.792
REMARK INTER:                  -3.771
REMARK INTRA:                  -0.021
REMARK UNBOUND:                -0.016
REMARK SMILES CCCCC(=O)[O-]
REMARK SMILES IDX 4 1 5 2 6 3 7 4 3 5 2 6 1 7
REMARK H PARENT
REMARK Flexibility Score: inf
ROOT
ATOM      1  C   UNL     1      -4.060  -0.471  -6.692  1.00  0.00     0.053 C 
ENDROOT
BRANCH   1   2
ATOM      2  C   UNL     1      -3.398  -1.600  -7.416  1.00  0.00     0.041 C 
ATOM      3  O   UNL     1      -3.877  -2.762  -7.353  1.00  0.00    -0.550 OA
ATOM      4  O   UNL     1      -2.222  -1.378  -8.121  1.00  0.00    -0.550 OA
ENDBRANCH   1   2
BRANCH   1   5
ATOM      5  C   UNL     1      -4.876  -1.001  -5.506  1.00  0.00     0.006 C 
BRANCH   5   6
ATOM      6  C   UNL     1      -5.032   0.039  -4.386  1.00  0.00    -0.003 C 
ATOM      7  C   UNL     1      -6.407   0.706  -4.384  1.00  0.00     0.004 C 
ENDBRANCH   5   6
ENDBRANCH   1   5
TORSDOF 3
ENDMDL
MODEL 4
REMARK VINA RESULT:    -3.094     14.062     14.775
REMARK INTER + INTRA:          -3.652
REMARK INTER:                  -3.611
REMARK INTRA:                  -0.041
REMARK UNBOUND:                -0.016
REMARK SMILES CCCCC(=O)[O-]
REMARK SMILES IDX 4 1 5 2 6 3 7 4 3 5 2 6 1 7
REMARK H PARENT
REMARK Flexibility Score: inf
ROOT
ATOM      1  C   UNL     1      -2.695   1.005   8.073  1.00  0.00     0.053 C 
ENDROOT
BRANCH   1   2
ATOM      2  C   UNL     1      -3.324   2.335   7.806  1.00  0.00     0.041 C 
ATOM      3  O   UNL     1      -3.980   2.526   6.749  1.00  0.00    -0.550 OA
ATOM      4  O   UNL     1      -3.144   3.381   8.703  1.00  0.00    -0.550 OA
ENDBRANCH   1   2
BRANCH   1   5
ATOM      5  C   UNL     1      -3.254  -0.054   7.114  1.00  0.00     0.006 C 
BRANCH   5   6
ATOM      6  C   UNL     1      -4.021  -1.166   7.846  1.00  0.00    -0.003 C 
ATOM      7  C   UNL     1      -3.977  -2.502   7.105  1.00  0.00     0.004 C 
ENDBRANCH   5   6
ENDBRANCH   1   5
TORSDOF 3
ENDMDL
MODEL 5
REMARK VINA RESULT:    -2.995     13.585     14.670
REMARK INTER + INTRA:          -3.535
REMARK INTER:                  -3.433
REMARK INTRA:                  -0.102
REMARK UNBOUND:                -0.016
REMARK SMILES CCCCC(=O)[O-]
REMARK SMILES IDX 4 1 5 2 6 3 7 4 3 5 2 6 1 7
REMARK H PARENT
REMARK Flexibility Score: inf
ROOT
ATOM      1  C   UNL     1      -3.482   0.074   7.618  1.00  0.00     0.053 C 
ENDROOT
BRANCH   1   2
ATOM      2  C   UNL     1      -4.591   0.433   6.680  1.00  0.00     0.041 C 
ATOM      3  O   UNL     1      -4.728   1.621   6.286  1.00  0.00    -0.550 OA
ATOM      4  O   UNL     1      -5.504  -0.534   6.281  1.00  0.00    -0.550 OA
ENDBRANCH   1   2
BRANCH   1   5
ATOM      5  C   UNL     1      -2.484   1.233   7.737  1.00  0.00     0.006 C 
BRANCH   5   6
ATOM      6  C   UNL     1      -2.593   1.969   9.080  1.00  0.00    -0.003 C 
ATOM      7  C   UNL     1      -3.181   3.373   8.940  1.00  0.00     0.004 C 
ENDBRANCH   5   6
ENDBRANCH   1   5
TORSDOF 3
ENDMDL
MODEL 6
REMARK VINA RESULT:    -2.985      2.885      4.091
REMARK INTER + INTRA:          -3.525
REMARK INTER:                  -3.507
REMARK INTRA:                  -0.017
REMARK UNBOUND:                -0.016
REMARK SMILES CCCCC(=O)[O-]
REMARK SMILES IDX 4 1 5 2 6 3 7 4 3 5 2 6 1 7
REMARK H PARENT
REMARK Flexibility Score: inf
ROOT
ATOM      1  C   UNL     1      -4.393  -1.215  -6.026  1.00  0.00     0.053 C 
ENDROOT
BRANCH   1   2
ATOM      2  C   UNL     1      -5.085  -0.370  -5.003  1.00  0.00     0.041 C 
ATOM      3  O   UNL     1      -4.922  -0.599  -3.777  1.00  0.00    -0.550 OA
ATOM      4  O   UNL     1      -5.951   0.638  -5.407  1.00  0.00    -0.550 OA
ENDBRANCH   1   2
BRANCH   1   5
ATOM      5  C   UNL     1      -3.867  -0.343  -7.173  1.00  0.00     0.006 C 
BRANCH   5   6
ATOM      6  C   UNL     1      -2.483  -0.791  -7.667  1.00  0.00    -0.003 C 
ATOM      7  C   UNL     1      -1.579   0.383  -8.040  1.00  0.00     0.004 C 
ENDBRANCH   5   6
ENDBRANCH   1   5
TORSDOF 3
ENDMDL
MODEL 7
REMARK VINA RESULT:    -2.984     13.135     14.039
REMARK INTER + INTRA:          -3.523
REMARK INTER:                  -3.473
REMARK INTRA:                  -0.050
REMARK UNBOUND:                -0.016
REMARK SMILES CCCCC(=O)[O-]
REMARK SMILES IDX 4 1 5 2 6 3 7 4 3 5 2 6 1 7
REMARK H PARENT
REMARK Flexibility Score: inf
ROOT
ATOM      1  C   UNL     1      -3.913  -1.221   7.980  1.00  0.00     0.053 C 
ENDROOT
BRANCH   1   2
ATOM      2  C   UNL     1      -3.702   0.043   7.209  1.00  0.00     0.041 C 
ATOM      3  O   UNL     1      -2.650   0.716   7.371  1.00  0.00    -0.550 OA
ATOM      4  O   UNL     1      -4.689   0.505   6.348  1.00  0.00    -0.550 OA
ENDBRANCH   1   2
BRANCH   1   5
ATOM      5  C   UNL     1      -3.880  -2.433   7.041  1.00  0.00     0.006 C 
BRANCH   5   6
ATOM      6  C   UNL     1      -5.283  -2.977   6.730  1.00  0.00    -0.003 C 
ATOM      7  C   UNL     1      -5.325  -3.806   5.446  1.00  0.00     0.004 C 
ENDBRANCH   5   6
ENDBRANCH   1   5
TORSDOF 3
ENDMDL
MODEL 8
REMARK VINA RESULT:    -2.915     14.055     14.931
REMARK INTER + INTRA:          -3.442
REMARK INTER:                  -3.421
REMARK INTRA:                  -0.021
REMARK UNBOUND:                -0.016
REMARK SMILES CCCCC(=O)[O-]
REMARK SMILES IDX 4 1 5 2 6 3 7 4 3 5 2 6 1 7
REMARK H PARENT
REMARK Flexibility Score: inf
ROOT
ATOM      1  C   UNL     1      -4.109  -0.657   8.185  1.00  0.00     0.053 C 
ENDROOT
BRANCH   1   2
ATOM      2  C   UNL     1      -3.828  -2.113   7.987  1.00  0.00     0.041 C 
ATOM      3  O   UNL     1      -3.339  -2.797   8.923  1.00  0.00    -0.550 OA
ATOM      4  O   UNL     1      -4.060  -2.702   6.750  1.00  0.00    -0.550 OA
ENDBRANCH   1   2
BRANCH   1   5
ATOM      5  C   UNL     1      -3.310   0.185   7.182  1.00  0.00     0.006 C 
BRANCH   5   6
ATOM      6  C   UNL     1      -2.491   1.293   7.862  1.00  0.00    -0.003 C 
ATOM      7  C   UNL     1      -3.314   2.550   8.140  1.00  0.00     0.004 C 
ENDBRANCH   5   6
ENDBRANCH   1   5
TORSDOF 3
ENDMDL
MODEL 9
REMARK VINA RESULT:    -2.845     12.270     13.302
REMARK INTER + INTRA:          -3.359
REMARK INTER:                  -3.344
REMARK INTRA:                  -0.016
REMARK UNBOUND:                -0.016
REMARK SMILES CCCCC(=O)[O-]
REMARK SMILES IDX 4 1 5 2 6 3 7 4 3 5 2 6 1 7
REMARK H PARENT
REMARK Flexibility Score: inf
ROOT
ATOM      1  C   UNL     1      -5.276  -3.732   5.215  1.00  0.00     0.053 C 
ENDROOT
BRANCH   1   2
ATOM      2  C   UNL     1      -6.645  -3.844   4.621  1.00  0.00     0.041 C 
ATOM      3  O   UNL     1      -7.040  -2.999   3.777  1.00  0.00    -0.550 OA
ATOM      4  O   UNL     1      -7.502  -4.854   5.038  1.00  0.00    -0.550 OA
ENDBRANCH   1   2
BRANCH   1   5
ATOM      5  C   UNL     1      -5.352  -3.133   6.626  1.00  0.00     0.006 C 
BRANCH   5   6
ATOM      6  C   UNL     1      -4.002  -2.576   7.103  1.00  0.00    -0.003 C 
ATOM      7  C   UNL     1      -3.985  -1.049   7.177  1.00  0.00     0.004 C 
ENDBRANCH   5   6
ENDBRANCH   1   5
TORSDOF 3
ENDMDL
