MODEL 1
REMARK VINA RESULT:    -8.248      0.000      0.000
REMARK INTER + INTRA:          -8.489
REMARK INTER:                  -8.489
REMARK INTRA:                   0.000
REMARK UNBOUND:                 0.000
REMARK SMILES C[C@@H]1CC[C@]2(OC1)O[C@H]1C[C@@H]3[C@H]4CC=C5C[C@@H](O)CC[C@]5(C)[C@H]4CC[C@]3(C)[C@H]1[C@@H]2C
REMARK SMILES IDX 1 1 2 2 3 3 4 4 5 5 29 6 28 7 9 8 8 9 10 10 11 11 26 12
REMARK SMILES IDX 25 13 24 14 23 15 12 16 13 17 14 18 15 19 21 20 20 21 19 22
REMARK SMILES IDX 17 23 16 24 22 25 27 26 30 27 6 28 7 29 18 30
REMARK H PARENT 18 31
REMARK Flexibility Score: inf
ROOT
ATOM      1  C   UNL     1      11.011  34.499 -17.250  1.00  0.00     0.010 C 
ATOM      2  C   UNL     1      10.030  34.801 -16.106  1.00  0.00     0.012 C 
ATOM      3  C   UNL     1       9.300  33.537 -15.623  1.00  0.00     0.011 C 
ATOM      4  C   UNL     1       8.227  33.101 -16.626  1.00  0.00     0.066 C 
ATOM      5  C   UNL     1       7.312  34.303 -17.005  1.00  0.00     0.171 C 
ATOM      6  C   UNL     1       6.252  33.956 -18.066  1.00  0.00     0.052 C 
ATOM      7  C   UNL     1       5.116  33.372 -17.226  1.00  0.00     0.033 C 
ATOM      8  C   UNL     1       5.329  34.077 -15.890  1.00  0.00     0.126 C 
ATOM      9  O   UNL     1       6.594  34.707 -15.857  1.00  0.00    -0.346 OA
ATOM     10  C   UNL     1       4.225  35.126 -15.745  1.00  0.00     0.037 C 
ATOM     11  C   UNL     1       3.394  35.094 -17.037  1.00  0.00     0.002 C 
ATOM     12  C   UNL     1       3.647  33.692 -17.653  1.00  0.00    -0.024 C 
ATOM     13  C   UNL     1       2.705  32.628 -17.017  1.00  0.00     0.008 C 
ATOM     14  C   UNL     1       1.230  33.057 -16.962  1.00  0.00     0.005 C 
ATOM     15  C   UNL     1       1.065  34.358 -16.136  1.00  0.00     0.003 C 
ATOM     16  C   UNL     1       1.908  35.493 -16.773  1.00  0.00     0.000 C 
ATOM     17  C   UNL     1       1.228  36.026 -18.044  1.00  0.00     0.031 C 
ATOM     18  C   UNL     1      -0.177  36.455 -17.770  1.00  0.00    -0.027 C 
ATOM     19  C   UNL     1      -0.957  35.875 -16.835  1.00  0.00    -0.065 C 
ATOM     20  C   UNL     1      -0.432  34.823 -15.842  1.00  0.00    -0.008 C 
ATOM     21  C   UNL     1      -0.465  35.489 -14.427  1.00  0.00     0.014 C 
ATOM     22  C   UNL     1      -1.809  36.158 -14.068  1.00  0.00     0.033 C 
ATOM     23  C   UNL     1      -2.259  37.158 -15.152  1.00  0.00     0.118 C 
ATOM     24  C   UNL     1      -2.305  36.503 -16.540  1.00  0.00     0.063 C 
ATOM     25  C   UNL     1      -1.394  33.604 -15.835  1.00  0.00     0.016 C 
ATOM     26  C   UNL     1       3.480  33.651 -19.192  1.00  0.00     0.012 C 
ATOM     27  C   UNL     1       6.756  33.039 -19.196  1.00  0.00     0.014 C 
ATOM     28  O   UNL     1       8.101  35.380 -17.501  1.00  0.00    -0.349 OA
ATOM     29  C   UNL     1       9.003  35.869 -16.521  1.00  0.00     0.167 C 
ENDROOT
BRANCH  23  30
ATOM     30  O   UNL     1      -3.507  37.715 -14.824  1.00  0.00    -0.393 OA
ATOM     31  H   UNL     1      -3.379  38.292 -14.025  1.00  0.00     0.210 HD
ENDBRANCH  23  30
TORSDOF 1
ENDMDL
MODEL 2
REMARK VINA RESULT:    -7.755      2.451      4.119
REMARK INTER + INTRA:          -7.981
REMARK INTER:                  -7.981
REMARK INTRA:                   0.000
REMARK UNBOUND:                 0.000
REMARK SMILES C[C@@H]1CC[C@]2(OC1)O[C@H]1C[C@@H]3[C@H]4CC=C5C[C@@H](O)CC[C@]5(C)[C@H]4CC[C@]3(C)[C@H]1[C@@H]2C
REMARK SMILES IDX 1 1 2 2 3 3 4 4 5 5 29 6 28 7 9 8 8 9 10 10 11 11 26 12
REMARK SMILES IDX 25 13 24 14 23 15 12 16 13 17 14 18 15 19 21 20 20 21 19 22
REMARK SMILES IDX 17 23 16 24 22 25 27 26 30 27 6 28 7 29 18 30
REMARK H PARENT 18 31
REMARK Flexibility Score: inf
ROOT
ATOM      1  C   UNL     1      11.587  34.499 -21.376  1.00  0.00     0.010 C 
ATOM      2  C   UNL     1      10.104  34.537 -21.775  1.00  0.00     0.012 C 
ATOM      3  C   UNL     1       9.434  35.862 -21.377  1.00  0.00     0.011 C 
ATOM      4  C   UNL     1       9.182  35.923 -19.867  1.00  0.00     0.066 C 
ATOM      5  C   UNL     1       8.461  34.632 -19.380  1.00  0.00     0.171 C 
ATOM      6  C   UNL     1       8.238  34.590 -17.858  1.00  0.00     0.052 C 
ATOM      7  C   UNL     1       6.933  35.369 -17.687  1.00  0.00     0.033 C 
ATOM      8  C   UNL     1       6.256  35.127 -19.034  1.00  0.00     0.126 C 
ATOM      9  O   UNL     1       7.173  34.584 -19.961  1.00  0.00    -0.346 OA
ATOM     10  C   UNL     1       5.112  34.139 -18.799  1.00  0.00     0.037 C 
ATOM     11  C   UNL     1       5.156  33.735 -17.318  1.00  0.00     0.002 C 
ATOM     12  C   UNL     1       5.921  34.879 -16.602  1.00  0.00    -0.024 C 
ATOM     13  C   UNL     1       4.962  36.056 -16.254  1.00  0.00     0.008 C 
ATOM     14  C   UNL     1       3.661  35.614 -15.566  1.00  0.00     0.005 C 
ATOM     15  C   UNL     1       2.866  34.634 -16.465  1.00  0.00     0.003 C 
ATOM     16  C   UNL     1       3.734  33.386 -16.775  1.00  0.00     0.000 C 
ATOM     17  C   UNL     1       3.803  32.458 -15.553  1.00  0.00     0.031 C 
ATOM     18  C   UNL     1       2.437  32.088 -15.073  1.00  0.00    -0.027 C 
ATOM     19  C   UNL     1       1.370  32.904 -15.183  1.00  0.00    -0.065 C 
ATOM     20  C   UNL     1       1.409  34.234 -15.959  1.00  0.00    -0.008 C 
ATOM     21  C   UNL     1       0.492  34.045 -17.213  1.00  0.00     0.014 C 
ATOM     22  C   UNL     1      -0.908  33.477 -16.900  1.00  0.00     0.033 C 
ATOM     23  C   UNL     1      -0.828  32.171 -16.083  1.00  0.00     0.118 C 
ATOM     24  C   UNL     1       0.008  32.355 -14.807  1.00  0.00     0.063 C 
ATOM     25  C   UNL     1       0.807  35.359 -15.073  1.00  0.00     0.016 C 
ATOM     26  C   UNL     1       6.647  34.428 -15.310  1.00  0.00     0.012 C 
ATOM     27  C   UNL     1       9.420  35.122 -17.024  1.00  0.00     0.014 C 
ATOM     28  O   UNL     1       9.215  33.482 -19.750  1.00  0.00    -0.349 OA
ATOM     29  C   UNL     1       9.331  33.357 -21.158  1.00  0.00     0.167 C 
ENDROOT
BRANCH  23  30
ATOM     30  O   UNL     1      -2.115  31.702 -15.770  1.00  0.00    -0.393 OA
ATOM     31  H   UNL     1      -2.326  31.997 -14.845  1.00  0.00     0.210 HD
ENDBRANCH  23  30
TORSDOF 1
ENDMDL
MODEL 3
REMARK VINA RESULT:    -7.641      1.756      8.640
REMARK INTER + INTRA:          -7.865
REMARK INTER:                  -7.865
REMARK INTRA:                   0.000
REMARK UNBOUND:                 0.000
REMARK SMILES C[C@@H]1CC[C@]2(OC1)O[C@H]1C[C@@H]3[C@H]4CC=C5C[C@@H](O)CC[C@]5(C)[C@H]4CC[C@]3(C)[C@H]1[C@@H]2C
REMARK SMILES IDX 1 1 2 2 3 3 4 4 5 5 29 6 28 7 9 8 8 9 10 10 11 11 26 12
REMARK SMILES IDX 25 13 24 14 23 15 12 16 13 17 14 18 15 19 21 20 20 21 19 22
REMARK SMILES IDX 17 23 16 24 22 25 27 26 30 27 6 28 7 29 18 30
REMARK H PARENT 18 31
REMARK Flexibility Score: inf
ROOT
ATOM      1  C   UNL     1      -3.977  37.563 -12.439  1.00  0.00     0.010 C 
ATOM      2  C   UNL     1      -2.557  38.135 -12.569  1.00  0.00     0.012 C 
ATOM      3  C   UNL     1      -2.252  38.604 -14.001  1.00  0.00     0.011 C 
ATOM      4  C   UNL     1      -2.018  37.412 -14.935  1.00  0.00     0.066 C 
ATOM      5  C   UNL     1      -0.982  36.427 -14.315  1.00  0.00     0.171 C 
ATOM      6  C   UNL     1      -0.749  35.167 -15.167  1.00  0.00     0.052 C 
ATOM      7  C   UNL     1       0.310  35.630 -16.169  1.00  0.00     0.033 C 
ATOM      8  C   UNL     1       1.019  36.725 -15.378  1.00  0.00     0.126 C 
ATOM      9  O   UNL     1       0.270  37.077 -14.233  1.00  0.00    -0.346 OA
ATOM     10  C   UNL     1       2.382  36.174 -14.955  1.00  0.00     0.037 C 
ATOM     11  C   UNL     1       2.453  34.716 -15.434  1.00  0.00     0.002 C 
ATOM     12  C   UNL     1       1.420  34.613 -16.587  1.00  0.00    -0.024 C 
ATOM     13  C   UNL     1       2.042  35.087 -17.934  1.00  0.00     0.008 C 
ATOM     14  C   UNL     1       3.417  34.470 -18.236  1.00  0.00     0.005 C 
ATOM     15  C   UNL     1       4.434  34.819 -17.120  1.00  0.00     0.003 C 
ATOM     16  C   UNL     1       3.919  34.288 -15.757  1.00  0.00     0.000 C 
ATOM     17  C   UNL     1       4.101  32.765 -15.664  1.00  0.00     0.031 C 
ATOM     18  C   UNL     1       5.518  32.370 -15.923  1.00  0.00    -0.027 C 
ATOM     19  C   UNL     1       6.336  33.052 -16.750  1.00  0.00    -0.065 C 
ATOM     20  C   UNL     1       5.948  34.398 -17.388  1.00  0.00    -0.008 C 
ATOM     21  C   UNL     1       6.876  35.480 -16.743  1.00  0.00     0.014 C 
ATOM     22  C   UNL     1       8.377  35.124 -16.756  1.00  0.00     0.033 C 
ATOM     23  C   UNL     1       8.643  33.738 -16.135  1.00  0.00     0.118 C 
ATOM     24  C   UNL     1       7.795  32.647 -16.806  1.00  0.00     0.063 C 
ATOM     25  C   UNL     1       6.241  34.344 -18.912  1.00  0.00     0.016 C 
ATOM     26  C   UNL     1       0.843  33.188 -16.779  1.00  0.00     0.012 C 
ATOM     27  C   UNL     1      -2.023  34.579 -15.801  1.00  0.00     0.014 C 
ATOM     28  O   UNL     1      -1.413  36.016 -13.022  1.00  0.00    -0.349 OA
ATOM     29  C   UNL     1      -1.500  37.109 -12.122  1.00  0.00     0.167 C 
ENDROOT
BRANCH  23  30
ATOM     30  O   UNL     1      10.010  33.418 -16.205  1.00  0.00    -0.393 OA
ATOM     31  H   UNL     1      10.486  33.983 -15.540  1.00  0.00     0.210 HD
ENDBRANCH  23  30
TORSDOF 1
ENDMDL
MODEL 4
REMARK VINA RESULT:    -7.437      1.913      8.700
REMARK INTER + INTRA:          -7.654
REMARK INTER:                  -7.654
REMARK INTRA:                   0.000
REMARK UNBOUND:                 0.000
REMARK SMILES C[C@@H]1CC[C@]2(OC1)O[C@H]1C[C@@H]3[C@H]4CC=C5C[C@@H](O)CC[C@]5(C)[C@H]4CC[C@]3(C)[C@H]1[C@@H]2C
REMARK SMILES IDX 1 1 2 2 3 3 4 4 5 5 29 6 28 7 9 8 8 9 10 10 11 11 26 12
REMARK SMILES IDX 25 13 24 14 23 15 12 16 13 17 14 18 15 19 21 20 20 21 19 22
REMARK SMILES IDX 17 23 16 24 22 25 27 26 30 27 6 28 7 29 18 30
REMARK H PARENT 18 31
REMARK Flexibility Score: inf
ROOT
ATOM      1  C   UNL     1      -2.498  37.204 -15.351  1.00  0.00     0.010 C 
ATOM      2  C   UNL     1      -1.329  37.738 -16.195  1.00  0.00     0.012 C 
ATOM      3  C   UNL     1      -1.094  36.891 -17.456  1.00  0.00     0.011 C 
ATOM      4  C   UNL     1      -0.428  35.556 -17.109  1.00  0.00     0.066 C 
ATOM      5  C   UNL     1       0.823  35.786 -16.210  1.00  0.00     0.171 C 
ATOM      6  C   UNL     1       1.504  34.480 -15.761  1.00  0.00     0.052 C 
ATOM      7  C   UNL     1       2.425  34.160 -16.939  1.00  0.00     0.033 C 
ATOM      8  C   UNL     1       2.692  35.552 -17.506  1.00  0.00     0.126 C 
ATOM      9  O   UNL     1       1.794  36.493 -16.954  1.00  0.00    -0.346 OA
ATOM     10  C   UNL     1       4.127  35.928 -17.134  1.00  0.00     0.037 C 
ATOM     11  C   UNL     1       4.692  34.784 -16.279  1.00  0.00     0.002 C 
ATOM     12  C   UNL     1       3.827  33.544 -16.630  1.00  0.00    -0.024 C 
ATOM     13  C   UNL     1       4.355  32.845 -17.918  1.00  0.00     0.008 C 
ATOM     14  C   UNL     1       5.872  32.599 -17.914  1.00  0.00     0.005 C 
ATOM     15  C   UNL     1       6.646  33.934 -17.775  1.00  0.00     0.003 C 
ATOM     16  C   UNL     1       6.237  34.642 -16.457  1.00  0.00     0.000 C 
ATOM     17  C   UNL     1       6.889  33.955 -15.247  1.00  0.00     0.031 C 
ATOM     18  C   UNL     1       8.372  33.872 -15.403  1.00  0.00    -0.027 C 
ATOM     19  C   UNL     1       8.983  33.752 -16.599  1.00  0.00    -0.065 C 
ATOM     20  C   UNL     1       8.230  33.852 -17.938  1.00  0.00    -0.008 C 
ATOM     21  C   UNL     1       8.717  35.171 -18.625  1.00  0.00     0.014 C 
ATOM     22  C   UNL     1      10.252  35.327 -18.690  1.00  0.00     0.033 C 
ATOM     23  C   UNL     1      10.903  35.164 -17.302  1.00  0.00     0.118 C 
ATOM     24  C   UNL     1      10.496  33.839 -16.640  1.00  0.00     0.063 C 
ATOM     25  C   UNL     1       8.628  32.651 -18.838  1.00  0.00     0.016 C 
ATOM     26  C   UNL     1       3.750  32.498 -15.490  1.00  0.00     0.012 C 
ATOM     27  C   UNL     1       0.530  33.350 -15.378  1.00  0.00     0.014 C 
ATOM     28  O   UNL     1       0.459  36.520 -15.045  1.00  0.00    -0.349 OA
ATOM     29  C   UNL     1      -0.033  37.811 -15.367  1.00  0.00     0.167 C 
ENDROOT
BRANCH  23  30
ATOM     30  O   UNL     1      12.302  35.262 -17.397  1.00  0.00    -0.393 OA
ATOM     31  H   UNL     1      12.649  34.371 -17.667  1.00  0.00     0.210 HD
ENDBRANCH  23  30
TORSDOF 1
ENDMDL
MODEL 5
REMARK VINA RESULT:    -7.113      1.449      1.990
REMARK INTER + INTRA:          -7.321
REMARK INTER:                  -7.321
REMARK INTRA:                   0.000
REMARK UNBOUND:                 0.000
REMARK SMILES C[C@@H]1CC[C@]2(OC1)O[C@H]1C[C@@H]3[C@H]4CC=C5C[C@@H](O)CC[C@]5(C)[C@H]4CC[C@]3(C)[C@H]1[C@@H]2C
REMARK SMILES IDX 1 1 2 2 3 3 4 4 5 5 29 6 28 7 9 8 8 9 10 10 11 11 26 12
REMARK SMILES IDX 25 13 24 14 23 15 12 16 13 17 14 18 15 19 21 20 20 21 19 22
REMARK SMILES IDX 17 23 16 24 22 25 27 26 30 27 6 28 7 29 18 30
REMARK H PARENT 18 31
REMARK Flexibility Score: inf
ROOT
ATOM      1  C   UNL     1      11.939  36.615 -17.151  1.00  0.00     0.010 C 
ATOM      2  C   UNL     1      10.750  37.303 -16.463  1.00  0.00     0.012 C 
ATOM      3  C   UNL     1      10.277  36.531 -15.221  1.00  0.00     0.011 C 
ATOM      4  C   UNL     1       9.508  35.266 -15.615  1.00  0.00     0.066 C 
ATOM      5  C   UNL     1       8.403  35.602 -16.660  1.00  0.00     0.171 C 
ATOM      6  C   UNL     1       7.633  34.365 -17.158  1.00  0.00     0.052 C 
ATOM      7  C   UNL     1       6.553  34.188 -16.090  1.00  0.00     0.033 C 
ATOM      8  C   UNL     1       6.383  35.620 -15.588  1.00  0.00     0.126 C 
ATOM      9  O   UNL     1       7.440  36.436 -16.050  1.00  0.00    -0.346 OA
ATOM     10  C   UNL     1       5.052  36.140 -16.134  1.00  0.00     0.037 C 
ATOM     11  C   UNL     1       4.463  35.036 -17.025  1.00  0.00     0.002 C 
ATOM     12  C   UNL     1       5.135  33.721 -16.549  1.00  0.00    -0.024 C 
ATOM     13  C   UNL     1       4.387  33.129 -15.318  1.00  0.00     0.008 C 
ATOM     14  C   UNL     1       2.862  33.052 -15.494  1.00  0.00     0.005 C 
ATOM     15  C   UNL     1       2.266  34.458 -15.752  1.00  0.00     0.003 C 
ATOM     16  C   UNL     1       2.901  35.072 -17.027  1.00  0.00     0.000 C 
ATOM     17  C   UNL     1       2.318  34.420 -18.291  1.00  0.00     0.031 C 
ATOM     18  C   UNL     1       0.827  34.506 -18.309  1.00  0.00    -0.027 C 
ATOM     19  C   UNL     1       0.074  34.495 -17.191  1.00  0.00    -0.065 C 
ATOM     20  C   UNL     1       0.675  34.558 -15.775  1.00  0.00    -0.008 C 
ATOM     21  C   UNL     1       0.265  35.944 -15.177  1.00  0.00     0.014 C 
ATOM     22  C   UNL     1      -1.239  36.271 -15.297  1.00  0.00     0.033 C 
ATOM     23  C   UNL     1      -1.742  36.134 -16.748  1.00  0.00     0.118 C 
ATOM     24  C   UNL     1      -1.414  34.750 -17.330  1.00  0.00     0.063 C 
ATOM     25  C   UNL     1       0.042  33.439 -14.902  1.00  0.00     0.016 C 
ATOM     26  C   UNL     1       5.223  32.634 -17.650  1.00  0.00     0.012 C 
ATOM     27  C   UNL     1       8.510  33.122 -17.400  1.00  0.00     0.014 C 
ATOM     28  O   UNL     1       8.978  36.251 -17.789  1.00  0.00    -0.349 OA
ATOM     29  C   UNL     1       9.574  37.490 -17.438  1.00  0.00     0.167 C 
ENDROOT
BRANCH  23  30
ATOM     30  O   UNL     1      -3.122  36.389 -16.820  1.00  0.00    -0.393 OA
ATOM     31  H   UNL     1      -3.243  37.268 -17.268  1.00  0.00     0.210 HD
ENDBRANCH  23  30
TORSDOF 1
ENDMDL
MODEL 6
REMARK VINA RESULT:    -7.113      2.260      8.403
REMARK INTER + INTRA:          -7.320
REMARK INTER:                  -7.320
REMARK INTRA:                   0.000
REMARK UNBOUND:                 0.000
REMARK SMILES C[C@@H]1CC[C@]2(OC1)O[C@H]1C[C@@H]3[C@H]4CC=C5C[C@@H](O)CC[C@]5(C)[C@H]4CC[C@]3(C)[C@H]1[C@@H]2C
REMARK SMILES IDX 1 1 2 2 3 3 4 4 5 5 29 6 28 7 9 8 8 9 10 10 11 11 26 12
REMARK SMILES IDX 25 13 24 14 23 15 12 16 13 17 14 18 15 19 21 20 20 21 19 22
REMARK SMILES IDX 17 23 16 24 22 25 27 26 30 27 6 28 7 29 18 30
REMARK H PARENT 18 31
REMARK Flexibility Score: inf
ROOT
ATOM      1  C   UNL     1      -2.528  38.908 -12.550  1.00  0.00     0.010 C 
ATOM      2  C   UNL     1      -1.330  39.330 -13.417  1.00  0.00     0.012 C 
ATOM      3  C   UNL     1      -1.638  39.216 -14.919  1.00  0.00     0.011 C 
ATOM      4  C   UNL     1      -1.641  37.753 -15.373  1.00  0.00     0.066 C 
ATOM      5  C   UNL     1      -0.349  37.028 -14.894  1.00  0.00     0.171 C 
ATOM      6  C   UNL     1      -0.315  35.532 -15.254  1.00  0.00     0.052 C 
ATOM      7  C   UNL     1       0.234  35.542 -16.681  1.00  0.00     0.033 C 
ATOM      8  C   UNL     1       1.064  36.822 -16.680  1.00  0.00     0.126 C 
ATOM      9  O   UNL     1       0.765  37.607 -15.544  1.00  0.00    -0.346 OA
ATOM     10  C   UNL     1       2.538  36.412 -16.650  1.00  0.00     0.037 C 
ATOM     11  C   UNL     1       2.581  34.879 -16.560  1.00  0.00     0.002 C 
ATOM     12  C   UNL     1       1.210  34.396 -17.101  1.00  0.00    -0.024 C 
ATOM     13  C   UNL     1       1.227  34.306 -18.655  1.00  0.00     0.008 C 
ATOM     14  C   UNL     1       2.447  33.563 -19.222  1.00  0.00     0.005 C 
ATOM     15  C   UNL     1       3.764  34.260 -18.795  1.00  0.00     0.003 C 
ATOM     16  C   UNL     1       3.858  34.299 -17.247  1.00  0.00     0.000 C 
ATOM     17  C   UNL     1       4.225  32.915 -16.691  1.00  0.00     0.031 C 
ATOM     18  C   UNL     1       5.477  32.392 -17.318  1.00  0.00    -0.027 C 
ATOM     19  C   UNL     1       5.846  32.680 -18.582  1.00  0.00    -0.065 C 
ATOM     20  C   UNL     1       5.104  33.706 -19.458  1.00  0.00    -0.008 C 
ATOM     21  C   UNL     1       6.081  34.910 -19.659  1.00  0.00     0.014 C 
ATOM     22  C   UNL     1       7.498  34.511 -20.125  1.00  0.00     0.033 C 
ATOM     23  C   UNL     1       8.126  33.448 -19.201  1.00  0.00     0.118 C 
ATOM     24  C   UNL     1       7.213  32.222 -19.049  1.00  0.00     0.063 C 
ATOM     25  C   UNL     1       4.809  33.073 -20.845  1.00  0.00     0.016 C 
ATOM     26  C   UNL     1       0.762  33.028 -16.527  1.00  0.00     0.012 C 
ATOM     27  C   UNL     1      -1.663  34.804 -15.087  1.00  0.00     0.014 C 
ATOM     28  O   UNL     1      -0.216  37.148 -13.482  1.00  0.00    -0.349 OA
ATOM     29  C   UNL     1      -0.079  38.501 -13.077  1.00  0.00     0.167 C 
ENDROOT
BRANCH  23  30
ATOM     30  O   UNL     1       9.394  33.067 -19.675  1.00  0.00    -0.393 OA
ATOM     31  H   UNL     1       9.609  33.644 -20.455  1.00  0.00     0.210 HD
ENDBRANCH  23  30
TORSDOF 1
ENDMDL
MODEL 7
REMARK VINA RESULT:    -7.083      2.020      3.095
REMARK INTER + INTRA:          -7.290
REMARK INTER:                  -7.290
REMARK INTRA:                   0.000
REMARK UNBOUND:                 0.000
REMARK SMILES C[C@@H]1CC[C@]2(OC1)O[C@H]1C[C@@H]3[C@H]4CC=C5C[C@@H](O)CC[C@]5(C)[C@H]4CC[C@]3(C)[C@H]1[C@@H]2C
REMARK SMILES IDX 1 1 2 2 3 3 4 4 5 5 29 6 28 7 9 8 8 9 10 10 11 11 26 12
REMARK SMILES IDX 25 13 24 14 23 15 12 16 13 17 14 18 15 19 21 20 20 21 19 22
REMARK SMILES IDX 17 23 16 24 22 25 27 26 30 27 6 28 7 29 18 30
REMARK H PARENT 18 31
REMARK Flexibility Score: inf
ROOT
ATOM      1  C   UNL     1      11.051  34.128 -21.352  1.00  0.00     0.010 C 
ATOM      2  C   UNL     1       9.969  35.219 -21.341  1.00  0.00     0.012 C 
ATOM      3  C   UNL     1       9.939  35.988 -20.010  1.00  0.00     0.011 C 
ATOM      4  C   UNL     1       9.310  35.144 -18.898  1.00  0.00     0.066 C 
ATOM      5  C   UNL     1       7.946  34.553 -19.364  1.00  0.00     0.171 C 
ATOM      6  C   UNL     1       7.287  33.633 -18.321  1.00  0.00     0.052 C 
ATOM      7  C   UNL     1       6.539  34.621 -17.425  1.00  0.00     0.033 C 
ATOM      8  C   UNL     1       6.268  35.767 -18.396  1.00  0.00     0.126 C 
ATOM      9  O   UNL     1       7.038  35.616 -19.571  1.00  0.00    -0.346 OA
ATOM     10  C   UNL     1       4.779  35.728 -18.745  1.00  0.00     0.037 C 
ATOM     11  C   UNL     1       4.177  34.507 -18.034  1.00  0.00     0.002 C 
ATOM     12  C   UNL     1       5.145  34.194 -16.863  1.00  0.00    -0.024 C 
ATOM     13  C   UNL     1       4.821  35.078 -15.623  1.00  0.00     0.008 C 
ATOM     14  C   UNL     1       3.331  35.098 -15.246  1.00  0.00     0.005 C 
ATOM     15  C   UNL     1       2.473  35.634 -16.420  1.00  0.00     0.003 C 
ATOM     16  C   UNL     1       2.676  34.737 -17.670  1.00  0.00     0.000 C 
ATOM     17  C   UNL     1       1.918  33.410 -17.514  1.00  0.00     0.031 C 
ATOM     18  C   UNL     1       0.472  33.641 -17.216  1.00  0.00    -0.027 C 
ATOM     19  C   UNL     1       0.022  34.708 -16.525  1.00  0.00    -0.065 C 
ATOM     20  C   UNL     1       0.928  35.881 -16.111  1.00  0.00    -0.008 C 
ATOM     21  C   UNL     1       0.459  37.122 -16.940  1.00  0.00     0.014 C 
ATOM     22  C   UNL     1      -1.062  37.382 -16.892  1.00  0.00     0.033 C 
ATOM     23  C   UNL     1      -1.871  36.129 -17.282  1.00  0.00     0.118 C 
ATOM     24  C   UNL     1      -1.477  34.915 -16.428  1.00  0.00     0.063 C 
ATOM     25  C   UNL     1       0.712  36.185 -14.604  1.00  0.00     0.016 C 
ATOM     26  C   UNL     1       5.137  32.706 -16.431  1.00  0.00     0.012 C 
ATOM     27  C   UNL     1       8.267  32.705 -17.578  1.00  0.00     0.014 C 
ATOM     28  O   UNL     1       8.121  33.808 -20.565  1.00  0.00    -0.349 OA
ATOM     29  C   UNL     1       8.578  34.626 -21.631  1.00  0.00     0.167 C 
ENDROOT
BRANCH  23  30
ATOM     30  O   UNL     1      -3.251  36.379 -17.183  1.00  0.00    -0.393 OA
ATOM     31  H   UNL     1      -3.540  36.814 -18.028  1.00  0.00     0.210 HD
ENDBRANCH  23  30
TORSDOF 1
ENDMDL
MODEL 8
REMARK VINA RESULT:    -6.968     10.024     12.122
REMARK INTER + INTRA:          -7.172
REMARK INTER:                  -7.172
REMARK INTRA:                   0.000
REMARK UNBOUND:                 0.000
REMARK SMILES C[C@@H]1CC[C@]2(OC1)O[C@H]1C[C@@H]3[C@H]4CC=C5C[C@@H](O)CC[C@]5(C)[C@H]4CC[C@]3(C)[C@H]1[C@@H]2C
REMARK SMILES IDX 1 1 2 2 3 3 4 4 5 5 29 6 28 7 9 8 8 9 10 10 11 11 26 12
REMARK SMILES IDX 25 13 24 14 23 15 12 16 13 17 14 18 15 19 21 20 20 21 19 22
REMARK SMILES IDX 17 23 16 24 22 25 27 26 30 27 6 28 7 29 18 30
REMARK H PARENT 18 31
REMARK Flexibility Score: inf
ROOT
ATOM      1  C   UNL     1       2.068  25.961  -4.771  1.00  0.00     0.010 C 
ATOM      2  C   UNL     1       2.402  27.157  -5.677  1.00  0.00     0.012 C 
ATOM      3  C   UNL     1       2.589  28.454  -4.874  1.00  0.00     0.011 C 
ATOM      4  C   UNL     1       1.243  29.005  -4.391  1.00  0.00     0.066 C 
ATOM      5  C   UNL     1       0.230  29.085  -5.571  1.00  0.00     0.171 C 
ATOM      6  C   UNL     1      -1.170  29.563  -5.146  1.00  0.00     0.052 C 
ATOM      7  C   UNL     1      -1.029  31.086  -5.180  1.00  0.00     0.033 C 
ATOM      8  C   UNL     1       0.064  31.268  -6.229  1.00  0.00     0.126 C 
ATOM      9  O   UNL     1       0.696  30.035  -6.507  1.00  0.00    -0.346 OA
ATOM     10  C   UNL     1      -0.605  31.802  -7.498  1.00  0.00     0.037 C 
ATOM     11  C   UNL     1      -2.115  31.869  -7.223  1.00  0.00     0.002 C 
ATOM     12  C   UNL     1      -2.249  31.925  -5.678  1.00  0.00    -0.024 C 
ATOM     13  C   UNL     1      -2.088  33.385  -5.160  1.00  0.00     0.008 C 
ATOM     14  C   UNL     1      -2.938  34.413  -5.924  1.00  0.00     0.005 C 
ATOM     15  C   UNL     1      -2.568  34.425  -7.428  1.00  0.00     0.003 C 
ATOM     16  C   UNL     1      -2.796  33.015  -8.035  1.00  0.00     0.000 C 
ATOM     17  C   UNL     1      -4.295  32.752  -8.244  1.00  0.00     0.031 C 
ATOM     18  C   UNL     1      -4.927  33.827  -9.067  1.00  0.00    -0.027 C 
ATOM     19  C   UNL     1      -4.510  35.109  -9.052  1.00  0.00    -0.065 C 
ATOM     20  C   UNL     1      -3.240  35.568  -8.313  1.00  0.00    -0.008 C 
ATOM     21  C   UNL     1      -2.214  35.998  -9.414  1.00  0.00     0.014 C 
ATOM     22  C   UNL     1      -2.782  36.972 -10.469  1.00  0.00     0.033 C 
ATOM     23  C   UNL     1      -4.076  36.431 -11.111  1.00  0.00     0.118 C 
ATOM     24  C   UNL     1      -5.125  36.072 -10.048  1.00  0.00     0.063 C 
ATOM     25  C   UNL     1      -3.576  36.809  -7.442  1.00  0.00     0.016 C 
ATOM     26  C   UNL     1      -3.588  31.353  -5.150  1.00  0.00     0.012 C 
ATOM     27  C   UNL     1      -1.661  28.991  -3.802  1.00  0.00     0.014 C 
ATOM     28  O   UNL     1       0.094  27.808  -6.186  1.00  0.00    -0.349 OA
ATOM     29  C   UNL     1       1.317  27.361  -6.750  1.00  0.00     0.167 C 
ENDROOT
BRANCH  23  30
ATOM     30  O   UNL     1      -4.597  37.358 -12.030  1.00  0.00    -0.393 OA
ATOM     31  H   UNL     1      -3.919  38.074 -12.152  1.00  0.00     0.210 HD
ENDBRANCH  23  30
TORSDOF 1
ENDMDL
