MODEL 1
REMARK VINA RESULT:    -5.384      0.000      0.000
REMARK INTER + INTRA:          -7.118
REMARK INTER:                  -6.958
REMARK INTRA:                  -0.159
REMARK UNBOUND:                -0.159
REMARK SMILES CCCCCCC(=O)[O-]
REMARK SMILES IDX 5 1 6 2 7 3 8 4 9 5 4 6 3 7 2 8 1 9
REMARK H PARENT
REMARK Flexibility Score: inf
ROOT
ATOM      1  C   UNL     1      28.277  -0.687  43.345  1.00  0.00     0.006 C 
ENDROOT
BRANCH   1   2
ATOM      2  C   UNL     1      28.671  -1.731  44.398  1.00  0.00     0.053 C 
BRANCH   2   3
ATOM      3  C   UNL     1      29.981  -1.372  45.024  1.00  0.00     0.041 C 
ATOM      4  O   UNL     1      30.853  -0.755  44.357  1.00  0.00    -0.550 OA
ATOM      5  O   UNL     1      30.222  -1.677  46.357  1.00  0.00    -0.550 OA
ENDBRANCH   2   3
ENDBRANCH   1   2
BRANCH   1   6
ATOM      6  C   UNL     1      28.291  -1.247  41.911  1.00  0.00     0.000 C 
BRANCH   6   7
ATOM      7  C   UNL     1      29.325  -0.602  40.971  1.00  0.00    -0.000 C 
BRANCH   7   8
ATOM      8  C   UNL     1      28.921  -0.680  39.492  1.00  0.00    -0.003 C 
ATOM      9  C   UNL     1      29.041   0.684  38.816  1.00  0.00     0.004 C 
ENDBRANCH   7   8
ENDBRANCH   6   7
ENDBRANCH   1   6
TORSDOF 5
ENDMDL
MODEL 2
REMARK VINA RESULT:    -5.344      2.228      4.750
REMARK INTER + INTRA:          -7.065
REMARK INTER:                  -6.871
REMARK INTRA:                  -0.194
REMARK UNBOUND:                -0.159
REMARK SMILES CCCCCCC(=O)[O-]
REMARK SMILES IDX 5 1 6 2 7 3 8 4 9 5 4 6 3 7 2 8 1 9
REMARK H PARENT
REMARK Flexibility Score: inf
ROOT
ATOM      1  C   UNL     1      28.581  -1.460  41.925  1.00  0.00     0.006 C 
ENDROOT
BRANCH   1   2
ATOM      2  C   UNL     1      28.938  -0.347  40.931  1.00  0.00     0.053 C 
BRANCH   2   3
ATOM      3  C   UNL     1      30.348  -0.501  40.458  1.00  0.00     0.041 C 
ATOM      4  O   UNL     1      30.648  -0.235  39.264  1.00  0.00    -0.550 OA
ATOM      5  O   UNL     1      31.341  -0.892  41.346  1.00  0.00    -0.550 OA
ENDBRANCH   2   3
ENDBRANCH   1   2
BRANCH   1   6
ATOM      6  C   UNL     1      28.242  -0.925  43.329  1.00  0.00     0.000 C 
BRANCH   6   7
ATOM      7  C   UNL     1      28.911  -1.681  44.490  1.00  0.00    -0.000 C 
BRANCH   7   8
ATOM      8  C   UNL     1      30.231  -1.039  44.942  1.00  0.00    -0.003 C 
ATOM      9  C   UNL     1      30.567  -1.424  46.380  1.00  0.00     0.004 C 
ENDBRANCH   7   8
ENDBRANCH   6   7
ENDBRANCH   1   6
TORSDOF 5
ENDMDL
MODEL 3
REMARK VINA RESULT:    -5.278      3.049      5.261
REMARK INTER + INTRA:          -6.980
REMARK INTER:                  -6.842
REMARK INTRA:                  -0.138
REMARK UNBOUND:                -0.159
REMARK SMILES CCCCCCC(=O)[O-]
REMARK SMILES IDX 5 1 6 2 7 3 8 4 9 5 4 6 3 7 2 8 1 9
REMARK H PARENT
REMARK Flexibility Score: inf
ROOT
ATOM      1  C   UNL     1      29.341  -0.650  41.083  1.00  0.00     0.006 C 
ENDROOT
BRANCH   1   2
ATOM      2  C   UNL     1      28.944  -0.643  39.601  1.00  0.00     0.053 C 
BRANCH   2   3
ATOM      3  C   UNL     1      29.674   0.438  38.869  1.00  0.00     0.041 C 
ATOM      4  O   UNL     1      29.545   0.557  37.622  1.00  0.00    -0.550 OA
ATOM      5  O   UNL     1      30.459   1.345  39.570  1.00  0.00    -0.550 OA
ENDBRANCH   2   3
ENDBRANCH   1   2
BRANCH   1   6
ATOM      6  C   UNL     1      28.287  -1.320  41.984  1.00  0.00     0.000 C 
BRANCH   6   7
ATOM      7  C   UNL     1      28.221  -0.774  43.421  1.00  0.00    -0.000 C 
BRANCH   7   8
ATOM      8  C   UNL     1      28.991  -1.641  44.427  1.00  0.00    -0.003 C 
ATOM      9  C   UNL     1      30.295  -0.969  44.848  1.00  0.00     0.004 C 
ENDBRANCH   7   8
ENDBRANCH   6   7
ENDBRANCH   1   6
TORSDOF 5
ENDMDL
MODEL 4
REMARK VINA RESULT:    -5.137      1.341      2.010
REMARK INTER + INTRA:          -6.797
REMARK INTER:                  -6.600
REMARK INTRA:                  -0.197
REMARK UNBOUND:                -0.159
REMARK SMILES CCCCCCC(=O)[O-]
REMARK SMILES IDX 5 1 6 2 7 3 8 4 9 5 4 6 3 7 2 8 1 9
REMARK H PARENT
REMARK Flexibility Score: inf
ROOT
ATOM      1  C   UNL     1      30.667  -0.957  41.899  1.00  0.00     0.006 C 
ENDROOT
BRANCH   1   2
ATOM      2  C   UNL     1      29.364  -0.662  42.652  1.00  0.00     0.053 C 
BRANCH   2   3
ATOM      3  C   UNL     1      29.454  -1.152  44.063  1.00  0.00     0.041 C 
ATOM      4  O   UNL     1      28.539  -1.873  44.541  1.00  0.00    -0.550 OA
ATOM      5  O   UNL     1      30.569  -0.853  44.834  1.00  0.00    -0.550 OA
ENDBRANCH   2   3
ENDBRANCH   1   2
BRANCH   1   6
ATOM      6  C   UNL     1      30.507  -0.882  40.369  1.00  0.00     0.000 C 
BRANCH   6   7
ATOM      7  C   UNL     1      29.079  -0.580  39.880  1.00  0.00    -0.000 C 
BRANCH   7   8
ATOM      8  C   UNL     1      29.020   0.593  38.890  1.00  0.00    -0.003 C 
ATOM      9  C   UNL     1      30.303   0.683  38.068  1.00  0.00     0.004 C 
ENDBRANCH   7   8
ENDBRANCH   6   7
ENDBRANCH   1   6
TORSDOF 5
ENDMDL
MODEL 5
REMARK VINA RESULT:    -5.081      1.570      2.509
REMARK INTER + INTRA:          -6.725
REMARK INTER:                  -6.478
REMARK INTRA:                  -0.248
REMARK UNBOUND:                -0.159
REMARK SMILES CCCCCCC(=O)[O-]
REMARK SMILES IDX 5 1 6 2 7 3 8 4 9 5 4 6 3 7 2 8 1 9
REMARK H PARENT
REMARK Flexibility Score: inf
ROOT
ATOM      1  C   UNL     1      28.838  -0.574  41.040  1.00  0.00     0.006 C 
ENDROOT
BRANCH   1   2
ATOM      2  C   UNL     1      30.053  -1.001  41.875  1.00  0.00     0.053 C 
BRANCH   2   3
ATOM      3  C   UNL     1      29.746  -0.899  43.335  1.00  0.00     0.041 C 
ATOM      4  O   UNL     1      30.680  -0.902  44.180  1.00  0.00    -0.550 OA
ATOM      5  O   UNL     1      28.433  -0.752  43.761  1.00  0.00    -0.550 OA
ENDBRANCH   2   3
ENDBRANCH   1   2
BRANCH   1   6
ATOM      6  C   UNL     1      29.093  -0.655  39.524  1.00  0.00     0.000 C 
BRANCH   6   7
ATOM      7  C   UNL     1      29.432   0.687  38.851  1.00  0.00    -0.000 C 
BRANCH   7   8
ATOM      8  C   UNL     1      30.939   0.983  38.831  1.00  0.00    -0.003 C 
ATOM      9  C   UNL     1      31.292   2.108  39.799  1.00  0.00     0.004 C 
ENDBRANCH   7   8
ENDBRANCH   6   7
ENDBRANCH   1   6
TORSDOF 5
ENDMDL
MODEL 6
REMARK VINA RESULT:    -4.982      2.171      3.667
REMARK INTER + INTRA:          -6.597
REMARK INTER:                  -6.372
REMARK INTRA:                  -0.225
REMARK UNBOUND:                -0.159
REMARK SMILES CCCCCCC(=O)[O-]
REMARK SMILES IDX 5 1 6 2 7 3 8 4 9 5 4 6 3 7 2 8 1 9
REMARK H PARENT
REMARK Flexibility Score: inf
ROOT
ATOM      1  C   UNL     1      29.011  -0.564  39.430  1.00  0.00     0.006 C 
ENDROOT
BRANCH   1   2
ATOM      2  C   UNL     1      29.996  -1.076  40.490  1.00  0.00     0.053 C 
BRANCH   2   3
ATOM      3  C   UNL     1      29.348  -1.096  41.838  1.00  0.00     0.041 C 
ATOM      4  O   UNL     1      29.800  -0.377  42.768  1.00  0.00    -0.550 OA
ATOM      5  O   UNL     1      28.218  -1.872  42.055  1.00  0.00    -0.550 OA
ENDBRANCH   2   3
ENDBRANCH   1   2
BRANCH   1   6
ATOM      6  C   UNL     1      29.442   0.778  38.809  1.00  0.00     0.000 C 
BRANCH   6   7
ATOM      7  C   UNL     1      30.796   0.750  38.078  1.00  0.00    -0.000 C 
BRANCH   7   8
ATOM      8  C   UNL     1      31.907   1.476  38.849  1.00  0.00    -0.003 C 
ATOM      9  C   UNL     1      31.327   2.352  39.956  1.00  0.00     0.004 C 
ENDBRANCH   7   8
ENDBRANCH   6   7
ENDBRANCH   1   6
TORSDOF 5
ENDMDL
MODEL 7
REMARK VINA RESULT:    -4.448      2.567      5.466
REMARK INTER + INTRA:          -5.907
REMARK INTER:                  -5.825
REMARK INTRA:                  -0.082
REMARK UNBOUND:                -0.159
REMARK SMILES CCCCCCC(=O)[O-]
REMARK SMILES IDX 5 1 6 2 7 3 8 4 9 5 4 6 3 7 2 8 1 9
REMARK H PARENT
REMARK Flexibility Score: inf
ROOT
ATOM      1  C   UNL     1      29.512  -0.496  43.808  1.00  0.00     0.006 C 
ENDROOT
BRANCH   1   2
ATOM      2  C   UNL     1      30.020  -0.358  42.367  1.00  0.00     0.053 C 
BRANCH   2   3
ATOM      3  C   UNL     1      29.062  -0.996  41.412  1.00  0.00     0.041 C 
ATOM      4  O   UNL     1      29.262  -0.919  40.170  1.00  0.00    -0.550 OA
ATOM      5  O   UNL     1      27.977  -1.716  41.891  1.00  0.00    -0.550 OA
ENDBRANCH   2   3
ENDBRANCH   1   2
BRANCH   1   6
ATOM      6  C   UNL     1      30.164  -1.667  44.566  1.00  0.00     0.000 C 
BRANCH   6   7
ATOM      7  C   UNL     1      30.676  -1.323  45.976  1.00  0.00    -0.000 C 
BRANCH   7   8
ATOM      8  C   UNL     1      29.972  -2.124  47.080  1.00  0.00    -0.003 C 
ATOM      9  C   UNL     1      30.543  -1.786  48.455  1.00  0.00     0.004 C 
ENDBRANCH   7   8
ENDBRANCH   6   7
ENDBRANCH   1   6
TORSDOF 5
ENDMDL
MODEL 8
REMARK VINA RESULT:    -4.015      2.684      3.389
REMARK INTER + INTRA:          -5.348
REMARK INTER:                  -5.202
REMARK INTRA:                  -0.145
REMARK UNBOUND:                -0.159
REMARK SMILES CCCCCCC(=O)[O-]
REMARK SMILES IDX 5 1 6 2 7 3 8 4 9 5 4 6 3 7 2 8 1 9
REMARK H PARENT
REMARK Flexibility Score: inf
ROOT
ATOM      1  C   UNL     1      30.459  -0.611  42.392  1.00  0.00     0.006 C 
ENDROOT
BRANCH   1   2
ATOM      2  C   UNL     1      29.485  -1.795  42.355  1.00  0.00     0.053 C 
BRANCH   2   3
ATOM      3  C   UNL     1      28.101  -1.324  42.037  1.00  0.00     0.041 C 
ATOM      4  O   UNL     1      27.593  -0.370  42.683  1.00  0.00    -0.550 OA
ATOM      5  O   UNL     1      27.391  -1.905  40.995  1.00  0.00    -0.550 OA
ENDBRANCH   2   3
ENDBRANCH   1   2
BRANCH   1   6
ATOM      6  C   UNL     1      31.465  -0.625  41.226  1.00  0.00     0.000 C 
BRANCH   6   7
ATOM      7  C   UNL     1      30.833  -0.680  39.824  1.00  0.00    -0.000 C 
BRANCH   7   8
ATOM      8  C   UNL     1      30.834   0.680  39.112  1.00  0.00    -0.003 C 
ATOM      9  C   UNL     1      32.125   0.888  38.324  1.00  0.00     0.004 C 
ENDBRANCH   7   8
ENDBRANCH   6   7
ENDBRANCH   1   6
TORSDOF 5
ENDMDL
