MODEL 1
REMARK VINA RESULT:    -5.093      0.000      0.000
REMARK INTER + INTRA:          -9.830
REMARK INTER:                  -8.963
REMARK INTRA:                  -0.867
REMARK UNBOUND:                -0.867
REMARK SMILES CCCCCCCCCCCCCCC(=O)[O-]
REMARK SMILES IDX 9 1 10 2 11 3 12 4 13 5 14 6 15 7 16 8 17 9 8 10 7 11 6 12
REMARK SMILES IDX 5 13 4 14 3 15 2 16 1 17
REMARK H PARENT
REMARK Flexibility Score: inf
ROOT
ATOM      1  C   UNL     1       6.964  56.404  21.174  1.00  0.00     0.000 C 
ENDROOT
BRANCH   1   2
ATOM      2  C   UNL     1       5.430  56.491  21.201  1.00  0.00     0.000 C 
BRANCH   2   3
ATOM      3  C   UNL     1       4.892  57.689  20.400  1.00  0.00     0.000 C 
BRANCH   3   4
ATOM      4  C   UNL     1       3.454  58.063  20.793  1.00  0.00     0.000 C 
BRANCH   4   5
ATOM      5  C   UNL     1       2.990  59.387  20.158  1.00  0.00     0.006 C 
BRANCH   5   6
ATOM      6  C   UNL     1       2.404  60.352  21.196  1.00  0.00     0.053 C 
BRANCH   6   7
ATOM      7  C   UNL     1       1.058  59.898  21.676  1.00  0.00     0.041 C 
ATOM      8  O   UNL     1       0.892  59.574  22.882  1.00  0.00    -0.550 OA
ATOM      9  O   UNL     1      -0.002  59.803  20.784  1.00  0.00    -0.550 OA
ENDBRANCH   6   7
ENDBRANCH   5   6
ENDBRANCH   4   5
ENDBRANCH   3   4
ENDBRANCH   2   3
ENDBRANCH   1   2
BRANCH   1  10
ATOM     10  C   UNL     1       7.519  56.126  19.768  1.00  0.00     0.000 C 
BRANCH  10  11
ATOM     11  C   UNL     1       8.060  54.692  19.666  1.00  0.00    -0.000 C 
BRANCH  11  12
ATOM     12  C   UNL     1       8.331  54.054  21.041  1.00  0.00    -0.000 C 
BRANCH  12  13
ATOM     13  C   UNL     1       9.757  53.500  21.230  1.00  0.00    -0.000 C 
BRANCH  13  14
ATOM     14  C   UNL     1      10.260  53.473  22.687  1.00  0.00    -0.000 C 
BRANCH  14  15
ATOM     15  C   UNL     1       9.835  54.680  23.546  1.00  0.00    -0.000 C 
BRANCH  15  16
ATOM     16  C   UNL     1       8.942  54.335  24.751  1.00  0.00    -0.003 C 
ATOM     17  C   UNL     1       8.093  53.085  24.525  1.00  0.00     0.004 C 
ENDBRANCH  15  16
ENDBRANCH  14  15
ENDBRANCH  13  14
ENDBRANCH  12  13
ENDBRANCH  11  12
ENDBRANCH  10  11
ENDBRANCH   1  10
TORSDOF 13
ENDMDL
MODEL 2
REMARK VINA RESULT:    -4.964      3.925      4.860
REMARK INTER + INTRA:          -9.604
REMARK INTER:                  -7.803
REMARK INTRA:                  -1.802
REMARK UNBOUND:                -0.867
REMARK SMILES CCCCCCCCCCCCCCC(=O)[O-]
REMARK SMILES IDX 9 1 10 2 11 3 12 4 13 5 14 6 15 7 16 8 17 9 8 10 7 11 6 12
REMARK SMILES IDX 5 13 4 14 3 15 2 16 1 17
REMARK H PARENT
REMARK Flexibility Score: inf
ROOT
ATOM      1  C   UNL     1       7.049  55.174  22.042  1.00  0.00     0.000 C 
ENDROOT
BRANCH   1   2
ATOM      2  C   UNL     1       5.775  55.754  21.408  1.00  0.00     0.000 C 
BRANCH   2   3
ATOM      3  C   UNL     1       6.077  56.837  20.358  1.00  0.00     0.000 C 
BRANCH   3   4
ATOM      4  C   UNL     1       7.434  56.624  19.666  1.00  0.00     0.000 C 
BRANCH   4   5
ATOM      5  C   UNL     1       7.290  56.264  18.176  1.00  0.00     0.006 C 
BRANCH   5   6
ATOM      6  C   UNL     1       7.627  54.793  17.902  1.00  0.00     0.053 C 
BRANCH   6   7
ATOM      7  C   UNL     1       6.397  53.937  17.884  1.00  0.00     0.041 C 
ATOM      8  O   UNL     1       6.007  53.365  18.937  1.00  0.00    -0.550 OA
ATOM      9  O   UNL     1       5.700  53.746  16.698  1.00  0.00    -0.550 OA
ENDBRANCH   6   7
ENDBRANCH   5   6
ENDBRANCH   4   5
ENDBRANCH   3   4
ENDBRANCH   2   3
ENDBRANCH   1   2
BRANCH   1  10
ATOM     10  C   UNL     1       6.896  53.699  22.442  1.00  0.00     0.000 C 
BRANCH  10  11
ATOM     11  C   UNL     1       7.971  52.834  21.767  1.00  0.00    -0.000 C 
BRANCH  11  12
ATOM     12  C   UNL     1       9.017  53.665  21.002  1.00  0.00    -0.000 C 
BRANCH  12  13
ATOM     13  C   UNL     1      10.449  53.587  21.567  1.00  0.00    -0.000 C 
BRANCH  13  14
ATOM     14  C   UNL     1      10.539  53.356  23.089  1.00  0.00    -0.000 C 
BRANCH  14  15
ATOM     15  C   UNL     1      10.234  54.594  23.955  1.00  0.00    -0.000 C 
BRANCH  15  16
ATOM     16  C   UNL     1       9.199  54.364  25.071  1.00  0.00    -0.003 C 
ATOM     17  C   UNL     1       9.831  54.280  26.460  1.00  0.00     0.004 C 
ENDBRANCH  15  16
ENDBRANCH  14  15
ENDBRANCH  13  14
ENDBRANCH  12  13
ENDBRANCH  11  12
ENDBRANCH  10  11
ENDBRANCH   1  10
TORSDOF 13
ENDMDL
MODEL 3
REMARK VINA RESULT:    -4.963      6.857     10.756
REMARK INTER + INTRA:          -9.603
REMARK INTER:                  -8.829
REMARK INTRA:                  -0.773
REMARK UNBOUND:                -0.867
REMARK SMILES CCCCCCCCCCCCCCC(=O)[O-]
REMARK SMILES IDX 9 1 10 2 11 3 12 4 13 5 14 6 15 7 16 8 17 9 8 10 7 11 6 12
REMARK SMILES IDX 5 13 4 14 3 15 2 16 1 17
REMARK H PARENT
REMARK Flexibility Score: inf
ROOT
ATOM      1  C   UNL     1      10.518  52.215  21.989  1.00  0.00     0.000 C 
ENDROOT
BRANCH   1   2
ATOM      2  C   UNL     1       9.890  50.855  22.334  1.00  0.00     0.000 C 
BRANCH   2   3
ATOM      3  C   UNL     1      10.942  49.801  22.721  1.00  0.00     0.000 C 
BRANCH   3   4
ATOM      4  C   UNL     1      10.482  48.367  22.408  1.00  0.00     0.000 C 
BRANCH   4   5
ATOM      5  C   UNL     1      11.398  47.300  23.036  1.00  0.00     0.006 C 
BRANCH   5   6
ATOM      6  C   UNL     1      12.680  47.909  23.616  1.00  0.00     0.053 C 
BRANCH   6   7
ATOM      7  C   UNL     1      12.835  47.591  25.073  1.00  0.00     0.041 C 
ATOM      8  O   UNL     1      13.529  48.336  25.814  1.00  0.00    -0.550 OA
ATOM      9  O   UNL     1      12.239  46.454  25.603  1.00  0.00    -0.550 OA
ENDBRANCH   6   7
ENDBRANCH   5   6
ENDBRANCH   4   5
ENDBRANCH   3   4
ENDBRANCH   2   3
ENDBRANCH   1   2
BRANCH   1  10
ATOM     10  C   UNL     1       9.475  53.336  21.865  1.00  0.00     0.000 C 
BRANCH  10  11
ATOM     11  C   UNL     1       8.163  52.944  22.561  1.00  0.00    -0.000 C 
BRANCH  11  12
ATOM     12  C   UNL     1       7.138  54.092  22.600  1.00  0.00    -0.000 C 
BRANCH  12  13
ATOM     13  C   UNL     1       6.524  54.461  21.235  1.00  0.00    -0.000 C 
BRANCH  13  14
ATOM     14  C   UNL     1       6.807  55.899  20.758  1.00  0.00    -0.000 C 
BRANCH  14  15
ATOM     15  C   UNL     1       7.277  56.021  19.296  1.00  0.00    -0.000 C 
BRANCH  15  16
ATOM     16  C   UNL     1       7.241  54.709  18.493  1.00  0.00    -0.003 C 
ATOM     17  C   UNL     1       6.855  54.916  17.029  1.00  0.00     0.004 C 
ENDBRANCH  15  16
ENDBRANCH  14  15
ENDBRANCH  13  14
ENDBRANCH  12  13
ENDBRANCH  11  12
ENDBRANCH  10  11
ENDBRANCH   1  10
TORSDOF 13
ENDMDL
MODEL 4
REMARK VINA RESULT:    -4.962      3.942      8.653
REMARK INTER + INTRA:          -9.600
REMARK INTER:                  -9.010
REMARK INTRA:                  -0.590
REMARK UNBOUND:                -0.867
REMARK SMILES CCCCCCCCCCCCCCC(=O)[O-]
REMARK SMILES IDX 9 1 10 2 11 3 12 4 13 5 14 6 15 7 16 8 17 9 8 10 7 11 6 12
REMARK SMILES IDX 5 13 4 14 3 15 2 16 1 17
REMARK H PARENT
REMARK Flexibility Score: inf
ROOT
ATOM      1  C   UNL     1       6.422  55.207  19.972  1.00  0.00     0.000 C 
ENDROOT
BRANCH   1   2
ATOM      2  C   UNL     1       7.862  54.690  19.821  1.00  0.00     0.000 C 
BRANCH   2   3
ATOM      3  C   UNL     1       8.579  54.542  21.174  1.00  0.00     0.000 C 
BRANCH   3   4
ATOM      4  C   UNL     1       9.810  53.624  21.090  1.00  0.00     0.000 C 
BRANCH   4   5
ATOM      5  C   UNL     1      10.032  52.810  22.379  1.00  0.00     0.006 C 
BRANCH   5   6
ATOM      6  C   UNL     1       9.109  53.266  23.516  1.00  0.00     0.053 C 
BRANCH   6   7
ATOM      7  C   UNL     1       9.850  54.066  24.544  1.00  0.00     0.041 C 
ATOM      8  O   UNL     1      11.037  54.429  24.330  1.00  0.00    -0.550 OA
ATOM      9  O   UNL     1       9.240  54.380  25.752  1.00  0.00    -0.550 OA
ENDBRANCH   6   7
ENDBRANCH   5   6
ENDBRANCH   4   5
ENDBRANCH   3   4
ENDBRANCH   2   3
ENDBRANCH   1   2
BRANCH   1  10
ATOM     10  C   UNL     1       6.358  56.627  20.552  1.00  0.00     0.000 C 
BRANCH  10  11
ATOM     11  C   UNL     1       5.009  56.876  21.246  1.00  0.00    -0.000 C 
BRANCH  11  12
ATOM     12  C   UNL     1       4.116  57.869  20.481  1.00  0.00    -0.000 C 
BRANCH  12  13
ATOM     13  C   UNL     1       3.201  58.736  21.367  1.00  0.00    -0.000 C 
BRANCH  13  14
ATOM     14  C   UNL     1       2.699  60.039  20.712  1.00  0.00    -0.000 C 
BRANCH  14  15
ATOM     15  C   UNL     1       2.892  60.116  19.185  1.00  0.00    -0.000 C 
BRANCH  15  16
ATOM     16  C   UNL     1       1.679  59.658  18.355  1.00  0.00    -0.003 C 
ATOM     17  C   UNL     1       1.938  59.700  16.850  1.00  0.00     0.004 C 
ENDBRANCH  15  16
ENDBRANCH  14  15
ENDBRANCH  13  14
ENDBRANCH  12  13
ENDBRANCH  11  12
ENDBRANCH  10  11
ENDBRANCH   1  10
TORSDOF 13
ENDMDL
MODEL 5
REMARK VINA RESULT:    -4.904      1.105      2.400
REMARK INTER + INTRA:          -9.499
REMARK INTER:                  -8.659
REMARK INTRA:                  -0.839
REMARK UNBOUND:                -0.867
REMARK SMILES CCCCCCCCCCCCCCC(=O)[O-]
REMARK SMILES IDX 9 1 10 2 11 3 12 4 13 5 14 6 15 7 16 8 17 9 8 10 7 11 6 12
REMARK SMILES IDX 5 13 4 14 3 15 2 16 1 17
REMARK H PARENT
REMARK Flexibility Score: inf
ROOT
ATOM      1  C   UNL     1       4.897  57.463  20.367  1.00  0.00     0.000 C 
ENDROOT
BRANCH   1   2
ATOM      2  C   UNL     1       3.611  58.099  20.920  1.00  0.00     0.000 C 
BRANCH   2   3
ATOM      3  C   UNL     1       3.144  59.305  20.088  1.00  0.00     0.000 C 
BRANCH   3   4
ATOM      4  C   UNL     1       2.442  60.374  20.941  1.00  0.00     0.000 C 
BRANCH   4   5
ATOM      5  C   UNL     1       0.947  60.075  21.156  1.00  0.00     0.006 C 
BRANCH   5   6
ATOM      6  C   UNL     1       0.577  60.014  22.643  1.00  0.00     0.053 C 
BRANCH   6   7
ATOM      7  C   UNL     1       0.266  58.614  23.079  1.00  0.00     0.041 C 
ATOM      8  O   UNL     1       0.191  58.334  24.305  1.00  0.00    -0.550 OA
ATOM      9  O   UNL     1       0.092  57.613  22.132  1.00  0.00    -0.550 OA
ENDBRANCH   6   7
ENDBRANCH   5   6
ENDBRANCH   4   5
ENDBRANCH   3   4
ENDBRANCH   2   3
ENDBRANCH   1   2
BRANCH   1  10
ATOM     10  C   UNL     1       5.450  56.356  21.276  1.00  0.00     0.000 C 
BRANCH  10  11
ATOM     11  C   UNL     1       6.987  56.367  21.281  1.00  0.00    -0.000 C 
BRANCH  11  12
ATOM     12  C   UNL     1       7.593  55.971  19.922  1.00  0.00    -0.000 C 
BRANCH  12  13
ATOM     13  C   UNL     1       8.143  54.533  19.850  1.00  0.00    -0.000 C 
BRANCH  13  14
ATOM     14  C   UNL     1       8.405  53.865  21.215  1.00  0.00    -0.000 C 
BRANCH  14  15
ATOM     15  C   UNL     1       9.882  53.537  21.508  1.00  0.00    -0.000 C 
BRANCH  15  16
ATOM     16  C   UNL     1      10.310  53.734  22.973  1.00  0.00    -0.003 C 
ATOM     17  C   UNL     1       9.666  54.958  23.623  1.00  0.00     0.004 C 
ENDBRANCH  15  16
ENDBRANCH  14  15
ENDBRANCH  13  14
ENDBRANCH  12  13
ENDBRANCH  11  12
ENDBRANCH  10  11
ENDBRANCH   1  10
TORSDOF 13
ENDMDL
MODEL 6
REMARK VINA RESULT:    -4.888      2.572      3.799
REMARK INTER + INTRA:          -9.471
REMARK INTER:                  -8.885
REMARK INTRA:                  -0.585
REMARK UNBOUND:                -0.867
REMARK SMILES CCCCCCCCCCCCCCC(=O)[O-]
REMARK SMILES IDX 9 1 10 2 11 3 12 4 13 5 14 6 15 7 16 8 17 9 8 10 7 11 6 12
REMARK SMILES IDX 5 13 4 14 3 15 2 16 1 17
REMARK H PARENT
REMARK Flexibility Score: inf
ROOT
ATOM      1  C   UNL     1       4.192  57.998  20.389  1.00  0.00     0.000 C 
ENDROOT
BRANCH   1   2
ATOM      2  C   UNL     1       3.023  58.599  21.185  1.00  0.00     0.000 C 
BRANCH   2   3
ATOM      3  C   UNL     1       2.564  59.957  20.626  1.00  0.00     0.000 C 
BRANCH   3   4
ATOM      4  C   UNL     1       2.836  60.096  19.119  1.00  0.00     0.000 C 
BRANCH   4   5
ATOM      5  C   UNL     1       1.588  59.809  18.263  1.00  0.00     0.006 C 
BRANCH   5   6
ATOM      6  C   UNL     1       1.940  59.586  16.787  1.00  0.00     0.053 C 
BRANCH   6   7
ATOM      7  C   UNL     1       0.713  59.489  15.933  1.00  0.00     0.041 C 
ATOM      8  O   UNL     1       0.271  58.362  15.583  1.00  0.00    -0.550 OA
ATOM      9  O   UNL     1       0.077  60.644  15.496  1.00  0.00    -0.550 OA
ENDBRANCH   6   7
ENDBRANCH   5   6
ENDBRANCH   4   5
ENDBRANCH   3   4
ENDBRANCH   2   3
ENDBRANCH   1   2
BRANCH   1  10
ATOM     10  C   UNL     1       5.017  56.996  21.210  1.00  0.00     0.000 C 
BRANCH  10  11
ATOM     11  C   UNL     1       6.368  56.713  20.534  1.00  0.00    -0.000 C 
BRANCH  11  12
ATOM     12  C   UNL     1       6.435  55.316  19.890  1.00  0.00    -0.000 C 
BRANCH  12  13
ATOM     13  C   UNL     1       7.723  54.524  20.189  1.00  0.00    -0.000 C 
BRANCH  13  14
ATOM     14  C   UNL     1       7.898  54.091  21.659  1.00  0.00    -0.000 C 
BRANCH  14  15
ATOM     15  C   UNL     1       9.328  54.234  22.215  1.00  0.00    -0.000 C 
BRANCH  15  16
ATOM     16  C   UNL     1      10.353  53.248  21.627  1.00  0.00    -0.003 C 
ATOM     17  C   UNL     1      10.167  51.821  22.139  1.00  0.00     0.004 C 
ENDBRANCH  15  16
ENDBRANCH  14  15
ENDBRANCH  13  14
ENDBRANCH  12  13
ENDBRANCH  11  12
ENDBRANCH  10  11
ENDBRANCH   1  10
TORSDOF 13
ENDMDL
MODEL 7
REMARK VINA RESULT:    -4.881      3.639      8.283
REMARK INTER + INTRA:          -9.458
REMARK INTER:                  -8.788
REMARK INTRA:                  -0.670
REMARK UNBOUND:                -0.867
REMARK SMILES CCCCCCCCCCCCCCC(=O)[O-]
REMARK SMILES IDX 9 1 10 2 11 3 12 4 13 5 14 6 15 7 16 8 17 9 8 10 7 11 6 12
REMARK SMILES IDX 5 13 4 14 3 15 2 16 1 17
REMARK H PARENT
REMARK Flexibility Score: inf
ROOT
ATOM      1  C   UNL     1       6.643  54.823  21.599  1.00  0.00     0.000 C 
ENDROOT
BRANCH   1   2
ATOM      2  C   UNL     1       7.629  53.864  20.913  1.00  0.00     0.000 C 
BRANCH   2   3
ATOM      3  C   UNL     1       9.065  54.413  20.886  1.00  0.00     0.000 C 
BRANCH   3   4
ATOM      4  C   UNL     1      10.112  53.345  21.243  1.00  0.00     0.000 C 
BRANCH   4   5
ATOM      5  C   UNL     1       9.999  52.868  22.703  1.00  0.00     0.006 C 
BRANCH   5   6
ATOM      6  C   UNL     1      10.248  54.005  23.702  1.00  0.00     0.053 C 
BRANCH   6   7
ATOM      7  C   UNL     1       9.287  53.953  24.850  1.00  0.00     0.041 C 
ATOM      8  O   UNL     1       9.680  54.215  26.018  1.00  0.00    -0.550 OA
ATOM      9  O   UNL     1       7.965  53.584  24.635  1.00  0.00    -0.550 OA
ENDBRANCH   6   7
ENDBRANCH   5   6
ENDBRANCH   4   5
ENDBRANCH   3   4
ENDBRANCH   2   3
ENDBRANCH   1   2
BRANCH   1  10
ATOM     10  C   UNL     1       6.085  55.886  20.642  1.00  0.00     0.000 C 
BRANCH  10  11
ATOM     11  C   UNL     1       4.976  56.706  21.319  1.00  0.00    -0.000 C 
BRANCH  11  12
ATOM     12  C   UNL     1       4.518  57.909  20.475  1.00  0.00    -0.000 C 
BRANCH  12  13
ATOM     13  C   UNL     1       3.037  58.298  20.647  1.00  0.00    -0.000 C 
BRANCH  13  14
ATOM     14  C   UNL     1       2.736  59.206  21.856  1.00  0.00    -0.000 C 
BRANCH  14  15
ATOM     15  C   UNL     1       1.261  59.628  22.004  1.00  0.00    -0.000 C 
BRANCH  15  16
ATOM     16  C   UNL     1       0.540  59.041  23.231  1.00  0.00    -0.003 C 
ATOM     17  C   UNL     1      -0.525  58.010  22.858  1.00  0.00     0.004 C 
ENDBRANCH  15  16
ENDBRANCH  14  15
ENDBRANCH  13  14
ENDBRANCH  12  13
ENDBRANCH  11  12
ENDBRANCH  10  11
ENDBRANCH   1  10
TORSDOF 13
ENDMDL
MODEL 8
REMARK VINA RESULT:    -4.820      1.163      1.919
REMARK INTER + INTRA:          -9.350
REMARK INTER:                  -8.436
REMARK INTRA:                  -0.914
REMARK UNBOUND:                -0.867
REMARK SMILES CCCCCCCCCCCCCCC(=O)[O-]
REMARK SMILES IDX 9 1 10 2 11 3 12 4 13 5 14 6 15 7 16 8 17 9 8 10 7 11 6 12
REMARK SMILES IDX 5 13 4 14 3 15 2 16 1 17
REMARK H PARENT
REMARK Flexibility Score: inf
ROOT
ATOM      1  C   UNL     1       6.185  56.887  20.188  1.00  0.00     0.000 C 
ENDROOT
BRANCH   1   2
ATOM      2  C   UNL     1       4.986  56.998  21.144  1.00  0.00     0.000 C 
BRANCH   2   3
ATOM      3  C   UNL     1       3.931  58.004  20.653  1.00  0.00     0.000 C 
BRANCH   3   4
ATOM      4  C   UNL     1       3.292  58.798  21.804  1.00  0.00     0.000 C 
BRANCH   4   5
ATOM      5  C   UNL     1       2.337  59.899  21.307  1.00  0.00     0.006 C 
BRANCH   5   6
ATOM      6  C   UNL     1       1.043  59.954  22.128  1.00  0.00     0.053 C 
BRANCH   6   7
ATOM      7  C   UNL     1      -0.150  60.232  21.265  1.00  0.00     0.041 C 
ATOM      8  O   UNL     1      -0.033  60.944  20.232  1.00  0.00    -0.550 OA
ATOM      9  O   UNL     1      -1.396  59.732  21.619  1.00  0.00    -0.550 OA
ENDBRANCH   6   7
ENDBRANCH   5   6
ENDBRANCH   4   5
ENDBRANCH   3   4
ENDBRANCH   2   3
ENDBRANCH   1   2
BRANCH   1  10
ATOM     10  C   UNL     1       7.452  56.366  20.883  1.00  0.00     0.000 C 
BRANCH  10  11
ATOM     11  C   UNL     1       7.910  55.036  20.262  1.00  0.00    -0.000 C 
BRANCH  11  12
ATOM     12  C   UNL     1       7.220  53.812  20.892  1.00  0.00    -0.000 C 
BRANCH  12  13
ATOM     13  C   UNL     1       6.855  53.966  22.381  1.00  0.00    -0.000 C 
BRANCH  13  14
ATOM     14  C   UNL     1       7.766  53.197  23.360  1.00  0.00    -0.000 C 
BRANCH  14  15
ATOM     15  C   UNL     1       9.043  52.605  22.733  1.00  0.00    -0.000 C 
BRANCH  15  16
ATOM     16  C   UNL     1      10.295  53.490  22.856  1.00  0.00    -0.003 C 
ATOM     17  C   UNL     1      10.100  54.669  23.808  1.00  0.00     0.004 C 
ENDBRANCH  15  16
ENDBRANCH  14  15
ENDBRANCH  13  14
ENDBRANCH  12  13
ENDBRANCH  11  12
ENDBRANCH  10  11
ENDBRANCH   1  10
TORSDOF 13
ENDMDL
MODEL 9
REMARK VINA RESULT:    -4.802      6.995     10.689
REMARK INTER + INTRA:          -9.319
REMARK INTER:                  -8.528
REMARK INTRA:                  -0.791
REMARK UNBOUND:                -0.867
REMARK SMILES CCCCCCCCCCCCCCC(=O)[O-]
REMARK SMILES IDX 9 1 10 2 11 3 12 4 13 5 14 6 15 7 16 8 17 9 8 10 7 11 6 12
REMARK SMILES IDX 5 13 4 14 3 15 2 16 1 17
REMARK H PARENT
REMARK Flexibility Score: inf
ROOT
ATOM      1  C   UNL     1       9.883  51.122  22.100  1.00  0.00     0.000 C 
ENDROOT
BRANCH   1   2
ATOM      2  C   UNL     1      10.779  50.064  22.764  1.00  0.00     0.000 C 
BRANCH   2   3
ATOM      3  C   UNL     1      10.416  48.632  22.336  1.00  0.00     0.000 C 
BRANCH   3   4
ATOM      4  C   UNL     1      11.488  47.606  22.740  1.00  0.00     0.000 C 
BRANCH   4   5
ATOM      5  C   UNL     1      10.905  46.413  23.519  1.00  0.00     0.006 C 
BRANCH   5   6
ATOM      6  C   UNL     1       9.372  46.392  23.481  1.00  0.00     0.053 C 
BRANCH   6   7
ATOM      7  C   UNL     1       8.826  45.053  23.873  1.00  0.00     0.041 C 
ATOM      8  O   UNL     1       9.374  44.389  24.793  1.00  0.00    -0.550 OA
ATOM      9  O   UNL     1       7.732  44.524  23.199  1.00  0.00    -0.550 OA
ENDBRANCH   6   7
ENDBRANCH   5   6
ENDBRANCH   4   5
ENDBRANCH   3   4
ENDBRANCH   2   3
ENDBRANCH   1   2
BRANCH   1  10
ATOM     10  C   UNL     1      10.493  52.531  22.148  1.00  0.00     0.000 C 
BRANCH  10  11
ATOM     11  C   UNL     1       9.548  53.560  21.508  1.00  0.00    -0.000 C 
BRANCH  11  12
ATOM     12  C   UNL     1       8.061  53.214  21.709  1.00  0.00    -0.000 C 
BRANCH  12  13
ATOM     13  C   UNL     1       7.217  54.328  22.359  1.00  0.00    -0.000 C 
BRANCH  13  14
ATOM     14  C   UNL     1       6.103  54.909  21.465  1.00  0.00    -0.000 C 
BRANCH  14  15
ATOM     15  C   UNL     1       6.393  56.309  20.889  1.00  0.00    -0.000 C 
BRANCH  15  16
ATOM     16  C   UNL     1       7.516  56.356  19.838  1.00  0.00    -0.003 C 
ATOM     17  C   UNL     1       7.275  55.406  18.666  1.00  0.00     0.004 C 
ENDBRANCH  15  16
ENDBRANCH  14  15
ENDBRANCH  13  14
ENDBRANCH  12  13
ENDBRANCH  11  12
ENDBRANCH  10  11
ENDBRANCH   1  10
TORSDOF 13
ENDMDL
