MODEL 1
REMARK VINA RESULT:    -6.849      0.000      0.000
REMARK INTER + INTRA:          -8.785
REMARK INTER:                  -8.450
REMARK INTRA:                  -0.335
REMARK UNBOUND:                -0.335
REMARK SMILES COc1cc(-c2oc3cc(O)cc(O)c3c(=O)c2O)ccc1O
REMARK SMILES IDX 6 1 18 2 16 3 17 4 15 5 13 6 12 7 10 8 9 9 8 10 7 11 5 12
REMARK SMILES IDX 3 13 22 14 4 15 21 16 20 17 2 18 1 19 23 20 19 22 14 24
REMARK SMILES IDX 11 26
REMARK H PARENT 23 21 19 23 14 25 11 27
REMARK Flexibility Score: inf
ROOT
ATOM      1  C   UNL     1      32.342  -0.366 165.226  1.00  0.00     0.180 A 
ATOM      2  C   UNL     1      32.105  -1.072 164.031  1.00  0.00     0.208 A 
ATOM      3  C   UNL     1      30.959  -1.878 163.936  1.00  0.00     0.238 A 
ATOM      4  O   UNL     1      30.742  -2.523 162.874  1.00  0.00    -0.285 OA
ATOM      5  C   UNL     1      30.063  -1.947 165.023  1.00  0.00     0.111 A 
ATOM      6  C   UNL     1      28.885  -2.731 165.005  1.00  0.00     0.134 A 
ATOM      7  C   UNL     1      28.039  -2.740 166.125  1.00  0.00     0.093 A 
ATOM      8  C   UNL     1      28.349  -1.981 167.259  1.00  0.00     0.123 A 
ATOM      9  C   UNL     1      29.510  -1.207 167.280  1.00  0.00     0.094 A 
ATOM     10  C   UNL     1      30.367  -1.185 166.175  1.00  0.00     0.146 A 
ATOM     11  O   UNL     1      31.468  -0.444 166.225  1.00  0.00    -0.452 OA
ENDROOT
BRANCH   1  12
ATOM     12  C   UNL     1      33.537   0.490 165.410  1.00  0.00     0.025 A 
ATOM     13  C   UNL     1      34.502   2.722 165.670  1.00  0.00     0.161 A 
ATOM     14  C   UNL     1      35.772   2.148 165.820  1.00  0.00     0.157 A 
ATOM     15  C   UNL     1      33.385   1.885 165.472  1.00  0.00     0.062 A 
ATOM     16  C   UNL     1      35.924   0.756 165.780  1.00  0.00     0.051 A 
ATOM     17  C   UNL     1      34.814  -0.068 165.583  1.00  0.00     0.016 A 
BRANCH  13  18
ATOM     18  O   UNL     1      34.389   4.120 165.723  1.00  0.00    -0.493 OA
ATOM     19  C   UNL     1      34.084   4.948 164.605  1.00  0.00     0.278 C 
ENDBRANCH  13  18
BRANCH  14  20
ATOM     20  O   UNL     1      36.881   2.970 166.014  1.00  0.00    -0.504 OA
ATOM     21  H   UNL     1      37.258   3.142 166.939  1.00  0.00     0.293 HD
ENDBRANCH  14  20
ENDBRANCH   1  12
BRANCH   2  22
ATOM     22  O   UNL     1      32.982  -0.947 162.951  1.00  0.00    -0.502 OA
ATOM     23  H   UNL     1      33.219  -0.049 162.545  1.00  0.00     0.293 HD
ENDBRANCH   2  22
BRANCH   6  24
ATOM     24  O   UNL     1      28.548  -3.497 163.889  1.00  0.00    -0.507 OA
ATOM     25  H   UNL     1      28.374  -4.493 163.959  1.00  0.00     0.293 HD
ENDBRANCH   6  24
BRANCH   8  26
ATOM     26  O   UNL     1      27.509  -1.989 168.370  1.00  0.00    -0.508 OA
ATOM     27  H   UNL     1      26.508  -1.867 168.278  1.00  0.00     0.293 HD
ENDBRANCH   8  26
TORSDOF 6
ENDMDL
MODEL 2
REMARK VINA RESULT:    -6.821      1.750      7.184
REMARK INTER + INTRA:          -8.752
REMARK INTER:                  -8.976
REMARK INTRA:                   0.224
REMARK UNBOUND:                -0.335
REMARK SMILES COc1cc(-c2oc3cc(O)cc(O)c3c(=O)c2O)ccc1O
REMARK SMILES IDX 6 1 18 2 16 3 17 4 15 5 13 6 12 7 10 8 9 9 8 10 7 11 5 12
REMARK SMILES IDX 3 13 22 14 4 15 21 16 20 17 2 18 1 19 23 20 19 22 14 24
REMARK SMILES IDX 11 26
REMARK H PARENT 23 21 19 23 14 25 11 27
REMARK Flexibility Score: inf
ROOT
ATOM      1  C   UNL     1      31.918   0.289 166.019  1.00  0.00     0.180 A 
ATOM      2  C   UNL     1      32.425   1.536 166.430  1.00  0.00     0.208 A 
ATOM      3  C   UNL     1      33.551   2.059 165.777  1.00  0.00     0.238 A 
ATOM      4  O   UNL     1      34.019   3.172 166.144  1.00  0.00    -0.285 OA
ATOM      5  C   UNL     1      34.137   1.341 164.715  1.00  0.00     0.111 A 
ATOM      6  C   UNL     1      35.272   1.800 164.003  1.00  0.00     0.134 A 
ATOM      7  C   UNL     1      35.791   1.030 162.951  1.00  0.00     0.093 A 
ATOM      8  C   UNL     1      35.199  -0.188 162.600  1.00  0.00     0.123 A 
ATOM      9  C   UNL     1      34.082  -0.645 163.300  1.00  0.00     0.094 A 
ATOM     10  C   UNL     1      33.549   0.107 164.352  1.00  0.00     0.146 A 
ATOM     11  O   UNL     1      32.489  -0.355 165.005  1.00  0.00    -0.452 OA
ENDROOT
BRANCH   1  12
ATOM     12  C   UNL     1      30.745  -0.338 166.671  1.00  0.00     0.025 A 
ATOM     13  C   UNL     1      28.879  -1.916 166.568  1.00  0.00     0.161 A 
ATOM     14  C   UNL     1      28.545  -1.597 167.891  1.00  0.00     0.157 A 
ATOM     15  C   UNL     1      29.987  -1.287 165.964  1.00  0.00     0.062 A 
ATOM     16  C   UNL     1      29.311  -0.667 168.605  1.00  0.00     0.051 A 
ATOM     17  C   UNL     1      30.407  -0.047 168.002  1.00  0.00     0.016 A 
BRANCH  13  18
ATOM     18  O   UNL     1      28.092  -2.858 165.888  1.00  0.00    -0.493 OA
ATOM     19  C   UNL     1      28.521  -3.595 164.747  1.00  0.00     0.278 C 
ENDBRANCH  13  18
BRANCH  14  20
ATOM     20  O   UNL     1      27.450  -2.215 168.493  1.00  0.00    -0.504 OA
ATOM     21  H   UNL     1      27.382  -3.224 168.564  1.00  0.00     0.293 HD
ENDBRANCH  14  20
ENDBRANCH   1  12
BRANCH   2  22
ATOM     22  O   UNL     1      31.794   2.251 167.452  1.00  0.00    -0.502 OA
ATOM     23  H   UNL     1      32.291   2.910 168.040  1.00  0.00     0.293 HD
ENDBRANCH   2  22
BRANCH   6  24
ATOM     24  O   UNL     1      35.883   3.011 164.329  1.00  0.00    -0.507 OA
ATOM     25  H   UNL     1      36.811   3.048 164.734  1.00  0.00     0.293 HD
ENDBRANCH   6  24
BRANCH   8  26
ATOM     26  O   UNL     1      35.714  -0.953 161.556  1.00  0.00    -0.508 OA
ATOM     27  H   UNL     1      35.196  -1.096 160.698  1.00  0.00     0.293 HD
ENDBRANCH   8  26
TORSDOF 6
ENDMDL
MODEL 3
REMARK VINA RESULT:    -6.732      1.251      2.869
REMARK INTER + INTRA:          -8.641
REMARK INTER:                  -8.540
REMARK INTRA:                  -0.101
REMARK UNBOUND:                -0.335
REMARK SMILES COc1cc(-c2oc3cc(O)cc(O)c3c(=O)c2O)ccc1O
REMARK SMILES IDX 6 1 18 2 16 3 17 4 15 5 13 6 12 7 10 8 9 9 8 10 7 11 5 12
REMARK SMILES IDX 3 13 22 14 4 15 21 16 20 17 2 18 1 19 23 20 19 22 14 24
REMARK SMILES IDX 11 26
REMARK H PARENT 23 21 19 23 14 25 11 27
REMARK Flexibility Score: inf
ROOT
ATOM      1  C   UNL     1      31.776  -0.023 166.259  1.00  0.00     0.180 A 
ATOM      2  C   UNL     1      31.109   0.239 167.471  1.00  0.00     0.208 A 
ATOM      3  C   UNL     1      29.918  -0.449 167.752  1.00  0.00     0.238 A 
ATOM      4  O   UNL     1      29.307  -0.215 168.830  1.00  0.00    -0.285 OA
ATOM      5  C   UNL     1      29.427  -1.396 166.831  1.00  0.00     0.111 A 
ATOM      6  C   UNL     1      28.236  -2.134 167.040  1.00  0.00     0.134 A 
ATOM      7  C   UNL     1      27.818  -3.067 166.078  1.00  0.00     0.093 A 
ATOM      8  C   UNL     1      28.566  -3.274 164.914  1.00  0.00     0.123 A 
ATOM      9  C   UNL     1      29.739  -2.548 164.704  1.00  0.00     0.094 A 
ATOM     10  C   UNL     1      30.173  -1.614 165.649  1.00  0.00     0.146 A 
ATOM     11  O   UNL     1      31.290  -0.933 165.420  1.00  0.00    -0.452 OA
ENDROOT
BRANCH   1  12
ATOM     12  C   UNL     1      33.027   0.675 165.883  1.00  0.00     0.025 A 
ATOM     13  C   UNL     1      34.225   2.769 165.481  1.00  0.00     0.161 A 
ATOM     14  C   UNL     1      35.398   2.043 165.233  1.00  0.00     0.157 A 
ATOM     15  C   UNL     1      33.042   2.078 165.813  1.00  0.00     0.062 A 
ATOM     16  C   UNL     1      35.392   0.645 165.324  1.00  0.00     0.051 A 
ATOM     17  C   UNL     1      34.217  -0.035 165.653  1.00  0.00     0.016 A 
BRANCH  13  18
ATOM     18  O   UNL     1      34.273   4.168 165.388  1.00  0.00    -0.493 OA
ATOM     19  C   UNL     1      34.107   4.902 164.178  1.00  0.00     0.278 C 
ENDBRANCH  13  18
BRANCH  14  20
ATOM     20  O   UNL     1      36.571   2.720 164.903  1.00  0.00    -0.504 OA
ATOM     21  H   UNL     1      36.739   3.670 165.212  1.00  0.00     0.293 HD
ENDBRANCH  14  20
ENDBRANCH   1  12
BRANCH   2  22
ATOM     22  O   UNL     1      31.644   1.146 168.390  1.00  0.00    -0.502 OA
ATOM     23  H   UNL     1      31.440   1.098 169.381  1.00  0.00     0.293 HD
ENDBRANCH   2  22
BRANCH   6  24
ATOM     24  O   UNL     1      27.470  -1.950 168.191  1.00  0.00    -0.507 OA
ATOM     25  H   UNL     1      27.830  -1.454 168.998  1.00  0.00     0.293 HD
ENDBRANCH   6  24
BRANCH   8  26
ATOM     26  O   UNL     1      28.151  -4.200 163.960  1.00  0.00    -0.508 OA
ATOM     27  H   UNL     1      28.617  -4.282 163.064  1.00  0.00     0.293 HD
ENDBRANCH   8  26
TORSDOF 6
ENDMDL
MODEL 4
REMARK VINA RESULT:    -6.731      1.478      6.941
REMARK INTER + INTRA:          -8.640
REMARK INTER:                  -8.911
REMARK INTRA:                   0.271
REMARK UNBOUND:                -0.335
REMARK SMILES COc1cc(-c2oc3cc(O)cc(O)c3c(=O)c2O)ccc1O
REMARK SMILES IDX 6 1 18 2 16 3 17 4 15 5 13 6 12 7 10 8 9 9 8 10 7 11 5 12
REMARK SMILES IDX 3 13 22 14 4 15 21 16 20 17 2 18 1 19 23 20 19 22 14 24
REMARK SMILES IDX 11 26
REMARK H PARENT 23 21 19 23 14 25 11 27
REMARK Flexibility Score: inf
ROOT
ATOM      1  C   UNL     1      32.092  -0.085 165.781  1.00  0.00     0.180 A 
ATOM      2  C   UNL     1      32.730  -0.820 164.764  1.00  0.00     0.208 A 
ATOM      3  C   UNL     1      33.871  -0.279 164.150  1.00  0.00     0.238 A 
ATOM      4  O   UNL     1      34.444  -0.925 163.230  1.00  0.00    -0.285 OA
ATOM      5  C   UNL     1      34.364   0.971 164.575  1.00  0.00     0.111 A 
ATOM      6  C   UNL     1      35.510   1.583 164.010  1.00  0.00     0.134 A 
ATOM      7  C   UNL     1      35.944   2.826 164.496  1.00  0.00     0.093 A 
ATOM      8  C   UNL     1      35.255   3.467 165.531  1.00  0.00     0.123 A 
ATOM      9  C   UNL     1      34.125   2.868 166.090  1.00  0.00     0.094 A 
ATOM     10  C   UNL     1      33.676   1.630 165.620  1.00  0.00     0.146 A 
ATOM     11  O   UNL     1      32.594   1.085 166.166  1.00  0.00    -0.452 OA
ENDROOT
BRANCH   1  12
ATOM     12  C   UNL     1      30.875  -0.580 166.464  1.00  0.00     0.025 A 
ATOM     13  C   UNL     1      28.854  -1.957 166.418  1.00  0.00     0.161 A 
ATOM     14  C   UNL     1      28.583  -1.592 167.744  1.00  0.00     0.157 A 
ATOM     15  C   UNL     1      30.008  -1.453 165.785  1.00  0.00     0.062 A 
ATOM     16  C   UNL     1      29.456  -0.739 168.431  1.00  0.00     0.051 A 
ATOM     17  C   UNL     1      30.598  -0.241 167.799  1.00  0.00     0.016 A 
BRANCH  13  18
ATOM     18  O   UNL     1      27.959  -2.820 165.767  1.00  0.00    -0.493 OA
ATOM     19  C   UNL     1      28.342  -3.817 164.824  1.00  0.00     0.278 C 
ENDBRANCH  13  18
BRANCH  14  20
ATOM     20  O   UNL     1      27.443  -2.086 168.376  1.00  0.00    -0.504 OA
ATOM     21  H   UNL     1      27.012  -1.597 169.152  1.00  0.00     0.293 HD
ENDBRANCH  14  20
ENDBRANCH   1  12
BRANCH   2  22
ATOM     22  O   UNL     1      32.250  -2.079 164.396  1.00  0.00    -0.502 OA
ATOM     23  H   UNL     1      31.936  -2.761 165.077  1.00  0.00     0.293 HD
ENDBRANCH   2  22
BRANCH   6  24
ATOM     24  O   UNL     1      36.218   0.969 162.978  1.00  0.00    -0.507 OA
ATOM     25  H   UNL     1      37.118   0.530 163.135  1.00  0.00     0.293 HD
ENDBRANCH   6  24
BRANCH   8  26
ATOM     26  O   UNL     1      35.686   4.701 166.013  1.00  0.00    -0.508 OA
ATOM     27  H   UNL     1      35.337   5.571 165.630  1.00  0.00     0.293 HD
ENDBRANCH   8  26
TORSDOF 6
ENDMDL
MODEL 5
REMARK VINA RESULT:    -6.289      2.185      3.119
REMARK INTER + INTRA:          -8.095
REMARK INTER:                  -7.694
REMARK INTRA:                  -0.400
REMARK UNBOUND:                -0.335
REMARK SMILES COc1cc(-c2oc3cc(O)cc(O)c3c(=O)c2O)ccc1O
REMARK SMILES IDX 6 1 18 2 16 3 17 4 15 5 13 6 12 7 10 8 9 9 8 10 7 11 5 12
REMARK SMILES IDX 3 13 22 14 4 15 21 16 20 17 2 18 1 19 23 20 19 22 14 24
REMARK SMILES IDX 11 26
REMARK H PARENT 23 21 19 23 14 25 11 27
REMARK Flexibility Score: inf
ROOT
ATOM      1  C   UNL     1      33.520   1.299 164.951  1.00  0.00     0.180 A 
ATOM      2  C   UNL     1      33.155   0.097 164.316  1.00  0.00     0.208 A 
ATOM      3  C   UNL     1      32.129  -0.681 164.874  1.00  0.00     0.238 A 
ATOM      4  O   UNL     1      31.801  -1.765 164.318  1.00  0.00    -0.285 OA
ATOM      5  C   UNL     1      31.474  -0.237 166.040  1.00  0.00     0.111 A 
ATOM      6  C   UNL     1      30.428  -0.960 166.663  1.00  0.00     0.134 A 
ATOM      7  C   UNL     1      29.819  -0.446 167.818  1.00  0.00     0.093 A 
ATOM      8  C   UNL     1      30.236   0.774 168.361  1.00  0.00     0.123 A 
ATOM      9  C   UNL     1      31.268   1.490 167.751  1.00  0.00     0.094 A 
ATOM     10  C   UNL     1      31.888   0.994 166.600  1.00  0.00     0.146 A 
ATOM     11  O   UNL     1      32.871   1.693 166.043  1.00  0.00    -0.452 OA
ENDROOT
BRANCH   1  12
ATOM     12  C   UNL     1      34.605   2.165 164.434  1.00  0.00     0.025 A 
ATOM     13  C   UNL     1      36.975   2.764 164.395  1.00  0.00     0.161 A 
ATOM     14  C   UNL     1      36.705   3.747 163.432  1.00  0.00     0.157 A 
ATOM     15  C   UNL     1      35.920   1.970 164.888  1.00  0.00     0.062 A 
ATOM     16  C   UNL     1      35.398   3.929 162.962  1.00  0.00     0.051 A 
ATOM     17  C   UNL     1      34.356   3.140 163.454  1.00  0.00     0.016 A 
BRANCH  13  18
ATOM     18  O   UNL     1      38.299   2.606 164.835  1.00  0.00    -0.493 OA
ATOM     19  C   UNL     1      38.801   3.098 166.074  1.00  0.00     0.278 C 
ENDBRANCH  13  18
BRANCH  14  20
ATOM     20  O   UNL     1      37.743   4.536 162.942  1.00  0.00    -0.504 OA
ATOM     21  H   UNL     1      38.604   4.126 162.597  1.00  0.00     0.293 HD
ENDBRANCH  14  20
ENDBRANCH   1  12
BRANCH   2  22
ATOM     22  O   UNL     1      33.787  -0.295 163.132  1.00  0.00    -0.502 OA
ATOM     23  H   UNL     1      33.684   0.220 162.265  1.00  0.00     0.293 HD
ENDBRANCH   2  22
BRANCH   6  24
ATOM     24  O   UNL     1      29.989  -2.178 166.145  1.00  0.00    -0.507 OA
ATOM     25  H   UNL     1      29.417  -2.814 166.689  1.00  0.00     0.293 HD
ENDBRANCH   6  24
BRANCH   8  26
ATOM     26  O   UNL     1      29.632   1.285 169.507  1.00  0.00    -0.508 OA
ATOM     27  H   UNL     1      29.155   2.178 169.501  1.00  0.00     0.293 HD
ENDBRANCH   8  26
TORSDOF 6
ENDMDL
MODEL 6
REMARK VINA RESULT:    -6.153      2.316      2.643
REMARK INTER + INTRA:          -7.927
REMARK INTER:                  -7.547
REMARK INTRA:                  -0.380
REMARK UNBOUND:                -0.335
REMARK SMILES COc1cc(-c2oc3cc(O)cc(O)c3c(=O)c2O)ccc1O
REMARK SMILES IDX 6 1 18 2 16 3 17 4 15 5 13 6 12 7 10 8 9 9 8 10 7 11 5 12
REMARK SMILES IDX 3 13 22 14 4 15 21 16 20 17 2 18 1 19 23 20 19 22 14 24
REMARK SMILES IDX 11 26
REMARK H PARENT 23 21 19 23 14 25 11 27
REMARK Flexibility Score: inf
ROOT
ATOM      1  C   UNL     1      33.277   0.807 164.805  1.00  0.00     0.180 A 
ATOM      2  C   UNL     1      32.752  -0.353 164.203  1.00  0.00     0.208 A 
ATOM      3  C   UNL     1      31.677  -1.011 164.820  1.00  0.00     0.238 A 
ATOM      4  O   UNL     1      31.206  -2.056 164.295  1.00  0.00    -0.285 OA
ATOM      5  C   UNL     1      31.134  -0.490 166.013  1.00  0.00     0.111 A 
ATOM      6  C   UNL     1      30.049  -1.091 166.695  1.00  0.00     0.134 A 
ATOM      7  C   UNL     1      29.559  -0.505 167.873  1.00  0.00     0.093 A 
ATOM      8  C   UNL     1      30.133   0.666 168.380  1.00  0.00     0.123 A 
ATOM      9  C   UNL     1      31.204   1.260 167.710  1.00  0.00     0.094 A 
ATOM     10  C   UNL     1      31.707   0.693 166.536  1.00  0.00     0.146 A 
ATOM     11  O   UNL     1      32.731   1.277 165.922  1.00  0.00    -0.452 OA
ENDROOT
BRANCH   1  12
ATOM     12  C   UNL     1      34.422   1.546 164.224  1.00  0.00     0.025 A 
ATOM     13  C   UNL     1      35.262   3.200 162.630  1.00  0.00     0.161 A 
ATOM     14  C   UNL     1      36.558   3.016 163.133  1.00  0.00     0.157 A 
ATOM     15  C   UNL     1      34.195   2.465 163.185  1.00  0.00     0.062 A 
ATOM     16  C   UNL     1      36.784   2.116 164.182  1.00  0.00     0.051 A 
ATOM     17  C   UNL     1      35.723   1.391 164.728  1.00  0.00     0.016 A 
BRANCH  13  18
ATOM     18  O   UNL     1      35.075   4.116 161.584  1.00  0.00    -0.493 OA
ATOM     19  C   UNL     1      34.267   5.286 161.671  1.00  0.00     0.278 C 
ENDBRANCH  13  18
BRANCH  14  20
ATOM     20  O   UNL     1      37.617   3.738 162.587  1.00  0.00    -0.504 OA
ATOM     21  H   UNL     1      38.412   3.275 162.162  1.00  0.00     0.293 HD
ENDBRANCH  14  20
ENDBRANCH   1  12
BRANCH   2  22
ATOM     22  O   UNL     1      33.276  -0.819 162.994  1.00  0.00    -0.502 OA
ATOM     23  H   UNL     1      33.745  -1.714 162.915  1.00  0.00     0.293 HD
ENDBRANCH   2  22
BRANCH   6  24
ATOM     24  O   UNL     1      29.455  -2.257 166.215  1.00  0.00    -0.507 OA
ATOM     25  H   UNL     1      29.555  -3.144 166.695  1.00  0.00     0.293 HD
ENDBRANCH   6  24
BRANCH   8  26
ATOM     26  O   UNL     1      29.647   1.247 169.548  1.00  0.00    -0.508 OA
ATOM     27  H   UNL     1      30.138   1.156 170.429  1.00  0.00     0.293 HD
ENDBRANCH   8  26
TORSDOF 6
ENDMDL
MODEL 7
REMARK VINA RESULT:    -6.126      2.138      3.419
REMARK INTER + INTRA:          -7.894
REMARK INTER:                  -7.513
REMARK INTRA:                  -0.381
REMARK UNBOUND:                -0.335
REMARK SMILES COc1cc(-c2oc3cc(O)cc(O)c3c(=O)c2O)ccc1O
REMARK SMILES IDX 6 1 18 2 16 3 17 4 15 5 13 6 12 7 10 8 9 9 8 10 7 11 5 12
REMARK SMILES IDX 3 13 22 14 4 15 21 16 20 17 2 18 1 19 23 20 19 22 14 24
REMARK SMILES IDX 11 26
REMARK H PARENT 23 21 19 23 14 25 11 27
REMARK Flexibility Score: inf
ROOT
ATOM      1  C   UNL     1      33.600   2.170 165.442  1.00  0.00     0.180 A 
ATOM      2  C   UNL     1      33.474   1.001 164.666  1.00  0.00     0.208 A 
ATOM      3  C   UNL     1      32.533   0.032 165.048  1.00  0.00     0.238 A 
ATOM      4  O   UNL     1      32.419  -1.023 164.367  1.00  0.00    -0.285 OA
ATOM      5  C   UNL     1      31.723   0.255 166.180  1.00  0.00     0.111 A 
ATOM      6  C   UNL     1      30.749  -0.669 166.629  1.00  0.00     0.134 A 
ATOM      7  C   UNL     1      29.975  -0.369 167.761  1.00  0.00     0.093 A 
ATOM      8  C   UNL     1      30.158   0.835 168.451  1.00  0.00     0.123 A 
ATOM      9  C   UNL     1      31.118   1.748 168.012  1.00  0.00     0.094 A 
ATOM     10  C   UNL     1      31.900   1.468 166.887  1.00  0.00     0.146 A 
ATOM     11  O   UNL     1      32.810   2.352 166.495  1.00  0.00    -0.452 OA
ENDROOT
BRANCH   1  12
ATOM     12  C   UNL     1      34.582   3.229 165.114  1.00  0.00     0.025 A 
ATOM     13  C   UNL     1      36.798   4.211 165.439  1.00  0.00     0.161 A 
ATOM     14  C   UNL     1      36.499   5.187 164.477  1.00  0.00     0.157 A 
ATOM     15  C   UNL     1      35.836   3.229 165.749  1.00  0.00     0.062 A 
ATOM     16  C   UNL     1      35.259   5.176 163.827  1.00  0.00     0.051 A 
ATOM     17  C   UNL     1      34.309   4.201 164.138  1.00  0.00     0.016 A 
BRANCH  13  18
ATOM     18  O   UNL     1      38.055   4.250 166.062  1.00  0.00    -0.493 OA
ATOM     19  C   UNL     1      38.255   4.325 167.471  1.00  0.00     0.278 C 
ENDBRANCH  13  18
BRANCH  14  20
ATOM     20  O   UNL     1      37.446   6.161 164.167  1.00  0.00    -0.504 OA
ATOM     21  H   UNL     1      37.289   7.140 164.380  1.00  0.00     0.293 HD
ENDBRANCH  14  20
ENDBRANCH   1  12
BRANCH   2  22
ATOM     22  O   UNL     1      34.254   0.827 163.520  1.00  0.00    -0.502 OA
ATOM     23  H   UNL     1      34.038   0.131 162.816  1.00  0.00     0.293 HD
ENDBRANCH   2  22
BRANCH   6  24
ATOM     24  O   UNL     1      30.542  -1.876 165.962  1.00  0.00    -0.507 OA
ATOM     25  H   UNL     1      29.612  -2.239 165.791  1.00  0.00     0.293 HD
ENDBRANCH   6  24
BRANCH   8  26
ATOM     26  O   UNL     1      29.390   1.133 169.574  1.00  0.00    -0.508 OA
ATOM     27  H   UNL     1      29.798   1.169 170.500  1.00  0.00     0.293 HD
ENDBRANCH   8  26
TORSDOF 6
ENDMDL
MODEL 8
REMARK VINA RESULT:    -6.083      2.173      3.046
REMARK INTER + INTRA:          -7.840
REMARK INTER:                  -7.503
REMARK INTRA:                  -0.337
REMARK UNBOUND:                -0.335
REMARK SMILES COc1cc(-c2oc3cc(O)cc(O)c3c(=O)c2O)ccc1O
REMARK SMILES IDX 6 1 18 2 16 3 17 4 15 5 13 6 12 7 10 8 9 9 8 10 7 11 5 12
REMARK SMILES IDX 3 13 22 14 4 15 21 16 20 17 2 18 1 19 23 20 19 22 14 24
REMARK SMILES IDX 11 26
REMARK H PARENT 23 21 19 23 14 25 11 27
REMARK Flexibility Score: inf
ROOT
ATOM      1  C   UNL     1      33.573   2.015 165.368  1.00  0.00     0.180 A 
ATOM      2  C   UNL     1      33.391   0.845 164.606  1.00  0.00     0.208 A 
ATOM      3  C   UNL     1      32.426  -0.088 165.015  1.00  0.00     0.238 A 
ATOM      4  O   UNL     1      32.261  -1.144 164.345  1.00  0.00    -0.285 OA
ATOM      5  C   UNL     1      31.648   0.171 166.163  1.00  0.00     0.111 A 
ATOM      6  C   UNL     1      30.653  -0.716 166.639  1.00  0.00     0.134 A 
ATOM      7  C   UNL     1      29.915  -0.380 167.785  1.00  0.00     0.093 A 
ATOM      8  C   UNL     1      30.153   0.821 168.461  1.00  0.00     0.123 A 
ATOM      9  C   UNL     1      31.134   1.698 167.995  1.00  0.00     0.094 A 
ATOM     10  C   UNL     1      31.881   1.382 166.856  1.00  0.00     0.146 A 
ATOM     11  O   UNL     1      32.812   2.232 166.437  1.00  0.00    -0.452 OA
ENDROOT
BRANCH   1  12
ATOM     12  C   UNL     1      34.583   3.037 165.011  1.00  0.00     0.025 A 
ATOM     13  C   UNL     1      35.099   5.292 164.217  1.00  0.00     0.161 A 
ATOM     14  C   UNL     1      36.467   5.030 164.380  1.00  0.00     0.157 A 
ATOM     15  C   UNL     1      34.160   4.292 164.542  1.00  0.00     0.062 A 
ATOM     16  C   UNL     1      36.891   3.787 164.868  1.00  0.00     0.051 A 
ATOM     17  C   UNL     1      35.956   2.800 165.188  1.00  0.00     0.016 A 
BRANCH  13  18
ATOM     18  O   UNL     1      34.714   6.552 163.734  1.00  0.00    -0.493 OA
ATOM     19  C   UNL     1      34.057   7.548 164.512  1.00  0.00     0.278 C 
ENDBRANCH  13  18
BRANCH  14  20
ATOM     20  O   UNL     1      37.400   6.014 164.060  1.00  0.00    -0.504 OA
ATOM     21  H   UNL     1      37.980   5.945 163.231  1.00  0.00     0.293 HD
ENDBRANCH  14  20
ENDBRANCH   1  12
BRANCH   2  22
ATOM     22  O   UNL     1      34.139   0.636 163.444  1.00  0.00    -0.502 OA
ATOM     23  H   UNL     1      35.086   0.981 163.339  1.00  0.00     0.293 HD
ENDBRANCH   2  22
BRANCH   6  24
ATOM     24  O   UNL     1      30.391  -1.920 165.987  1.00  0.00    -0.507 OA
ATOM     25  H   UNL     1      30.153  -2.762 166.497  1.00  0.00     0.293 HD
ENDBRANCH   6  24
BRANCH   8  26
ATOM     26  O   UNL     1      29.420   1.154 169.598  1.00  0.00    -0.508 OA
ATOM     27  H   UNL     1      29.508   0.626 170.458  1.00  0.00     0.293 HD
ENDBRANCH   8  26
TORSDOF 6
ENDMDL
MODEL 9
REMARK VINA RESULT:    -5.766      9.951     12.039
REMARK INTER + INTRA:          -7.450
REMARK INTER:                  -7.126
REMARK INTRA:                  -0.324
REMARK UNBOUND:                -0.335
REMARK SMILES COc1cc(-c2oc3cc(O)cc(O)c3c(=O)c2O)ccc1O
REMARK SMILES IDX 6 1 18 2 16 3 17 4 15 5 13 6 12 7 10 8 9 9 8 10 7 11 5 12
REMARK SMILES IDX 3 13 22 14 4 15 21 16 20 17 2 18 1 19 23 20 19 22 14 24
REMARK SMILES IDX 11 26
REMARK H PARENT 23 21 19 23 14 25 11 27
REMARK Flexibility Score: inf
ROOT
ATOM      1  C   UNL     1      36.625   8.575 170.110  1.00  0.00     0.180 A 
ATOM      2  C   UNL     1      36.718   7.351 169.420  1.00  0.00     0.208 A 
ATOM      3  C   UNL     1      37.202   6.223 170.102  1.00  0.00     0.238 A 
ATOM      4  O   UNL     1      37.299   5.124 169.491  1.00  0.00    -0.285 OA
ATOM      5  C   UNL     1      37.564   6.332 171.460  1.00  0.00     0.111 A 
ATOM      6  C   UNL     1      38.056   5.242 172.219  1.00  0.00     0.134 A 
ATOM      7  C   UNL     1      38.386   5.430 173.570  1.00  0.00     0.093 A 
ATOM      8  C   UNL     1      38.234   6.683 174.174  1.00  0.00     0.123 A 
ATOM      9  C   UNL     1      37.750   7.759 173.429  1.00  0.00     0.094 A 
ATOM     10  C   UNL     1      37.416   7.594 172.082  1.00  0.00     0.146 A 
ATOM     11  O   UNL     1      36.963   8.636 171.395  1.00  0.00    -0.452 OA
ENDROOT
BRANCH   1  12
ATOM     12  C   UNL     1      36.142   9.812 169.456  1.00  0.00     0.025 A 
ATOM     13  C   UNL     1      36.521  11.634 167.869  1.00  0.00     0.161 A 
ATOM     14  C   UNL     1      35.239  12.131 168.144  1.00  0.00     0.157 A 
ATOM     15  C   UNL     1      36.965  10.468 168.524  1.00  0.00     0.062 A 
ATOM     16  C   UNL     1      34.409  11.468 169.056  1.00  0.00     0.051 A 
ATOM     17  C   UNL     1      34.854  10.313 169.703  1.00  0.00     0.016 A 
BRANCH  13  18
ATOM     18  O   UNL     1      37.320  12.322 166.943  1.00  0.00    -0.493 OA
ATOM     19  C   UNL     1      38.567  12.936 167.253  1.00  0.00     0.278 C 
ENDBRANCH  13  18
BRANCH  14  20
ATOM     20  O   UNL     1      34.795  13.285 167.500  1.00  0.00    -0.504 OA
ATOM     21  H   UNL     1      33.930  13.298 166.972  1.00  0.00     0.293 HD
ENDBRANCH  14  20
ENDBRANCH   1  12
BRANCH   2  22
ATOM     22  O   UNL     1      36.305   7.259 168.089  1.00  0.00    -0.502 OA
ATOM     23  H   UNL     1      35.373   7.520 167.790  1.00  0.00     0.293 HD
ENDBRANCH   2  22
BRANCH   6  24
ATOM     24  O   UNL     1      38.218   3.982 171.646  1.00  0.00    -0.507 OA
ATOM     25  H   UNL     1      38.639   3.861 170.732  1.00  0.00     0.293 HD
ENDBRANCH   6  24
BRANCH   8  26
ATOM     26  O   UNL     1      38.561   6.868 175.516  1.00  0.00    -0.508 OA
ATOM     27  H   UNL     1      39.440   7.288 175.793  1.00  0.00     0.293 HD
ENDBRANCH   8  26
TORSDOF 6
ENDMDL
