MODEL 1
REMARK VINA RESULT:    -5.238      0.000      0.000
REMARK INTER + INTRA:          -8.081
REMARK INTER:                  -7.993
REMARK INTRA:                  -0.087
REMARK UNBOUND:                -0.087
REMARK SMILES CC1=CCC[C@@H](C)C(=O)C[C@H](C(C)C)C(=O)C1
REMARK SMILES IDX 8 1 9 2 6 3 7 4 5 5 4 6 3 7 2 8 1 9 10 11 11 12 15 13 16 14
REMARK SMILES IDX 17 15 12 17 13 18 14 19
REMARK H PARENT
REMARK Flexibility Score: 70.00
ROOT
ATOM      1  C   UNL     1      -8.406  32.708  22.095  1.00  0.00     0.136 C 
ATOM      2  O   UNL     1      -7.752  32.340  21.128  1.00  0.00    -0.299 OA
ENDROOT
BRANCH   1   3
ATOM      3  C   UNL     1      -8.253  34.122  22.628  1.00  0.00     0.053 C 
ATOM      4  C   UNL     1      -7.498  35.038  21.651  1.00  0.00     0.016 C 
BRANCH   3   5
ATOM      5  C   UNL     1      -7.606  34.131  24.028  1.00  0.00     0.015 C 
BRANCH   5   6
ATOM      6  C   UNL     1      -8.616  34.316  25.178  1.00  0.00     0.028 C 
BRANCH   6   7
ATOM      7  C   UNL     1      -8.240  33.463  26.363  1.00  0.00    -0.028 C 
ATOM      8  C   UNL     1      -8.865  32.314  26.713  1.00  0.00    -0.070 CG0
ATOM      9  C   UNL     1      -8.402  31.609  27.964  1.00  0.00     0.039 C 
ATOM     10  G   UNL     1      -9.990  31.698  25.894  1.00  0.00     0.000 G0
ENDBRANCH   6   7
ENDBRANCH   5   6
ENDBRANCH   3   5
ENDBRANCH   1   3
BRANCH   1  11
ATOM     11  C   UNL     1      -9.357  31.733  22.747  1.00  0.00     0.087 C 
BRANCH  11  12
ATOM     12  C   UNL     1      -8.653  30.851  23.811  1.00  0.00     0.066 C 
BRANCH  12  13
ATOM     13  C   UNL     1      -9.572  30.576  24.993  1.00  0.00     0.140 C 
ATOM     14  O   UNL     1      -9.904  29.429  25.252  1.00  0.00    -0.299 OA
BRANCH  13  15
ATOM     15  C   UNL     1     -10.010  31.694  25.908  1.00  0.00     0.106 CG0
ATOM     16  G   UNL     1      -8.851  32.296  26.689  1.00  0.00     0.000 G0
ENDBRANCH  13  15
ENDBRANCH  12  13
BRANCH  12  17
ATOM     17  C   UNL     1      -8.080  29.516  23.233  1.00  0.00    -0.006 C 
ATOM     18  C   UNL     1      -8.794  29.027  21.959  1.00  0.00     0.008 C 
ATOM     19  C   UNL     1      -6.567  29.617  22.977  1.00  0.00     0.008 C 
ENDBRANCH  12  17
ENDBRANCH  11  12
ENDBRANCH   1  11
TORSDOF 1
ENDMDL
MODEL 2
REMARK VINA RESULT:    -4.953      1.661      3.966
REMARK INTER + INTRA:          -7.646
REMARK INTER:                  -7.901
REMARK INTRA:                   0.256
REMARK UNBOUND:                -0.087
REMARK SMILES CC1=CCC[C@@H](C)C(=O)C[C@H](C(C)C)C(=O)C1
REMARK SMILES IDX 8 1 9 2 6 3 7 4 5 5 4 6 3 7 2 8 1 9 10 11 11 12 15 13 16 14
REMARK SMILES IDX 17 15 12 17 13 18 14 19
REMARK H PARENT
REMARK Flexibility Score: 70.00
ROOT
ATOM      1  C   UNL     1      -7.774  33.563  22.345  1.00  0.00     0.136 C 
ATOM      2  O   UNL     1      -8.286  34.598  21.942  1.00  0.00    -0.299 OA
ENDROOT
BRANCH   1   3
ATOM      3  C   UNL     1      -7.422  32.453  21.368  1.00  0.00     0.053 C 
ATOM      4  C   UNL     1      -7.420  32.937  19.908  1.00  0.00     0.016 C 
BRANCH   3   5
ATOM      5  C   UNL     1      -8.336  31.225  21.557  1.00  0.00     0.015 C 
BRANCH   5   6
ATOM      6  C   UNL     1      -7.655  30.051  22.288  1.00  0.00     0.028 C 
BRANCH   6   7
ATOM      7  C   UNL     1      -8.611  29.393  23.251  1.00  0.00    -0.028 C 
ATOM      8  C   UNL     1      -8.762  29.748  24.548  1.00  0.00    -0.070 CG0
ATOM      9  C   UNL     1      -9.721  28.947  25.394  1.00  0.00     0.039 C 
ATOM     10  G   UNL     1      -8.026  30.920  25.180  1.00  0.00     0.000 G0
ENDBRANCH   6   7
ENDBRANCH   5   6
ENDBRANCH   3   5
ENDBRANCH   1   3
BRANCH   1  11
ATOM     11  C   UNL     1      -7.506  33.407  23.822  1.00  0.00     0.087 C 
BRANCH  11  12
ATOM     12  C   UNL     1      -8.813  33.406  24.658  1.00  0.00     0.066 C 
BRANCH  12  13
ATOM     13  C   UNL     1      -8.969  32.105  25.432  1.00  0.00     0.140 C 
ATOM     14  O   UNL     1      -9.894  31.973  26.219  1.00  0.00    -0.299 OA
BRANCH  13  15
ATOM     15  C   UNL     1      -8.047  30.937  25.177  1.00  0.00     0.106 CG0
ATOM     16  G   UNL     1      -8.770  29.748  24.564  1.00  0.00     0.000 G0
ENDBRANCH  13  15
ENDBRANCH  12  13
BRANCH  12  17
ATOM     17  C   UNL     1      -8.943  34.638  25.611  1.00  0.00    -0.006 C 
ATOM     18  C   UNL     1      -7.875  34.689  26.720  1.00  0.00     0.008 C 
ATOM     19  C   UNL     1      -8.943  35.960  24.827  1.00  0.00     0.008 C 
ENDBRANCH  12  17
ENDBRANCH  11  12
ENDBRANCH   1  11
TORSDOF 1
ENDMDL
MODEL 3
REMARK VINA RESULT:    -4.759      1.774      4.003
REMARK INTER + INTRA:          -7.350
REMARK INTER:                  -7.564
REMARK INTRA:                   0.214
REMARK UNBOUND:                -0.087
REMARK SMILES CC1=CCC[C@@H](C)C(=O)C[C@H](C(C)C)C(=O)C1
REMARK SMILES IDX 8 1 9 2 6 3 7 4 5 5 4 6 3 7 2 8 1 9 10 11 11 12 15 13 16 14
REMARK SMILES IDX 17 15 12 17 13 18 14 19
REMARK H PARENT
REMARK Flexibility Score: 70.00
ROOT
ATOM      1  C   UNL     1      -8.375  30.207  23.401  1.00  0.00     0.136 C 
ATOM      2  O   UNL     1      -8.746  29.415  22.546  1.00  0.00    -0.299 OA
ENDROOT
BRANCH   1   3
ATOM      3  C   UNL     1      -8.771  30.004  24.854  1.00  0.00     0.053 C 
ATOM      4  C   UNL     1      -9.711  28.802  25.042  1.00  0.00     0.016 C 
BRANCH   3   5
ATOM      5  C   UNL     1      -9.367  31.291  25.462  1.00  0.00     0.015 C 
BRANCH   5   6
ATOM      6  C   UNL     1      -8.383  32.068  26.358  1.00  0.00     0.028 C 
BRANCH   6   7
ATOM      7  C   UNL     1      -8.677  33.547  26.319  1.00  0.00    -0.028 C 
ATOM      8  C   UNL     1      -8.137  34.415  25.432  1.00  0.00    -0.070 CG0
ATOM      9  C   UNL     1      -8.491  35.876  25.567  1.00  0.00     0.039 C 
ATOM     10  G   UNL     1      -7.211  33.983  24.304  1.00  0.00     0.000 G0
ENDBRANCH   6   7
ENDBRANCH   5   6
ENDBRANCH   3   5
ENDBRANCH   1   3
BRANCH   1  11
ATOM     11  C   UNL     1      -7.528  31.386  22.987  1.00  0.00     0.087 C 
BRANCH  11  12
ATOM     12  C   UNL     1      -8.380  32.543  22.401  1.00  0.00     0.066 C 
BRANCH  12  13
ATOM     13  C   UNL     1      -7.937  33.888  22.958  1.00  0.00     0.140 C 
ATOM     14  O   UNL     1      -8.234  34.918  22.371  1.00  0.00    -0.299 OA
BRANCH  13  15
ATOM     15  C   UNL     1      -7.207  33.978  24.277  1.00  0.00     0.106 CG0
ATOM     16  G   UNL     1      -8.118  34.410  25.417  1.00  0.00     0.000 G0
ENDBRANCH  13  15
ENDBRANCH  12  13
BRANCH  12  17
ATOM     17  C   UNL     1      -8.403  32.570  20.839  1.00  0.00    -0.006 C 
ATOM     18  C   UNL     1      -7.018  32.395  20.188  1.00  0.00     0.008 C 
ATOM     19  C   UNL     1      -9.382  31.528  20.271  1.00  0.00     0.008 C 
ENDBRANCH  12  17
ENDBRANCH  11  12
ENDBRANCH   1  11
TORSDOF 1
ENDMDL
MODEL 4
REMARK VINA RESULT:    -4.478      2.036      4.712
REMARK INTER + INTRA:          -6.922
REMARK INTER:                  -6.849
REMARK INTRA:                  -0.073
REMARK UNBOUND:                -0.087
REMARK SMILES CC1=CCC[C@@H](C)C(=O)C[C@H](C(C)C)C(=O)C1
REMARK SMILES IDX 8 1 9 2 6 3 7 4 5 5 4 6 3 7 2 8 1 9 10 11 11 12 15 13 16 14
REMARK SMILES IDX 17 15 12 17 13 18 14 19
REMARK H PARENT
REMARK Flexibility Score: 70.00
ROOT
ATOM      1  C   UNL     1      -8.627  30.017  23.815  1.00  0.00     0.136 C 
ATOM      2  O   UNL     1      -7.632  29.564  24.365  1.00  0.00    -0.299 OA
ENDROOT
BRANCH   1   3
ATOM      3  C   UNL     1      -8.991  29.577  22.408  1.00  0.00     0.053 C 
ATOM      4  C   UNL     1      -8.285  28.274  22.000  1.00  0.00     0.016 C 
BRANCH   3   5
ATOM      5  C   UNL     1      -8.740  30.702  21.382  1.00  0.00     0.015 C 
BRANCH   5   6
ATOM      6  C   UNL     1      -7.405  31.445  21.589  1.00  0.00     0.028 C 
BRANCH   6   7
ATOM      7  C   UNL     1      -7.582  32.929  21.394  1.00  0.00    -0.028 C 
ATOM      8  C   UNL     1      -7.528  33.847  22.388  1.00  0.00    -0.070 CG0
ATOM      9  C   UNL     1      -7.786  35.291  22.032  1.00  0.00     0.039 C 
ATOM     10  G   UNL     1      -7.203  33.491  23.831  1.00  0.00     0.000 G0
ENDBRANCH   6   7
ENDBRANCH   5   6
ENDBRANCH   3   5
ENDBRANCH   1   3
BRANCH   1  11
ATOM     11  C   UNL     1      -9.476  31.021  24.557  1.00  0.00     0.087 C 
BRANCH  11  12
ATOM     12  C   UNL     1      -8.624  31.975  25.435  1.00  0.00     0.066 C 
BRANCH  12  13
ATOM     13  C   UNL     1      -8.381  33.301  24.730  1.00  0.00     0.140 C 
ATOM     14  O   UNL     1      -9.132  34.245  24.932  1.00  0.00    -0.299 OA
BRANCH  13  15
ATOM     15  C   UNL     1      -7.171  33.499  23.848  1.00  0.00     0.106 CG0
ATOM     16  G   UNL     1      -7.547  33.871  22.421  1.00  0.00     0.000 G0
ENDBRANCH  13  15
ENDBRANCH  12  13
BRANCH  12  17
ATOM     17  C   UNL     1      -9.219  32.206  26.862  1.00  0.00    -0.006 C 
ATOM     18  C   UNL     1     -10.070  31.033  27.384  1.00  0.00     0.008 C 
ATOM     19  C   UNL     1      -8.121  32.548  27.882  1.00  0.00     0.008 C 
ENDBRANCH  12  17
ENDBRANCH  11  12
ENDBRANCH   1  11
TORSDOF 1
ENDMDL
MODEL 5
REMARK VINA RESULT:    -4.437      1.407      3.826
REMARK INTER + INTRA:          -6.859
REMARK INTER:                  -7.638
REMARK INTRA:                   0.779
REMARK UNBOUND:                -0.087
REMARK SMILES CC1=CCC[C@@H](C)C(=O)C[C@H](C(C)C)C(=O)C1
REMARK SMILES IDX 8 1 9 2 6 3 7 4 5 5 4 6 3 7 2 8 1 9 10 11 11 12 15 13 16 14
REMARK SMILES IDX 17 15 12 17 13 18 14 19
REMARK H PARENT
REMARK Flexibility Score: 70.00
ROOT
ATOM      1  C   UNL     1      -9.620  30.151  25.467  1.00  0.00     0.136 C 
ATOM      2  O   UNL     1     -10.087  29.024  25.369  1.00  0.00    -0.299 OA
ENDROOT
BRANCH   1   3
ATOM      3  C   UNL     1      -8.658  30.485  26.594  1.00  0.00     0.053 C 
ATOM      4  C   UNL     1      -8.490  29.322  27.585  1.00  0.00     0.016 C 
BRANCH   3   5
ATOM      5  C   UNL     1      -9.063  31.788  27.314  1.00  0.00     0.015 C 
BRANCH   5   6
ATOM      6  C   UNL     1      -8.002  32.903  27.224  1.00  0.00     0.028 C 
BRANCH   6   7
ATOM      7  C   UNL     1      -8.452  33.998  26.291  1.00  0.00    -0.028 C 
ATOM      8  C   UNL     1      -8.212  34.021  24.959  1.00  0.00    -0.070 CG0
ATOM      9  C   UNL     1      -8.682  35.221  24.176  1.00  0.00     0.039 C 
ATOM     10  G   UNL     1      -7.512  32.888  24.221  1.00  0.00     0.000 G0
ENDBRANCH   6   7
ENDBRANCH   5   6
ENDBRANCH   3   5
ENDBRANCH   1   3
BRANCH   1  11
ATOM     11  C   UNL     1     -10.020  31.197  24.454  1.00  0.00     0.087 C 
BRANCH  11  12
ATOM     12  C   UNL     1      -9.154  31.130  23.168  1.00  0.00     0.066 C 
BRANCH  12  13
ATOM     13  C   UNL     1      -8.273  32.363  23.034  1.00  0.00     0.140 C 
ATOM     14  O   UNL     1      -8.247  32.981  21.979  1.00  0.00    -0.299 OA
BRANCH  13  15
ATOM     15  C   UNL     1      -7.494  32.891  24.215  1.00  0.00     0.106 CG0
ATOM     16  G   UNL     1      -8.223  34.014  24.938  1.00  0.00     0.000 G0
ENDBRANCH  13  15
ENDBRANCH  12  13
BRANCH  12  17
ATOM     17  C   UNL     1      -8.301  29.824  23.060  1.00  0.00    -0.006 C 
ATOM     18  C   UNL     1      -8.598  28.984  21.804  1.00  0.00     0.008 C 
ATOM     19  C   UNL     1      -6.796  30.126  23.141  1.00  0.00     0.008 C 
ENDBRANCH  12  17
ENDBRANCH  11  12
ENDBRANCH   1  11
TORSDOF 1
ENDMDL
MODEL 6
REMARK VINA RESULT:    -4.397      1.878      3.069
REMARK INTER + INTRA:          -6.798
REMARK INTER:                  -6.948
REMARK INTRA:                   0.150
REMARK UNBOUND:                -0.087
REMARK SMILES CC1=CCC[C@@H](C)C(=O)C[C@H](C(C)C)C(=O)C1
REMARK SMILES IDX 8 1 9 2 6 3 7 4 5 5 4 6 3 7 2 8 1 9 10 11 11 12 15 13 16 14
REMARK SMILES IDX 17 15 12 17 13 18 14 19
REMARK H PARENT
REMARK Flexibility Score: 70.00
ROOT
ATOM      1  C   UNL     1      -8.460  31.108  22.364  1.00  0.00     0.136 C 
ATOM      2  O   UNL     1      -7.810  30.071  22.388  1.00  0.00    -0.299 OA
ENDROOT
BRANCH   1   3
ATOM      3  C   UNL     1      -8.342  32.057  21.184  1.00  0.00     0.053 C 
ATOM      4  C   UNL     1      -6.936  32.048  20.563  1.00  0.00     0.016 C 
BRANCH   3   5
ATOM      5  C   UNL     1      -8.786  33.485  21.562  1.00  0.00     0.015 C 
BRANCH   5   6
ATOM      6  C   UNL     1      -7.685  34.315  22.253  1.00  0.00     0.028 C 
BRANCH   6   7
ATOM      7  C   UNL     1      -8.269  35.170  23.349  1.00  0.00    -0.028 C 
ATOM      8  C   UNL     1      -8.251  34.852  24.665  1.00  0.00    -0.070 CG0
ATOM      9  C   UNL     1      -8.933  35.791  25.629  1.00  0.00     0.039 C 
ATOM     10  G   UNL     1      -7.564  33.608  25.210  1.00  0.00     0.000 G0
ENDBRANCH   6   7
ENDBRANCH   5   6
ENDBRANCH   3   5
ENDBRANCH   1   3
BRANCH   1  11
ATOM     11  C   UNL     1      -9.370  31.426  23.526  1.00  0.00     0.087 C 
BRANCH  11  12
ATOM     12  C   UNL     1      -8.663  31.234  24.894  1.00  0.00     0.066 C 
BRANCH  12  13
ATOM     13  C   UNL     1      -8.560  32.551  25.649  1.00  0.00     0.140 C 
ATOM     14  O   UNL     1      -9.226  32.728  26.658  1.00  0.00    -0.299 OA
BRANCH  13  15
ATOM     15  C   UNL     1      -7.579  33.615  25.219  1.00  0.00     0.106 CG0
ATOM     16  G   UNL     1      -8.269  34.852  24.661  1.00  0.00     0.000 G0
ENDBRANCH  13  15
ENDBRANCH  12  13
BRANCH  12  17
ATOM     17  C   UNL     1      -9.322  30.133  25.786  1.00  0.00    -0.006 C 
ATOM     18  C   UNL     1      -9.827  28.908  25.000  1.00  0.00     0.008 C 
ATOM     19  C   UNL     1      -8.376  29.677  26.910  1.00  0.00     0.008 C 
ENDBRANCH  12  17
ENDBRANCH  11  12
ENDBRANCH   1  11
TORSDOF 1
ENDMDL
MODEL 7
REMARK VINA RESULT:    -4.269      2.193      4.045
REMARK INTER + INTRA:          -6.602
REMARK INTER:                  -7.949
REMARK INTRA:                   1.347
REMARK UNBOUND:                -0.087
REMARK SMILES CC1=CCC[C@@H](C)C(=O)C[C@H](C(C)C)C(=O)C1
REMARK SMILES IDX 8 1 9 2 6 3 7 4 5 5 4 6 3 7 2 8 1 9 10 11 11 12 15 13 16 14
REMARK SMILES IDX 17 15 12 17 13 18 14 19
REMARK H PARENT
REMARK Flexibility Score: 70.00
ROOT
ATOM      1  C   UNL     1      -8.783  33.262  25.637  1.00  0.00     0.136 C 
ATOM      2  O   UNL     1      -8.557  32.661  26.679  1.00  0.00    -0.299 OA
ENDROOT
BRANCH   1   3
ATOM      3  C   UNL     1      -8.187  34.640  25.405  1.00  0.00     0.053 C 
ATOM      4  C   UNL     1      -9.260  35.740  25.352  1.00  0.00     0.016 C 
BRANCH   3   5
ATOM      5  C   UNL     1      -7.289  34.663  24.151  1.00  0.00     0.015 C 
BRANCH   5   6
ATOM      6  C   UNL     1      -8.039  35.040  22.857  1.00  0.00     0.028 C 
BRANCH   6   7
ATOM      7  C   UNL     1      -7.498  34.267  21.681  1.00  0.00    -0.028 C 
ATOM      8  C   UNL     1      -8.040  33.125  21.196  1.00  0.00    -0.070 CG0
ATOM      9  C   UNL     1      -7.340  32.443  20.046  1.00  0.00     0.039 C 
ATOM     10  G   UNL     1      -9.322  32.516  21.744  1.00  0.00     0.000 G0
ENDBRANCH   6   7
ENDBRANCH   5   6
ENDBRANCH   3   5
ENDBRANCH   1   3
BRANCH   1  11
ATOM     11  C   UNL     1      -9.664  32.613  24.597  1.00  0.00     0.087 C 
BRANCH  11  12
ATOM     12  C   UNL     1      -9.063  31.285  24.065  1.00  0.00     0.066 C 
BRANCH  12  13
ATOM     13  C   UNL     1      -9.073  31.248  22.544  1.00  0.00     0.140 C 
ATOM     14  O   UNL     1      -8.948  30.181  21.960  1.00  0.00    -0.299 OA
BRANCH  13  15
ATOM     15  C   UNL     1      -9.323  32.502  21.741  1.00  0.00     0.106 CG0
ATOM     16  G   UNL     1      -8.038  33.108  21.194  1.00  0.00     0.000 G0
ENDBRANCH  13  15
ENDBRANCH  12  13
BRANCH  12  17
ATOM     17  C   UNL     1      -7.633  30.983  24.619  1.00  0.00    -0.006 C 
ATOM     18  C   UNL     1      -7.619  30.063  25.854  1.00  0.00     0.008 C 
ATOM     19  C   UNL     1      -6.716  30.405  23.528  1.00  0.00     0.008 C 
ENDBRANCH  12  17
ENDBRANCH  11  12
ENDBRANCH   1  11
TORSDOF 1
ENDMDL
MODEL 8
REMARK VINA RESULT:    -4.269      1.382      1.991
REMARK INTER + INTRA:          -6.602
REMARK INTER:                  -6.641
REMARK INTRA:                   0.039
REMARK UNBOUND:                -0.087
REMARK SMILES CC1=CCC[C@@H](C)C(=O)C[C@H](C(C)C)C(=O)C1
REMARK SMILES IDX 8 1 9 2 6 3 7 4 5 5 4 6 3 7 2 8 1 9 10 11 11 12 15 13 16 14
REMARK SMILES IDX 17 15 12 17 13 18 14 19
REMARK H PARENT
REMARK Flexibility Score: 70.00
ROOT
ATOM      1  C   UNL     1      -8.600  33.945  24.039  1.00  0.00     0.136 C 
ATOM      2  O   UNL     1      -7.799  34.422  23.246  1.00  0.00    -0.299 OA
ENDROOT
BRANCH   1   3
ATOM      3  C   UNL     1      -8.757  34.549  25.424  1.00  0.00     0.053 C 
ATOM      4  C   UNL     1      -8.625  36.081  25.414  1.00  0.00     0.016 C 
BRANCH   3   5
ATOM      5  C   UNL     1      -7.788  33.903  26.434  1.00  0.00     0.015 C 
BRANCH   5   6
ATOM      6  C   UNL     1      -8.458  33.483  27.757  1.00  0.00     0.028 C 
BRANCH   6   7
ATOM      7  C   UNL     1      -8.251  32.012  28.019  1.00  0.00    -0.028 C 
ATOM      8  C   UNL     1      -8.936  31.018  27.408  1.00  0.00    -0.070 CG0
ATOM      9  C   UNL     1      -8.647  29.598  27.829  1.00  0.00     0.039 C 
ATOM     10  G   UNL     1      -9.962  31.267  26.312  1.00  0.00     0.000 G0
ENDBRANCH   6   7
ENDBRANCH   5   6
ENDBRANCH   3   5
ENDBRANCH   1   3
BRANCH   1  11
ATOM     11  C   UNL     1      -9.420  32.750  23.618  1.00  0.00     0.087 C 
BRANCH  11  12
ATOM     12  C   UNL     1      -8.729  31.408  23.981  1.00  0.00     0.066 C 
BRANCH  12  13
ATOM     13  C   UNL     1      -9.554  30.621  24.989  1.00  0.00     0.140 C 
ATOM     14  O   UNL     1      -9.833  29.452  24.766  1.00  0.00    -0.299 OA
BRANCH  13  15
ATOM     15  C   UNL     1      -9.961  31.236  26.306  1.00  0.00     0.106 CG0
ATOM     16  G   UNL     1      -8.928  31.006  27.400  1.00  0.00     0.000 G0
ENDBRANCH  13  15
ENDBRANCH  12  13
BRANCH  12  17
ATOM     17  C   UNL     1      -8.385  30.528  22.736  1.00  0.00    -0.006 C 
ATOM     18  C   UNL     1      -8.815  31.147  21.393  1.00  0.00     0.008 C 
ATOM     19  C   UNL     1      -6.890  30.174  22.692  1.00  0.00     0.008 C 
ENDBRANCH  12  17
ENDBRANCH  11  12
ENDBRANCH   1  11
TORSDOF 1
ENDMDL
MODEL 9
REMARK VINA RESULT:    -3.713      2.046      3.763
REMARK INTER + INTRA:          -5.754
REMARK INTER:                  -6.496
REMARK INTRA:                   0.742
REMARK UNBOUND:                -0.087
REMARK SMILES CC1=CCC[C@@H](C)C(=O)C[C@H](C(C)C)C(=O)C1
REMARK SMILES IDX 8 1 9 2 6 3 7 4 5 5 4 6 3 7 2 8 1 9 10 11 11 12 15 13 16 14
REMARK SMILES IDX 17 15 12 17 13 18 14 19
REMARK H PARENT
REMARK Flexibility Score: 70.00
ROOT
ATOM      1  C   UNL     1      -9.021  33.803  24.222  1.00  0.00     0.136 C 
ATOM      2  O   UNL     1      -9.140  34.761  24.974  1.00  0.00    -0.299 OA
ENDROOT
BRANCH   1   3
ATOM      3  C   UNL     1      -7.831  33.711  23.283  1.00  0.00     0.053 C 
ATOM      4  C   UNL     1      -6.649  34.577  23.749  1.00  0.00     0.016 C 
BRANCH   3   5
ATOM      5  C   UNL     1      -8.232  34.033  21.829  1.00  0.00     0.015 C 
BRANCH   5   6
ATOM      6  C   UNL     1      -8.340  32.789  20.924  1.00  0.00     0.028 C 
BRANCH   6   7
ATOM      7  C   UNL     1      -7.424  31.694  21.409  1.00  0.00    -0.028 C 
ATOM      8  C   UNL     1      -7.805  30.668  22.206  1.00  0.00    -0.070 CG0
ATOM      9  C   UNL     1      -6.749  29.687  22.649  1.00  0.00     0.039 C 
ATOM     10  G   UNL     1      -9.243  30.455  22.655  1.00  0.00     0.000 G0
ENDBRANCH   6   7
ENDBRANCH   5   6
ENDBRANCH   3   5
ENDBRANCH   1   3
BRANCH   1  11
ATOM     11  C   UNL     1     -10.078  32.726  24.241  1.00  0.00     0.087 C 
BRANCH  11  12
ATOM     12  C   UNL     1      -9.637  31.486  25.064  1.00  0.00     0.066 C 
BRANCH  12  13
ATOM     13  C   UNL     1      -9.381  30.289  24.160  1.00  0.00     0.140 C 
ATOM     14  O   UNL     1      -9.350  29.163  24.635  1.00  0.00    -0.299 OA
BRANCH  13  15
ATOM     15  C   UNL     1      -9.252  30.461  22.665  1.00  0.00     0.106 CG0
ATOM     16  G   UNL     1      -7.810  30.668  22.226  1.00  0.00     0.000 G0
ENDBRANCH  13  15
ENDBRANCH  12  13
BRANCH  12  17
ATOM     17  C   UNL     1      -8.405  31.758  25.986  1.00  0.00    -0.006 C 
ATOM     18  C   UNL     1      -8.774  32.280  27.388  1.00  0.00     0.008 C 
ATOM     19  C   UNL     1      -7.509  30.514  26.112  1.00  0.00     0.008 C 
ENDBRANCH  12  17
ENDBRANCH  11  12
ENDBRANCH   1  11
TORSDOF 1
ENDMDL
