MODEL 1
REMARK VINA RESULT:    -4.761      0.000      0.000
REMARK INTER + INTRA:          -5.382
REMARK INTER:                  -5.179
REMARK INTRA:                  -0.203
REMARK UNBOUND:                -0.203
REMARK SMILES CC(=O)[C@@H]1CC[C@H]2[C@@H]3CC=C4C[C@@H](O)CC[C@@]4(C)[C@@H]3CC[C@@]12C
REMARK SMILES IDX 4 1 5 2 6 3 7 4 22 5 21 6 20 7 19 8 8 9 9 10 10 11 11 12
REMARK SMILES IDX 17 13 16 14 15 15 13 16 12 17 18 18 23 19 2 20 1 21 3 22
REMARK SMILES IDX 14 23
REMARK H PARENT 14 24
REMARK Flexibility Score: inf
ROOT
ATOM      1  C   UNL     1     174.103 174.701 149.411  1.00  0.00     0.062 C 
ATOM      2  C   UNL     1     174.359 174.111 148.017  1.00  0.00     0.012 C 
ATOM      3  C   UNL     1     174.530 172.608 148.187  1.00  0.00     0.005 C 
ATOM      4  C   UNL     1     174.814 172.337 149.673  1.00  0.00    -0.001 C 
ATOM      5  C   UNL     1     174.114 173.507 150.423  1.00  0.00    -0.020 C 
ATOM      6  C   UNL     1     174.851 173.893 151.731  1.00  0.00     0.008 C 
ATOM      7  C   UNL     1     176.372 174.129 151.591  1.00  0.00     0.005 C 
ATOM      8  C   UNL     1     177.038 173.500 150.329  1.00  0.00     0.003 C 
ATOM      9  C   UNL     1     176.343 172.169 149.965  1.00  0.00     0.000 C 
ATOM     10  C   UNL     1     176.614 171.129 151.068  1.00  0.00     0.031 C 
ATOM     11  C   UNL     1     178.085 171.004 151.359  1.00  0.00    -0.027 C 
ATOM     12  C   UNL     1     178.982 171.993 151.135  1.00  0.00    -0.065 C 
ATOM     13  C   UNL     1     178.607 173.316 150.453  1.00  0.00    -0.008 C 
ATOM     14  C   UNL     1     179.247 173.292 149.026  1.00  0.00     0.014 C 
ATOM     15  C   UNL     1     180.744 172.904 149.012  1.00  0.00     0.033 C 
ATOM     16  C   UNL     1     181.030 171.599 149.786  1.00  0.00     0.118 C 
ATOM     17  C   UNL     1     180.454 171.657 151.208  1.00  0.00     0.063 C 
ATOM     18  C   UNL     1     179.221 174.512 151.238  1.00  0.00     0.016 C 
ATOM     19  C   UNL     1     172.678 173.052 150.805  1.00  0.00     0.012 C 
ENDROOT
BRANCH   1  20
ATOM     20  C   UNL     1     172.865 175.588 149.459  1.00  0.00     0.133 C 
ATOM     21  C   UNL     1     172.683 176.601 150.550  1.00  0.00     0.088 C 
ATOM     22  O   UNL     1     171.994 175.476 148.608  1.00  0.00    -0.300 OA
ENDBRANCH   1  20
BRANCH  16  23
ATOM     23  O   UNL     1     180.480 170.500 149.104  1.00  0.00    -0.393 OA
ATOM     24  H   UNL     1     180.212 170.825 148.205  1.00  0.00     0.210 HD
ENDBRANCH  16  23
TORSDOF 2
ENDMDL
MODEL 2
REMARK VINA RESULT:    -4.760      3.893      6.118
REMARK INTER + INTRA:          -5.381
REMARK INTER:                  -5.203
REMARK INTRA:                  -0.177
REMARK UNBOUND:                -0.203
REMARK SMILES CC(=O)[C@@H]1CC[C@H]2[C@@H]3CC=C4C[C@@H](O)CC[C@@]4(C)[C@@H]3CC[C@@]12C
REMARK SMILES IDX 4 1 5 2 6 3 7 4 22 5 21 6 20 7 19 8 8 9 9 10 10 11 11 12
REMARK SMILES IDX 17 13 16 14 15 15 13 16 12 17 18 18 23 19 2 20 1 21 3 22
REMARK SMILES IDX 14 23
REMARK H PARENT 14 24
REMARK Flexibility Score: inf
ROOT
ATOM      1  C   UNL     1     171.034 168.648 149.975  1.00  0.00     0.062 C 
ATOM      2  C   UNL     1     171.682 168.455 148.596  1.00  0.00     0.012 C 
ATOM      3  C   UNL     1     173.191 168.495 148.796  1.00  0.00     0.005 C 
ATOM      4  C   UNL     1     173.462 169.131 150.168  1.00  0.00    -0.001 C 
ATOM      5  C   UNL     1     172.199 168.793 151.012  1.00  0.00    -0.020 C 
ATOM      6  C   UNL     1     171.879 169.891 152.059  1.00  0.00     0.008 C 
ATOM      7  C   UNL     1     171.835 171.336 151.513  1.00  0.00     0.005 C 
ATOM      8  C   UNL     1     172.568 171.567 150.156  1.00  0.00     0.003 C 
ATOM      9  C   UNL     1     173.811 170.654 150.058  1.00  0.00     0.000 C 
ATOM     10  C   UNL     1     174.852 171.090 151.106  1.00  0.00     0.031 C 
ATOM     11  C   UNL     1     175.151 172.561 151.008  1.00  0.00    -0.027 C 
ATOM     12  C   UNL     1     174.285 173.471 150.505  1.00  0.00    -0.065 C 
ATOM     13  C   UNL     1     172.941 173.081 149.875  1.00  0.00    -0.008 C 
ATOM     14  C   UNL     1     173.074 173.311 148.333  1.00  0.00     0.014 C 
ATOM     15  C   UNL     1     173.643 174.697 147.950  1.00  0.00     0.033 C 
ATOM     16  C   UNL     1     174.957 175.029 148.690  1.00  0.00     0.118 C 
ATOM     17  C   UNL     1     174.798 174.863 150.208  1.00  0.00     0.063 C 
ATOM     18  C   UNL     1     171.813 174.012 150.407  1.00  0.00     0.016 C 
ATOM     19  C   UNL     1     172.465 167.469 151.780  1.00  0.00     0.012 C 
ENDROOT
BRANCH   1  20
ATOM     20  C   UNL     1     170.002 167.577 150.298  1.00  0.00     0.133 C 
ATOM     21  C   UNL     1     168.814 167.884 151.161  1.00  0.00     0.088 C 
ATOM     22  O   UNL     1     170.135 166.441 149.863  1.00  0.00    -0.300 OA
ENDBRANCH   1  20
BRANCH  16  23
ATOM     23  O   UNL     1     175.995 174.196 148.236  1.00  0.00    -0.393 OA
ATOM     24  H   UNL     1     175.856 174.070 147.260  1.00  0.00     0.210 HD
ENDBRANCH  16  23
TORSDOF 2
ENDMDL
MODEL 3
REMARK VINA RESULT:    -4.758      3.421      5.822
REMARK INTER + INTRA:          -5.379
REMARK INTER:                  -5.172
REMARK INTRA:                  -0.207
REMARK UNBOUND:                -0.203
REMARK SMILES CC(=O)[C@@H]1CC[C@H]2[C@@H]3CC=C4C[C@@H](O)CC[C@@]4(C)[C@@H]3CC[C@@]12C
REMARK SMILES IDX 4 1 5 2 6 3 7 4 22 5 21 6 20 7 19 8 8 9 9 10 10 11 11 12
REMARK SMILES IDX 17 13 16 14 15 15 13 16 12 17 18 18 23 19 2 20 1 21 3 22
REMARK SMILES IDX 14 23
REMARK H PARENT 14 24
REMARK Flexibility Score: inf
ROOT
ATOM      1  C   UNL     1     173.313 173.983 149.510  1.00  0.00     0.062 C 
ATOM      2  C   UNL     1     173.820 174.239 148.083  1.00  0.00     0.012 C 
ATOM      3  C   UNL     1     175.331 174.405 148.163  1.00  0.00     0.005 C 
ATOM      4  C   UNL     1     175.692 174.687 149.630  1.00  0.00    -0.001 C 
ATOM      5  C   UNL     1     174.566 173.989 150.449  1.00  0.00    -0.020 C 
ATOM      6  C   UNL     1     174.262 174.727 151.778  1.00  0.00     0.008 C 
ATOM      7  C   UNL     1     174.023 176.248 151.653  1.00  0.00     0.005 C 
ATOM      8  C   UNL     1     174.577 176.914 150.357  1.00  0.00     0.003 C 
ATOM      9  C   UNL     1     175.881 176.215 149.913  1.00  0.00     0.000 C 
ATOM     10  C   UNL     1     176.986 176.482 150.952  1.00  0.00     0.031 C 
ATOM     11  C   UNL     1     177.133 177.952 151.235  1.00  0.00    -0.027 C 
ATOM     12  C   UNL     1     176.135 178.852 151.072  1.00  0.00    -0.065 C 
ATOM     13  C   UNL     1     174.772 178.482 150.471  1.00  0.00    -0.008 C 
ATOM     14  C   UNL     1     174.712 179.123 149.045  1.00  0.00     0.014 C 
ATOM     15  C   UNL     1     175.103 180.619 149.010  1.00  0.00     0.033 C 
ATOM     16  C   UNL     1     176.454 180.901 149.704  1.00  0.00     0.118 C 
ATOM     17  C   UNL     1     176.479 180.324 151.126  1.00  0.00     0.063 C 
ATOM     18  C   UNL     1     173.627 179.099 151.327  1.00  0.00     0.016 C 
ATOM     19  C   UNL     1     175.039 172.552 150.801  1.00  0.00     0.012 C 
ENDROOT
BRANCH   1  20
ATOM     20  C   UNL     1     172.428 172.748 149.610  1.00  0.00     0.133 C 
ATOM     21  C   UNL     1     171.433 172.599 150.723  1.00  0.00     0.088 C 
ATOM     22  O   UNL     1     172.525 171.851 148.785  1.00  0.00    -0.300 OA
ENDBRANCH   1  20
BRANCH  16  23
ATOM     23  O   UNL     1     177.508 180.348 148.957  1.00  0.00    -0.393 OA
ATOM     24  H   UNL     1     178.352 180.623 149.404  1.00  0.00     0.210 HD
ENDBRANCH  16  23
TORSDOF 2
ENDMDL
MODEL 4
REMARK VINA RESULT:    -4.756      3.207      8.359
REMARK INTER + INTRA:          -5.377
REMARK INTER:                  -5.173
REMARK INTRA:                  -0.204
REMARK UNBOUND:                -0.203
REMARK SMILES CC(=O)[C@@H]1CC[C@H]2[C@@H]3CC=C4C[C@@H](O)CC[C@@]4(C)[C@@H]3CC[C@@]12C
REMARK SMILES IDX 4 1 5 2 6 3 7 4 22 5 21 6 20 7 19 8 8 9 9 10 10 11 11 12
REMARK SMILES IDX 17 13 16 14 15 15 13 16 12 17 18 18 23 19 2 20 1 21 3 22
REMARK SMILES IDX 14 23
REMARK H PARENT 14 24
REMARK Flexibility Score: inf
ROOT
ATOM      1  C   UNL     1     173.881 173.327 149.459  1.00  0.00     0.062 C 
ATOM      2  C   UNL     1     173.636 173.930 148.068  1.00  0.00     0.012 C 
ATOM      3  C   UNL     1     173.525 175.439 148.242  1.00  0.00     0.005 C 
ATOM      4  C   UNL     1     173.264 175.717 149.731  1.00  0.00    -0.001 C 
ATOM      5  C   UNL     1     173.925 174.519 150.474  1.00  0.00    -0.020 C 
ATOM      6  C   UNL     1     173.184 174.159 151.787  1.00  0.00     0.008 C 
ATOM      7  C   UNL     1     171.654 173.983 151.659  1.00  0.00     0.005 C 
ATOM      8  C   UNL     1     171.002 174.640 150.405  1.00  0.00     0.003 C 
ATOM      9  C   UNL     1     171.745 175.944 150.037  1.00  0.00     0.000 C 
ATOM     10  C   UNL     1     171.524 176.991 151.144  1.00  0.00     0.031 C 
ATOM     11  C   UNL     1     170.062 177.172 151.447  1.00  0.00    -0.027 C 
ATOM     12  C   UNL     1     169.125 176.219 151.230  1.00  0.00    -0.065 C 
ATOM     13  C   UNL     1     169.443 174.883 150.543  1.00  0.00    -0.008 C 
ATOM     14  C   UNL     1     168.792 174.935 149.121  1.00  0.00     0.014 C 
ATOM     15  C   UNL     1     167.311 175.381 149.121  1.00  0.00     0.033 C 
ATOM     16  C   UNL     1     167.082 176.695 149.899  1.00  0.00     0.118 C 
ATOM     17  C   UNL     1     167.667 176.611 151.316  1.00  0.00     0.063 C 
ATOM     18  C   UNL     1     168.790 173.710 151.331  1.00  0.00     0.016 C 
ATOM     19  C   UNL     1     175.380 174.917 150.844  1.00  0.00     0.012 C 
ENDROOT
BRANCH   1  20
ATOM     20  C   UNL     1     175.083 172.394 149.495  1.00  0.00     0.133 C 
ATOM     21  C   UNL     1     175.226 171.359 150.572  1.00  0.00     0.088 C 
ATOM     22  O   UNL     1     175.959 172.484 148.646  1.00  0.00    -0.300 OA
ENDBRANCH   1  20
BRANCH  16  23
ATOM     23  O   UNL     1     167.669 177.773 149.215  1.00  0.00    -0.393 OA
ATOM     24  H   UNL     1     168.594 177.864 149.563  1.00  0.00     0.210 HD
ENDBRANCH  16  23
TORSDOF 2
ENDMDL
MODEL 5
REMARK VINA RESULT:    -4.753      3.410      5.907
REMARK INTER + INTRA:          -5.373
REMARK INTER:                  -5.167
REMARK INTRA:                  -0.206
REMARK UNBOUND:                -0.203
REMARK SMILES CC(=O)[C@@H]1CC[C@H]2[C@@H]3CC=C4C[C@@H](O)CC[C@@]4(C)[C@@H]3CC[C@@]12C
REMARK SMILES IDX 4 1 5 2 6 3 7 4 22 5 21 6 20 7 19 8 8 9 9 10 10 11 11 12
REMARK SMILES IDX 17 13 16 14 15 15 13 16 12 17 18 18 23 19 2 20 1 21 3 22
REMARK SMILES IDX 14 23
REMARK H PARENT 14 24
REMARK Flexibility Score: inf
ROOT
ATOM      1  C   UNL     1     174.555 174.074 149.440  1.00  0.00     0.062 C 
ATOM      2  C   UNL     1     173.929 173.826 148.059  1.00  0.00     0.012 C 
ATOM      3  C   UNL     1     172.433 173.635 148.269  1.00  0.00     0.005 C 
ATOM      4  C   UNL     1     172.207 173.332 149.758  1.00  0.00    -0.001 C 
ATOM      5  C   UNL     1     173.389 174.038 150.484  1.00  0.00    -0.020 C 
ATOM      6  C   UNL     1     173.820 173.291 151.773  1.00  0.00     0.008 C 
ATOM      7  C   UNL     1     174.069 171.775 151.609  1.00  0.00     0.005 C 
ATOM      8  C   UNL     1     173.414 171.115 150.358  1.00  0.00     0.003 C 
ATOM      9  C   UNL     1     172.065 171.797 150.039  1.00  0.00     0.000 C 
ATOM     10  C   UNL     1     171.060 171.502 151.167  1.00  0.00     0.031 C 
ATOM     11  C   UNL     1     170.960 170.027 151.444  1.00  0.00    -0.027 C 
ATOM     12  C   UNL     1     171.953 169.145 151.184  1.00  0.00    -0.065 C 
ATOM     13  C   UNL     1     173.253 169.543 150.470  1.00  0.00    -0.008 C 
ATOM     14  C   UNL     1     173.196 168.918 149.037  1.00  0.00     0.014 C 
ATOM     15  C   UNL     1     172.826 167.416 149.018  1.00  0.00     0.033 C 
ATOM     16  C   UNL     1     171.546 167.106 149.824  1.00  0.00     0.118 C 
ATOM     17  C   UNL     1     171.637 167.667 151.250  1.00  0.00     0.063 C 
ATOM     18  C   UNL     1     174.477 168.935 151.215  1.00  0.00     0.016 C 
ATOM     19  C   UNL     1     172.928 175.464 150.894  1.00  0.00     0.012 C 
ENDROOT
BRANCH   1  20
ATOM     20  C   UNL     1     175.427 175.322 149.477  1.00  0.00     0.133 C 
ATOM     21  C   UNL     1     176.506 175.480 150.508  1.00  0.00     0.088 C 
ATOM     22  O   UNL     1     175.252 176.222 148.667  1.00  0.00    -0.300 OA
ENDBRANCH   1  20
BRANCH  16  23
ATOM     23  O   UNL     1     170.422 167.650 149.179  1.00  0.00    -0.393 OA
ATOM     24  H   UNL     1     170.513 167.435 148.213  1.00  0.00     0.210 HD
ENDBRANCH  16  23
TORSDOF 2
ENDMDL
MODEL 6
REMARK VINA RESULT:    -4.740      1.273      6.513
REMARK INTER + INTRA:          -5.359
REMARK INTER:                  -5.195
REMARK INTRA:                  -0.164
REMARK UNBOUND:                -0.203
REMARK SMILES CC(=O)[C@@H]1CC[C@H]2[C@@H]3CC=C4C[C@@H](O)CC[C@@]4(C)[C@@H]3CC[C@@]12C
REMARK SMILES IDX 4 1 5 2 6 3 7 4 22 5 21 6 20 7 19 8 8 9 9 10 10 11 11 12
REMARK SMILES IDX 17 13 16 14 15 15 13 16 12 17 18 18 23 19 2 20 1 21 3 22
REMARK SMILES IDX 14 23
REMARK H PARENT 14 24
REMARK Flexibility Score: inf
ROOT
ATOM      1  C   UNL     1     179.592 171.037 149.984  1.00  0.00     0.062 C 
ATOM      2  C   UNL     1     179.829 171.743 148.641  1.00  0.00     0.012 C 
ATOM      3  C   UNL     1     179.791 173.242 148.904  1.00  0.00     0.005 C 
ATOM      4  C   UNL     1     179.114 173.457 150.267  1.00  0.00    -0.001 C 
ATOM      5  C   UNL     1     179.421 172.157 151.065  1.00  0.00    -0.020 C 
ATOM      6  C   UNL     1     178.291 171.798 152.064  1.00  0.00     0.008 C 
ATOM      7  C   UNL     1     176.863 171.786 151.474  1.00  0.00     0.005 C 
ATOM      8  C   UNL     1     176.676 172.578 150.144  1.00  0.00     0.003 C 
ATOM      9  C   UNL     1     177.597 173.819 150.127  1.00  0.00     0.000 C 
ATOM     10  C   UNL     1     177.134 174.816 151.206  1.00  0.00     0.031 C 
ATOM     11  C   UNL     1     175.668 175.127 151.076  1.00  0.00    -0.027 C 
ATOM     12  C   UNL     1     174.769 174.289 150.509  1.00  0.00    -0.065 C 
ATOM     13  C   UNL     1     175.173 172.971 149.834  1.00  0.00    -0.008 C 
ATOM     14  C   UNL     1     174.990 173.173 148.293  1.00  0.00     0.014 C 
ATOM     15  C   UNL     1     173.619 173.766 147.893  1.00  0.00     0.033 C 
ATOM     16  C   UNL     1     173.270 175.048 148.679  1.00  0.00     0.118 C 
ATOM     17  C   UNL     1     173.390 174.823 150.193  1.00  0.00     0.063 C 
ATOM     18  C   UNL     1     174.221 171.827 150.288  1.00  0.00     0.016 C 
ATOM     19  C   UNL     1     180.723 172.382 151.883  1.00  0.00     0.012 C 
ENDROOT
BRANCH   1  20
ATOM     20  C   UNL     1     180.649 169.985 150.294  1.00  0.00     0.133 C 
ATOM     21  C   UNL     1     180.305 168.751 151.073  1.00  0.00     0.088 C 
ATOM     22  O   UNL     1     181.802 170.141 149.917  1.00  0.00    -0.300 OA
ENDBRANCH   1  20
BRANCH  16  23
ATOM     23  O   UNL     1     174.121 176.099 148.296  1.00  0.00    -0.393 OA
ATOM     24  H   UNL     1     174.171 176.081 147.304  1.00  0.00     0.210 HD
ENDBRANCH  16  23
TORSDOF 2
ENDMDL
MODEL 7
REMARK VINA RESULT:    -4.739      3.574      6.058
REMARK INTER + INTRA:          -5.358
REMARK INTER:                  -5.179
REMARK INTRA:                  -0.180
REMARK UNBOUND:                -0.203
REMARK SMILES CC(=O)[C@@H]1CC[C@H]2[C@@H]3CC=C4C[C@@H](O)CC[C@@]4(C)[C@@H]3CC[C@@]12C
REMARK SMILES IDX 4 1 5 2 6 3 7 4 22 5 21 6 20 7 19 8 8 9 9 10 10 11 11 12
REMARK SMILES IDX 17 13 16 14 15 15 13 16 12 17 18 18 23 19 2 20 1 21 3 22
REMARK SMILES IDX 14 23
REMARK H PARENT 14 24
REMARK Flexibility Score: inf
ROOT
ATOM      1  C   UNL     1     168.626 177.175 150.004  1.00  0.00     0.062 C 
ATOM      2  C   UNL     1     168.410 176.517 148.634  1.00  0.00     0.012 C 
ATOM      3  C   UNL     1     168.447 175.010 148.845  1.00  0.00     0.005 C 
ATOM      4  C   UNL     1     169.103 174.747 150.209  1.00  0.00    -0.001 C 
ATOM      5  C   UNL     1     168.782 176.018 151.048  1.00  0.00    -0.020 C 
ATOM      6  C   UNL     1     169.897 176.343 152.075  1.00  0.00     0.008 C 
ATOM      7  C   UNL     1     171.334 176.377 151.508  1.00  0.00     0.005 C 
ATOM      8  C   UNL     1     171.541 175.632 150.154  1.00  0.00     0.003 C 
ATOM      9  C   UNL     1     170.623 174.392 150.080  1.00  0.00     0.000 C 
ATOM     10  C   UNL     1     171.071 173.357 151.129  1.00  0.00     0.031 C 
ATOM     11  C   UNL     1     172.539 173.053 151.011  1.00  0.00    -0.027 C 
ATOM     12  C   UNL     1     173.445 173.911 150.487  1.00  0.00    -0.065 C 
ATOM     13  C   UNL     1     173.049 175.252 149.853  1.00  0.00    -0.008 C 
ATOM     14  C   UNL     1     173.256 175.105 148.309  1.00  0.00     0.014 C 
ATOM     15  C   UNL     1     174.634 174.527 147.909  1.00  0.00     0.033 C 
ATOM     16  C   UNL     1     174.973 173.218 148.654  1.00  0.00     0.118 C 
ATOM     17  C   UNL     1     174.830 173.390 150.174  1.00  0.00     0.063 C 
ATOM     18  C   UNL     1     173.993 176.380 150.362  1.00  0.00     0.016 C 
ATOM     19  C   UNL     1     167.468 175.763 151.838  1.00  0.00     0.012 C 
ENDROOT
BRANCH   1  20
ATOM     20  C   UNL     1     167.563 178.214 150.335  1.00  0.00     0.133 C 
ATOM     21  C   UNL     1     167.884 179.403 151.191  1.00  0.00     0.088 C 
ATOM     22  O   UNL     1     166.422 178.086 149.911  1.00  0.00    -0.300 OA
ENDBRANCH   1  20
BRANCH  16  23
ATOM     23  O   UNL     1     174.129 172.180 148.222  1.00  0.00    -0.393 OA
ATOM     24  H   UNL     1     173.780 171.735 149.038  1.00  0.00     0.210 HD
ENDBRANCH  16  23
TORSDOF 2
ENDMDL
MODEL 8
REMARK VINA RESULT:    -4.730      3.839      6.536
REMARK INTER + INTRA:          -5.348
REMARK INTER:                  -5.201
REMARK INTRA:                  -0.147
REMARK UNBOUND:                -0.203
REMARK SMILES CC(=O)[C@@H]1CC[C@H]2[C@@H]3CC=C4C[C@@H](O)CC[C@@]4(C)[C@@H]3CC[C@@]12C
REMARK SMILES IDX 4 1 5 2 6 3 7 4 22 5 21 6 20 7 19 8 8 9 9 10 10 11 11 12
REMARK SMILES IDX 17 13 16 14 15 15 13 16 12 17 18 18 23 19 2 20 1 21 3 22
REMARK SMILES IDX 14 23
REMARK H PARENT 14 24
REMARK Flexibility Score: inf
ROOT
ATOM      1  C   UNL     1     177.151 179.632 149.957  1.00  0.00     0.062 C 
ATOM      2  C   UNL     1     176.459 179.864 148.606  1.00  0.00     0.012 C 
ATOM      3  C   UNL     1     174.958 179.843 148.858  1.00  0.00     0.005 C 
ATOM      4  C   UNL     1     174.724 179.182 150.226  1.00  0.00    -0.001 C 
ATOM      5  C   UNL     1     176.022 179.483 151.031  1.00  0.00    -0.020 C 
ATOM      6  C   UNL     1     176.362 178.358 152.043  1.00  0.00     0.008 C 
ATOM      7  C   UNL     1     176.363 176.925 151.466  1.00  0.00     0.005 C 
ATOM      8  C   UNL     1     175.579 176.734 150.132  1.00  0.00     0.003 C 
ATOM      9  C   UNL     1     174.348 177.667 150.097  1.00  0.00     0.000 C 
ATOM     10  C   UNL     1     173.338 177.225 151.172  1.00  0.00     0.031 C 
ATOM     11  C   UNL     1     173.013 175.761 151.054  1.00  0.00    -0.027 C 
ATOM     12  C   UNL     1     173.846 174.848 150.501  1.00  0.00    -0.065 C 
ATOM     13  C   UNL     1     175.173 175.232 149.833  1.00  0.00    -0.008 C 
ATOM     14  C   UNL     1     174.982 175.037 148.292  1.00  0.00     0.014 C 
ATOM     15  C   UNL     1     174.377 173.668 147.900  1.00  0.00     0.033 C 
ATOM     16  C   UNL     1     173.085 173.340 148.679  1.00  0.00     0.118 C 
ATOM     17  C   UNL     1     173.301 173.471 150.194  1.00  0.00     0.063 C 
ATOM     18  C   UNL     1     176.304 174.272 150.305  1.00  0.00     0.016 C 
ATOM     19  C   UNL     1     175.804 180.794 151.835  1.00  0.00     0.012 C 
ENDROOT
BRANCH   1  20
ATOM     20  C   UNL     1     178.212 180.681 150.265  1.00  0.00     0.133 C 
ATOM     21  C   UNL     1     179.455 180.323 151.025  1.00  0.00     0.088 C 
ATOM     22  O   UNL     1     178.057 181.839 149.903  1.00  0.00    -0.300 OA
ENDBRANCH   1  20
BRANCH  16  23
ATOM     23  O   UNL     1     172.046 174.198 148.280  1.00  0.00    -0.393 OA
ATOM     24  H   UNL     1     171.224 173.889 148.745  1.00  0.00     0.210 HD
ENDBRANCH  16  23
TORSDOF 2
ENDMDL
MODEL 9
REMARK VINA RESULT:    -4.563      2.425      4.658
REMARK INTER + INTRA:          -5.167
REMARK INTER:                  -4.959
REMARK INTRA:                  -0.208
REMARK UNBOUND:                -0.203
REMARK SMILES CC(=O)[C@@H]1CC[C@H]2[C@@H]3CC=C4C[C@@H](O)CC[C@@]4(C)[C@@H]3CC[C@@]12C
REMARK SMILES IDX 4 1 5 2 6 3 7 4 22 5 21 6 20 7 19 8 8 9 9 10 10 11 11 12
REMARK SMILES IDX 17 13 16 14 15 15 13 16 12 17 18 18 23 19 2 20 1 21 3 22
REMARK SMILES IDX 14 23
REMARK H PARENT 14 24
REMARK Flexibility Score: inf
ROOT
ATOM      1  C   UNL     1     170.341 174.709 150.959  1.00  0.00     0.062 C 
ATOM      2  C   UNL     1     171.079 175.482 152.062  1.00  0.00     0.012 C 
ATOM      3  C   UNL     1     172.070 176.412 151.376  1.00  0.00     0.005 C 
ATOM      4  C   UNL     1     172.255 175.914 149.935  1.00  0.00    -0.001 C 
ATOM      5  C   UNL     1     170.910 175.210 149.589  1.00  0.00    -0.020 C 
ATOM      6  C   UNL     1     171.099 174.031 148.601  1.00  0.00     0.008 C 
ATOM      7  C   UNL     1     172.198 173.014 148.983  1.00  0.00     0.005 C 
ATOM      8  C   UNL     1     173.268 173.526 149.994  1.00  0.00     0.003 C 
ATOM      9  C   UNL     1     173.538 175.031 149.770  1.00  0.00     0.000 C 
ATOM     10  C   UNL     1     174.213 175.234 148.401  1.00  0.00     0.031 C 
ATOM     11  C   UNL     1     175.424 174.356 148.248  1.00  0.00    -0.027 C 
ATOM     12  C   UNL     1     175.595 173.189 148.913  1.00  0.00    -0.065 C 
ATOM     13  C   UNL     1     174.615 172.691 149.984  1.00  0.00    -0.008 C 
ATOM     14  C   UNL     1     175.334 172.839 151.365  1.00  0.00     0.014 C 
ATOM     15  C   UNL     1     176.761 172.243 151.400  1.00  0.00     0.033 C 
ATOM     16  C   UNL     1     177.648 172.747 150.241  1.00  0.00     0.118 C 
ATOM     17  C   UNL     1     176.961 172.539 148.884  1.00  0.00     0.063 C 
ATOM     18  C   UNL     1     174.302 171.183 149.760  1.00  0.00     0.016 C 
ATOM     19  C   UNL     1     169.974 176.250 148.914  1.00  0.00     0.012 C 
ENDROOT
BRANCH   1  20
ATOM     20  C   UNL     1     168.826 174.777 151.102  1.00  0.00     0.133 C 
ATOM     21  C   UNL     1     168.181 175.768 152.024  1.00  0.00     0.088 C 
ATOM     22  O   UNL     1     168.112 174.012 150.469  1.00  0.00    -0.300 OA
ENDBRANCH   1  20
BRANCH  16  23
ATOM     23  O   UNL     1     177.940 174.112 150.411  1.00  0.00    -0.393 OA
ATOM     24  H   UNL     1     177.231 174.619 149.935  1.00  0.00     0.210 HD
ENDBRANCH  16  23
TORSDOF 2
ENDMDL
