MODEL 1
REMARK VINA RESULT:    -4.179      0.000      0.000
REMARK INTER + INTRA:          -7.754
REMARK INTER:                  -6.621
REMARK INTRA:                  -1.133
REMARK UNBOUND:                -1.133
REMARK SMILES CCCCCCCCCCCC(=O)[O-]
REMARK SMILES IDX 7 1 8 2 9 3 10 4 11 5 12 6 13 7 14 8 6 9 5 10 4 11 3 12 2 13
REMARK SMILES IDX 1 14
REMARK H PARENT
REMARK Flexibility Score: inf
ROOT
ATOM      1  C   UNL     1     -45.049 -35.037  36.808  1.00  0.00     0.000 C 
ENDROOT
BRANCH   1   2
ATOM      2  C   UNL     1     -44.288 -36.348  36.543  1.00  0.00     0.000 C 
BRANCH   2   3
ATOM      3  C   UNL     1     -45.143 -37.594  36.825  1.00  0.00     0.000 C 
BRANCH   3   4
ATOM      4  C   UNL     1     -46.476 -37.256  37.511  1.00  0.00     0.006 C 
BRANCH   4   5
ATOM      5  C   UNL     1     -46.498 -37.779  38.951  1.00  0.00     0.053 C 
BRANCH   5   6
ATOM      6  C   UNL     1     -46.639 -36.647  39.918  1.00  0.00     0.041 C 
ATOM      7  O   UNL     1     -47.664 -35.917  39.893  1.00  0.00    -0.550 OA
ATOM      8  O   UNL     1     -45.615 -36.366  40.814  1.00  0.00    -0.550 OA
ENDBRANCH   5   6
ENDBRANCH   4   5
ENDBRANCH   3   4
ENDBRANCH   2   3
ENDBRANCH   1   2
BRANCH   1   9
ATOM      9  C   UNL     1     -44.432 -34.202  37.945  1.00  0.00     0.000 C 
BRANCH   9  10
ATOM     10  C   UNL     1     -43.281 -34.883  38.709  1.00  0.00    -0.000 C 
BRANCH  10  11
ATOM     11  C   UNL     1     -41.955 -34.107  38.610  1.00  0.00    -0.000 C 
BRANCH  11  12
ATOM     12  C   UNL     1     -40.735 -35.037  38.510  1.00  0.00    -0.000 C 
BRANCH  12  13
ATOM     13  C   UNL     1     -40.043 -34.963  37.141  1.00  0.00    -0.003 C 
ATOM     14  C   UNL     1     -40.706 -35.902  36.138  1.00  0.00     0.004 C 
ENDBRANCH  12  13
ENDBRANCH  11  12
ENDBRANCH  10  11
ENDBRANCH   9  10
ENDBRANCH   1   9
TORSDOF 10
ENDMDL
MODEL 2
REMARK VINA RESULT:    -4.038      2.867      5.622
REMARK INTER + INTRA:          -7.531
REMARK INTER:                  -6.166
REMARK INTRA:                  -1.365
REMARK UNBOUND:                -1.133
REMARK SMILES CCCCCCCCCCCC(=O)[O-]
REMARK SMILES IDX 7 1 8 2 9 3 10 4 11 5 12 6 13 7 14 8 6 9 5 10 4 11 3 12 2 13
REMARK SMILES IDX 1 14
REMARK H PARENT
REMARK Flexibility Score: inf
ROOT
ATOM      1  C   UNL     1     -44.031 -36.346  36.523  1.00  0.00     0.000 C 
ENDROOT
BRANCH   1   2
ATOM      2  C   UNL     1     -44.684 -34.998  36.874  1.00  0.00     0.000 C 
BRANCH   2   3
ATOM      3  C   UNL     1     -43.858 -34.187  37.885  1.00  0.00     0.000 C 
BRANCH   3   4
ATOM      4  C   UNL     1     -42.666 -34.978  38.447  1.00  0.00     0.006 C 
BRANCH   4   5
ATOM      5  C   UNL     1     -41.341 -34.290  38.103  1.00  0.00     0.053 C 
BRANCH   5   6
ATOM      6  C   UNL     1     -40.443 -35.225  37.358  1.00  0.00     0.041 C 
ATOM      7  O   UNL     1     -40.712 -35.552  36.173  1.00  0.00    -0.550 OA
ATOM      8  O   UNL     1     -39.334 -35.775  37.989  1.00  0.00    -0.550 OA
ENDBRANCH   5   6
ENDBRANCH   4   5
ENDBRANCH   3   4
ENDBRANCH   2   3
ENDBRANCH   1   2
BRANCH   1   9
ATOM      9  C   UNL     1     -44.972 -37.545  36.740  1.00  0.00     0.000 C 
BRANCH   9  10
ATOM     10  C   UNL     1     -46.409 -37.184  37.161  1.00  0.00    -0.000 C 
BRANCH  10  11
ATOM     11  C   UNL     1     -46.693 -37.484  38.644  1.00  0.00    -0.000 C 
BRANCH  11  12
ATOM     12  C   UNL     1     -47.464 -36.350  39.337  1.00  0.00    -0.000 C 
BRANCH  12  13
ATOM     13  C   UNL     1     -46.558 -35.452  40.193  1.00  0.00    -0.003 C 
ATOM     14  C   UNL     1     -45.333 -36.219  40.684  1.00  0.00     0.004 C 
ENDBRANCH  12  13
ENDBRANCH  11  12
ENDBRANCH  10  11
ENDBRANCH   9  10
ENDBRANCH   1   9
TORSDOF 10
ENDMDL
MODEL 3
REMARK VINA RESULT:    -3.929      9.475     11.608
REMARK INTER + INTRA:          -7.359
REMARK INTER:                  -5.685
REMARK INTRA:                  -1.673
REMARK UNBOUND:                -1.133
REMARK SMILES CCCCCCCCCCCC(=O)[O-]
REMARK SMILES IDX 7 1 8 2 9 3 10 4 11 5 12 6 13 7 14 8 6 9 5 10 4 11 3 12 2 13
REMARK SMILES IDX 1 14
REMARK H PARENT
REMARK Flexibility Score: inf
ROOT
ATOM      1  C   UNL     1     -38.141 -24.958  39.473  1.00  0.00     0.000 C 
ENDROOT
BRANCH   1   2
ATOM      2  C   UNL     1     -39.354 -24.166  39.993  1.00  0.00     0.000 C 
BRANCH   2   3
ATOM      3  C   UNL     1     -39.552 -24.318  41.509  1.00  0.00     0.000 C 
BRANCH   3   4
ATOM      4  C   UNL     1     -41.022 -24.539  41.897  1.00  0.00     0.006 C 
BRANCH   4   5
ATOM      5  C   UNL     1     -41.959 -24.085  40.773  1.00  0.00     0.053 C 
BRANCH   5   6
ATOM      6  C   UNL     1     -43.317 -24.688  40.947  1.00  0.00     0.041 C 
ATOM      7  O   UNL     1     -44.343 -24.052  40.590  1.00  0.00    -0.550 OA
ATOM      8  O   UNL     1     -43.454 -25.932  41.550  1.00  0.00    -0.550 OA
ENDBRANCH   5   6
ENDBRANCH   4   5
ENDBRANCH   3   4
ENDBRANCH   2   3
ENDBRANCH   1   2
BRANCH   1   9
ATOM      9  C   UNL     1     -37.526 -25.884  40.538  1.00  0.00     0.000 C 
BRANCH   9  10
ATOM     10  C   UNL     1     -37.165 -27.299  40.048  1.00  0.00    -0.000 C 
BRANCH  10  11
ATOM     11  C   UNL     1     -38.363 -28.264  40.066  1.00  0.00    -0.000 C 
BRANCH  11  12
ATOM     12  C   UNL     1     -39.310 -28.006  41.248  1.00  0.00    -0.000 C 
BRANCH  12  13
ATOM     13  C   UNL     1     -40.791 -28.031  40.839  1.00  0.00    -0.003 C 
ATOM     14  C   UNL     1     -40.978 -27.491  39.424  1.00  0.00     0.004 C 
ENDBRANCH  12  13
ENDBRANCH  11  12
ENDBRANCH  10  11
ENDBRANCH   9  10
ENDBRANCH   1   9
TORSDOF 10
ENDMDL
MODEL 4
REMARK VINA RESULT:    -3.835      1.825      5.109
REMARK INTER + INTRA:          -7.210
REMARK INTER:                  -6.275
REMARK INTRA:                  -0.935
REMARK UNBOUND:                -1.133
REMARK SMILES CCCCCCCCCCCC(=O)[O-]
REMARK SMILES IDX 7 1 8 2 9 3 10 4 11 5 12 6 13 7 14 8 6 9 5 10 4 11 3 12 2 13
REMARK SMILES IDX 1 14
REMARK H PARENT
REMARK Flexibility Score: inf
ROOT
ATOM      1  C   UNL     1     -41.497 -35.504  35.982  1.00  0.00     0.000 C 
ENDROOT
BRANCH   1   2
ATOM      2  C   UNL     1     -40.400 -35.300  37.042  1.00  0.00     0.000 C 
BRANCH   2   3
ATOM      3  C   UNL     1     -40.973 -34.933  38.420  1.00  0.00     0.000 C 
BRANCH   3   4
ATOM      4  C   UNL     1     -41.065 -33.415  38.640  1.00  0.00     0.006 C 
BRANCH   4   5
ATOM      5  C   UNL     1     -41.982 -33.088  39.822  1.00  0.00     0.053 C 
BRANCH   5   6
ATOM      6  C   UNL     1     -43.418 -33.250  39.434  1.00  0.00     0.041 C 
ATOM      7  O   UNL     1     -44.131 -34.122  39.995  1.00  0.00    -0.550 OA
ATOM      8  O   UNL     1     -43.955 -32.472  38.416  1.00  0.00    -0.550 OA
ENDBRANCH   5   6
ENDBRANCH   4   5
ENDBRANCH   3   4
ENDBRANCH   2   3
ENDBRANCH   1   2
BRANCH   1   9
ATOM      9  C   UNL     1     -42.848 -35.927  36.588  1.00  0.00     0.000 C 
BRANCH   9  10
ATOM     10  C   UNL     1     -44.070 -35.137  36.083  1.00  0.00    -0.000 C 
BRANCH  10  11
ATOM     11  C   UNL     1     -45.345 -35.422  36.896  1.00  0.00    -0.000 C 
BRANCH  11  12
ATOM     12  C   UNL     1     -45.540 -36.920  37.179  1.00  0.00    -0.000 C 
BRANCH  12  13
ATOM     13  C   UNL     1     -46.079 -37.191  38.592  1.00  0.00    -0.003 C 
ATOM     14  C   UNL     1     -47.599 -37.326  38.584  1.00  0.00     0.004 C 
ENDBRANCH  12  13
ENDBRANCH  11  12
ENDBRANCH  10  11
ENDBRANCH   9  10
ENDBRANCH   1   9
TORSDOF 10
ENDMDL
MODEL 5
REMARK VINA RESULT:    -3.816      3.751      5.145
REMARK INTER + INTRA:          -7.180
REMARK INTER:                  -6.154
REMARK INTRA:                  -1.026
REMARK UNBOUND:                -1.133
REMARK SMILES CCCCCCCCCCCC(=O)[O-]
REMARK SMILES IDX 7 1 8 2 9 3 10 4 11 5 12 6 13 7 14 8 6 9 5 10 4 11 3 12 2 13
REMARK SMILES IDX 1 14
REMARK H PARENT
REMARK Flexibility Score: inf
ROOT
ATOM      1  C   UNL     1     -44.575 -35.031  36.492  1.00  0.00     0.000 C 
ENDROOT
BRANCH   1   2
ATOM      2  C   UNL     1     -45.028 -33.818  37.323  1.00  0.00     0.000 C 
BRANCH   2   3
ATOM      3  C   UNL     1     -44.043 -33.477  38.453  1.00  0.00     0.000 C 
BRANCH   3   4
ATOM      4  C   UNL     1     -43.720 -31.976  38.526  1.00  0.00     0.006 C 
BRANCH   4   5
ATOM      5  C   UNL     1     -42.330 -31.744  39.126  1.00  0.00     0.053 C 
BRANCH   5   6
ATOM      6  C   UNL     1     -41.705 -30.517  38.542  1.00  0.00     0.041 C 
ATOM      7  O   UNL     1     -40.495 -30.254  38.767  1.00  0.00    -0.550 OA
ATOM      8  O   UNL     1     -42.472 -29.638  37.787  1.00  0.00    -0.550 OA
ENDBRANCH   5   6
ENDBRANCH   4   5
ENDBRANCH   3   4
ENDBRANCH   2   3
ENDBRANCH   1   2
BRANCH   1   9
ATOM      9  C   UNL     1     -43.242 -35.629  36.978  1.00  0.00     0.000 C 
BRANCH   9  10
ATOM     10  C   UNL     1     -42.070 -35.511  35.986  1.00  0.00    -0.000 C 
BRANCH  10  11
ATOM     11  C   UNL     1     -40.695 -35.659  36.662  1.00  0.00    -0.000 C 
BRANCH  11  12
ATOM     12  C   UNL     1     -40.359 -34.472  37.579  1.00  0.00    -0.000 C 
BRANCH  12  13
ATOM     13  C   UNL     1     -40.284 -34.869  39.061  1.00  0.00    -0.003 C 
ATOM     14  C   UNL     1     -39.222 -35.941  39.288  1.00  0.00     0.004 C 
ENDBRANCH  12  13
ENDBRANCH  11  12
ENDBRANCH  10  11
ENDBRANCH   9  10
ENDBRANCH   1   9
TORSDOF 10
ENDMDL
MODEL 6
REMARK VINA RESULT:    -3.809      1.892      3.032
REMARK INTER + INTRA:          -7.168
REMARK INTER:                  -6.186
REMARK INTRA:                  -0.982
REMARK UNBOUND:                -1.133
REMARK SMILES CCCCCCCCCCCC(=O)[O-]
REMARK SMILES IDX 7 1 8 2 9 3 10 4 11 5 12 6 13 7 14 8 6 9 5 10 4 11 3 12 2 13
REMARK SMILES IDX 1 14
REMARK H PARENT
REMARK Flexibility Score: inf
ROOT
ATOM      1  C   UNL     1     -44.190 -32.356  39.664  1.00  0.00     0.000 C 
ENDROOT
BRANCH   1   2
ATOM      2  C   UNL     1     -44.476 -32.279  38.154  1.00  0.00     0.000 C 
BRANCH   2   3
ATOM      3  C   UNL     1     -45.583 -33.250  37.714  1.00  0.00     0.000 C 
BRANCH   3   4
ATOM      4  C   UNL     1     -45.028 -34.533  37.075  1.00  0.00     0.006 C 
BRANCH   4   5
ATOM      5  C   UNL     1     -45.116 -35.711  38.049  1.00  0.00     0.053 C 
BRANCH   5   6
ATOM      6  C   UNL     1     -45.621 -36.933  37.350  1.00  0.00     0.041 C 
ATOM      7  O   UNL     1     -44.902 -37.520  36.500  1.00  0.00    -0.550 OA
ATOM      8  O   UNL     1     -46.907 -37.397  37.601  1.00  0.00    -0.550 OA
ENDBRANCH   5   6
ENDBRANCH   4   5
ENDBRANCH   3   4
ENDBRANCH   2   3
ENDBRANCH   1   2
BRANCH   1   9
ATOM      9  C   UNL     1     -42.775 -32.873  39.983  1.00  0.00     0.000 C 
BRANCH   9  10
ATOM     10  C   UNL     1     -41.917 -33.237  38.757  1.00  0.00    -0.000 C 
BRANCH  10  11
ATOM     11  C   UNL     1     -41.699 -34.754  38.607  1.00  0.00    -0.000 C 
BRANCH  11  12
ATOM     12  C   UNL     1     -40.225 -35.115  38.363  1.00  0.00    -0.000 C 
BRANCH  12  13
ATOM     13  C   UNL     1     -39.903 -35.323  36.875  1.00  0.00    -0.003 C 
ATOM     14  C   UNL     1     -41.111 -35.877  36.125  1.00  0.00     0.004 C 
ENDBRANCH  12  13
ENDBRANCH  11  12
ENDBRANCH  10  11
ENDBRANCH   9  10
ENDBRANCH   1   9
TORSDOF 10
ENDMDL
MODEL 7
REMARK VINA RESULT:    -3.777      1.625      2.454
REMARK INTER + INTRA:          -7.118
REMARK INTER:                  -6.315
REMARK INTRA:                  -0.803
REMARK UNBOUND:                -1.133
REMARK SMILES CCCCCCCCCCCC(=O)[O-]
REMARK SMILES IDX 7 1 8 2 9 3 10 4 11 5 12 6 13 7 14 8 6 9 5 10 4 11 3 12 2 13
REMARK SMILES IDX 1 14
REMARK H PARENT
REMARK Flexibility Score: inf
ROOT
ATOM      1  C   UNL     1     -44.716 -37.181  36.549  1.00  0.00     0.000 C 
ENDROOT
BRANCH   1   2
ATOM      2  C   UNL     1     -46.043 -37.423  37.289  1.00  0.00     0.000 C 
BRANCH   2   3
ATOM      3  C   UNL     1     -46.019 -36.895  38.732  1.00  0.00     0.000 C 
BRANCH   3   4
ATOM      4  C   UNL     1     -47.304 -36.141  39.110  1.00  0.00     0.006 C 
BRANCH   4   5
ATOM      5  C   UNL     1     -47.092 -34.626  39.032  1.00  0.00     0.053 C 
BRANCH   5   6
ATOM      6  C   UNL     1     -45.989 -34.202  39.951  1.00  0.00     0.041 C 
ATOM      7  O   UNL     1     -46.106 -34.359  41.194  1.00  0.00    -0.550 OA
ATOM      8  O   UNL     1     -44.853 -33.590  39.437  1.00  0.00    -0.550 OA
ENDBRANCH   5   6
ENDBRANCH   4   5
ENDBRANCH   3   4
ENDBRANCH   2   3
ENDBRANCH   1   2
BRANCH   1   9
ATOM      9  C   UNL     1     -44.302 -35.698  36.526  1.00  0.00     0.000 C 
BRANCH   9  10
ATOM     10  C   UNL     1     -42.911 -35.395  37.114  1.00  0.00    -0.000 C 
BRANCH  10  11
ATOM     11  C   UNL     1     -41.761 -35.813  36.181  1.00  0.00    -0.000 C 
BRANCH  11  12
ATOM     12  C   UNL     1     -40.384 -35.385  36.714  1.00  0.00    -0.000 C 
BRANCH  12  13
ATOM     13  C   UNL     1     -40.414 -35.020  38.206  1.00  0.00    -0.003 C 
ATOM     14  C   UNL     1     -40.084 -33.546  38.417  1.00  0.00     0.004 C 
ENDBRANCH  12  13
ENDBRANCH  11  12
ENDBRANCH  10  11
ENDBRANCH   9  10
ENDBRANCH   1   9
TORSDOF 10
ENDMDL
MODEL 8
REMARK VINA RESULT:    -3.741      1.849      2.998
REMARK INTER + INTRA:          -7.061
REMARK INTER:                  -5.644
REMARK INTRA:                  -1.417
REMARK UNBOUND:                -1.133
REMARK SMILES CCCCCCCCCCCC(=O)[O-]
REMARK SMILES IDX 7 1 8 2 9 3 10 4 11 5 12 6 13 7 14 8 6 9 5 10 4 11 3 12 2 13
REMARK SMILES IDX 1 14
REMARK H PARENT
REMARK Flexibility Score: inf
ROOT
ATOM      1  C   UNL     1     -44.906 -37.556  36.637  1.00  0.00     0.000 C 
ENDROOT
BRANCH   1   2
ATOM      2  C   UNL     1     -46.270 -37.339  37.314  1.00  0.00     0.000 C 
BRANCH   2   3
ATOM      3  C   UNL     1     -46.266 -37.750  38.795  1.00  0.00     0.000 C 
BRANCH   3   4
ATOM      4  C   UNL     1     -46.456 -36.556  39.743  1.00  0.00     0.006 C 
BRANCH   4   5
ATOM      5  C   UNL     1     -47.485 -35.570  39.183  1.00  0.00     0.053 C 
BRANCH   5   6
ATOM      6  C   UNL     1     -47.464 -34.292  39.960  1.00  0.00     0.041 C 
ATOM      7  O   UNL     1     -48.051 -33.271  39.517  1.00  0.00    -0.550 OA
ATOM      8  O   UNL     1     -46.755 -34.215  41.152  1.00  0.00    -0.550 OA
ENDBRANCH   5   6
ENDBRANCH   4   5
ENDBRANCH   3   4
ENDBRANCH   2   3
ENDBRANCH   1   2
BRANCH   1   9
ATOM      9  C   UNL     1     -44.078 -36.263  36.523  1.00  0.00     0.000 C 
BRANCH   9  10
ATOM     10  C   UNL     1     -44.895 -34.957  36.525  1.00  0.00    -0.000 C 
BRANCH  10  11
ATOM     11  C   UNL     1     -44.496 -34.000  37.662  1.00  0.00    -0.000 C 
BRANCH  11  12
ATOM     12  C   UNL     1     -43.461 -34.619  38.615  1.00  0.00    -0.000 C 
BRANCH  12  13
ATOM     13  C   UNL     1     -43.491 -33.985  40.015  1.00  0.00    -0.003 C 
ATOM     14  C   UNL     1     -42.404 -32.924  40.159  1.00  0.00     0.004 C 
ENDBRANCH  12  13
ENDBRANCH  11  12
ENDBRANCH  10  11
ENDBRANCH   9  10
ENDBRANCH   1   9
TORSDOF 10
ENDMDL
MODEL 9
REMARK VINA RESULT:    -3.731      2.772      5.463
REMARK INTER + INTRA:          -7.045
REMARK INTER:                  -6.075
REMARK INTRA:                  -0.971
REMARK UNBOUND:                -1.133
REMARK SMILES CCCCCCCCCCCC(=O)[O-]
REMARK SMILES IDX 7 1 8 2 9 3 10 4 11 5 12 6 13 7 14 8 6 9 5 10 4 11 3 12 2 13
REMARK SMILES IDX 1 14
REMARK H PARENT
REMARK Flexibility Score: inf
ROOT
ATOM      1  C   UNL     1     -43.150 -35.464  37.758  1.00  0.00     0.000 C 
ENDROOT
BRANCH   1   2
ATOM      2  C   UNL     1     -42.721 -35.469  36.280  1.00  0.00     0.000 C 
BRANCH   2   3
ATOM      3  C   UNL     1     -41.249 -35.872  36.094  1.00  0.00     0.000 C 
BRANCH   3   4
ATOM      4  C   UNL     1     -40.287 -35.001  36.917  1.00  0.00     0.006 C 
BRANCH   4   5
ATOM      5  C   UNL     1     -39.304 -35.869  37.709  1.00  0.00     0.053 C 
BRANCH   5   6
ATOM      6  C   UNL     1     -39.553 -35.736  39.178  1.00  0.00     0.041 C 
ATOM      7  O   UNL     1     -40.229 -34.772  39.621  1.00  0.00    -0.550 OA
ATOM      8  O   UNL     1     -38.997 -36.652  40.063  1.00  0.00    -0.550 OA
ENDBRANCH   5   6
ENDBRANCH   4   5
ENDBRANCH   3   4
ENDBRANCH   2   3
ENDBRANCH   1   2
BRANCH   1   9
ATOM      9  C   UNL     1     -43.999 -34.236  38.133  1.00  0.00     0.000 C 
BRANCH   9  10
ATOM     10  C   UNL     1     -45.229 -34.531  39.011  1.00  0.00    -0.000 C 
BRANCH  10  11
ATOM     11  C   UNL     1     -45.351 -36.016  39.393  1.00  0.00    -0.000 C 
BRANCH  11  12
ATOM     12  C   UNL     1     -46.712 -36.615  39.003  1.00  0.00    -0.000 C 
BRANCH  12  13
ATOM     13  C   UNL     1     -46.783 -37.008  37.519  1.00  0.00    -0.003 C 
ATOM     14  C   UNL     1     -45.643 -37.952  37.146  1.00  0.00     0.004 C 
ENDBRANCH  12  13
ENDBRANCH  11  12
ENDBRANCH  10  11
ENDBRANCH   9  10
ENDBRANCH   1   9
TORSDOF 10
ENDMDL
