MODEL 1
REMARK VINA RESULT:    -4.320      0.000      0.000
REMARK INTER + INTRA:          -8.786
REMARK INTER:                  -6.593
REMARK INTRA:                  -2.193
REMARK UNBOUND:                -2.193
REMARK SMILES OC[C@@H]1O[C@](CO)(O[C@@H]2O[C@H](CO)[C@H](O)[C@@H](O)[C@@H]2O)[C@H](O)[C@@H]1O
REMARK SMILES IDX 8 1 9 2 11 3 14 4 10 5 16 6 18 7 12 8 13 9 15 11 17 13 19 15
REMARK SMILES IDX 5 17 20 18 4 19 22 20 3 21 6 22 7 23 21 25 23 27 2 29 1 30
REMARK H PARENT 13 10 15 12 17 14 19 16 7 24 21 26 23 28 1 31
REMARK Flexibility Score: inf
ROOT
ATOM      1  O   UNL     1      33.872 138.556 -30.743  1.00  0.00    -0.313 OA
ENDROOT
BRANCH   1   2
ATOM      2  C   UNL     1      33.346 137.440 -31.448  1.00  0.00     0.285 C 
ATOM      3  C   UNL     1      34.683 135.727 -30.416  1.00  0.00     0.178 C 
ATOM      4  C   UNL     1      35.442 135.452 -31.735  1.00  0.00     0.177 C 
ATOM      5  O   UNL     1      33.379 136.269 -30.634  1.00  0.00    -0.341 OA
ATOM      6  C   UNL     1      35.508 136.714 -32.591  1.00  0.00     0.179 C 
ATOM      7  C   UNL     1      34.079 137.237 -32.795  1.00  0.00     0.202 C 
BRANCH   3   8
ATOM      8  C   UNL     1      35.510 136.524 -29.379  1.00  0.00     0.191 C 
BRANCH   8   9
ATOM      9  O   UNL     1      34.686 137.002 -28.352  1.00  0.00    -0.394 OA
ATOM     10  H   UNL     1      33.817 136.529 -28.439  1.00  0.00     0.210 HD
ENDBRANCH   8   9
ENDBRANCH   3   8
BRANCH   4  11
ATOM     11  O   UNL     1      36.742 134.983 -31.483  1.00  0.00    -0.387 OA
ATOM     12  H   UNL     1      37.334 135.410 -32.155  1.00  0.00     0.211 HD
ENDBRANCH   4  11
BRANCH   6  13
ATOM     13  O   UNL     1      36.087 136.399 -33.833  1.00  0.00    -0.387 OA
ATOM     14  H   UNL     1      36.102 135.409 -33.901  1.00  0.00     0.211 HD
ENDBRANCH   6  13
BRANCH   7  15
ATOM     15  O   UNL     1      34.067 138.415 -33.561  1.00  0.00    -0.385 OA
ATOM     16  H   UNL     1      33.633 138.211 -34.430  1.00  0.00     0.211 HD
ENDBRANCH   7  15
ENDBRANCH   1   2
BRANCH   1  17
ATOM     17  C   UNL     1      32.919 139.485 -30.203  1.00  0.00     0.224 C 
ATOM     18  C   UNL     1      33.060 140.872 -30.862  1.00  0.00     0.208 C 
ATOM     19  O   UNL     1      33.266 139.659 -28.842  1.00  0.00    -0.337 OA
ATOM     20  C   UNL     1      34.197 141.489 -30.097  1.00  0.00     0.180 C 
ATOM     21  C   UNL     1      34.003 140.858 -28.714  1.00  0.00     0.179 C 
BRANCH  17  22
ATOM     22  C   UNL     1      31.431 139.027 -30.228  1.00  0.00     0.225 C 
BRANCH  22  23
ATOM     23  O   UNL     1      30.670 139.793 -31.122  1.00  0.00    -0.391 OA
ATOM     24  H   UNL     1      29.719 139.567 -30.952  1.00  0.00     0.210 HD
ENDBRANCH  22  23
ENDBRANCH  17  22
BRANCH  18  25
ATOM     25  O   UNL     1      33.332 140.813 -32.237  1.00  0.00    -0.385 OA
ATOM     26  H   UNL     1      32.727 140.123 -32.613  1.00  0.00     0.211 HD
ENDBRANCH  18  25
BRANCH  20  27
ATOM     27  O   UNL     1      35.428 141.127 -30.674  1.00  0.00    -0.387 OA
ATOM     28  H   UNL     1      36.087 141.075 -29.936  1.00  0.00     0.211 HD
ENDBRANCH  20  27
BRANCH  21  29
ATOM     29  C   UNL     1      35.301 140.600 -27.936  1.00  0.00     0.191 C 
BRANCH  29  30
ATOM     30  O   UNL     1      36.045 139.581 -28.545  1.00  0.00    -0.394 OA
ATOM     31  H   UNL     1      35.438 138.798 -28.612  1.00  0.00     0.210 HD
ENDBRANCH  29  30
ENDBRANCH  21  29
ENDBRANCH   1  17
TORSDOF 13
ENDMDL
MODEL 2
REMARK VINA RESULT:    -4.267      1.878      4.817
REMARK INTER + INTRA:          -8.705
REMARK INTER:                  -6.655
REMARK INTRA:                  -2.050
REMARK UNBOUND:                -2.193
REMARK SMILES OC[C@@H]1O[C@](CO)(O[C@@H]2O[C@H](CO)[C@H](O)[C@@H](O)[C@@H]2O)[C@H](O)[C@@H]1O
REMARK SMILES IDX 8 1 9 2 11 3 14 4 10 5 16 6 18 7 12 8 13 9 15 11 17 13 19 15
REMARK SMILES IDX 5 17 20 18 4 19 22 20 3 21 6 22 7 23 21 25 23 27 2 29 1 30
REMARK H PARENT 13 10 15 12 17 14 19 16 7 24 21 26 23 28 1 31
REMARK Flexibility Score: inf
ROOT
ATOM      1  O   UNL     1      33.338 139.196 -30.033  1.00  0.00    -0.313 OA
ENDROOT
BRANCH   1   2
ATOM      2  C   UNL     1      32.573 140.184 -29.357  1.00  0.00     0.285 C 
ATOM      3  C   UNL     1      32.159 138.963 -27.327  1.00  0.00     0.178 C 
ATOM      4  C   UNL     1      30.647 138.854 -27.639  1.00  0.00     0.177 C 
ATOM      5  O   UNL     1      32.768 140.097 -27.947  1.00  0.00    -0.341 OA
ATOM      6  C   UNL     1      30.409 138.849 -29.146  1.00  0.00     0.179 C 
ATOM      7  C   UNL     1      31.078 140.093 -29.748  1.00  0.00     0.202 C 
BRANCH   3   8
ATOM      8  C   UNL     1      32.937 137.646 -27.561  1.00  0.00     0.191 C 
BRANCH   8   9
ATOM      9  O   UNL     1      34.315 137.856 -27.421  1.00  0.00    -0.394 OA
ATOM     10  H   UNL     1      34.662 137.113 -26.862  1.00  0.00     0.210 HD
ENDBRANCH   8   9
ENDBRANCH   3   8
BRANCH   4  11
ATOM     11  O   UNL     1      30.096 137.694 -27.070  1.00  0.00    -0.387 OA
ATOM     12  H   UNL     1      29.879 137.915 -26.127  1.00  0.00     0.211 HD
ENDBRANCH   4  11
BRANCH   6  13
ATOM     13  O   UNL     1      29.026 138.880 -29.394  1.00  0.00    -0.387 OA
ATOM     14  H   UNL     1      28.574 138.679 -28.534  1.00  0.00     0.211 HD
ENDBRANCH   6  13
BRANCH   7  15
ATOM     15  O   UNL     1      30.914 140.142 -31.142  1.00  0.00    -0.385 OA
ATOM     16  H   UNL     1      31.061 141.079 -31.435  1.00  0.00     0.211 HD
ENDBRANCH   7  15
ENDBRANCH   1   2
BRANCH   1  17
ATOM     17  C   UNL     1      34.689 139.547 -30.371  1.00  0.00     0.224 C 
ATOM     18  C   UNL     1      34.819 139.879 -31.870  1.00  0.00     0.208 C 
ATOM     19  O   UNL     1      35.463 138.381 -30.157  1.00  0.00    -0.337 OA
ATOM     20  C   UNL     1      34.941 138.521 -32.503  1.00  0.00     0.180 C 
ATOM     21  C   UNL     1      35.673 137.745 -31.402  1.00  0.00     0.179 C 
BRANCH  17  22
ATOM     22  C   UNL     1      35.336 140.673 -29.512  1.00  0.00     0.225 C 
BRANCH  22  23
ATOM     23  O   UNL     1      35.832 140.177 -28.299  1.00  0.00    -0.391 OA
ATOM     24  H   UNL     1      35.556 140.820 -27.595  1.00  0.00     0.210 HD
ENDBRANCH  22  23
ENDBRANCH  17  22
BRANCH  18  25
ATOM     25  O   UNL     1      33.724 140.592 -32.382  1.00  0.00    -0.385 OA
ATOM     26  H   UNL     1      33.327 141.083 -31.618  1.00  0.00     0.211 HD
ENDBRANCH  18  25
BRANCH  20  27
ATOM     27  O   UNL     1      33.666 137.987 -32.766  1.00  0.00    -0.387 OA
ATOM     28  H   UNL     1      33.398 138.312 -33.663  1.00  0.00     0.211 HD
ENDBRANCH  20  27
BRANCH  21  29
ATOM     29  C   UNL     1      35.301 136.259 -31.306  1.00  0.00     0.191 C 
BRANCH  29  30
ATOM     30  O   UNL     1      34.080 136.100 -30.637  1.00  0.00    -0.394 OA
ATOM     31  H   UNL     1      33.745 135.199 -30.884  1.00  0.00     0.210 HD
ENDBRANCH  29  30
ENDBRANCH  21  29
ENDBRANCH   1  17
TORSDOF 13
ENDMDL
MODEL 3
REMARK VINA RESULT:    -3.954      1.086      2.640
REMARK INTER + INTRA:          -8.227
REMARK INTER:                  -6.814
REMARK INTRA:                  -1.413
REMARK UNBOUND:                -2.193
REMARK SMILES OC[C@@H]1O[C@](CO)(O[C@@H]2O[C@H](CO)[C@H](O)[C@@H](O)[C@@H]2O)[C@H](O)[C@@H]1O
REMARK SMILES IDX 8 1 9 2 11 3 14 4 10 5 16 6 18 7 12 8 13 9 15 11 17 13 19 15
REMARK SMILES IDX 5 17 20 18 4 19 22 20 3 21 6 22 7 23 21 25 23 27 2 29 1 30
REMARK H PARENT 13 10 15 12 17 14 19 16 7 24 21 26 23 28 1 31
REMARK Flexibility Score: inf
ROOT
ATOM      1  O   UNL     1      34.716 139.192 -30.964  1.00  0.00    -0.313 OA
ENDROOT
BRANCH   1   2
ATOM      2  C   UNL     1      33.871 138.104 -31.314  1.00  0.00     0.285 C 
ATOM      3  C   UNL     1      35.161 136.337 -30.315  1.00  0.00     0.178 C 
ATOM      4  C   UNL     1      35.510 135.739 -31.699  1.00  0.00     0.177 C 
ATOM      5  O   UNL     1      33.938 137.076 -30.328  1.00  0.00    -0.341 OA
ATOM      6  C   UNL     1      35.540 136.831 -32.764  1.00  0.00     0.179 C 
ATOM      7  C   UNL     1      34.199 137.578 -32.732  1.00  0.00     0.202 C 
BRANCH   3   8
ATOM      8  C   UNL     1      36.333 137.105 -29.658  1.00  0.00     0.191 C 
BRANCH   8   9
ATOM      9  O   UNL     1      35.883 137.840 -28.553  1.00  0.00    -0.394 OA
ATOM     10  H   UNL     1      36.619 138.456 -28.300  1.00  0.00     0.210 HD
ENDBRANCH   8   9
ENDBRANCH   3   8
BRANCH   4  11
ATOM     11  O   UNL     1      36.749 135.077 -31.666  1.00  0.00    -0.387 OA
ATOM     12  H   UNL     1      36.811 134.548 -32.503  1.00  0.00     0.211 HD
ENDBRANCH   4  11
BRANCH   6  13
ATOM     13  O   UNL     1      35.730 136.241 -34.025  1.00  0.00    -0.387 OA
ATOM     14  H   UNL     1      36.356 136.825 -34.526  1.00  0.00     0.211 HD
ENDBRANCH   6  13
BRANCH   7  15
ATOM     15  O   UNL     1      34.164 138.616 -33.678  1.00  0.00    -0.385 OA
ATOM     16  H   UNL     1      33.216 138.878 -33.810  1.00  0.00     0.211 HD
ENDBRANCH   7  15
ENDBRANCH   1   2
BRANCH   1  17
ATOM     17  C   UNL     1      34.114 140.495 -30.941  1.00  0.00     0.224 C 
ATOM     18  C   UNL     1      34.361 141.198 -29.591  1.00  0.00     0.208 C 
ATOM     19  O   UNL     1      32.717 140.285 -31.025  1.00  0.00    -0.337 OA
ATOM     20  C   UNL     1      33.291 140.614 -28.712  1.00  0.00     0.180 C 
ATOM     21  C   UNL     1      32.168 140.378 -29.727  1.00  0.00     0.179 C 
BRANCH  17  22
ATOM     22  C   UNL     1      34.494 141.442 -32.118  1.00  0.00     0.225 C 
BRANCH  22  23
ATOM     23  O   UNL     1      35.595 140.955 -32.836  1.00  0.00    -0.391 OA
ATOM     24  H   UNL     1      35.244 140.631 -33.707  1.00  0.00     0.210 HD
ENDBRANCH  22  23
ENDBRANCH  17  22
BRANCH  18  25
ATOM     25  O   UNL     1      35.644 140.971 -29.069  1.00  0.00    -0.385 OA
ATOM     26  H   UNL     1      35.559 140.210 -28.439  1.00  0.00     0.211 HD
ENDBRANCH  18  25
BRANCH  20  27
ATOM     27  O   UNL     1      33.738 139.413 -28.130  1.00  0.00    -0.387 OA
ATOM     28  H   UNL     1      33.292 138.675 -28.616  1.00  0.00     0.211 HD
ENDBRANCH  20  27
BRANCH  21  29
ATOM     29  C   UNL     1      31.286 139.155 -29.437  1.00  0.00     0.191 C 
BRANCH  29  30
ATOM     30  O   UNL     1      30.218 139.093 -30.341  1.00  0.00    -0.394 OA
ATOM     31  H   UNL     1      30.080 138.131 -30.541  1.00  0.00     0.210 HD
ENDBRANCH  29  30
ENDBRANCH  21  29
ENDBRANCH   1  17
TORSDOF 13
ENDMDL
MODEL 4
REMARK VINA RESULT:    -3.938      1.609      3.763
REMARK INTER + INTRA:          -8.203
REMARK INTER:                  -6.402
REMARK INTRA:                  -1.801
REMARK UNBOUND:                -2.193
REMARK SMILES OC[C@@H]1O[C@](CO)(O[C@@H]2O[C@H](CO)[C@H](O)[C@@H](O)[C@@H]2O)[C@H](O)[C@@H]1O
REMARK SMILES IDX 8 1 9 2 11 3 14 4 10 5 16 6 18 7 12 8 13 9 15 11 17 13 19 15
REMARK SMILES IDX 5 17 20 18 4 19 22 20 3 21 6 22 7 23 21 25 23 27 2 29 1 30
REMARK H PARENT 13 10 15 12 17 14 19 16 7 24 21 26 23 28 1 31
REMARK Flexibility Score: inf
ROOT
ATOM      1  O   UNL     1      34.452 137.895 -31.165  1.00  0.00    -0.313 OA
ENDROOT
BRANCH   1   2
ATOM      2  C   UNL     1      35.301 136.760 -31.270  1.00  0.00     0.285 C 
ATOM      3  C   UNL     1      35.324 136.574 -33.667  1.00  0.00     0.178 C 
ATOM      4  C   UNL     1      34.536 135.243 -33.624  1.00  0.00     0.177 C 
ATOM      5  O   UNL     1      36.067 136.812 -32.472  1.00  0.00    -0.341 OA
ATOM      6  C   UNL     1      33.631 135.193 -32.396  1.00  0.00     0.179 C 
ATOM      7  C   UNL     1      34.490 135.447 -31.149  1.00  0.00     0.202 C 
BRANCH   3   8
ATOM      8  C   UNL     1      34.469 137.786 -34.108  1.00  0.00     0.191 C 
BRANCH   8   9
ATOM      9  O   UNL     1      34.324 137.807 -35.501  1.00  0.00    -0.394 OA
ATOM     10  H   UNL     1      34.657 138.689 -35.811  1.00  0.00     0.210 HD
ENDBRANCH   8   9
ENDBRANCH   3   8
BRANCH   4  11
ATOM     11  O   UNL     1      33.765 135.073 -34.786  1.00  0.00    -0.387 OA
ATOM     12  H   UNL     1      34.393 134.808 -35.508  1.00  0.00     0.211 HD
ENDBRANCH   4  11
BRANCH   6  13
ATOM     13  O   UNL     1      33.031 133.925 -32.316  1.00  0.00    -0.387 OA
ATOM     14  H   UNL     1      33.009 133.676 -31.356  1.00  0.00     0.211 HD
ENDBRANCH   6  13
BRANCH   7  15
ATOM     15  O   UNL     1      33.714 135.436 -29.978  1.00  0.00    -0.385 OA
ATOM     16  H   UNL     1      33.134 134.631 -30.003  1.00  0.00     0.211 HD
ENDBRANCH   7  15
ENDBRANCH   1   2
BRANCH   1  17
ATOM     17  C   UNL     1      34.586 138.693 -29.978  1.00  0.00     0.224 C 
ATOM     18  C   UNL     1      33.206 139.047 -29.389  1.00  0.00     0.208 C 
ATOM     19  O   UNL     1      35.164 139.917 -30.390  1.00  0.00    -0.337 OA
ATOM     20  C   UNL     1      32.784 140.229 -30.217  1.00  0.00     0.180 C 
ATOM     21  C   UNL     1      34.138 140.881 -30.517  1.00  0.00     0.179 C 
BRANCH  17  22
ATOM     22  C   UNL     1      35.512 138.114 -28.869  1.00  0.00     0.225 C 
BRANCH  22  23
ATOM     23  O   UNL     1      34.779 137.422 -27.894  1.00  0.00    -0.391 OA
ATOM     24  H   UNL     1      33.897 137.212 -28.298  1.00  0.00     0.210 HD
ENDBRANCH  22  23
ENDBRANCH  17  22
BRANCH  18  25
ATOM     25  O   UNL     1      32.277 137.999 -29.470  1.00  0.00    -0.385 OA
ATOM     26  H   UNL     1      31.727 138.047 -28.647  1.00  0.00     0.211 HD
ENDBRANCH  18  25
BRANCH  20  27
ATOM     27  O   UNL     1      32.135 139.797 -31.389  1.00  0.00    -0.387 OA
ATOM     28  H   UNL     1      31.712 140.596 -31.794  1.00  0.00     0.211 HD
ENDBRANCH  20  27
BRANCH  21  29
ATOM     29  C   UNL     1      34.230 141.574 -31.884  1.00  0.00     0.191 C 
BRANCH  29  30
ATOM     30  O   UNL     1      34.234 140.627 -32.916  1.00  0.00    -0.394 OA
ATOM     31  H   UNL     1      34.910 139.945 -32.663  1.00  0.00     0.210 HD
ENDBRANCH  29  30
ENDBRANCH  21  29
ENDBRANCH   1  17
TORSDOF 13
ENDMDL
MODEL 5
REMARK VINA RESULT:    -3.877      1.209      2.487
REMARK INTER + INTRA:          -8.110
REMARK INTER:                  -6.651
REMARK INTRA:                  -1.459
REMARK UNBOUND:                -2.193
REMARK SMILES OC[C@@H]1O[C@](CO)(O[C@@H]2O[C@H](CO)[C@H](O)[C@@H](O)[C@@H]2O)[C@H](O)[C@@H]1O
REMARK SMILES IDX 8 1 9 2 11 3 14 4 10 5 16 6 18 7 12 8 13 9 15 11 17 13 19 15
REMARK SMILES IDX 5 17 20 18 4 19 22 20 3 21 6 22 7 23 21 25 23 27 2 29 1 30
REMARK H PARENT 13 10 15 12 17 14 19 16 7 24 21 26 23 28 1 31
REMARK Flexibility Score: inf
ROOT
ATOM      1  O   UNL     1      33.404 138.599 -30.949  1.00  0.00    -0.313 OA
ENDROOT
BRANCH   1   2
ATOM      2  C   UNL     1      34.619 137.974 -30.560  1.00  0.00     0.285 C 
ATOM      3  C   UNL     1      35.567 137.681 -32.751  1.00  0.00     0.178 C 
ATOM      4  C   UNL     1      35.436 136.142 -32.659  1.00  0.00     0.177 C 
ATOM      5  O   UNL     1      35.669 138.302 -31.469  1.00  0.00    -0.341 OA
ATOM      6  C   UNL     1      34.260 135.755 -31.767  1.00  0.00     0.179 C 
ATOM      7  C   UNL     1      34.435 136.445 -30.407  1.00  0.00     0.202 C 
BRANCH   3   8
ATOM      8  C   UNL     1      34.508 138.339 -33.668  1.00  0.00     0.191 C 
BRANCH   8   9
ATOM      9  O   UNL     1      34.468 139.724 -33.460  1.00  0.00    -0.394 OA
ATOM     10  H   UNL     1      35.391 140.005 -33.229  1.00  0.00     0.210 HD
ENDBRANCH   8   9
ENDBRANCH   3   8
BRANCH   4  11
ATOM     11  O   UNL     1      35.272 135.571 -33.932  1.00  0.00    -0.387 OA
ATOM     12  H   UNL     1      36.091 135.786 -34.449  1.00  0.00     0.211 HD
ENDBRANCH   4  11
BRANCH   6  13
ATOM     13  O   UNL     1      34.249 134.359 -31.599  1.00  0.00    -0.387 OA
ATOM     14  H   UNL     1      33.500 134.149 -30.983  1.00  0.00     0.211 HD
ENDBRANCH   6  13
BRANCH   7  15
ATOM     15  O   UNL     1      33.372 136.148 -29.538  1.00  0.00    -0.385 OA
ATOM     16  H   UNL     1      33.614 136.478 -28.633  1.00  0.00     0.211 HD
ENDBRANCH   7  15
ENDBRANCH   1   2
BRANCH   1  17
ATOM     17  C   UNL     1      32.719 139.361 -29.943  1.00  0.00     0.224 C 
ATOM     18  C   UNL     1      32.586 140.839 -30.361  1.00  0.00     0.208 C 
ATOM     19  O   UNL     1      33.557 139.349 -28.803  1.00  0.00    -0.337 OA
ATOM     20  C   UNL     1      33.923 141.414 -29.983  1.00  0.00     0.180 C 
ATOM     21  C   UNL     1      34.276 140.565 -28.757  1.00  0.00     0.179 C 
BRANCH  17  22
ATOM     22  C   UNL     1      31.339 138.805 -29.488  1.00  0.00     0.225 C 
BRANCH  22  23
ATOM     23  O   UNL     1      30.316 139.176 -30.372  1.00  0.00    -0.391 OA
ATOM     24  H   UNL     1      29.852 138.339 -30.638  1.00  0.00     0.210 HD
ENDBRANCH  22  23
ENDBRANCH  17  22
BRANCH  18  25
ATOM     25  O   UNL     1      32.315 141.013 -31.727  1.00  0.00    -0.385 OA
ATOM     26  H   UNL     1      32.416 141.981 -31.912  1.00  0.00     0.211 HD
ENDBRANCH  18  25
BRANCH  20  27
ATOM     27  O   UNL     1      34.846 141.236 -31.031  1.00  0.00    -0.387 OA
ATOM     28  H   UNL     1      35.476 140.529 -30.742  1.00  0.00     0.211 HD
ENDBRANCH  20  27
BRANCH  21  29
ATOM     29  C   UNL     1      35.775 140.286 -28.577  1.00  0.00     0.191 C 
BRANCH  29  30
ATOM     30  O   UNL     1      36.479 141.484 -28.392  1.00  0.00    -0.394 OA
ATOM     31  H   UNL     1      37.431 141.229 -28.275  1.00  0.00     0.210 HD
ENDBRANCH  29  30
ENDBRANCH  21  29
ENDBRANCH   1  17
TORSDOF 13
ENDMDL
MODEL 6
REMARK VINA RESULT:    -3.839      1.837      3.937
REMARK INTER + INTRA:          -8.051
REMARK INTER:                  -6.672
REMARK INTRA:                  -1.379
REMARK UNBOUND:                -2.193
REMARK SMILES OC[C@@H]1O[C@](CO)(O[C@@H]2O[C@H](CO)[C@H](O)[C@@H](O)[C@@H]2O)[C@H](O)[C@@H]1O
REMARK SMILES IDX 8 1 9 2 11 3 14 4 10 5 16 6 18 7 12 8 13 9 15 11 17 13 19 15
REMARK SMILES IDX 5 17 20 18 4 19 22 20 3 21 6 22 7 23 21 25 23 27 2 29 1 30
REMARK H PARENT 13 10 15 12 17 14 19 16 7 24 21 26 23 28 1 31
REMARK Flexibility Score: inf
ROOT
ATOM      1  O   UNL     1      34.240 139.621 -29.665  1.00  0.00    -0.313 OA
ENDROOT
BRANCH   1   2
ATOM      2  C   UNL     1      33.414 139.781 -30.810  1.00  0.00     0.285 C 
ATOM      3  C   UNL     1      34.181 137.867 -32.050  1.00  0.00     0.178 C 
ATOM      4  C   UNL     1      34.835 138.764 -33.129  1.00  0.00     0.177 C 
ATOM      5  O   UNL     1      33.096 138.513 -31.383  1.00  0.00    -0.341 OA
ATOM      6  C   UNL     1      35.276 140.095 -32.527  1.00  0.00     0.179 C 
ATOM      7  C   UNL     1      34.065 140.739 -31.836  1.00  0.00     0.202 C 
BRANCH   3   8
ATOM      8  C   UNL     1      35.199 137.222 -31.079  1.00  0.00     0.191 C 
BRANCH   8   9
ATOM      9  O   UNL     1      34.536 136.580 -30.026  1.00  0.00    -0.394 OA
ATOM     10  H   UNL     1      33.732 136.147 -30.415  1.00  0.00     0.210 HD
ENDBRANCH   8   9
ENDBRANCH   3   8
BRANCH   4  11
ATOM     11  O   UNL     1      35.938 138.123 -33.717  1.00  0.00    -0.387 OA
ATOM     12  H   UNL     1      35.684 137.921 -34.655  1.00  0.00     0.211 HD
ENDBRANCH   4  11
BRANCH   6  13
ATOM     13  O   UNL     1      35.745 140.932 -33.553  1.00  0.00    -0.387 OA
ATOM     14  H   UNL     1      34.950 141.373 -33.952  1.00  0.00     0.211 HD
ENDBRANCH   6  13
BRANCH   7  15
ATOM     15  O   UNL     1      34.405 141.965 -31.239  1.00  0.00    -0.385 OA
ATOM     16  H   UNL     1      33.669 142.222 -30.625  1.00  0.00     0.211 HD
ENDBRANCH   7  15
ENDBRANCH   1   2
BRANCH   1  17
ATOM     17  C   UNL     1      33.762 140.198 -28.439  1.00  0.00     0.224 C 
ATOM     18  C   UNL     1      33.690 139.141 -27.319  1.00  0.00     0.208 C 
ATOM     19  O   UNL     1      32.428 140.600 -28.688  1.00  0.00    -0.337 OA
ATOM     20  C   UNL     1      32.377 138.460 -27.588  1.00  0.00     0.180 C 
ATOM     21  C   UNL     1      31.556 139.615 -28.171  1.00  0.00     0.179 C 
BRANCH  17  22
ATOM     22  C   UNL     1      34.522 141.461 -27.940  1.00  0.00     0.225 C 
BRANCH  22  23
ATOM     23  O   UNL     1      35.691 141.687 -28.681  1.00  0.00    -0.391 OA
ATOM     24  H   UNL     1      35.676 141.043 -29.437  1.00  0.00     0.210 HD
ENDBRANCH  22  23
ENDBRANCH  17  22
BRANCH  18  25
ATOM     25  O   UNL     1      34.759 138.233 -27.336  1.00  0.00    -0.385 OA
ATOM     26  H   UNL     1      35.521 138.689 -26.897  1.00  0.00     0.211 HD
ENDBRANCH  18  25
BRANCH  20  27
ATOM     27  O   UNL     1      32.550 137.415 -28.515  1.00  0.00    -0.387 OA
ATOM     28  H   UNL     1      32.909 137.823 -29.344  1.00  0.00     0.211 HD
ENDBRANCH  20  27
BRANCH  21  29
ATOM     29  C   UNL     1      30.533 139.203 -29.238  1.00  0.00     0.191 C 
BRANCH  29  30
ATOM     30  O   UNL     1      29.239 139.185 -28.700  1.00  0.00    -0.394 OA
ATOM     31  H   UNL     1      29.181 138.362 -28.148  1.00  0.00     0.210 HD
ENDBRANCH  29  30
ENDBRANCH  21  29
ENDBRANCH   1  17
TORSDOF 13
ENDMDL
MODEL 7
REMARK VINA RESULT:    -3.709      1.777      3.155
REMARK INTER + INTRA:          -7.854
REMARK INTER:                  -5.665
REMARK INTRA:                  -2.189
REMARK UNBOUND:                -2.193
REMARK SMILES OC[C@@H]1O[C@](CO)(O[C@@H]2O[C@H](CO)[C@H](O)[C@@H](O)[C@@H]2O)[C@H](O)[C@@H]1O
REMARK SMILES IDX 8 1 9 2 11 3 14 4 10 5 16 6 18 7 12 8 13 9 15 11 17 13 19 15
REMARK SMILES IDX 5 17 20 18 4 19 22 20 3 21 6 22 7 23 21 25 23 27 2 29 1 30
REMARK H PARENT 13 10 15 12 17 14 19 16 7 24 21 26 23 28 1 31
REMARK Flexibility Score: inf
ROOT
ATOM      1  O   UNL     1      34.405 139.239 -29.660  1.00  0.00    -0.313 OA
ENDROOT
BRANCH   1   2
ATOM      2  C   UNL     1      33.528 139.546 -30.734  1.00  0.00     0.285 C 
ATOM      3  C   UNL     1      34.133 137.733 -32.194  1.00  0.00     0.178 C 
ATOM      4  C   UNL     1      34.770 138.701 -33.219  1.00  0.00     0.177 C 
ATOM      5  O   UNL     1      33.118 138.356 -31.406  1.00  0.00    -0.341 OA
ATOM      6  C   UNL     1      35.306 139.947 -32.519  1.00  0.00     0.179 C 
ATOM      7  C   UNL     1      34.168 140.572 -31.700  1.00  0.00     0.202 C 
BRANCH   3   8
ATOM      8  C   UNL     1      35.169 136.952 -31.351  1.00  0.00     0.191 C 
BRANCH   8   9
ATOM      9  O   UNL     1      34.557 136.366 -30.235  1.00  0.00    -0.394 OA
ATOM     10  H   UNL     1      34.948 135.459 -30.138  1.00  0.00     0.210 HD
ENDBRANCH   8   9
ENDBRANCH   3   8
BRANCH   4  11
ATOM     11  O   UNL     1      35.808 138.075 -33.929  1.00  0.00    -0.387 OA
ATOM     12  H   UNL     1      36.531 138.747 -34.028  1.00  0.00     0.211 HD
ENDBRANCH   4  11
BRANCH   6  13
ATOM     13  O   UNL     1      35.759 140.860 -33.487  1.00  0.00    -0.387 OA
ATOM     14  H   UNL     1      35.374 140.574 -34.356  1.00  0.00     0.211 HD
ENDBRANCH   6  13
BRANCH   7  15
ATOM     15  O   UNL     1      34.598 141.718 -31.010  1.00  0.00    -0.385 OA
ATOM     16  H   UNL     1      35.208 142.224 -31.608  1.00  0.00     0.211 HD
ENDBRANCH   7  15
ENDBRANCH   1   2
BRANCH   1  17
ATOM     17  C   UNL     1      33.832 139.225 -28.343  1.00  0.00     0.224 C 
ATOM     18  C   UNL     1      34.355 140.403 -27.497  1.00  0.00     0.208 C 
ATOM     19  O   UNL     1      34.311 138.049 -27.718  1.00  0.00    -0.337 OA
ATOM     20  C   UNL     1      35.679 139.895 -27.000  1.00  0.00     0.180 C 
ATOM     21  C   UNL     1      35.394 138.394 -26.878  1.00  0.00     0.179 C 
BRANCH  17  22
ATOM     22  C   UNL     1      32.278 139.163 -28.277  1.00  0.00     0.225 C 
BRANCH  22  23
ATOM     23  O   UNL     1      31.739 140.325 -27.706  1.00  0.00    -0.391 OA
ATOM     24  H   UNL     1      31.698 140.167 -26.726  1.00  0.00     0.210 HD
ENDBRANCH  22  23
ENDBRANCH  17  22
BRANCH  18  25
ATOM     25  O   UNL     1      34.497 141.595 -28.224  1.00  0.00    -0.385 OA
ATOM     26  H   UNL     1      33.646 141.727 -28.716  1.00  0.00     0.211 HD
ENDBRANCH  18  25
BRANCH  20  27
ATOM     27  O   UNL     1      36.691 140.165 -27.940  1.00  0.00    -0.387 OA
ATOM     28  H   UNL     1      37.203 139.326 -28.061  1.00  0.00     0.211 HD
ENDBRANCH  20  27
BRANCH  21  29
ATOM     29  C   UNL     1      36.597 137.485 -27.167  1.00  0.00     0.191 C 
BRANCH  29  30
ATOM     30  O   UNL     1      36.862 137.442 -28.542  1.00  0.00    -0.394 OA
ATOM     31  H   UNL     1      37.823 137.672 -28.645  1.00  0.00     0.210 HD
ENDBRANCH  29  30
ENDBRANCH  21  29
ENDBRANCH   1  17
TORSDOF 13
ENDMDL
MODEL 8
REMARK VINA RESULT:    -3.610      1.532      5.057
REMARK INTER + INTRA:          -7.702
REMARK INTER:                  -5.661
REMARK INTRA:                  -2.041
REMARK UNBOUND:                -2.193
REMARK SMILES OC[C@@H]1O[C@](CO)(O[C@@H]2O[C@H](CO)[C@H](O)[C@@H](O)[C@@H]2O)[C@H](O)[C@@H]1O
REMARK SMILES IDX 8 1 9 2 11 3 14 4 10 5 16 6 18 7 12 8 13 9 15 11 17 13 19 15
REMARK SMILES IDX 5 17 20 18 4 19 22 20 3 21 6 22 7 23 21 25 23 27 2 29 1 30
REMARK H PARENT 13 10 15 12 17 14 19 16 7 24 21 26 23 28 1 31
REMARK Flexibility Score: inf
ROOT
ATOM      1  O   UNL     1      34.593 138.488 -29.847  1.00  0.00    -0.313 OA
ENDROOT
BRANCH   1   2
ATOM      2  C   UNL     1      34.391 138.801 -28.475  1.00  0.00     0.285 C 
ATOM      3  C   UNL     1      34.728 141.178 -28.618  1.00  0.00     0.178 C 
ATOM      4  C   UNL     1      36.035 141.095 -27.794  1.00  0.00     0.177 C 
ATOM      5  O   UNL     1      33.830 140.105 -28.333  1.00  0.00    -0.341 OA
ATOM      6  C   UNL     1      36.714 139.743 -27.998  1.00  0.00     0.179 C 
ATOM      7  C   UNL     1      35.701 138.637 -27.668  1.00  0.00     0.202 C 
BRANCH   3   8
ATOM      8  C   UNL     1      34.962 141.396 -30.131  1.00  0.00     0.191 C 
BRANCH   8   9
ATOM      9  O   UNL     1      33.756 141.289 -30.837  1.00  0.00    -0.394 OA
ATOM     10  H   UNL     1      33.935 140.710 -31.623  1.00  0.00     0.210 HD
ENDBRANCH   8   9
ENDBRANCH   3   8
BRANCH   4  11
ATOM     11  O   UNL     1      36.922 142.126 -28.146  1.00  0.00    -0.387 OA
ATOM     12  H   UNL     1      37.835 141.737 -28.123  1.00  0.00     0.211 HD
ENDBRANCH   4  11
BRANCH   6  13
ATOM     13  O   UNL     1      37.823 139.649 -27.140  1.00  0.00    -0.387 OA
ATOM     14  H   UNL     1      37.725 140.367 -26.462  1.00  0.00     0.211 HD
ENDBRANCH   6  13
BRANCH   7  15
ATOM     15  O   UNL     1      36.255 137.359 -27.855  1.00  0.00    -0.385 OA
ATOM     16  H   UNL     1      36.367 136.940 -26.962  1.00  0.00     0.211 HD
ENDBRANCH   7  15
ENDBRANCH   1   2
BRANCH   1  17
ATOM     17  C   UNL     1      33.487 137.891 -30.542  1.00  0.00     0.224 C 
ATOM     18  C   UNL     1      33.746 136.398 -30.820  1.00  0.00     0.208 C 
ATOM     19  O   UNL     1      33.430 138.524 -31.807  1.00  0.00    -0.337 OA
ATOM     20  C   UNL     1      34.595 136.433 -32.061  1.00  0.00     0.180 C 
ATOM     21  C   UNL     1      34.048 137.682 -32.760  1.00  0.00     0.179 C 
BRANCH  17  22
ATOM     22  C   UNL     1      32.088 138.081 -29.886  1.00  0.00     0.225 C 
BRANCH  22  23
ATOM     23  O   UNL     1      31.498 139.293 -30.272  1.00  0.00    -0.391 OA
ATOM     24  H   UNL     1      31.750 139.964 -29.584  1.00  0.00     0.210 HD
ENDBRANCH  22  23
ENDBRANCH  17  22
BRANCH  18  25
ATOM     25  O   UNL     1      34.395 135.736 -29.767  1.00  0.00    -0.385 OA
ATOM     26  H   UNL     1      33.840 134.946 -29.547  1.00  0.00     0.211 HD
ENDBRANCH  18  25
BRANCH  20  27
ATOM     27  O   UNL     1      35.953 136.570 -31.720  1.00  0.00    -0.387 OA
ATOM     28  H   UNL     1      36.429 136.846 -32.544  1.00  0.00     0.211 HD
ENDBRANCH  20  27
BRANCH  21  29
ATOM     29  C   UNL     1      35.086 138.472 -33.569  1.00  0.00     0.191 C 
BRANCH  29  30
ATOM     30  O   UNL     1      35.601 139.531 -32.809  1.00  0.00    -0.394 OA
ATOM     31  H   UNL     1      36.587 139.495 -32.917  1.00  0.00     0.210 HD
ENDBRANCH  29  30
ENDBRANCH  21  29
ENDBRANCH   1  17
TORSDOF 13
ENDMDL
MODEL 9
REMARK VINA RESULT:    -3.455      1.792      3.941
REMARK INTER + INTRA:          -7.465
REMARK INTER:                  -6.049
REMARK INTRA:                  -1.417
REMARK UNBOUND:                -2.193
REMARK SMILES OC[C@@H]1O[C@](CO)(O[C@@H]2O[C@H](CO)[C@H](O)[C@@H](O)[C@@H]2O)[C@H](O)[C@@H]1O
REMARK SMILES IDX 8 1 9 2 11 3 14 4 10 5 16 6 18 7 12 8 13 9 15 11 17 13 19 15
REMARK SMILES IDX 5 17 20 18 4 19 22 20 3 21 6 22 7 23 21 25 23 27 2 29 1 30
REMARK H PARENT 13 10 15 12 17 14 19 16 7 24 21 26 23 28 1 31
REMARK Flexibility Score: inf
ROOT
ATOM      1  O   UNL     1      35.042 139.238 -30.290  1.00  0.00    -0.313 OA
ENDROOT
BRANCH   1   2
ATOM      2  C   UNL     1      34.655 138.343 -29.256  1.00  0.00     0.285 C 
ATOM      3  C   UNL     1      35.914 139.336 -27.462  1.00  0.00     0.178 C 
ATOM      4  C   UNL     1      36.847 138.105 -27.366  1.00  0.00     0.177 C 
ATOM      5  O   UNL     1      34.629 139.011 -27.996  1.00  0.00    -0.341 OA
ATOM      6  C   UNL     1      36.974 137.420 -28.724  1.00  0.00     0.179 C 
ATOM      7  C   UNL     1      35.564 137.091 -29.235  1.00  0.00     0.202 C 
BRANCH   3   8
ATOM      8  C   UNL     1      36.569 140.559 -28.146  1.00  0.00     0.191 C 
BRANCH   8   9
ATOM      9  O   UNL     1      35.619 141.563 -28.376  1.00  0.00    -0.394 OA
ATOM     10  H   UNL     1      35.430 141.560 -29.350  1.00  0.00     0.210 HD
ENDBRANCH   8   9
ENDBRANCH   3   8
BRANCH   4  11
ATOM     11  O   UNL     1      38.121 138.471 -26.901  1.00  0.00    -0.387 OA
ATOM     12  H   UNL     1      38.116 138.332 -25.919  1.00  0.00     0.211 HD
ENDBRANCH   4  11
BRANCH   6  13
ATOM     13  O   UNL     1      37.719 136.237 -28.576  1.00  0.00    -0.387 OA
ATOM     14  H   UNL     1      38.675 136.486 -28.664  1.00  0.00     0.211 HD
ENDBRANCH   6  13
BRANCH   7  15
ATOM     15  O   UNL     1      35.604 136.473 -30.496  1.00  0.00    -0.385 OA
ATOM     16  H   UNL     1      34.707 136.090 -30.679  1.00  0.00     0.211 HD
ENDBRANCH   7  15
ENDBRANCH   1   2
BRANCH   1  17
ATOM     17  C   UNL     1      34.144 139.362 -31.404  1.00  0.00     0.224 C 
ATOM     18  C   UNL     1      33.693 140.824 -31.594  1.00  0.00     0.208 C 
ATOM     19  O   UNL     1      32.982 138.633 -31.057  1.00  0.00    -0.337 OA
ATOM     20  C   UNL     1      32.579 140.960 -30.594  1.00  0.00     0.180 C 
ATOM     21  C   UNL     1      32.001 139.541 -30.597  1.00  0.00     0.179 C 
BRANCH  17  22
ATOM     22  C   UNL     1      34.650 138.776 -32.755  1.00  0.00     0.225 C 
BRANCH  22  23
ATOM     23  O   UNL     1      34.228 137.451 -32.932  1.00  0.00    -0.391 OA
ATOM     24  H   UNL     1      34.890 137.020 -33.534  1.00  0.00     0.210 HD
ENDBRANCH  22  23
ENDBRANCH  17  22
BRANCH  18  25
ATOM     25  O   UNL     1      34.714 141.759 -31.363  1.00  0.00    -0.385 OA
ATOM     26  H   UNL     1      34.362 142.637 -31.660  1.00  0.00     0.211 HD
ENDBRANCH  18  25
BRANCH  20  27
ATOM     27  O   UNL     1      33.094 141.319 -29.334  1.00  0.00    -0.387 OA
ATOM     28  H   UNL     1      34.044 141.564 -29.471  1.00  0.00     0.211 HD
ENDBRANCH  20  27
BRANCH  21  29
ATOM     29  C   UNL     1      31.439 139.073 -29.247  1.00  0.00     0.191 C 
BRANCH  29  30
ATOM     30  O   UNL     1      30.077 139.386 -29.147  1.00  0.00    -0.394 OA
ATOM     31  H   UNL     1      30.005 140.362 -29.316  1.00  0.00     0.210 HD
ENDBRANCH  29  30
ENDBRANCH  21  29
ENDBRANCH   1  17
TORSDOF 13
ENDMDL
