MODEL 1
REMARK VINA RESULT:    -2.940      0.000      0.000
REMARK INTER + INTRA:          -2.940
REMARK INTER:                  -2.940
REMARK INTRA:                   0.000
REMARK UNBOUND:                 0.000
REMARK SMILES CC1(C)O[C@]2(C)CC[C@H]1CC2
REMARK SMILES IDX 1 1 2 2 9 3 10 4 11 5 5 6 4 7 7 8 8 9 6 10 3 11
REMARK H PARENT
REMARK Flexibility Score: inf
ROOT
ATOM      1  C   UNL     1      19.876  15.483  30.970  1.00  0.00     0.042 C 
ATOM      2  C   UNL     1      21.011  15.834  29.983  1.00  0.00     0.066 C 
ATOM      3  C   UNL     1      22.402  15.878  30.725  1.00  0.00     0.021 C 
ATOM      4  C   UNL     1      23.491  16.282  29.703  1.00  0.00     0.009 C 
ATOM      5  C   UNL     1      23.048  17.573  28.973  1.00  0.00     0.035 C 
ATOM      6  C   UNL     1      21.705  18.082  29.571  1.00  0.00     0.066 C 
ATOM      7  O   UNL     1      20.696  17.093  29.369  1.00  0.00    -0.369 OA
ATOM      8  C   UNL     1      21.890  18.320  31.098  1.00  0.00     0.035 C 
ATOM      9  C   UNL     1      22.360  17.012  31.778  1.00  0.00     0.009 C 
ATOM     10  C   UNL     1      21.271  19.379  28.879  1.00  0.00     0.042 C 
ATOM     11  C   UNL     1      21.014  14.750  28.882  1.00  0.00     0.042 C 
ENDROOT
TORSDOF 0
ENDMDL
MODEL 2
REMARK VINA RESULT:    -2.563      1.025      3.332
REMARK INTER + INTRA:          -2.563
REMARK INTER:                  -2.563
REMARK INTRA:                   0.000
REMARK UNBOUND:                 0.000
REMARK SMILES CC1(C)O[C@]2(C)CC[C@H]1CC2
REMARK SMILES IDX 1 1 2 2 9 3 10 4 11 5 5 6 4 7 7 8 8 9 6 10 3 11
REMARK H PARENT
REMARK Flexibility Score: inf
ROOT
ATOM      1  C   UNL     1      22.794  18.667  28.875  1.00  0.00     0.042 C 
ATOM      2  C   UNL     1      21.874  18.235  30.038  1.00  0.00     0.066 C 
ATOM      3  C   UNL     1      22.722  17.639  31.228  1.00  0.00     0.021 C 
ATOM      4  C   UNL     1      21.749  17.177  32.340  1.00  0.00     0.009 C 
ATOM      5  C   UNL     1      20.669  16.257  31.720  1.00  0.00     0.035 C 
ATOM      6  C   UNL     1      20.973  16.030  30.211  1.00  0.00     0.066 C 
ATOM      7  O   UNL     1      20.928  17.284  29.530  1.00  0.00    -0.369 OA
ATOM      8  C   UNL     1      22.398  15.421  30.068  1.00  0.00     0.035 C 
ATOM      9  C   UNL     1      23.437  16.361  30.726  1.00  0.00     0.009 C 
ATOM     10  C   UNL     1      19.929  15.094  29.593  1.00  0.00     0.042 C 
ATOM     11  C   UNL     1      21.096  19.488  30.498  1.00  0.00     0.042 C 
ENDROOT
TORSDOF 0
ENDMDL
MODEL 3
REMARK VINA RESULT:    -2.543      1.316      3.026
REMARK INTER + INTRA:          -2.543
REMARK INTER:                  -2.543
REMARK INTRA:                   0.000
REMARK UNBOUND:                 0.000
REMARK SMILES CC1(C)O[C@]2(C)CC[C@H]1CC2
REMARK SMILES IDX 1 1 2 2 9 3 10 4 11 5 5 6 4 7 7 8 8 9 6 10 3 11
REMARK H PARENT
REMARK Flexibility Score: inf
ROOT
ATOM      1  C   UNL     1      21.750  20.039  29.935  1.00  0.00     0.042 C 
ATOM      2  C   UNL     1      21.457  18.525  29.853  1.00  0.00     0.066 C 
ATOM      3  C   UNL     1      21.097  17.949  31.277  1.00  0.00     0.021 C 
ATOM      4  C   UNL     1      20.864  16.424  31.144  1.00  0.00     0.009 C 
ATOM      5  C   UNL     1      22.073  15.788  30.417  1.00  0.00     0.035 C 
ATOM      6  C   UNL     1      23.156  16.872  30.145  1.00  0.00     0.066 C 
ATOM      7  O   UNL     1      22.608  17.877  29.293  1.00  0.00    -0.369 OA
ATOM      8  C   UNL     1      23.574  17.519  31.497  1.00  0.00     0.035 C 
ATOM      9  C   UNL     1      22.329  18.116  32.199  1.00  0.00     0.009 C 
ATOM     10  C   UNL     1      24.373  16.247  29.455  1.00  0.00     0.042 C 
ATOM     11  C   UNL     1      20.276  18.338  28.875  1.00  0.00     0.042 C 
ENDROOT
TORSDOF 0
ENDMDL
MODEL 4
REMARK VINA RESULT:    -2.535      1.146      2.340
REMARK INTER + INTRA:          -2.535
REMARK INTER:                  -2.535
REMARK INTRA:                   0.000
REMARK UNBOUND:                 0.000
REMARK SMILES CC1(C)O[C@]2(C)CC[C@H]1CC2
REMARK SMILES IDX 1 1 2 2 9 3 10 4 11 5 5 6 4 7 7 8 8 9 6 10 3 11
REMARK H PARENT
REMARK Flexibility Score: inf
ROOT
ATOM      1  C   UNL     1      21.142  14.748  29.606  1.00  0.00     0.042 C 
ATOM      2  C   UNL     1      21.041  16.289  29.606  1.00  0.00     0.066 C 
ATOM      3  C   UNL     1      22.284  16.931  28.875  1.00  0.00     0.021 C 
ATOM      4  C   UNL     1      22.156  18.471  28.950  1.00  0.00     0.009 C 
ATOM      5  C   UNL     1      21.917  18.890  30.422  1.00  0.00     0.035 C 
ATOM      6  C   UNL     1      21.977  17.637  31.342  1.00  0.00     0.066 C 
ATOM      7  O   UNL     1      20.940  16.730  30.968  1.00  0.00    -0.369 OA
ATOM      8  C   UNL     1      23.357  16.940  31.159  1.00  0.00     0.035 C 
ATOM      9  C   UNL     1      23.561  16.567  29.671  1.00  0.00     0.009 C 
ATOM     10  C   UNL     1      21.776  18.042  32.806  1.00  0.00     0.042 C 
ATOM     11  C   UNL     1      19.729  16.664  28.882  1.00  0.00     0.042 C 
ENDROOT
TORSDOF 0
ENDMDL
MODEL 5
REMARK VINA RESULT:    -2.162      1.226      2.133
REMARK INTER + INTRA:          -2.162
REMARK INTER:                  -2.162
REMARK INTRA:                   0.000
REMARK UNBOUND:                 0.000
REMARK SMILES CC1(C)O[C@]2(C)CC[C@H]1CC2
REMARK SMILES IDX 1 1 2 2 9 3 10 4 11 5 5 6 4 7 7 8 8 9 6 10 3 11
REMARK H PARENT
REMARK Flexibility Score: inf
ROOT
ATOM      1  C   UNL     1      21.861  15.564  29.144  1.00  0.00     0.042 C 
ATOM      2  C   UNL     1      22.671  16.672  29.852  1.00  0.00     0.066 C 
ATOM      3  C   UNL     1      22.501  16.573  31.417  1.00  0.00     0.021 C 
ATOM      4  C   UNL     1      23.290  17.733  32.070  1.00  0.00     0.009 C 
ATOM      5  C   UNL     1      22.873  19.068  31.405  1.00  0.00     0.035 C 
ATOM      6  C   UNL     1      21.740  18.809  30.370  1.00  0.00     0.066 C 
ATOM      7  O   UNL     1      22.228  17.940  29.348  1.00  0.00    -0.369 OA
ATOM      8  C   UNL     1      20.542  18.129  31.092  1.00  0.00     0.035 C 
ATOM      9  C   UNL     1      21.012  16.817  31.765  1.00  0.00     0.009 C 
ATOM     10  C   UNL     1      21.296  20.128  29.728  1.00  0.00     0.042 C 
ATOM     11  C   UNL     1      24.151  16.486  29.451  1.00  0.00     0.042 C 
ENDROOT
TORSDOF 0
ENDMDL
MODEL 6
REMARK VINA RESULT:    -1.971      1.243      3.238
REMARK INTER + INTRA:          -1.971
REMARK INTER:                  -1.971
REMARK INTRA:                   0.000
REMARK UNBOUND:                 0.000
REMARK SMILES CC1(C)O[C@]2(C)CC[C@H]1CC2
REMARK SMILES IDX 1 1 2 2 9 3 10 4 11 5 5 6 4 7 7 8 8 9 6 10 3 11
REMARK H PARENT
REMARK Flexibility Score: inf
ROOT
ATOM      1  C   UNL     1      21.364  19.473  30.980  1.00  0.00     0.042 C 
ATOM      2  C   UNL     1      21.917  18.068  31.308  1.00  0.00     0.066 C 
ATOM      3  C   UNL     1      23.057  17.666  30.294  1.00  0.00     0.021 C 
ATOM      4  C   UNL     1      23.536  16.235  30.637  1.00  0.00     0.009 C 
ATOM      5  C   UNL     1      22.309  15.295  30.719  1.00  0.00     0.035 C 
ATOM      6  C   UNL     1      21.019  16.078  30.340  1.00  0.00     0.066 C 
ATOM      7  O   UNL     1      20.824  17.139  31.274  1.00  0.00    -0.369 OA
ATOM      8  C   UNL     1      21.191  16.676  28.914  1.00  0.00     0.035 C 
ATOM      9  C   UNL     1      22.443  17.585  28.875  1.00  0.00     0.009 C 
ATOM     10  C   UNL     1      19.801  15.149  30.385  1.00  0.00     0.042 C 
ATOM     11  C   UNL     1      22.463  18.115  32.752  1.00  0.00     0.042 C 
ENDROOT
TORSDOF 0
ENDMDL
MODEL 7
REMARK VINA RESULT:    -1.776      1.296      3.022
REMARK INTER + INTRA:          -1.776
REMARK INTER:                  -1.776
REMARK INTRA:                   0.000
REMARK UNBOUND:                 0.000
REMARK SMILES CC1(C)O[C@]2(C)CC[C@H]1CC2
REMARK SMILES IDX 1 1 2 2 9 3 10 4 11 5 5 6 4 7 7 8 8 9 6 10 3 11
REMARK H PARENT
REMARK Flexibility Score: inf
ROOT
ATOM      1  C   UNL     1      20.086  18.910  29.206  1.00  0.00     0.042 C 
ATOM      2  C   UNL     1      21.526  18.509  29.595  1.00  0.00     0.066 C 
ATOM      3  C   UNL     1      21.825  17.020  29.169  1.00  0.00     0.021 C 
ATOM      4  C   UNL     1      23.258  16.657  29.628  1.00  0.00     0.009 C 
ATOM      5  C   UNL     1      23.413  17.000  31.129  1.00  0.00     0.035 C 
ATOM      6  C   UNL     1      22.056  17.506  31.697  1.00  0.00     0.066 C 
ATOM      7  O   UNL     1      21.676  18.698  31.010  1.00  0.00    -0.369 OA
ATOM      8  C   UNL     1      20.972  16.414  31.465  1.00  0.00     0.035 C 
ATOM      9  C   UNL     1      20.874  16.086  29.956  1.00  0.00     0.009 C 
ATOM     10  C   UNL     1      22.187  17.818  33.192  1.00  0.00     0.042 C 
ATOM     11  C   UNL     1      22.485  19.484  28.876  1.00  0.00     0.042 C 
ENDROOT
TORSDOF 0
ENDMDL
