MODEL 1
REMARK VINA RESULT:    -4.558      0.000      0.000
REMARK INTER + INTRA:          -4.558
REMARK INTER:                  -4.558
REMARK INTRA:                   0.000
REMARK UNBOUND:                 0.000
REMARK SMILES CC1=CC(=O)[C@@H]2C[C@H]1C2(C)C
REMARK SMILES IDX 1 1 2 2 3 3 4 4 5 5 6 6 7 7 8 8 9 9 10 10 11 11
REMARK H PARENT
REMARK Flexibility Score: inf
ROOT
ATOM      1  C   UNL     1      -2.518  -0.110  25.520  1.00  0.00     0.040 C 
ATOM      2  C   UNL     1      -2.099   0.636  26.746  1.00  0.00    -0.066 C 
ATOM      3  C   UNL     1      -1.808   1.967  26.701  1.00  0.00     0.047 C 
ATOM      4  C   UNL     1      -1.430   2.607  28.003  1.00  0.00     0.159 C 
ATOM      5  O   UNL     1      -1.177   3.836  28.098  1.00  0.00    -0.295 OA
ATOM      6  C   UNL     1      -1.378   1.665  29.205  1.00  0.00     0.067 C 
ATOM      7  C   UNL     1      -0.610   0.430  28.684  1.00  0.00     0.021 C 
ATOM      8  C   UNL     1      -1.960  -0.062  28.116  1.00  0.00     0.022 C 
ATOM      9  C   UNL     1      -2.666   0.794  29.208  1.00  0.00    -0.019 C 
ATOM     10  C   UNL     1      -4.018   1.472  28.850  1.00  0.00     0.012 C 
ATOM     11  C   UNL     1      -2.850   0.017  30.537  1.00  0.00     0.012 C 
ENDROOT
TORSDOF 0
ENDMDL
MODEL 2
REMARK VINA RESULT:    -4.547      1.870      3.195
REMARK INTER + INTRA:          -4.547
REMARK INTER:                  -4.547
REMARK INTRA:                   0.000
REMARK UNBOUND:                 0.000
REMARK SMILES CC1=CC(=O)[C@@H]2C[C@H]1C2(C)C
REMARK SMILES IDX 1 1 2 2 3 3 4 4 5 5 6 6 7 7 8 8 9 9 10 10 11 11
REMARK H PARENT
REMARK Flexibility Score: inf
ROOT
ATOM      1  C   UNL     1      -4.792   1.348  29.608  1.00  0.00     0.040 C 
ATOM      2  C   UNL     1      -3.478   0.876  29.074  1.00  0.00    -0.066 C 
ATOM      3  C   UNL     1      -3.406   0.084  27.967  1.00  0.00     0.047 C 
ATOM      4  C   UNL     1      -2.029  -0.297  27.512  1.00  0.00     0.159 C 
ATOM      5  O   UNL     1      -1.831  -0.993  26.482  1.00  0.00    -0.295 OA
ATOM      6  C   UNL     1      -0.885   0.219  28.385  1.00  0.00     0.067 C 
ATOM      7  C   UNL     1      -1.348  -0.078  29.829  1.00  0.00     0.021 C 
ATOM      8  C   UNL     1      -2.142   1.246  29.754  1.00  0.00     0.022 C 
ATOM      9  C   UNL     1      -1.127   1.727  28.677  1.00  0.00    -0.019 C 
ATOM     10  C   UNL     1      -1.652   2.628  27.524  1.00  0.00     0.012 C 
ATOM     11  C   UNL     1       0.114   2.414  29.302  1.00  0.00     0.012 C 
ENDROOT
TORSDOF 0
ENDMDL
MODEL 3
REMARK VINA RESULT:    -4.455      1.268      3.048
REMARK INTER + INTRA:          -4.455
REMARK INTER:                  -4.455
REMARK INTRA:                   0.000
REMARK UNBOUND:                 0.000
REMARK SMILES CC1=CC(=O)[C@@H]2C[C@H]1C2(C)C
REMARK SMILES IDX 1 1 2 2 3 3 4 4 5 5 6 6 7 7 8 8 9 9 10 10 11 11
REMARK H PARENT
REMARK Flexibility Score: inf
ROOT
ATOM      1  C   UNL     1      -4.670  -0.403  30.035  1.00  0.00     0.040 C 
ATOM      2  C   UNL     1      -3.886   0.386  29.036  1.00  0.00    -0.066 C 
ATOM      3  C   UNL     1      -3.717   1.732  29.169  1.00  0.00     0.047 C 
ATOM      4  C   UNL     1      -2.885   2.404  28.119  1.00  0.00     0.159 C 
ATOM      5  O   UNL     1      -2.626   3.635  28.155  1.00  0.00    -0.295 OA
ATOM      6  C   UNL     1      -2.372   1.490  27.007  1.00  0.00     0.067 C 
ATOM      7  C   UNL     1      -3.604   0.646  26.613  1.00  0.00     0.021 C 
ATOM      8  C   UNL     1      -3.243  -0.277  27.799  1.00  0.00     0.022 C 
ATOM      9  C   UNL     1      -1.771   0.210  27.655  1.00  0.00    -0.019 C 
ATOM     10  C   UNL     1      -0.920   0.366  28.946  1.00  0.00     0.012 C 
ATOM     11  C   UNL     1      -0.965  -0.642  26.641  1.00  0.00     0.012 C 
ENDROOT
TORSDOF 0
ENDMDL
MODEL 4
REMARK VINA RESULT:    -4.434      1.667      3.293
REMARK INTER + INTRA:          -4.434
REMARK INTER:                  -4.434
REMARK INTRA:                   0.000
REMARK UNBOUND:                 0.000
REMARK SMILES CC1=CC(=O)[C@@H]2C[C@H]1C2(C)C
REMARK SMILES IDX 1 1 2 2 3 3 4 4 5 5 6 6 7 7 8 8 9 9 10 10 11 11
REMARK H PARENT
REMARK Flexibility Score: inf
ROOT
ATOM      1  C   UNL     1       0.125   2.915  29.820  1.00  0.00     0.040 C 
ATOM      2  C   UNL     1      -1.008   2.025  29.417  1.00  0.00    -0.066 C 
ATOM      3  C   UNL     1      -2.304   2.389  29.625  1.00  0.00     0.047 C 
ATOM      4  C   UNL     1      -3.348   1.425  29.149  1.00  0.00     0.159 C 
ATOM      5  O   UNL     1      -4.580   1.666  29.250  1.00  0.00    -0.295 OA
ATOM      6  C   UNL     1      -2.814   0.133  28.530  1.00  0.00     0.067 C 
ATOM      7  C   UNL     1      -1.709  -0.324  29.508  1.00  0.00     0.021 C 
ATOM      8  C   UNL     1      -0.767   0.648  28.762  1.00  0.00     0.022 C 
ATOM      9  C   UNL     1      -1.691   0.497  27.518  1.00  0.00    -0.019 C 
ATOM     10  C   UNL     1      -1.896   1.735  26.600  1.00  0.00     0.012 C 
ATOM     11  C   UNL     1      -1.288  -0.706  26.627  1.00  0.00     0.012 C 
ENDROOT
TORSDOF 0
ENDMDL
MODEL 5
REMARK VINA RESULT:    -4.421      1.828      3.023
REMARK INTER + INTRA:          -4.421
REMARK INTER:                  -4.421
REMARK INTRA:                   0.000
REMARK UNBOUND:                 0.000
REMARK SMILES CC1=CC(=O)[C@@H]2C[C@H]1C2(C)C
REMARK SMILES IDX 1 1 2 2 3 3 4 4 5 5 6 6 7 7 8 8 9 9 10 10 11 11
REMARK H PARENT
REMARK Flexibility Score: inf
ROOT
ATOM      1  C   UNL     1      -2.139  -0.378  25.871  1.00  0.00     0.040 C 
ATOM      2  C   UNL     1      -2.392   0.289  27.185  1.00  0.00    -0.066 C 
ATOM      3  C   UNL     1      -2.995  -0.374  28.212  1.00  0.00     0.047 C 
ATOM      4  C   UNL     1      -3.164   0.394  29.488  1.00  0.00     0.159 C 
ATOM      5  O   UNL     1      -3.671  -0.121  30.519  1.00  0.00    -0.295 OA
ATOM      6  C   UNL     1      -2.677   1.843  29.451  1.00  0.00     0.067 C 
ATOM      7  C   UNL     1      -3.235   2.394  28.120  1.00  0.00     0.021 C 
ATOM      8  C   UNL     1      -2.001   1.761  27.439  1.00  0.00     0.022 C 
ATOM      9  C   UNL     1      -1.262   1.872  28.805  1.00  0.00    -0.019 C 
ATOM     10  C   UNL     1      -0.252   0.754  29.187  1.00  0.00     0.012 C 
ATOM     11  C   UNL     1      -0.560   3.243  28.985  1.00  0.00     0.012 C 
ENDROOT
TORSDOF 0
ENDMDL
MODEL 6
REMARK VINA RESULT:    -4.369     15.648     16.855
REMARK INTER + INTRA:          -4.369
REMARK INTER:                  -4.369
REMARK INTRA:                   0.000
REMARK UNBOUND:                 0.000
REMARK SMILES CC1=CC(=O)[C@@H]2C[C@H]1C2(C)C
REMARK SMILES IDX 1 1 2 2 3 3 4 4 5 5 6 6 7 7 8 8 9 9 10 10 11 11
REMARK H PARENT
REMARK Flexibility Score: inf
ROOT
ATOM      1  C   UNL     1     -12.517   8.550  16.876  1.00  0.00     0.040 C 
ATOM      2  C   UNL     1     -12.452   9.635  17.903  1.00  0.00    -0.066 C 
ATOM      3  C   UNL     1     -13.015   9.481  19.134  1.00  0.00     0.047 C 
ATOM      4  C   UNL     1     -12.855  10.629  20.085  1.00  0.00     0.159 C 
ATOM      5  O   UNL     1     -13.296  10.591  21.263  1.00  0.00    -0.295 OA
ATOM      6  C   UNL     1     -12.117  11.845  19.525  1.00  0.00     0.067 C 
ATOM      7  C   UNL     1     -12.748  12.059  18.131  1.00  0.00     0.021 C 
ATOM      8  C   UNL     1     -11.762  10.986  17.616  1.00  0.00     0.022 C 
ATOM      9  C   UNL     1     -10.829  11.354  18.806  1.00  0.00    -0.019 C 
ATOM     10  C   UNL     1     -10.000  10.218  19.468  1.00  0.00     0.012 C 
ATOM     11  C   UNL     1      -9.866  12.520  18.461  1.00  0.00     0.012 C 
ENDROOT
TORSDOF 0
ENDMDL
MODEL 7
REMARK VINA RESULT:    -4.360      1.482      2.004
REMARK INTER + INTRA:          -4.360
REMARK INTER:                  -4.360
REMARK INTRA:                   0.000
REMARK UNBOUND:                 0.000
REMARK SMILES CC1=CC(=O)[C@@H]2C[C@H]1C2(C)C
REMARK SMILES IDX 1 1 2 2 3 3 4 4 5 5 6 6 7 7 8 8 9 9 10 10 11 11
REMARK H PARENT
REMARK Flexibility Score: inf
ROOT
ATOM      1  C   UNL     1      -1.580  -0.691  26.634  1.00  0.00     0.040 C 
ATOM      2  C   UNL     1      -1.706   0.010  27.949  1.00  0.00    -0.066 C 
ATOM      3  C   UNL     1      -0.678   0.740  28.465  1.00  0.00     0.047 C 
ATOM      4  C   UNL     1      -0.939   1.421  29.774  1.00  0.00     0.159 C 
ATOM      5  O   UNL     1      -0.081   2.154  30.332  1.00  0.00    -0.295 OA
ATOM      6  C   UNL     1      -2.319   1.166  30.381  1.00  0.00     0.067 C 
ATOM      7  C   UNL     1      -2.520  -0.358  30.233  1.00  0.00     0.021 C 
ATOM      8  C   UNL     1      -2.997  -0.068  28.792  1.00  0.00     0.022 C 
ATOM      9  C   UNL     1      -3.391   1.360  29.272  1.00  0.00    -0.019 C 
ATOM     10  C   UNL     1      -3.219   2.542  28.276  1.00  0.00     0.012 C 
ATOM     11  C   UNL     1      -4.830   1.413  29.845  1.00  0.00     0.012 C 
ENDROOT
TORSDOF 0
ENDMDL
MODEL 8
REMARK VINA RESULT:    -4.357     15.439     16.628
REMARK INTER + INTRA:          -4.357
REMARK INTER:                  -4.357
REMARK INTRA:                   0.000
REMARK UNBOUND:                 0.000
REMARK SMILES CC1=CC(=O)[C@@H]2C[C@H]1C2(C)C
REMARK SMILES IDX 1 1 2 2 3 3 4 4 5 5 6 6 7 7 8 8 9 9 10 10 11 11
REMARK H PARENT
REMARK Flexibility Score: inf
ROOT
ATOM      1  C   UNL     1      -9.606  12.571  18.432  1.00  0.00     0.040 C 
ATOM      2  C   UNL     1     -10.694  11.627  18.836  1.00  0.00    -0.066 C 
ATOM      3  C   UNL     1     -11.836  12.074  19.429  1.00  0.00     0.047 C 
ATOM      4  C   UNL     1     -12.864  11.034  19.757  1.00  0.00     0.159 C 
ATOM      5  O   UNL     1     -13.975  11.326  20.271  1.00  0.00    -0.295 OA
ATOM      6  C   UNL     1     -12.469   9.595  19.422  1.00  0.00     0.067 C 
ATOM      7  C   UNL     1     -11.023   9.468  19.950  1.00  0.00     0.021 C 
ATOM      8  C   UNL     1     -10.572  10.104  18.616  1.00  0.00     0.022 C 
ATOM      9  C   UNL     1     -11.887   9.565  17.980  1.00  0.00    -0.019 C 
ATOM     10  C   UNL     1     -12.579  10.424  16.885  1.00  0.00     0.012 C 
ATOM     11  C   UNL     1     -11.730   8.121  17.438  1.00  0.00     0.012 C 
ENDROOT
TORSDOF 0
ENDMDL
MODEL 9
REMARK VINA RESULT:    -2.613      2.140      3.502
REMARK INTER + INTRA:          -2.613
REMARK INTER:                  -2.613
REMARK INTRA:                   0.000
REMARK UNBOUND:                 0.000
REMARK SMILES CC1=CC(=O)[C@@H]2C[C@H]1C2(C)C
REMARK SMILES IDX 1 1 2 2 3 3 4 4 5 5 6 6 7 7 8 8 9 9 10 10 11 11
REMARK H PARENT
REMARK Flexibility Score: inf
ROOT
ATOM      1  C   UNL     1       0.125   1.871  29.417  1.00  0.00     0.040 C 
ATOM      2  C   UNL     1      -1.092   1.097  29.021  1.00  0.00    -0.066 C 
ATOM      3  C   UNL     1      -1.814   0.393  29.938  1.00  0.00     0.047 C 
ATOM      4  C   UNL     1      -3.029  -0.315  29.422  1.00  0.00     0.159 C 
ATOM      5  O   UNL     1      -3.798  -0.966  30.177  1.00  0.00    -0.295 OA
ATOM      6  C   UNL     1      -3.271  -0.190  27.918  1.00  0.00     0.067 C 
ATOM      7  C   UNL     1      -1.884  -0.449  27.290  1.00  0.00     0.021 C 
ATOM      8  C   UNL     1      -1.580   1.042  27.558  1.00  0.00     0.022 C 
ATOM      9  C   UNL     1      -3.115   1.303  27.514  1.00  0.00    -0.019 C 
ATOM     10  C   UNL     1      -3.702   2.390  28.457  1.00  0.00     0.012 C 
ATOM     11  C   UNL     1      -3.624   1.582  26.076  1.00  0.00     0.012 C 
ENDROOT
TORSDOF 0
ENDMDL
