MODEL 1
REMARK VINA RESULT:    -0.447      0.000      0.000
REMARK INTER + INTRA:          -0.610
REMARK INTER:                  -0.552
REMARK INTRA:                  -0.058
REMARK UNBOUND:                -0.058
REMARK SMILES CCCCCC=O
REMARK SMILES IDX 4 1 3 2 2 3 1 4 5 5 6 6 7 7
REMARK H PARENT
REMARK Flexibility Score: inf
ROOT
ATOM      1  C   UNL     1      15.869  53.367  61.463  1.00  0.00     0.008 C 
ENDROOT
BRANCH   1   2
ATOM      2  C   UNL     1      15.139  54.711  61.287  1.00  0.00     0.000 C 
BRANCH   2   3
ATOM      3  C   UNL     1      14.355  55.123  62.543  1.00  0.00    -0.003 C 
ATOM      4  C   UNL     1      15.219  55.125  63.804  1.00  0.00     0.004 C 
ENDBRANCH   2   3
ENDBRANCH   1   2
BRANCH   1   5
ATOM      5  C   UNL     1      15.835  52.521  60.181  1.00  0.00     0.072 C 
BRANCH   5   6
ATOM      6  C   UNL     1      15.859  51.048  60.469  1.00  0.00     0.224 C 
ATOM      7  O   UNL     1      15.136  50.585  61.336  1.00  0.00    -0.303 OA
ENDBRANCH   5   6
ENDBRANCH   1   5
TORSDOF 4
ENDMDL
MODEL 2
REMARK VINA RESULT:    -0.116      2.014      4.019
REMARK INTER + INTRA:          -0.201
REMARK INTER:                  -0.135
REMARK INTRA:                  -0.066
REMARK UNBOUND:                -0.058
REMARK SMILES CCCCCC=O
REMARK SMILES IDX 4 1 3 2 2 3 1 4 5 5 6 6 7 7
REMARK H PARENT
REMARK Flexibility Score: inf
ROOT
ATOM      1  C   UNL     1      15.767  53.488  61.622  1.00  0.00     0.008 C 
ENDROOT
BRANCH   1   2
ATOM      2  C   UNL     1      15.605  52.894  60.212  1.00  0.00     0.000 C 
BRANCH   2   3
ATOM      3  C   UNL     1      15.880  51.383  60.175  1.00  0.00    -0.003 C 
ATOM      4  C   UNL     1      15.155  50.622  61.284  1.00  0.00     0.004 C 
ENDBRANCH   2   3
ENDBRANCH   1   2
BRANCH   1   5
ATOM      5  C   UNL     1      15.139  54.885  61.736  1.00  0.00     0.072 C 
BRANCH   5   6
ATOM      6  C   UNL     1      14.519  55.125  63.082  1.00  0.00     0.224 C 
ATOM      7  O   UNL     1      15.151  54.878  64.096  1.00  0.00    -0.303 OA
ENDBRANCH   5   6
ENDBRANCH   1   5
TORSDOF 4
ENDMDL
