MODEL 1
REMARK VINA RESULT:    -0.679      0.000      0.000
REMARK INTER + INTRA:           0.020
REMARK INTER:                  -0.837
REMARK INTRA:                   0.858
REMARK UNBOUND:                 0.858
REMARK SMILES C=C(CCC=C(C)C)[C@H]1CC=C(C)CC1
REMARK SMILES IDX 3 1 2 2 1 3 9 4 13 5 12 6 11 7 14 8 10 9 15 10 4 11 5 12
REMARK SMILES IDX 6 13 7 14 8 15
REMARK H PARENT
REMARK Flexibility Score: inf
ROOT
ATOM      1  C   UNL     1       4.001   7.117  12.871  1.00  0.00     0.035 C 
ENDROOT
BRANCH   1   2
ATOM      2  C   UNL     1       4.893   8.063  12.094  1.00  0.00    -0.074 C 
ATOM      3  C   UNL     1       4.465   8.572  10.924  1.00  0.00     0.008 C 
BRANCH   2   4
ATOM      4  C   UNL     1       6.243   8.456  12.678  1.00  0.00     0.018 C 
ATOM      5  C   UNL     1      10.234   8.534  14.469  1.00  0.00     0.039 C 
ATOM      6  C   UNL     1       8.876   8.355  13.846  1.00  0.00    -0.077 C 
ATOM      7  C   UNL     1       7.803   8.192  14.650  1.00  0.00    -0.027 C 
ATOM      8  C   UNL     1       8.737   8.494  12.342  1.00  0.00     0.031 C 
ATOM      9  C   UNL     1       6.410   7.953  14.123  1.00  0.00     0.035 C 
ATOM     10  C   UNL     1       7.406   7.950  11.810  1.00  0.00     0.013 C 
ENDBRANCH   2   4
ENDBRANCH   1   2
BRANCH   1  11
ATOM     11  C   UNL     1       4.275   5.649  12.513  1.00  0.00     0.032 C 
BRANCH  11  12
ATOM     12  C   UNL     1       5.692   5.429  12.035  1.00  0.00    -0.028 C 
ATOM     13  C   UNL     1       6.699   5.076  12.863  1.00  0.00    -0.080 C 
ATOM     14  C   UNL     1       8.090   4.875  12.318  1.00  0.00     0.039 C 
ATOM     15  C   UNL     1       6.476   4.876  14.341  1.00  0.00     0.039 C 
ENDBRANCH  11  12
ENDBRANCH   1  11
TORSDOF 4
ENDMDL
MODEL 2
REMARK VINA RESULT:    -0.336      1.686      5.641
REMARK INTER + INTRA:           0.443
REMARK INTER:                   0.838
REMARK INTRA:                  -0.395
REMARK UNBOUND:                 0.858
REMARK SMILES C=C(CCC=C(C)C)[C@H]1CC=C(C)CC1
REMARK SMILES IDX 3 1 2 2 1 3 9 4 13 5 12 6 11 7 14 8 10 9 15 10 4 11 5 12
REMARK SMILES IDX 6 13 7 14 8 15
REMARK H PARENT
REMARK Flexibility Score: inf
ROOT
ATOM      1  C   UNL     1       9.025   8.234  14.496  1.00  0.00     0.035 C 
ENDROOT
BRANCH   1   2
ATOM      2  C   UNL     1       8.207   8.056  13.234  1.00  0.00    -0.074 C 
ATOM      3  C   UNL     1       8.643   8.589  12.077  1.00  0.00     0.008 C 
BRANCH   2   4
ATOM      4  C   UNL     1       6.925   7.238  13.291  1.00  0.00     0.018 C 
ATOM      5  C   UNL     1       3.353   4.875  12.396  1.00  0.00     0.039 C 
ATOM      6  C   UNL     1       4.617   5.674  12.555  1.00  0.00    -0.077 C 
ATOM      7  C   UNL     1       4.567   7.016  12.404  1.00  0.00    -0.027 C 
ATOM      8  C   UNL     1       5.878   4.966  13.011  1.00  0.00     0.031 C 
ATOM      9  C   UNL     1       5.788   7.899  12.490  1.00  0.00     0.035 C 
ATOM     10  C   UNL     1       7.146   5.800  12.794  1.00  0.00     0.013 C 
ENDBRANCH   2   4
ENDBRANCH   1   2
BRANCH   1  11
ATOM     11  C   UNL     1      10.533   8.248  14.205  1.00  0.00     0.032 C 
BRANCH  11  12
ATOM     12  C   UNL     1      11.338   8.773  15.370  1.00  0.00    -0.028 C 
ATOM     13  C   UNL     1      12.630   8.439  15.579  1.00  0.00    -0.080 C 
ATOM     14  C   UNL     1      13.373   8.999  16.765  1.00  0.00     0.039 C 
ATOM     15  C   UNL     1      13.367   7.506  14.651  1.00  0.00     0.039 C 
ENDBRANCH  11  12
ENDBRANCH   1  11
TORSDOF 4
ENDMDL
