MODEL 1
REMARK VINA RESULT:    -2.350      0.000      0.000
REMARK INTER + INTRA:          -2.350
REMARK INTER:                  -2.350
REMARK INTRA:                   0.000
REMARK UNBOUND:                 0.000
REMARK SMILES CC(=O)[O-]
REMARK SMILES IDX 1 1 2 2 3 3 4 4
REMARK H PARENT
REMARK Flexibility Score: inf
ROOT
ATOM      1  C   UNL     1      18.091   1.778  13.969  1.00  0.00     0.063 C 
ATOM      2  C   UNL     1      18.740   1.229  15.194  1.00  0.00     0.038 C 
ATOM      3  O   UNL     1      19.477   1.964  15.903  1.00  0.00    -0.550 OA
ATOM      4  O   UNL     1      18.490  -0.080  15.587  1.00  0.00    -0.550 OA
ENDROOT
TORSDOF 0
ENDMDL
MODEL 2
REMARK VINA RESULT:    -2.307      4.417      4.780
REMARK INTER + INTRA:          -2.307
REMARK INTER:                  -2.307
REMARK INTRA:                   0.000
REMARK UNBOUND:                 0.000
REMARK SMILES CC(=O)[O-]
REMARK SMILES IDX 1 1 2 2 3 3 4 4
REMARK H PARENT
REMARK Flexibility Score: inf
ROOT
ATOM      1  C   UNL     1      16.500  -1.483  17.908  1.00  0.00     0.063 C 
ATOM      2  C   UNL     1      17.197  -0.812  19.043  1.00  0.00     0.038 C 
ATOM      3  O   UNL     1      18.342  -0.314  18.876  1.00  0.00    -0.550 OA
ATOM      4  O   UNL     1      16.563  -0.686  20.272  1.00  0.00    -0.550 OA
ENDROOT
TORSDOF 0
ENDMDL
MODEL 3
REMARK VINA RESULT:    -2.305     10.287     10.599
REMARK INTER + INTRA:          -2.305
REMARK INTER:                  -2.305
REMARK INTRA:                   0.000
REMARK UNBOUND:                 0.000
REMARK SMILES CC(=O)[O-]
REMARK SMILES IDX 1 1 2 2 3 3 4 4
REMARK H PARENT
REMARK Flexibility Score: inf
ROOT
ATOM      1  C   UNL     1      13.469   4.120  24.145  1.00  0.00     0.063 C 
ATOM      2  C   UNL     1      14.542   5.135  23.939  1.00  0.00     0.038 C 
ATOM      3  O   UNL     1      14.241   6.329  23.678  1.00  0.00    -0.550 OA
ATOM      4  O   UNL     1      15.876   4.778  24.089  1.00  0.00    -0.550 OA
ENDROOT
TORSDOF 0
ENDMDL
MODEL 4
REMARK VINA RESULT:    -2.298      7.591      7.852
REMARK INTER + INTRA:          -2.298
REMARK INTER:                  -2.298
REMARK INTRA:                   0.000
REMARK UNBOUND:                 0.000
REMARK SMILES CC(=O)[O-]
REMARK SMILES IDX 1 1 2 2 3 3 4 4
REMARK H PARENT
REMARK Flexibility Score: inf
ROOT
ATOM      1  C   UNL     1      15.789   0.356  21.523  1.00  0.00     0.063 C 
ATOM      2  C   UNL     1      16.365   1.270  22.551  1.00  0.00     0.038 C 
ATOM      3  O   UNL     1      17.537   1.712  22.419  1.00  0.00    -0.550 OA
ATOM      4  O   UNL     1      15.592   1.677  23.630  1.00  0.00    -0.550 OA
ENDROOT
TORSDOF 0
ENDMDL
MODEL 5
REMARK VINA RESULT:    -2.288      7.504      7.831
REMARK INTER + INTRA:          -2.288
REMARK INTER:                  -2.288
REMARK INTRA:                   0.000
REMARK UNBOUND:                 0.000
REMARK SMILES CC(=O)[O-]
REMARK SMILES IDX 1 1 2 2 3 3 4 4
REMARK H PARENT
REMARK Flexibility Score: inf
ROOT
ATOM      1  C   UNL     1      15.834   0.195  21.567  1.00  0.00     0.063 C 
ATOM      2  C   UNL     1      16.364   1.237  22.492  1.00  0.00     0.038 C 
ATOM      3  O   UNL     1      15.695   1.589  23.498  1.00  0.00    -0.550 OA
ATOM      4  O   UNL     1      17.623   1.783  22.275  1.00  0.00    -0.550 OA
ENDROOT
TORSDOF 0
ENDMDL
MODEL 6
REMARK VINA RESULT:    -2.284      7.646      7.923
REMARK INTER + INTRA:          -2.284
REMARK INTER:                  -2.284
REMARK INTRA:                   0.000
REMARK UNBOUND:                 0.000
REMARK SMILES CC(=O)[O-]
REMARK SMILES IDX 1 1 2 2 3 3 4 4
REMARK H PARENT
REMARK Flexibility Score: inf
ROOT
ATOM      1  C   UNL     1      16.411   9.463  15.177  1.00  0.00     0.063 C 
ATOM      2  C   UNL     1      17.769   8.876  14.985  1.00  0.00     0.038 C 
ATOM      3  O   UNL     1      18.105   8.412  13.864  1.00  0.00    -0.550 OA
ATOM      4  O   UNL     1      18.685   8.888  16.029  1.00  0.00    -0.550 OA
ENDROOT
TORSDOF 0
ENDMDL
MODEL 7
REMARK VINA RESULT:    -2.248     10.701     11.053
REMARK INTER + INTRA:          -2.248
REMARK INTER:                  -2.248
REMARK INTRA:                   0.000
REMARK UNBOUND:                 0.000
REMARK SMILES CC(=O)[O-]
REMARK SMILES IDX 1 1 2 2 3 3 4 4
REMARK H PARENT
REMARK Flexibility Score: inf
ROOT
ATOM      1  C   UNL     1      14.166   8.207  22.524  1.00  0.00     0.063 C 
ATOM      2  C   UNL     1      15.320   9.019  22.041  1.00  0.00     0.038 C 
ATOM      3  O   UNL     1      15.124  10.148  21.520  1.00  0.00    -0.550 OA
ATOM      4  O   UNL     1      16.618   8.556  22.215  1.00  0.00    -0.550 OA
ENDROOT
TORSDOF 0
ENDMDL
MODEL 8
REMARK VINA RESULT:    -2.216     10.173     10.440
REMARK INTER + INTRA:          -2.216
REMARK INTER:                  -2.216
REMARK INTRA:                   0.000
REMARK UNBOUND:                 0.000
REMARK SMILES CC(=O)[O-]
REMARK SMILES IDX 1 1 2 2 3 3 4 4
REMARK H PARENT
REMARK Flexibility Score: inf
ROOT
ATOM      1  C   UNL     1      13.070   3.040  24.887  1.00  0.00     0.063 C 
ATOM      2  C   UNL     1      13.660   1.951  24.056  1.00  0.00     0.038 C 
ATOM      3  O   UNL     1      12.972   1.399  23.158  1.00  0.00    -0.550 OA
ATOM      4  O   UNL     1      14.987   1.581  24.235  1.00  0.00    -0.550 OA
ENDROOT
TORSDOF 0
ENDMDL
MODEL 9
REMARK VINA RESULT:    -2.209     11.570     11.976
REMARK INTER + INTRA:          -2.209
REMARK INTER:                  -2.209
REMARK INTRA:                   0.000
REMARK UNBOUND:                 0.000
REMARK SMILES CC(=O)[O-]
REMARK SMILES IDX 1 1 2 2 3 3 4 4
REMARK H PARENT
REMARK Flexibility Score: inf
ROOT
ATOM      1  C   UNL     1      13.050   9.559  20.353  1.00  0.00     0.063 C 
ATOM      2  C   UNL     1      14.047  10.593  20.754  1.00  0.00     0.038 C 
ATOM      3  O   UNL     1      15.034  10.276  21.469  1.00  0.00    -0.550 OA
ATOM      4  O   UNL     1      13.919  11.898  20.295  1.00  0.00    -0.550 OA
ENDROOT
TORSDOF 0
ENDMDL
