MODEL 1
REMARK VINA RESULT:    -3.283      0.000      0.000
REMARK INTER + INTRA:          -4.289
REMARK INTER:                  -4.626
REMARK INTRA:                   0.337
REMARK UNBOUND:                 0.337
REMARK SMILES CC1=CCC(=C(C)C)C(=O)CC(C)=CCC1
REMARK SMILES IDX 12 1 14 2 13 3 15 4 16 5 2 6 1 7 3 8 11 10 9 11 10 12 5 13
REMARK SMILES IDX 6 14 7 15 8 16 4 17
REMARK H PARENT
REMARK Flexibility Score: 60.00
ROOT
ATOM      1  C   UNL     1    -122.908 -99.507   4.710  1.00  0.00    -0.070 C 
ATOM      2  C   UNL     1    -124.255 -99.399   4.642  1.00  0.00    -0.027 C 
ATOM      3  C   UNL     1    -122.170 -98.611   5.672  1.00  0.00     0.039 C 
ENDROOT
BRANCH   2   4
ATOM      4  C   UNL     1    -125.145-100.172   3.695  1.00  0.00     0.032 C 
BRANCH   4   5
ATOM      5  C   UNL     1    -125.260 -99.475   2.331  1.00  0.00     0.034 C 
BRANCH   5   6
ATOM      6  C   UNL     1    -125.231-100.437   1.152  1.00  0.00    -0.077 C 
ATOM      7  C   UNL     1    -126.440-101.297   0.884  1.00  0.00     0.039 C 
ATOM      8  C   UNL     1    -124.163-100.579   0.334  1.00  0.00    -0.023 CG0
ATOM      9  G   UNL     1    -122.894 -99.761   0.400  1.00  0.00     0.000 G0
ENDBRANCH   5   6
ENDBRANCH   4   5
ENDBRANCH   2   4
BRANCH   1  10
ATOM     10  C   UNL     1    -122.115-100.489   3.867  1.00  0.00     0.111 C 
BRANCH  10  11
ATOM     11  C   UNL     1    -121.569 -99.825   2.634  1.00  0.00     0.163 C 
ATOM     12  O   UNL     1    -120.917 -98.751   2.747  1.00  0.00    -0.294 OA
BRANCH  11  13
ATOM     13  C   UNL     1    -121.802-100.396   1.283  1.00  0.00    -0.002 C 
ATOM     14  C   UNL     1    -121.067-101.455   0.849  1.00  0.00    -0.069 C 
ATOM     15  C   UNL     1    -119.939-102.018   1.684  1.00  0.00     0.039 C 
ATOM     16  C   UNL     1    -121.326-102.083  -0.501  1.00  0.00     0.039 C 
BRANCH  13  17
ATOM     17  C   UNL     1    -122.873 -99.777   0.390  1.00  0.00     0.066 CG0
ATOM     18  G   UNL     1    -124.159-100.570   0.343  1.00  0.00     0.000 G0
ENDBRANCH  13  17
ENDBRANCH  11  13
ENDBRANCH  10  11
ENDBRANCH   1  10
TORSDOF 0
ENDMDL
MODEL 2
REMARK VINA RESULT:    -3.072      3.908      6.425
REMARK INTER + INTRA:          -3.992
REMARK INTER:                  -4.426
REMARK INTRA:                   0.434
REMARK UNBOUND:                 0.337
REMARK SMILES CC1=CCC(=C(C)C)C(=O)CC(C)=CCC1
REMARK SMILES IDX 12 1 14 2 13 3 15 4 16 5 2 6 1 7 3 8 11 10 9 11 10 12 5 13
REMARK SMILES IDX 6 14 7 15 8 16 4 17
REMARK H PARENT
REMARK Flexibility Score: 60.00
ROOT
ATOM      1  C   UNL     1    -116.599-100.390   0.063  1.00  0.00    -0.070 C 
ATOM      2  C   UNL     1    -116.022 -99.244   0.494  1.00  0.00    -0.027 C 
ATOM      3  C   UNL     1    -116.095-101.000  -1.220  1.00  0.00     0.039 C 
ENDROOT
BRANCH   2   4
ATOM      4  C   UNL     1    -116.440 -98.466   1.721  1.00  0.00     0.032 C 
BRANCH   4   5
ATOM      5  C   UNL     1    -116.970 -97.071   1.354  1.00  0.00     0.034 C 
BRANCH   5   6
ATOM      6  C   UNL     1    -117.977 -97.084   0.213  1.00  0.00    -0.077 C 
ATOM      7  C   UNL     1    -117.587 -96.471  -1.108  1.00  0.00     0.039 C 
ATOM      8  C   UNL     1    -119.221 -97.604   0.324  1.00  0.00    -0.023 CG0
ATOM      9  G   UNL     1    -119.766 -98.319   1.539  1.00  0.00     0.000 G0
ENDBRANCH   5   6
ENDBRANCH   4   5
ENDBRANCH   2   4
BRANCH   1  10
ATOM     10  C   UNL     1    -117.720-101.084   0.814  1.00  0.00     0.111 C 
BRANCH  10  11
ATOM     11  C   UNL     1    -119.062-100.547   0.400  1.00  0.00     0.163 C 
ATOM     12  O   UNL     1    -119.440-100.683  -0.795  1.00  0.00    -0.294 OA
BRANCH  11  13
ATOM     13  C   UNL     1    -119.941 -99.839   1.366  1.00  0.00    -0.002 C 
ATOM     14  C   UNL     1    -120.865-100.529   2.086  1.00  0.00    -0.069 C 
ATOM     15  C   UNL     1    -121.088-102.008   1.861  1.00  0.00     0.039 C 
ATOM     16  C   UNL     1    -121.732 -99.834   3.111  1.00  0.00     0.039 C 
BRANCH  13  17
ATOM     17  C   UNL     1    -119.793 -98.330   1.535  1.00  0.00     0.066 CG0
ATOM     18  G   UNL     1    -119.227 -97.633   0.319  1.00  0.00     0.000 G0
ENDBRANCH  13  17
ENDBRANCH  11  13
ENDBRANCH  10  11
ENDBRANCH   1  10
TORSDOF 0
ENDMDL
MODEL 3
REMARK VINA RESULT:    -3.015      1.883      5.088
REMARK INTER + INTRA:          -3.911
REMARK INTER:                  -4.423
REMARK INTRA:                   0.512
REMARK UNBOUND:                 0.337
REMARK SMILES CC1=CCC(=C(C)C)C(=O)CC(C)=CCC1
REMARK SMILES IDX 12 1 14 2 13 3 15 4 16 5 2 6 1 7 3 8 11 10 9 11 10 12 5 13
REMARK SMILES IDX 6 14 7 15 8 16 4 17
REMARK H PARENT
REMARK Flexibility Score: 60.00
ROOT
ATOM      1  C   UNL     1    -122.938-101.778  -0.279  1.00  0.00    -0.070 C 
ATOM      2  C   UNL     1    -121.695-102.305  -0.384  1.00  0.00    -0.027 C 
ATOM      3  C   UNL     1    -123.623-101.317  -1.539  1.00  0.00     0.039 C 
ENDROOT
BRANCH   2   4
ATOM      4  C   UNL     1    -120.840-102.760   0.777  1.00  0.00     0.032 C 
BRANCH   4   5
ATOM      5  C   UNL     1    -119.598-101.873   0.948  1.00  0.00     0.034 C 
BRANCH   5   6
ATOM      6  C   UNL     1    -119.882-100.388   0.769  1.00  0.00    -0.077 C 
ATOM      7  C   UNL     1    -119.395 -99.699  -0.480  1.00  0.00     0.039 C 
ATOM      8  C   UNL     1    -120.538 -99.640   1.687  1.00  0.00    -0.023 CG0
ATOM      9  G   UNL     1    -121.159-100.164   2.961  1.00  0.00     0.000 G0
ENDBRANCH   5   6
ENDBRANCH   4   5
ENDBRANCH   2   4
BRANCH   1  10
ATOM     10  C   UNL     1    -123.666-101.639   1.045  1.00  0.00     0.111 C 
BRANCH  10  11
ATOM     11  C   UNL     1    -123.424-100.287   1.656  1.00  0.00     0.163 C 
ATOM     12  O   UNL     1    -123.820 -99.255   1.050  1.00  0.00    -0.294 OA
BRANCH  11  13
ATOM     13  C   UNL     1    -122.706-100.142   2.948  1.00  0.00    -0.002 C 
ATOM     14  C   UNL     1    -123.402 -99.976   4.105  1.00  0.00    -0.069 C 
ATOM     15  C   UNL     1    -124.908 -99.842   4.099  1.00  0.00     0.039 C 
ATOM     16  C   UNL     1    -122.691 -99.879   5.435  1.00  0.00     0.039 C 
BRANCH  13  17
ATOM     17  C   UNL     1    -121.181-100.179   2.958  1.00  0.00     0.066 CG0
ATOM     18  G   UNL     1    -120.550 -99.645   1.693  1.00  0.00     0.000 G0
ENDBRANCH  13  17
ENDBRANCH  11  13
ENDBRANCH  10  11
ENDBRANCH   1  10
TORSDOF 0
ENDMDL
MODEL 4
REMARK VINA RESULT:    -2.954      3.045      5.653
REMARK INTER + INTRA:          -3.827
REMARK INTER:                  -4.283
REMARK INTRA:                   0.456
REMARK UNBOUND:                 0.337
REMARK SMILES CC1=CCC(=C(C)C)C(=O)CC(C)=CCC1
REMARK SMILES IDX 12 1 14 2 13 3 15 4 16 5 2 6 1 7 3 8 11 10 9 11 10 12 5 13
REMARK SMILES IDX 6 14 7 15 8 16 4 17
REMARK H PARENT
REMARK Flexibility Score: 60.00
ROOT
ATOM      1  C   UNL     1    -118.827 -97.772   1.093  1.00  0.00    -0.070 C 
ATOM      2  C   UNL     1    -117.487 -97.958   1.057  1.00  0.00    -0.027 C 
ATOM      3  C   UNL     1    -119.354 -96.536   1.777  1.00  0.00     0.039 C 
ENDROOT
BRANCH   2   4
ATOM      4  C   UNL     1    -116.791 -99.165   0.469  1.00  0.00     0.032 C 
BRANCH   4   5
ATOM      5  C   UNL     1    -117.069-100.434   1.288  1.00  0.00     0.034 C 
BRANCH   5   6
ATOM      6  C   UNL     1    -117.485-101.627   0.439  1.00  0.00    -0.077 C 
ATOM      7  C   UNL     1    -116.568-102.089  -0.665  1.00  0.00     0.039 C 
ATOM      8  C   UNL     1    -118.651-102.292   0.610  1.00  0.00    -0.023 CG0
ATOM      9  G   UNL     1    -119.661-102.022   1.701  1.00  0.00     0.000 G0
ENDBRANCH   5   6
ENDBRANCH   4   5
ENDBRANCH   2   4
BRANCH   1  10
ATOM     10  C   UNL     1    -119.813 -98.744   0.474  1.00  0.00     0.111 C 
BRANCH  10  11
ATOM     11  C   UNL     1    -120.493 -99.571   1.531  1.00  0.00     0.163 C 
ATOM     12  O   UNL     1    -120.828 -99.030   2.618  1.00  0.00    -0.294 OA
BRANCH  11  13
ATOM     13  C   UNL     1    -120.755-101.019   1.327  1.00  0.00    -0.002 C 
ATOM     14  C   UNL     1    -121.944-101.435   0.813  1.00  0.00    -0.069 C 
ATOM     15  C   UNL     1    -123.058-100.454   0.524  1.00  0.00     0.039 C 
ATOM     16  C   UNL     1    -122.209-102.900   0.550  1.00  0.00     0.039 C 
BRANCH  13  17
ATOM     17  C   UNL     1    -119.675-102.029   1.703  1.00  0.00     0.066 CG0
ATOM     18  G   UNL     1    -118.671-102.284   0.604  1.00  0.00     0.000 G0
ENDBRANCH  13  17
ENDBRANCH  11  13
ENDBRANCH  10  11
ENDBRANCH   1  10
TORSDOF 0
ENDMDL
MODEL 5
REMARK VINA RESULT:    -2.874     10.036     11.667
REMARK INTER + INTRA:          -3.713
REMARK INTER:                  -4.063
REMARK INTRA:                   0.350
REMARK UNBOUND:                 0.337
REMARK SMILES CC1=CCC(=C(C)C)C(=O)CC(C)=CCC1
REMARK SMILES IDX 12 1 14 2 13 3 15 4 16 5 2 6 1 7 3 8 11 10 9 11 10 12 5 13
REMARK SMILES IDX 6 14 7 15 8 16 4 17
REMARK H PARENT
REMARK Flexibility Score: 60.00
ROOT
ATOM      1  C   UNL     1    -113.669 -94.810   7.042  1.00  0.00    -0.070 C 
ATOM      2  C   UNL     1    -114.847 -95.465   6.914  1.00  0.00    -0.027 C 
ATOM      3  C   UNL     1    -113.128 -94.586   8.431  1.00  0.00     0.039 C 
ENDROOT
BRANCH   2   4
ATOM      4  C   UNL     1    -115.563 -95.722   5.607  1.00  0.00     0.032 C 
BRANCH   4   5
ATOM      5  C   UNL     1    -116.468 -94.544   5.216  1.00  0.00     0.034 C 
BRANCH   5   6
ATOM      6  C   UNL     1    -116.327 -94.126   3.760  1.00  0.00    -0.077 C 
ATOM      7  C   UNL     1    -116.954 -94.985   2.691  1.00  0.00     0.039 C 
ATOM      8  C   UNL     1    -115.646 -93.025   3.364  1.00  0.00    -0.023 CG0
ATOM      9  G   UNL     1    -115.012 -92.009   4.286  1.00  0.00     0.000 G0
ENDBRANCH   5   6
ENDBRANCH   4   5
ENDBRANCH   2   4
BRANCH   1  10
ATOM     10  C   UNL     1    -112.874 -94.301   5.855  1.00  0.00     0.111 C 
BRANCH  10  11
ATOM     11  C   UNL     1    -112.993 -92.807   5.725  1.00  0.00     0.163 C 
ATOM     12  O   UNL     1    -112.677 -92.075   6.701  1.00  0.00    -0.294 OA
BRANCH  11  13
ATOM     13  C   UNL     1    -113.498 -92.180   4.477  1.00  0.00    -0.002 C 
ATOM     14  C   UNL     1    -112.628 -91.768   3.516  1.00  0.00    -0.069 C 
ATOM     15  C   UNL     1    -111.133 -91.851   3.725  1.00  0.00     0.039 C 
ATOM     16  C   UNL     1    -113.126 -91.175   2.217  1.00  0.00     0.039 C 
BRANCH  13  17
ATOM     17  C   UNL     1    -115.002 -92.002   4.291  1.00  0.00     0.066 CG0
ATOM     18  G   UNL     1    -115.623 -93.012   3.355  1.00  0.00     0.000 G0
ENDBRANCH  13  17
ENDBRANCH  11  13
ENDBRANCH  10  11
ENDBRANCH   1  10
TORSDOF 0
ENDMDL
MODEL 6
REMARK VINA RESULT:    -2.790      4.150      6.381
REMARK INTER + INTRA:          -3.595
REMARK INTER:                  -4.021
REMARK INTRA:                   0.427
REMARK UNBOUND:                 0.337
REMARK SMILES CC1=CCC(=C(C)C)C(=O)CC(C)=CCC1
REMARK SMILES IDX 12 1 14 2 13 3 15 4 16 5 2 6 1 7 3 8 11 10 9 11 10 12 5 13
REMARK SMILES IDX 6 14 7 15 8 16 4 17
REMARK H PARENT
REMARK Flexibility Score: 60.00
ROOT
ATOM      1  C   UNL     1    -120.597-100.282   1.528  1.00  0.00    -0.070 C 
ATOM      2  C   UNL     1    -120.222-101.580   1.439  1.00  0.00    -0.027 C 
ATOM      3  C   UNL     1    -121.584 -99.900   2.601  1.00  0.00     0.039 C 
ENDROOT
BRANCH   2   4
ATOM      4  C   UNL     1    -119.294-102.148   0.390  1.00  0.00     0.032 C 
BRANCH   4   5
ATOM      5  C   UNL     1    -117.826-102.086   0.839  1.00  0.00     0.034 C 
BRANCH   5   6
ATOM      6  C   UNL     1    -116.925-101.333  -0.129  1.00  0.00    -0.077 C 
ATOM      7  C   UNL     1    -116.527-101.999  -1.421  1.00  0.00     0.039 C 
ATOM      8  C   UNL     1    -116.441-100.093   0.116  1.00  0.00    -0.023 CG0
ATOM      9  G   UNL     1    -116.782 -99.241   1.316  1.00  0.00     0.000 G0
ENDBRANCH   5   6
ENDBRANCH   4   5
ENDBRANCH   2   4
BRANCH   1  10
ATOM     10  C   UNL     1    -120.066 -99.204   0.603  1.00  0.00     0.111 C 
BRANCH  10  11
ATOM     11  C   UNL     1    -119.187 -98.236   1.347  1.00  0.00     0.163 C 
ATOM     12  O   UNL     1    -119.686 -97.528   2.263  1.00  0.00    -0.294 OA
BRANCH  11  13
ATOM     13  C   UNL     1    -117.749 -98.084   1.010  1.00  0.00    -0.002 C 
ATOM     14  C   UNL     1    -117.298 -96.938   0.432  1.00  0.00    -0.069 C 
ATOM     15  C   UNL     1    -118.251 -95.834   0.035  1.00  0.00     0.039 C 
ATOM     16  C   UNL     1    -115.830 -96.744   0.129  1.00  0.00     0.039 C 
BRANCH  13  17
ATOM     17  C   UNL     1    -116.789 -99.228   1.318  1.00  0.00     0.066 CG0
ATOM     18  G   UNL     1    -116.457-100.084   0.117  1.00  0.00     0.000 G0
ENDBRANCH  13  17
ENDBRANCH  11  13
ENDBRANCH  10  11
ENDBRANCH   1  10
TORSDOF 0
ENDMDL
MODEL 7
REMARK VINA RESULT:    -2.740      9.718     11.774
REMARK INTER + INTRA:          -3.524
REMARK INTER:                  -4.193
REMARK INTRA:                   0.669
REMARK UNBOUND:                 0.337
REMARK SMILES CC1=CCC(=C(C)C)C(=O)CC(C)=CCC1
REMARK SMILES IDX 12 1 14 2 13 3 15 4 16 5 2 6 1 7 3 8 11 10 9 11 10 12 5 13
REMARK SMILES IDX 6 14 7 15 8 16 4 17
REMARK H PARENT
REMARK Flexibility Score: 60.00
ROOT
ATOM      1  C   UNL     1    -116.125 -94.999   4.430  1.00  0.00    -0.070 C 
ATOM      2  C   UNL     1    -115.270 -95.804   5.104  1.00  0.00    -0.027 C 
ATOM      3  C   UNL     1    -116.675 -95.489   3.115  1.00  0.00     0.039 C 
ENDROOT
BRANCH   2   4
ATOM      4  C   UNL     1    -114.578 -95.450   6.400  1.00  0.00     0.032 C 
BRANCH   4   5
ATOM      5  C   UNL     1    -113.096 -95.115   6.178  1.00  0.00     0.034 C 
BRANCH   5   6
ATOM      6  C   UNL     1    -112.800 -93.622   6.197  1.00  0.00    -0.077 C 
ATOM      7  C   UNL     1    -112.344 -92.986   7.485  1.00  0.00     0.039 C 
ATOM      8  C   UNL     1    -112.943 -92.822   5.115  1.00  0.00    -0.023 CG0
ATOM      9  G   UNL     1    -113.320 -93.285   3.727  1.00  0.00     0.000 G0
ENDBRANCH   5   6
ENDBRANCH   4   5
ENDBRANCH   2   4
BRANCH   1  10
ATOM     10  C   UNL     1    -116.552 -93.636   4.942  1.00  0.00     0.111 C 
BRANCH  10  11
ATOM     11  C   UNL     1    -115.755 -92.539   4.291  1.00  0.00     0.163 C 
ATOM     12  O   UNL     1    -115.983 -91.340   4.605  1.00  0.00    -0.294 OA
BRANCH  11  13
ATOM     13  C   UNL     1    -114.721 -92.840   3.269  1.00  0.00    -0.002 C 
ATOM     14  C   UNL     1    -115.010 -92.721   1.945  1.00  0.00    -0.069 C 
ATOM     15  C   UNL     1    -116.405 -92.371   1.477  1.00  0.00     0.039 C 
ATOM     16  C   UNL     1    -113.956 -92.972   0.891  1.00  0.00     0.039 C 
BRANCH  13  17
ATOM     17  C   UNL     1    -113.335 -93.287   3.723  1.00  0.00     0.066 CG0
ATOM     18  G   UNL     1    -112.968 -92.813   5.111  1.00  0.00     0.000 G0
ENDBRANCH  13  17
ENDBRANCH  11  13
ENDBRANCH  10  11
ENDBRANCH   1  10
TORSDOF 0
ENDMDL
MODEL 8
REMARK VINA RESULT:    -2.713      3.063      4.786
REMARK INTER + INTRA:          -3.486
REMARK INTER:                  -4.052
REMARK INTRA:                   0.566
REMARK UNBOUND:                 0.337
REMARK SMILES CC1=CCC(=C(C)C)C(=O)CC(C)=CCC1
REMARK SMILES IDX 12 1 14 2 13 3 15 4 16 5 2 6 1 7 3 8 11 10 9 11 10 12 5 13
REMARK SMILES IDX 6 14 7 15 8 16 4 17
REMARK H PARENT
REMARK Flexibility Score: 60.00
ROOT
ATOM      1  C   UNL     1    -121.612-100.089   2.189  1.00  0.00    -0.070 C 
ATOM      2  C   UNL     1    -121.213-101.370   2.007  1.00  0.00    -0.027 C 
ATOM      3  C   UNL     1    -123.091 -99.810   2.268  1.00  0.00     0.039 C 
ENDROOT
BRANCH   2   4
ATOM      4  C   UNL     1    -119.779-101.821   1.844  1.00  0.00     0.032 C 
BRANCH   4   5
ATOM      5  C   UNL     1    -119.529-102.420   0.452  1.00  0.00     0.034 C 
BRANCH   5   6
ATOM      6  C   UNL     1    -120.093-101.578  -0.683  1.00  0.00    -0.077 C 
ATOM      7  C   UNL     1    -121.280-102.098  -1.455  1.00  0.00     0.039 C 
ATOM      8  C   UNL     1    -119.574-100.385  -1.055  1.00  0.00    -0.023 CG0
ATOM      9  G   UNL     1    -118.436 -99.672  -0.362  1.00  0.00     0.000 G0
ENDBRANCH   5   6
ENDBRANCH   4   5
ENDBRANCH   2   4
BRANCH   1  10
ATOM     10  C   UNL     1    -120.639 -98.932   2.319  1.00  0.00     0.111 C 
BRANCH  10  11
ATOM     11  C   UNL     1    -120.263 -98.387   0.969  1.00  0.00     0.163 C 
ATOM     12  O   UNL     1    -121.154 -97.876   0.238  1.00  0.00    -0.294 OA
BRANCH  11  13
ATOM     13  C   UNL     1    -118.866 -98.461   0.470  1.00  0.00    -0.002 C 
ATOM     14  C   UNL     1    -117.989 -97.455   0.733  1.00  0.00    -0.069 C 
ATOM     15  C   UNL     1    -118.430 -96.201   1.454  1.00  0.00     0.039 C 
ATOM     16  C   UNL     1    -116.550 -97.537   0.278  1.00  0.00     0.039 C 
BRANCH  13  17
ATOM     17  C   UNL     1    -118.431 -99.677  -0.342  1.00  0.00     0.066 CG0
ATOM     18  G   UNL     1    -119.571-100.381  -1.042  1.00  0.00     0.000 G0
ENDBRANCH  13  17
ENDBRANCH  11  13
ENDBRANCH  10  11
ENDBRANCH   1  10
TORSDOF 0
ENDMDL
MODEL 9
REMARK VINA RESULT:    -2.499      1.856      2.551
REMARK INTER + INTRA:          -3.185
REMARK INTER:                  -3.847
REMARK INTRA:                   0.662
REMARK UNBOUND:                 0.337
REMARK SMILES CC1=CCC(=C(C)C)C(=O)CC(C)=CCC1
REMARK SMILES IDX 12 1 14 2 13 3 15 4 16 5 2 6 1 7 3 8 11 10 9 11 10 12 5 13
REMARK SMILES IDX 6 14 7 15 8 16 4 17
REMARK H PARENT
REMARK Flexibility Score: 60.00
ROOT
ATOM      1  C   UNL     1    -122.545-100.461   3.043  1.00  0.00    -0.070 C 
ATOM      2  C   UNL     1    -123.561-100.944   2.290  1.00  0.00    -0.027 C 
ATOM      3  C   UNL     1    -122.890 -99.671   4.280  1.00  0.00     0.039 C 
ENDROOT
BRANCH   2   4
ATOM      4  C   UNL     1    -123.400-101.700   0.991  1.00  0.00     0.032 C 
BRANCH   4   5
ATOM      5  C   UNL     1    -124.189-101.041  -0.150  1.00  0.00     0.034 C 
BRANCH   5   6
ATOM      6  C   UNL     1    -123.632 -99.690  -0.573  1.00  0.00    -0.077 C 
ATOM      7  C   UNL     1    -124.578 -98.524  -0.713  1.00  0.00     0.039 C 
ATOM      8  C   UNL     1    -122.325 -99.477  -0.850  1.00  0.00    -0.023 CG0
ATOM      9  G   UNL     1    -121.220-100.498  -0.700  1.00  0.00     0.000 G0
ENDBRANCH   5   6
ENDBRANCH   4   5
ENDBRANCH   2   4
BRANCH   1  10
ATOM     10  C   UNL     1    -121.084-100.682   2.698  1.00  0.00     0.111 C 
BRANCH  10  11
ATOM     11  C   UNL     1    -120.611 -99.683   1.680  1.00  0.00     0.163 C 
ATOM     12  O   UNL     1    -120.609 -98.456   1.972  1.00  0.00    -0.294 OA
BRANCH  11  13
ATOM     13  C   UNL     1    -120.168-100.110   0.328  1.00  0.00    -0.002 C 
ATOM     14  C   UNL     1    -118.843-100.153   0.022  1.00  0.00    -0.069 C 
ATOM     15  C   UNL     1    -117.797 -99.684   1.007  1.00  0.00     0.039 C 
ATOM     16  C   UNL     1    -118.372-100.635  -1.331  1.00  0.00     0.039 C 
BRANCH  13  17
ATOM     17  C   UNL     1    -121.218-100.496  -0.709  1.00  0.00     0.066 CG0
ATOM     18  G   UNL     1    -122.327 -99.480  -0.860  1.00  0.00     0.000 G0
ENDBRANCH  13  17
ENDBRANCH  11  13
ENDBRANCH  10  11
ENDBRANCH   1  10
TORSDOF 0
ENDMDL
