MODEL 1
REMARK VINA RESULT:    -3.570      0.000      0.000
REMARK INTER + INTRA:          -8.438
REMARK INTER:                  -6.283
REMARK INTRA:                  -2.155
REMARK UNBOUND:                -2.155
REMARK SMILES CCCCCCCCCCCCCCC(=O)[O-]
REMARK SMILES IDX 9 1 10 2 11 3 12 4 13 5 14 6 15 7 16 8 17 9 8 10 7 11 6 12
REMARK SMILES IDX 5 13 4 14 3 15 2 16 1 17
REMARK H PARENT
REMARK Flexibility Score: inf
ROOT
ATOM      1  C   UNL     1      -7.923  -4.684   5.552  1.00  0.00     0.000 C 
ENDROOT
BRANCH   1   2
ATOM      2  C   UNL     1      -8.201  -3.806   6.786  1.00  0.00     0.000 C 
BRANCH   2   3
ATOM      3  C   UNL     1      -7.162  -2.692   6.976  1.00  0.00     0.000 C 
BRANCH   3   4
ATOM      4  C   UNL     1      -6.533  -2.290   5.634  1.00  0.00     0.000 C 
BRANCH   4   5
ATOM      5  C   UNL     1      -5.415  -1.242   5.779  1.00  0.00     0.006 C 
BRANCH   5   6
ATOM      6  C   UNL     1      -5.269  -0.678   7.203  1.00  0.00     0.053 C 
BRANCH   6   7
ATOM      7  C   UNL     1      -5.655   0.768   7.291  1.00  0.00     0.041 C 
ATOM      8  O   UNL     1      -6.857   1.091   7.483  1.00  0.00    -0.550 OA
ATOM      9  O   UNL     1      -4.697   1.760   7.124  1.00  0.00    -0.550 OA
ENDBRANCH   6   7
ENDBRANCH   5   6
ENDBRANCH   4   5
ENDBRANCH   3   4
ENDBRANCH   2   3
ENDBRANCH   1   2
BRANCH   1  10
ATOM     10  C   UNL     1      -7.558  -6.147   5.860  1.00  0.00     0.000 C 
BRANCH  10  11
ATOM     11  C   UNL     1      -7.231  -6.384   7.344  1.00  0.00    -0.000 C 
BRANCH  11  12
ATOM     12  C   UNL     1      -5.721  -6.319   7.632  1.00  0.00    -0.000 C 
BRANCH  12  13
ATOM     13  C   UNL     1      -4.874  -6.364   6.348  1.00  0.00    -0.000 C 
BRANCH  13  14
ATOM     14  C   UNL     1      -4.063  -5.076   6.129  1.00  0.00    -0.000 C 
BRANCH  14  15
ATOM     15  C   UNL     1      -3.850  -4.283   7.431  1.00  0.00    -0.000 C 
BRANCH  15  16
ATOM     16  C   UNL     1      -2.531  -3.495   7.430  1.00  0.00    -0.003 C 
ATOM     17  C   UNL     1      -2.106  -3.049   6.031  1.00  0.00     0.004 C 
ENDBRANCH  15  16
ENDBRANCH  14  15
ENDBRANCH  13  14
ENDBRANCH  12  13
ENDBRANCH  11  12
ENDBRANCH  10  11
ENDBRANCH   1  10
TORSDOF 13
ENDMDL
MODEL 2
REMARK VINA RESULT:    -3.566      9.103     11.414
REMARK INTER + INTRA:          -8.431
REMARK INTER:                  -7.818
REMARK INTRA:                  -0.613
REMARK UNBOUND:                -2.155
REMARK SMILES CCCCCCCCCCCCCCC(=O)[O-]
REMARK SMILES IDX 9 1 10 2 11 3 12 4 13 5 14 6 15 7 16 8 17 9 8 10 7 11 6 12
REMARK SMILES IDX 5 13 4 14 3 15 2 16 1 17
REMARK H PARENT
REMARK Flexibility Score: inf
ROOT
ATOM      1  C   UNL     1      -0.768  -6.803  -2.209  1.00  0.00     0.000 C 
ENDROOT
BRANCH   1   2
ATOM      2  C   UNL     1      -0.813  -8.335  -2.056  1.00  0.00     0.000 C 
BRANCH   2   3
ATOM      3  C   UNL     1      -1.007  -8.787  -0.602  1.00  0.00     0.000 C 
BRANCH   3   4
ATOM      4  C   UNL     1      -1.776 -10.114  -0.535  1.00  0.00     0.000 C 
BRANCH   4   5
ATOM      5  C   UNL     1      -2.350 -10.411   0.863  1.00  0.00     0.006 C 
BRANCH   5   6
ATOM      6  C   UNL     1      -2.031  -9.331   1.911  1.00  0.00     0.053 C 
BRANCH   6   7
ATOM      7  C   UNL     1      -2.481  -9.716   3.289  1.00  0.00     0.041 C 
ATOM      8  O   UNL     1      -3.103 -10.796   3.471  1.00  0.00    -0.550 OA
ATOM      9  O   UNL     1      -2.246  -8.869   4.364  1.00  0.00    -0.550 OA
ENDBRANCH   6   7
ENDBRANCH   5   6
ENDBRANCH   4   5
ENDBRANCH   3   4
ENDBRANCH   2   3
ENDBRANCH   1   2
BRANCH   1  10
ATOM     10  C   UNL     1       0.474  -6.123  -1.605  1.00  0.00     0.000 C 
BRANCH  10  11
ATOM     11  C   UNL     1       0.680  -4.688  -2.117  1.00  0.00    -0.000 C 
BRANCH  11  12
ATOM     12  C   UNL     1       0.437  -3.632  -1.026  1.00  0.00    -0.000 C 
BRANCH  12  13
ATOM     13  C   UNL     1       0.765  -2.205  -1.502  1.00  0.00    -0.000 C 
BRANCH  13  14
ATOM     14  C   UNL     1       1.209  -2.161  -2.974  1.00  0.00    -0.000 C 
BRANCH  14  15
ATOM     15  C   UNL     1       2.620  -1.573  -3.148  1.00  0.00    -0.000 C 
BRANCH  15  16
ATOM     16  C   UNL     1       3.075  -0.763  -1.925  1.00  0.00    -0.003 C 
ATOM     17  C   UNL     1       4.589  -0.565  -1.872  1.00  0.00     0.004 C 
ENDBRANCH  15  16
ENDBRANCH  14  15
ENDBRANCH  13  14
ENDBRANCH  12  13
ENDBRANCH  11  12
ENDBRANCH  10  11
ENDBRANCH   1  10
TORSDOF 13
ENDMDL
MODEL 3
REMARK VINA RESULT:    -3.354      2.992      5.632
REMARK INTER + INTRA:          -8.058
REMARK INTER:                  -6.409
REMARK INTRA:                  -1.649
REMARK UNBOUND:                -2.155
REMARK SMILES CCCCCCCCCCCCCCC(=O)[O-]
REMARK SMILES IDX 9 1 10 2 11 3 12 4 13 5 14 6 15 7 16 8 17 9 8 10 7 11 6 12
REMARK SMILES IDX 5 13 4 14 3 15 2 16 1 17
REMARK H PARENT
REMARK Flexibility Score: inf
ROOT
ATOM      1  C   UNL     1      -5.858  -0.532   7.575  1.00  0.00     0.000 C 
ENDROOT
BRANCH   1   2
ATOM      2  C   UNL     1      -4.492  -0.988   8.121  1.00  0.00     0.000 C 
BRANCH   2   3
ATOM      3  C   UNL     1      -4.252  -2.495   7.953  1.00  0.00     0.000 C 
BRANCH   3   4
ATOM      4  C   UNL     1      -2.947  -2.763   7.188  1.00  0.00     0.000 C 
BRANCH   4   5
ATOM      5  C   UNL     1      -3.155  -2.915   5.671  1.00  0.00     0.006 C 
BRANCH   5   6
ATOM      6  C   UNL     1      -4.082  -4.080   5.280  1.00  0.00     0.053 C 
BRANCH   6   7
ATOM      7  C   UNL     1      -3.564  -5.407   5.747  1.00  0.00     0.041 C 
ATOM      8  O   UNL     1      -2.500  -5.876   5.264  1.00  0.00    -0.550 OA
ATOM      9  O   UNL     1      -4.274  -6.144   6.686  1.00  0.00    -0.550 OA
ENDBRANCH   6   7
ENDBRANCH   5   6
ENDBRANCH   4   5
ENDBRANCH   3   4
ENDBRANCH   2   3
ENDBRANCH   1   2
BRANCH   1  10
ATOM     10  C   UNL     1      -6.010  -0.614   6.045  1.00  0.00     0.000 C 
BRANCH  10  11
ATOM     11  C   UNL     1      -7.135  -1.566   5.605  1.00  0.00    -0.000 C 
BRANCH  11  12
ATOM     12  C   UNL     1      -7.963  -2.088   6.792  1.00  0.00    -0.000 C 
BRANCH  12  13
ATOM     13  C   UNL     1      -9.403  -2.453   6.390  1.00  0.00    -0.000 C 
BRANCH  13  14
ATOM     14  C   UNL     1      -9.577  -3.955   6.112  1.00  0.00    -0.000 C 
BRANCH  14  15
ATOM     15  C   UNL     1      -8.363  -4.785   6.567  1.00  0.00    -0.000 C 
BRANCH  15  16
ATOM     16  C   UNL     1      -7.651  -5.476   5.393  1.00  0.00    -0.003 C 
ATOM     17  C   UNL     1      -8.624  -6.095   4.389  1.00  0.00     0.004 C 
ENDBRANCH  15  16
ENDBRANCH  14  15
ENDBRANCH  13  14
ENDBRANCH  12  13
ENDBRANCH  11  12
ENDBRANCH  10  11
ENDBRANCH   1  10
TORSDOF 13
ENDMDL
MODEL 4
REMARK VINA RESULT:    -3.335      1.548      4.250
REMARK INTER + INTRA:          -8.025
REMARK INTER:                  -6.465
REMARK INTRA:                  -1.560
REMARK UNBOUND:                -2.155
REMARK SMILES CCCCCCCCCCCCCCC(=O)[O-]
REMARK SMILES IDX 9 1 10 2 11 3 12 4 13 5 14 6 15 7 16 8 17 9 8 10 7 11 6 12
REMARK SMILES IDX 5 13 4 14 3 15 2 16 1 17
REMARK H PARENT
REMARK Flexibility Score: inf
ROOT
ATOM      1  C   UNL     1      -4.096  -5.264   5.888  1.00  0.00     0.000 C 
ENDROOT
BRANCH   1   2
ATOM      2  C   UNL     1      -3.123  -4.426   6.737  1.00  0.00     0.000 C 
BRANCH   2   3
ATOM      3  C   UNL     1      -2.854  -3.036   6.143  1.00  0.00     0.000 C 
BRANCH   3   4
ATOM      4  C   UNL     1      -4.135  -2.433   5.548  1.00  0.00     0.000 C 
BRANCH   4   5
ATOM      5  C   UNL     1      -4.977  -1.663   6.580  1.00  0.00     0.006 C 
BRANCH   5   6
ATOM      6  C   UNL     1      -5.764  -0.480   5.988  1.00  0.00     0.053 C 
BRANCH   6   7
ATOM      7  C   UNL     1      -6.879  -0.026   6.881  1.00  0.00     0.041 C 
ATOM      8  O   UNL     1      -7.871  -0.775   7.085  1.00  0.00    -0.550 OA
ATOM      9  O   UNL     1      -6.843   1.236   7.458  1.00  0.00    -0.550 OA
ENDBRANCH   6   7
ENDBRANCH   5   6
ENDBRANCH   4   5
ENDBRANCH   3   4
ENDBRANCH   2   3
ENDBRANCH   1   2
BRANCH   1  10
ATOM     10  C   UNL     1      -5.218  -5.961   6.679  1.00  0.00     0.000 C 
BRANCH  10  11
ATOM     11  C   UNL     1      -6.434  -5.051   6.924  1.00  0.00    -0.000 C 
BRANCH  11  12
ATOM     12  C   UNL     1      -7.135  -4.641   5.618  1.00  0.00    -0.000 C 
BRANCH  12  13
ATOM     13  C   UNL     1      -8.550  -5.235   5.497  1.00  0.00    -0.000 C 
BRANCH  13  14
ATOM     14  C   UNL     1      -8.687  -6.199   4.309  1.00  0.00    -0.000 C 
BRANCH  14  15
ATOM     15  C   UNL     1      -8.911  -7.656   4.751  1.00  0.00    -0.000 C 
BRANCH  15  16
ATOM     16  C   UNL     1      -7.601  -8.364   5.129  1.00  0.00    -0.003 C 
ATOM     17  C   UNL     1      -7.688  -9.105   6.463  1.00  0.00     0.004 C 
ENDBRANCH  15  16
ENDBRANCH  14  15
ENDBRANCH  13  14
ENDBRANCH  12  13
ENDBRANCH  11  12
ENDBRANCH  10  11
ENDBRANCH   1  10
TORSDOF 13
ENDMDL
MODEL 5
REMARK VINA RESULT:    -3.293      1.189      3.918
REMARK INTER + INTRA:          -7.951
REMARK INTER:                  -6.237
REMARK INTRA:                  -1.714
REMARK UNBOUND:                -2.155
REMARK SMILES CCCCCCCCCCCCCCC(=O)[O-]
REMARK SMILES IDX 9 1 10 2 11 3 12 4 13 5 14 6 15 7 16 8 17 9 8 10 7 11 6 12
REMARK SMILES IDX 5 13 4 14 3 15 2 16 1 17
REMARK H PARENT
REMARK Flexibility Score: inf
ROOT
ATOM      1  C   UNL     1      -3.927  -4.746   5.496  1.00  0.00     0.000 C 
ENDROOT
BRANCH   1   2
ATOM      2  C   UNL     1      -3.032  -3.588   5.973  1.00  0.00     0.000 C 
BRANCH   2   3
ATOM      3  C   UNL     1      -3.812  -2.287   6.211  1.00  0.00     0.000 C 
BRANCH   3   4
ATOM      4  C   UNL     1      -5.054  -2.217   5.310  1.00  0.00     0.000 C 
BRANCH   4   5
ATOM      5  C   UNL     1      -6.205  -1.404   5.930  1.00  0.00     0.006 C 
BRANCH   5   6
ATOM      6  C   UNL     1      -5.907  -0.876   7.344  1.00  0.00     0.053 C 
BRANCH   6   7
ATOM      7  C   UNL     1      -5.917   0.622   7.412  1.00  0.00     0.041 C 
ATOM      8  O   UNL     1      -4.832   1.260   7.462  1.00  0.00    -0.550 OA
ATOM      9  O   UNL     1      -7.121   1.312   7.458  1.00  0.00    -0.550 OA
ENDBRANCH   6   7
ENDBRANCH   5   6
ENDBRANCH   4   5
ENDBRANCH   3   4
ENDBRANCH   2   3
ENDBRANCH   1   2
BRANCH   1  10
ATOM     10  C   UNL     1      -4.168  -5.856   6.535  1.00  0.00     0.000 C 
BRANCH  10  11
ATOM     11  C   UNL     1      -5.629  -6.338   6.569  1.00  0.00    -0.000 C 
BRANCH  11  12
ATOM     12  C   UNL     1      -6.628  -5.179   6.726  1.00  0.00    -0.000 C 
BRANCH  12  13
ATOM     13  C   UNL     1      -7.517  -4.995   5.483  1.00  0.00    -0.000 C 
BRANCH  13  14
ATOM     14  C   UNL     1      -9.005  -4.838   5.838  1.00  0.00    -0.000 C 
BRANCH  14  15
ATOM     15  C   UNL     1      -9.220  -4.335   7.276  1.00  0.00    -0.000 C 
BRANCH  15  16
ATOM     16  C   UNL     1      -9.226  -2.801   7.367  1.00  0.00    -0.003 C 
ATOM     17  C   UNL     1     -10.125  -2.147   6.318  1.00  0.00     0.004 C 
ENDBRANCH  15  16
ENDBRANCH  14  15
ENDBRANCH  13  14
ENDBRANCH  12  13
ENDBRANCH  11  12
ENDBRANCH  10  11
ENDBRANCH   1  10
TORSDOF 13
ENDMDL
MODEL 6
REMARK VINA RESULT:    -3.251      1.135      3.920
REMARK INTER + INTRA:          -7.878
REMARK INTER:                  -6.199
REMARK INTRA:                  -1.679
REMARK UNBOUND:                -2.155
REMARK SMILES CCCCCCCCCCCCCCC(=O)[O-]
REMARK SMILES IDX 9 1 10 2 11 3 12 4 13 5 14 6 15 7 16 8 17 9 8 10 7 11 6 12
REMARK SMILES IDX 5 13 4 14 3 15 2 16 1 17
REMARK H PARENT
REMARK Flexibility Score: inf
ROOT
ATOM      1  C   UNL     1      -2.268  -3.492   6.266  1.00  0.00     0.000 C 
ENDROOT
BRANCH   1   2
ATOM      2  C   UNL     1      -2.587  -2.571   7.459  1.00  0.00     0.000 C 
BRANCH   2   3
ATOM      3  C   UNL     1      -4.007  -1.989   7.404  1.00  0.00     0.000 C 
BRANCH   3   4
ATOM      4  C   UNL     1      -4.524  -1.933   5.959  1.00  0.00     0.000 C 
BRANCH   4   5
ATOM      5  C   UNL     1      -5.865  -1.190   5.825  1.00  0.00     0.006 C 
BRANCH   5   6
ATOM      6  C   UNL     1      -6.426  -0.668   7.159  1.00  0.00     0.053 C 
BRANCH   6   7
ATOM      7  C   UNL     1      -6.229   0.808   7.327  1.00  0.00     0.041 C 
ATOM      8  O   UNL     1      -7.223   1.564   7.494  1.00  0.00    -0.550 OA
ATOM      9  O   UNL     1      -4.955   1.356   7.263  1.00  0.00    -0.550 OA
ENDBRANCH   6   7
ENDBRANCH   5   6
ENDBRANCH   4   5
ENDBRANCH   3   4
ENDBRANCH   2   3
ENDBRANCH   1   2
BRANCH   1  10
ATOM     10  C   UNL     1      -2.614  -4.977   6.478  1.00  0.00     0.000 C 
BRANCH  10  11
ATOM     11  C   UNL     1      -3.671  -5.493   5.487  1.00  0.00    -0.000 C 
BRANCH  11  12
ATOM     12  C   UNL     1      -4.871  -6.148   6.193  1.00  0.00    -0.000 C 
BRANCH  12  13
ATOM     13  C   UNL     1      -5.367  -5.325   7.396  1.00  0.00    -0.000 C 
BRANCH  13  14
ATOM     14  C   UNL     1      -6.791  -4.782   7.193  1.00  0.00    -0.000 C 
BRANCH  14  15
ATOM     15  C   UNL     1      -7.297  -4.970   5.752  1.00  0.00    -0.000 C 
BRANCH  15  16
ATOM     16  C   UNL     1      -8.380  -6.055   5.646  1.00  0.00    -0.003 C 
ATOM     17  C   UNL     1      -9.013  -6.129   4.257  1.00  0.00     0.004 C 
ENDBRANCH  15  16
ENDBRANCH  14  15
ENDBRANCH  13  14
ENDBRANCH  12  13
ENDBRANCH  11  12
ENDBRANCH  10  11
ENDBRANCH   1  10
TORSDOF 13
ENDMDL
MODEL 7
REMARK VINA RESULT:    -3.143      2.666      5.051
REMARK INTER + INTRA:          -7.686
REMARK INTER:                  -5.804
REMARK INTRA:                  -1.883
REMARK UNBOUND:                -2.155
REMARK SMILES CCCCCCCCCCCCCCC(=O)[O-]
REMARK SMILES IDX 9 1 10 2 11 3 12 4 13 5 14 6 15 7 16 8 17 9 8 10 7 11 6 12
REMARK SMILES IDX 5 13 4 14 3 15 2 16 1 17
REMARK H PARENT
REMARK Flexibility Score: inf
ROOT
ATOM      1  C   UNL     1      -5.587  -1.266   5.813  1.00  0.00     0.000 C 
ENDROOT
BRANCH   1   2
ATOM      2  C   UNL     1      -5.234  -0.395   7.033  1.00  0.00     0.000 C 
BRANCH   2   3
ATOM      3  C   UNL     1      -4.481  -1.168   8.125  1.00  0.00     0.000 C 
BRANCH   3   4
ATOM      4  C   UNL     1      -4.351  -2.654   7.757  1.00  0.00     0.000 C 
BRANCH   4   5
ATOM      5  C   UNL     1      -2.891  -3.138   7.703  1.00  0.00     0.006 C 
BRANCH   5   6
ATOM      6  C   UNL     1      -2.304  -3.192   6.281  1.00  0.00     0.053 C 
BRANCH   6   7
ATOM      7  C   UNL     1      -2.932  -4.263   5.440  1.00  0.00     0.041 C 
ATOM      8  O   UNL     1      -2.647  -5.473   5.640  1.00  0.00    -0.550 OA
ATOM      9  O   UNL     1      -3.803  -3.924   4.413  1.00  0.00    -0.550 OA
ENDBRANCH   6   7
ENDBRANCH   5   6
ENDBRANCH   4   5
ENDBRANCH   3   4
ENDBRANCH   2   3
ENDBRANCH   1   2
BRANCH   1  10
ATOM     10  C   UNL     1      -7.092  -1.394   5.515  1.00  0.00     0.000 C 
BRANCH  10  11
ATOM     11  C   UNL     1      -7.967  -1.229   6.770  1.00  0.00    -0.000 C 
BRANCH  11  12
ATOM     12  C   UNL     1      -9.222  -2.118   6.734  1.00  0.00    -0.000 C 
BRANCH  12  13
ATOM     13  C   UNL     1      -8.904  -3.597   7.012  1.00  0.00    -0.000 C 
BRANCH  13  14
ATOM     14  C   UNL     1      -9.335  -4.521   5.862  1.00  0.00    -0.000 C 
BRANCH  14  15
ATOM     15  C   UNL     1      -8.231  -5.511   5.451  1.00  0.00    -0.000 C 
BRANCH  15  16
ATOM     16  C   UNL     1      -6.821  -4.972   5.741  1.00  0.00    -0.003 C 
ATOM     17  C   UNL     1      -6.011  -5.887   6.659  1.00  0.00     0.004 C 
ENDBRANCH  15  16
ENDBRANCH  14  15
ENDBRANCH  13  14
ENDBRANCH  12  13
ENDBRANCH  11  12
ENDBRANCH  10  11
ENDBRANCH   1  10
TORSDOF 13
ENDMDL
MODEL 8
REMARK VINA RESULT:    -3.130      3.010      4.922
REMARK INTER + INTRA:          -7.664
REMARK INTER:                  -5.933
REMARK INTRA:                  -1.730
REMARK UNBOUND:                -2.155
REMARK SMILES CCCCCCCCCCCCCCC(=O)[O-]
REMARK SMILES IDX 9 1 10 2 11 3 12 4 13 5 14 6 15 7 16 8 17 9 8 10 7 11 6 12
REMARK SMILES IDX 5 13 4 14 3 15 2 16 1 17
REMARK H PARENT
REMARK Flexibility Score: inf
ROOT
ATOM      1  C   UNL     1      -8.413  -1.701   6.654  1.00  0.00     0.000 C 
ENDROOT
BRANCH   1   2
ATOM      2  C   UNL     1      -7.147  -2.000   5.830  1.00  0.00     0.000 C 
BRANCH   2   3
ATOM      3  C   UNL     1      -6.362  -3.210   6.355  1.00  0.00     0.000 C 
BRANCH   3   4
ATOM      4  C   UNL     1      -5.767  -4.025   5.197  1.00  0.00     0.000 C 
BRANCH   4   5
ATOM      5  C   UNL     1      -4.432  -3.459   4.682  1.00  0.00     0.006 C 
BRANCH   5   6
ATOM      6  C   UNL     1      -3.324  -3.400   5.749  1.00  0.00     0.053 C 
BRANCH   6   7
ATOM      7  C   UNL     1      -2.899  -4.761   6.211  1.00  0.00     0.041 C 
ATOM      8  O   UNL     1      -2.373  -5.569   5.401  1.00  0.00    -0.550 OA
ATOM      9  O   UNL     1      -3.117  -5.153   7.526  1.00  0.00    -0.550 OA
ENDBRANCH   6   7
ENDBRANCH   5   6
ENDBRANCH   4   5
ENDBRANCH   3   4
ENDBRANCH   2   3
ENDBRANCH   1   2
BRANCH   1  10
ATOM     10  C   UNL     1      -9.631  -2.582   6.321  1.00  0.00     0.000 C 
BRANCH  10  11
ATOM     11  C   UNL     1      -9.943  -3.613   7.419  1.00  0.00    -0.000 C 
BRANCH  11  12
ATOM     12  C   UNL     1      -9.994  -5.053   6.878  1.00  0.00    -0.000 C 
BRANCH  12  13
ATOM     13  C   UNL     1      -9.782  -5.117   5.355  1.00  0.00    -0.000 C 
BRANCH  13  14
ATOM     14  C   UNL     1      -8.640  -6.065   4.956  1.00  0.00    -0.000 C 
BRANCH  14  15
ATOM     15  C   UNL     1      -8.470  -7.233   5.943  1.00  0.00    -0.000 C 
BRANCH  15  16
ATOM     16  C   UNL     1      -7.118  -7.947   5.781  1.00  0.00    -0.003 C 
ATOM     17  C   UNL     1      -6.007  -7.311   6.616  1.00  0.00     0.004 C 
ENDBRANCH  15  16
ENDBRANCH  14  15
ENDBRANCH  13  14
ENDBRANCH  12  13
ENDBRANCH  11  12
ENDBRANCH  10  11
ENDBRANCH   1  10
TORSDOF 13
ENDMDL
MODEL 9
REMARK VINA RESULT:    -3.069      2.021      4.882
REMARK INTER + INTRA:          -7.557
REMARK INTER:                  -5.719
REMARK INTRA:                  -1.838
REMARK UNBOUND:                -2.155
REMARK SMILES CCCCCCCCCCCCCCC(=O)[O-]
REMARK SMILES IDX 9 1 10 2 11 3 12 4 13 5 14 6 15 7 16 8 17 9 8 10 7 11 6 12
REMARK SMILES IDX 5 13 4 14 3 15 2 16 1 17
REMARK H PARENT
REMARK Flexibility Score: inf
ROOT
ATOM      1  C   UNL     1      -6.178  -1.599   5.484  1.00  0.00     0.000 C 
ENDROOT
BRANCH   1   2
ATOM      2  C   UNL     1      -6.044  -3.134   5.484  1.00  0.00     0.000 C 
BRANCH   2   3
ATOM      3  C   UNL     1      -4.806  -3.627   4.722  1.00  0.00     0.000 C 
BRANCH   3   4
ATOM      4  C   UNL     1      -4.059  -4.704   5.523  1.00  0.00     0.000 C 
BRANCH   4   5
ATOM      5  C   UNL     1      -4.157  -4.502   7.046  1.00  0.00     0.006 C 
BRANCH   5   6
ATOM      6  C   UNL     1      -2.827  -4.107   7.711  1.00  0.00     0.053 C 
BRANCH   6   7
ATOM      7  C   UNL     1      -2.535  -2.641   7.587  1.00  0.00     0.041 C 
ATOM      8  O   UNL     1      -3.479  -1.808   7.568  1.00  0.00    -0.550 OA
ATOM      9  O   UNL     1      -1.226  -2.197   7.455  1.00  0.00    -0.550 OA
ENDBRANCH   6   7
ENDBRANCH   5   6
ENDBRANCH   4   5
ENDBRANCH   3   4
ENDBRANCH   2   3
ENDBRANCH   1   2
BRANCH   1  10
ATOM     10  C   UNL     1      -7.142  -1.028   6.540  1.00  0.00     0.000 C 
BRANCH  10  11
ATOM     11  C   UNL     1      -7.933  -2.120   7.282  1.00  0.00    -0.000 C 
BRANCH  11  12
ATOM     12  C   UNL     1      -9.437  -2.076   6.963  1.00  0.00    -0.000 C 
BRANCH  12  13
ATOM     13  C   UNL     1      -9.851  -3.138   5.929  1.00  0.00    -0.000 C 
BRANCH  13  14
ATOM     14  C   UNL     1      -9.519  -4.568   6.385  1.00  0.00    -0.000 C 
BRANCH  14  15
ATOM     15  C   UNL     1      -9.365  -5.545   5.205  1.00  0.00    -0.000 C 
BRANCH  15  16
ATOM     16  C   UNL     1      -7.965  -6.175   5.143  1.00  0.00    -0.003 C 
ATOM     17  C   UNL     1      -7.370  -6.441   6.525  1.00  0.00     0.004 C 
ENDBRANCH  15  16
ENDBRANCH  14  15
ENDBRANCH  13  14
ENDBRANCH  12  13
ENDBRANCH  11  12
ENDBRANCH  10  11
ENDBRANCH   1  10
TORSDOF 13
ENDMDL
