MODEL 1
REMARK VINA RESULT:    -1.673      0.000      0.000
REMARK INTER + INTRA:          -3.660
REMARK INTER:                  -2.945
REMARK INTRA:                  -0.716
REMARK UNBOUND:                -0.716
REMARK SMILES CCCCCCCCCCCCCCC(=O)[O-]
REMARK SMILES IDX 9 1 10 2 11 3 12 4 13 5 14 6 15 7 16 8 17 9 8 10 7 11 6 12
REMARK SMILES IDX 5 13 4 14 3 15 2 16 1 17
REMARK H PARENT
REMARK Flexibility Score: inf
ROOT
ATOM      1  C   UNL     1      31.218  23.873  33.471  1.00  0.00     0.000 C 
ENDROOT
BRANCH   1   2
ATOM      2  C   UNL     1      30.151  24.785  32.846  1.00  0.00     0.000 C 
BRANCH   2   3
ATOM      3  C   UNL     1      30.439  25.125  31.372  1.00  0.00     0.000 C 
BRANCH   3   4
ATOM      4  C   UNL     1      31.352  24.126  30.639  1.00  0.00     0.000 C 
BRANCH   4   5
ATOM      5  C   UNL     1      32.126  24.765  29.474  1.00  0.00     0.006 C 
BRANCH   5   6
ATOM      6  C   UNL     1      31.967  23.972  28.169  1.00  0.00     0.053 C 
BRANCH   6   7
ATOM      7  C   UNL     1      30.751  23.096  28.197  1.00  0.00     0.041 C 
ATOM      8  O   UNL     1      30.867  21.847  28.092  1.00  0.00    -0.550 OA
ATOM      9  O   UNL     1      29.488  23.662  28.313  1.00  0.00    -0.550 OA
ENDBRANCH   6   7
ENDBRANCH   5   6
ENDBRANCH   4   5
ENDBRANCH   3   4
ENDBRANCH   2   3
ENDBRANCH   1   2
BRANCH   1  10
ATOM     10  C   UNL     1      32.320  24.698  34.144  1.00  0.00     0.000 C 
BRANCH  10  11
ATOM     11  C   UNL     1      33.388  25.124  33.128  1.00  0.00    -0.000 C 
BRANCH  11  12
ATOM     12  C   UNL     1      34.719  24.412  33.397  1.00  0.00    -0.000 C 
BRANCH  12  13
ATOM     13  C   UNL     1      35.878  25.123  32.685  1.00  0.00    -0.000 C 
BRANCH  13  14
ATOM     14  C   UNL     1      35.774  25.050  31.152  1.00  0.00    -0.000 C 
BRANCH  14  15
ATOM     15  C   UNL     1      37.037  24.477  30.474  1.00  0.00    -0.000 C 
BRANCH  15  16
ATOM     16  C   UNL     1      36.788  24.106  29.005  1.00  0.00    -0.003 C 
ATOM     17  C   UNL     1      35.730  25.011  28.379  1.00  0.00     0.004 C 
ENDBRANCH  15  16
ENDBRANCH  14  15
ENDBRANCH  13  14
ENDBRANCH  12  13
ENDBRANCH  11  12
ENDBRANCH  10  11
ENDBRANCH   1  10
TORSDOF 13
ENDMDL
MODEL 2
REMARK VINA RESULT:    -1.272      2.349      5.397
REMARK INTER + INTRA:          -2.954
REMARK INTER:                  -2.485
REMARK INTRA:                  -0.468
REMARK UNBOUND:                -0.716
REMARK SMILES CCCCCCCCCCCCCCC(=O)[O-]
REMARK SMILES IDX 9 1 10 2 11 3 12 4 13 5 14 6 15 7 16 8 17 9 8 10 7 11 6 12
REMARK SMILES IDX 5 13 4 14 3 15 2 16 1 17
REMARK H PARENT
REMARK Flexibility Score: inf
ROOT
ATOM      1  C   UNL     1      32.602  24.997  32.835  1.00  0.00     0.000 C 
ENDROOT
BRANCH   1   2
ATOM      2  C   UNL     1      33.083  23.959  33.860  1.00  0.00     0.000 C 
BRANCH   2   3
ATOM      3  C   UNL     1      34.558  24.146  34.260  1.00  0.00     0.000 C 
BRANCH   3   4
ATOM      4  C   UNL     1      35.353  25.124  33.377  1.00  0.00     0.000 C 
BRANCH   4   5
ATOM      5  C   UNL     1      36.687  24.538  32.884  1.00  0.00     0.006 C 
BRANCH   5   6
ATOM      6  C   UNL     1      37.112  25.125  31.531  1.00  0.00     0.053 C 
BRANCH   6   7
ATOM      7  C   UNL     1      36.210  24.674  30.423  1.00  0.00     0.041 C 
ATOM      8  O   UNL     1      35.028  25.102  30.353  1.00  0.00    -0.550 OA
ATOM      9  O   UNL     1      36.667  23.760  29.482  1.00  0.00    -0.550 OA
ENDBRANCH   6   7
ENDBRANCH   5   6
ENDBRANCH   4   5
ENDBRANCH   3   4
ENDBRANCH   2   3
ENDBRANCH   1   2
BRANCH   1  10
ATOM     10  C   UNL     1      31.076  24.966  32.696  1.00  0.00     0.000 C 
BRANCH  10  11
ATOM     11  C   UNL     1      30.660  24.502  31.295  1.00  0.00    -0.000 C 
BRANCH  11  12
ATOM     12  C   UNL     1      29.243  24.981  30.954  1.00  0.00    -0.000 C 
BRANCH  12  13
ATOM     13  C   UNL     1      29.055  25.110  29.436  1.00  0.00    -0.000 C 
BRANCH  13  14
ATOM     14  C   UNL     1      30.353  24.864  28.649  1.00  0.00    -0.000 C 
BRANCH  14  15
ATOM     15  C   UNL     1      30.402  23.490  27.948  1.00  0.00    -0.000 C 
BRANCH  15  16
ATOM     16  C   UNL     1      31.604  22.650  28.400  1.00  0.00    -0.003 C 
ATOM     17  C   UNL     1      32.773  23.539  28.817  1.00  0.00     0.004 C 
ENDBRANCH  15  16
ENDBRANCH  14  15
ENDBRANCH  13  14
ENDBRANCH  12  13
ENDBRANCH  11  12
ENDBRANCH  10  11
ENDBRANCH   1  10
TORSDOF 13
ENDMDL
