MODEL 1
REMARK VINA RESULT:    -3.772      0.000      0.000
REMARK INTER + INTRA:         -11.096
REMARK INTER:                  -8.624
REMARK INTRA:                  -2.472
REMARK UNBOUND:                -2.472
REMARK SMILES CCCCCCCCCCCCCCCCCCCCCCCC(=O)[O-]
REMARK SMILES IDX 13 1 14 2 15 3 16 4 17 5 18 6 19 7 20 8 21 9 22 10 23 11
REMARK SMILES IDX 24 12 25 13 26 14 12 15 11 16 10 17 9 18 8 19 7 20 6 21 5 22
REMARK SMILES IDX 4 23 3 24 2 25 1 26
REMARK H PARENT
REMARK Flexibility Score: inf
ROOT
ATOM      1  C   UNL     1      31.642  47.395   8.498  1.00  0.00     0.000 C 
ENDROOT
BRANCH   1   2
ATOM      2  C   UNL     1      31.750  48.410   7.341  1.00  0.00     0.000 C 
BRANCH   2   3
ATOM      3  C   UNL     1      32.427  49.744   7.704  1.00  0.00     0.000 C 
BRANCH   3   4
ATOM      4  C   UNL     1      31.469  50.944   7.609  1.00  0.00     0.000 C 
BRANCH   4   5
ATOM      5  C   UNL     1      30.263  50.682   6.687  1.00  0.00     0.000 C 
BRANCH   5   6
ATOM      6  C   UNL     1      28.882  50.882   7.338  1.00  0.00     0.000 C 
BRANCH   6   7
ATOM      7  C   UNL     1      28.847  50.462   8.815  1.00  0.00     0.000 C 
BRANCH   7   8
ATOM      8  C   UNL     1      28.381  49.006   8.962  1.00  0.00     0.000 C 
BRANCH   8   9
ATOM      9  C   UNL     1      27.107  48.714   8.135  1.00  0.00     0.000 C 
BRANCH   9  10
ATOM     10  C   UNL     1      26.061  47.878   8.896  1.00  0.00     0.006 C 
BRANCH  10  11
ATOM     11  C   UNL     1      25.838  46.476   8.312  1.00  0.00     0.053 C 
BRANCH  11  12
ATOM     12  C   UNL     1      25.914  45.413   9.363  1.00  0.00     0.041 C 
ATOM     13  O   UNL     1      26.366  44.273   9.080  1.00  0.00    -0.550 OA
ATOM     14  O   UNL     1      25.491  45.679  10.660  1.00  0.00    -0.550 OA
ENDBRANCH  11  12
ENDBRANCH  10  11
ENDBRANCH   9  10
ENDBRANCH   8   9
ENDBRANCH   7   8
ENDBRANCH   6   7
ENDBRANCH   5   6
ENDBRANCH   4   5
ENDBRANCH   3   4
ENDBRANCH   2   3
ENDBRANCH   1   2
BRANCH   1  15
ATOM     15  C   UNL     1      31.093  46.009   8.105  1.00  0.00     0.000 C 
BRANCH  15  16
ATOM     16  C   UNL     1      29.555  45.914   8.036  1.00  0.00     0.000 C 
BRANCH  16  17
ATOM     17  C   UNL     1      29.007  45.019   6.907  1.00  0.00     0.000 C 
BRANCH  17  18
ATOM     18  C   UNL     1      30.035  44.059   6.276  1.00  0.00    -0.000 C 
BRANCH  18  19
ATOM     19  C   UNL     1      29.576  42.594   6.170  1.00  0.00    -0.000 C 
BRANCH  19  20
ATOM     20  C   UNL     1      28.083  42.415   6.477  1.00  0.00    -0.000 C 
BRANCH  20  21
ATOM     21  C   UNL     1      27.867  41.360   7.575  1.00  0.00    -0.000 C 
BRANCH  21  22
ATOM     22  C   UNL     1      26.451  40.765   7.550  1.00  0.00    -0.000 C 
BRANCH  22  23
ATOM     23  C   UNL     1      26.298  39.558   8.492  1.00  0.00    -0.000 C 
BRANCH  23  24
ATOM     24  C   UNL     1      24.937  38.861   8.338  1.00  0.00    -0.000 C 
BRANCH  24  25
ATOM     25  C   UNL     1      24.974  37.393   8.787  1.00  0.00    -0.003 C 
ATOM     26  C   UNL     1      26.144  37.135   9.733  1.00  0.00     0.004 C 
ENDBRANCH  24  25
ENDBRANCH  23  24
ENDBRANCH  22  23
ENDBRANCH  21  22
ENDBRANCH  20  21
ENDBRANCH  19  20
ENDBRANCH  18  19
ENDBRANCH  17  18
ENDBRANCH  16  17
ENDBRANCH  15  16
ENDBRANCH   1  15
TORSDOF 22
ENDMDL
MODEL 2
REMARK VINA RESULT:    -3.725      2.757      7.978
REMARK INTER + INTRA:         -10.987
REMARK INTER:                  -7.190
REMARK INTRA:                  -3.797
REMARK UNBOUND:                -2.472
REMARK SMILES CCCCCCCCCCCCCCCCCCCCCCCC(=O)[O-]
REMARK SMILES IDX 13 1 14 2 15 3 16 4 17 5 18 6 19 7 20 8 21 9 22 10 23 11
REMARK SMILES IDX 24 12 25 13 26 14 12 15 11 16 10 17 9 18 8 19 7 20 6 21 5 22
REMARK SMILES IDX 4 23 3 24 2 25 1 26
REMARK H PARENT
REMARK Flexibility Score: inf
ROOT
ATOM      1  C   UNL     1      28.190  47.939   6.032  1.00  0.00     0.000 C 
ENDROOT
BRANCH   1   2
ATOM      2  C   UNL     1      27.359  48.653   7.117  1.00  0.00     0.000 C 
BRANCH   2   3
ATOM      3  C   UNL     1      27.786  48.359   8.567  1.00  0.00     0.000 C 
BRANCH   3   4
ATOM      4  C   UNL     1      26.644  47.780   9.419  1.00  0.00     0.000 C 
BRANCH   4   5
ATOM      5  C   UNL     1      25.416  47.372   8.585  1.00  0.00     0.000 C 
BRANCH   5   6
ATOM      6  C   UNL     1      25.259  45.860   8.341  1.00  0.00     0.000 C 
BRANCH   6   7
ATOM      7  C   UNL     1      26.117  45.007   9.288  1.00  0.00     0.000 C 
BRANCH   7   8
ATOM      8  C   UNL     1      26.885  43.928   8.511  1.00  0.00     0.000 C 
BRANCH   8   9
ATOM      9  C   UNL     1      26.043  43.322   7.364  1.00  0.00     0.000 C 
BRANCH   9  10
ATOM     10  C   UNL     1      26.633  42.020   6.792  1.00  0.00     0.006 C 
BRANCH  10  11
ATOM     11  C   UNL     1      28.166  42.014   6.703  1.00  0.00     0.053 C 
BRANCH  11  12
ATOM     12  C   UNL     1      28.724  40.626   6.761  1.00  0.00     0.041 C 
ATOM     13  O   UNL     1      29.957  40.448   6.942  1.00  0.00    -0.550 OA
ATOM     14  O   UNL     1      27.886  39.528   6.619  1.00  0.00    -0.550 OA
ENDBRANCH  11  12
ENDBRANCH  10  11
ENDBRANCH   9  10
ENDBRANCH   8   9
ENDBRANCH   7   8
ENDBRANCH   6   7
ENDBRANCH   5   6
ENDBRANCH   4   5
ENDBRANCH   3   4
ENDBRANCH   2   3
ENDBRANCH   1   2
BRANCH   1  15
ATOM     15  C   UNL     1      28.363  46.420   6.233  1.00  0.00     0.000 C 
BRANCH  15  16
ATOM     16  C   UNL     1      29.825  45.935   6.302  1.00  0.00     0.000 C 
BRANCH  16  17
ATOM     17  C   UNL     1      30.368  45.702   7.726  1.00  0.00     0.000 C 
BRANCH  17  18
ATOM     18  C   UNL     1      31.142  46.889   8.333  1.00  0.00    -0.000 C 
BRANCH  18  19
ATOM     19  C   UNL     1      31.662  47.916   7.311  1.00  0.00    -0.000 C 
BRANCH  19  20
ATOM     20  C   UNL     1      31.425  49.367   7.752  1.00  0.00    -0.000 C 
BRANCH  20  21
ATOM     21  C   UNL     1      31.702  50.347   6.600  1.00  0.00    -0.000 C 
BRANCH  21  22
ATOM     22  C   UNL     1      30.418  50.986   6.048  1.00  0.00    -0.000 C 
BRANCH  22  23
ATOM     23  C   UNL     1      29.827  52.043   6.997  1.00  0.00    -0.000 C 
BRANCH  23  24
ATOM     24  C   UNL     1      28.291  52.085   6.946  1.00  0.00    -0.000 C 
BRANCH  24  25
ATOM     25  C   UNL     1      27.657  52.116   8.344  1.00  0.00    -0.003 C 
ATOM     26  C   UNL     1      26.539  53.153   8.419  1.00  0.00     0.004 C 
ENDBRANCH  24  25
ENDBRANCH  23  24
ENDBRANCH  22  23
ENDBRANCH  21  22
ENDBRANCH  20  21
ENDBRANCH  19  20
ENDBRANCH  18  19
ENDBRANCH  17  18
ENDBRANCH  16  17
ENDBRANCH  15  16
ENDBRANCH   1  15
TORSDOF 22
ENDMDL
MODEL 3
REMARK VINA RESULT:    -3.644      1.253      3.175
REMARK INTER + INTRA:         -10.802
REMARK INTER:                  -8.608
REMARK INTRA:                  -2.194
REMARK UNBOUND:                -2.472
REMARK SMILES CCCCCCCCCCCCCCCCCCCCCCCC(=O)[O-]
REMARK SMILES IDX 13 1 14 2 15 3 16 4 17 5 18 6 19 7 20 8 21 9 22 10 23 11
REMARK SMILES IDX 24 12 25 13 26 14 12 15 11 16 10 17 9 18 8 19 7 20 6 21 5 22
REMARK SMILES IDX 4 23 3 24 2 25 1 26
REMARK H PARENT
REMARK Flexibility Score: inf
ROOT
ATOM      1  C   UNL     1      29.309  45.137   6.550  1.00  0.00     0.000 C 
ENDROOT
BRANCH   1   2
ATOM      2  C   UNL     1      30.266  46.296   6.894  1.00  0.00     0.000 C 
BRANCH   2   3
ATOM      3  C   UNL     1      31.084  46.107   8.185  1.00  0.00     0.000 C 
BRANCH   3   4
ATOM      4  C   UNL     1      31.923  47.345   8.546  1.00  0.00     0.000 C 
BRANCH   4   5
ATOM      5  C   UNL     1      31.950  48.402   7.427  1.00  0.00     0.000 C 
BRANCH   5   6
ATOM      6  C   UNL     1      32.264  49.838   7.886  1.00  0.00     0.000 C 
BRANCH   6   7
ATOM      7  C   UNL     1      31.143  50.834   7.550  1.00  0.00     0.000 C 
BRANCH   7   8
ATOM      8  C   UNL     1      29.784  50.124   7.462  1.00  0.00     0.000 C 
BRANCH   8   9
ATOM      9  C   UNL     1      29.073  50.051   8.833  1.00  0.00     0.000 C 
BRANCH   9  10
ATOM     10  C   UNL     1      28.511  48.655   9.159  1.00  0.00     0.006 C 
BRANCH  10  11
ATOM     11  C   UNL     1      27.438  48.168   8.174  1.00  0.00     0.053 C 
BRANCH  11  12
ATOM     12  C   UNL     1      26.289  47.513   8.877  1.00  0.00     0.041 C 
ATOM     13  O   UNL     1      25.112  47.900   8.661  1.00  0.00    -0.550 OA
ATOM     14  O   UNL     1      26.516  46.472   9.768  1.00  0.00    -0.550 OA
ENDBRANCH  11  12
ENDBRANCH  10  11
ENDBRANCH   9  10
ENDBRANCH   8   9
ENDBRANCH   7   8
ENDBRANCH   6   7
ENDBRANCH   5   6
ENDBRANCH   4   5
ENDBRANCH   3   4
ENDBRANCH   2   3
ENDBRANCH   1   2
BRANCH   1  15
ATOM     15  C   UNL     1      29.996  43.800   6.205  1.00  0.00     0.000 C 
BRANCH  15  16
ATOM     16  C   UNL     1      29.036  42.614   5.982  1.00  0.00     0.000 C 
BRANCH  16  17
ATOM     17  C   UNL     1      29.648  41.223   6.239  1.00  0.00     0.000 C 
BRANCH  17  18
ATOM     18  C   UNL     1      28.714  40.217   6.942  1.00  0.00    -0.000 C 
BRANCH  18  19
ATOM     19  C   UNL     1      27.558  40.851   7.736  1.00  0.00    -0.000 C 
BRANCH  19  20
ATOM     20  C   UNL     1      26.741  39.817   8.524  1.00  0.00    -0.000 C 
BRANCH  20  21
ATOM     21  C   UNL     1      25.925  38.921   7.578  1.00  0.00    -0.000 C 
BRANCH  21  22
ATOM     22  C   UNL     1      25.351  37.685   8.287  1.00  0.00    -0.000 C 
BRANCH  22  23
ATOM     23  C   UNL     1      25.959  37.464   9.682  1.00  0.00    -0.000 C 
BRANCH  23  24
ATOM     24  C   UNL     1      26.611  36.080   9.827  1.00  0.00    -0.000 C 
BRANCH  24  25
ATOM     25  C   UNL     1      26.645  35.303   8.503  1.00  0.00    -0.003 C 
ATOM     26  C   UNL     1      28.078  35.104   8.018  1.00  0.00     0.004 C 
ENDBRANCH  24  25
ENDBRANCH  23  24
ENDBRANCH  22  23
ENDBRANCH  21  22
ENDBRANCH  20  21
ENDBRANCH  19  20
ENDBRANCH  18  19
ENDBRANCH  17  18
ENDBRANCH  16  17
ENDBRANCH  15  16
ENDBRANCH   1  15
TORSDOF 22
ENDMDL
MODEL 4
REMARK VINA RESULT:    -3.628      2.747      8.600
REMARK INTER + INTRA:         -10.766
REMARK INTER:                  -8.153
REMARK INTRA:                  -2.613
REMARK UNBOUND:                -2.472
REMARK SMILES CCCCCCCCCCCCCCCCCCCCCCCC(=O)[O-]
REMARK SMILES IDX 13 1 14 2 15 3 16 4 17 5 18 6 19 7 20 8 21 9 22 10 23 11
REMARK SMILES IDX 24 12 25 13 26 14 12 15 11 16 10 17 9 18 8 19 7 20 6 21 5 22
REMARK SMILES IDX 4 23 3 24 2 25 1 26
REMARK H PARENT
REMARK Flexibility Score: inf
ROOT
ATOM      1  C   UNL     1      30.105  46.137   7.082  1.00  0.00     0.000 C 
ENDROOT
BRANCH   1   2
ATOM      2  C   UNL     1      29.686  44.706   6.692  1.00  0.00     0.000 C 
BRANCH   2   3
ATOM      3  C   UNL     1      28.167  44.467   6.618  1.00  0.00     0.000 C 
BRANCH   3   4
ATOM      4  C   UNL     1      27.466  44.664   7.973  1.00  0.00     0.000 C 
BRANCH   4   5
ATOM      5  C   UNL     1      26.871  43.361   8.539  1.00  0.00     0.000 C 
BRANCH   5   6
ATOM      6  C   UNL     1      27.108  42.104   7.683  1.00  0.00     0.000 C 
BRANCH   6   7
ATOM      7  C   UNL     1      27.457  40.863   8.521  1.00  0.00     0.000 C 
BRANCH   7   8
ATOM      8  C   UNL     1      26.568  39.672   8.135  1.00  0.00     0.000 C 
BRANCH   8   9
ATOM      9  C   UNL     1      27.055  38.972   6.845  1.00  0.00     0.000 C 
BRANCH   9  10
ATOM     10  C   UNL     1      26.921  37.439   6.891  1.00  0.00     0.006 C 
BRANCH  10  11
ATOM     11  C   UNL     1      25.951  36.929   7.966  1.00  0.00     0.053 C 
BRANCH  11  12
ATOM     12  C   UNL     1      26.617  35.986   8.919  1.00  0.00     0.041 C 
ATOM     13  O   UNL     1      26.398  36.077  10.155  1.00  0.00    -0.550 OA
ATOM     14  O   UNL     1      27.475  35.002   8.445  1.00  0.00    -0.550 OA
ENDBRANCH  11  12
ENDBRANCH  10  11
ENDBRANCH   9  10
ENDBRANCH   8   9
ENDBRANCH   7   8
ENDBRANCH   6   7
ENDBRANCH   5   6
ENDBRANCH   4   5
ENDBRANCH   3   4
ENDBRANCH   2   3
ENDBRANCH   1   2
BRANCH   1  15
ATOM     15  C   UNL     1      30.828  46.262   8.438  1.00  0.00     0.000 C 
BRANCH  15  16
ATOM     16  C   UNL     1      31.917  47.352   8.498  1.00  0.00     0.000 C 
BRANCH  16  17
ATOM     17  C   UNL     1      31.894  48.361   7.332  1.00  0.00     0.000 C 
BRANCH  17  18
ATOM     18  C   UNL     1      32.287  49.804   7.709  1.00  0.00    -0.000 C 
BRANCH  18  19
ATOM     19  C   UNL     1      31.575  50.903   6.899  1.00  0.00    -0.000 C 
BRANCH  19  20
ATOM     20  C   UNL     1      30.083  50.613   6.688  1.00  0.00    -0.000 C 
BRANCH  20  21
ATOM     21  C   UNL     1      29.212  51.547   7.545  1.00  0.00    -0.000 C 
BRANCH  21  22
ATOM     22  C   UNL     1      28.244  50.779   8.457  1.00  0.00    -0.000 C 
BRANCH  22  23
ATOM     23  C   UNL     1      28.741  49.362   8.791  1.00  0.00    -0.000 C 
BRANCH  23  24
ATOM     24  C   UNL     1      27.591  48.350   8.917  1.00  0.00    -0.000 C 
BRANCH  24  25
ATOM     25  C   UNL     1      26.389  48.712   8.032  1.00  0.00    -0.003 C 
ATOM     26  C   UNL     1      26.433  47.956   6.707  1.00  0.00     0.004 C 
ENDBRANCH  24  25
ENDBRANCH  23  24
ENDBRANCH  22  23
ENDBRANCH  21  22
ENDBRANCH  20  21
ENDBRANCH  19  20
ENDBRANCH  18  19
ENDBRANCH  17  18
ENDBRANCH  16  17
ENDBRANCH  15  16
ENDBRANCH   1  15
TORSDOF 22
ENDMDL
MODEL 5
REMARK VINA RESULT:    -3.609      2.581      8.206
REMARK INTER + INTRA:         -10.723
REMARK INTER:                  -7.377
REMARK INTRA:                  -3.346
REMARK UNBOUND:                -2.472
REMARK SMILES CCCCCCCCCCCCCCCCCCCCCCCC(=O)[O-]
REMARK SMILES IDX 13 1 14 2 15 3 16 4 17 5 18 6 19 7 20 8 21 9 22 10 23 11
REMARK SMILES IDX 24 12 25 13 26 14 12 15 11 16 10 17 9 18 8 19 7 20 6 21 5 22
REMARK SMILES IDX 4 23 3 24 2 25 1 26
REMARK H PARENT
REMARK Flexibility Score: inf
ROOT
ATOM      1  C   UNL     1      31.310  46.057   8.115  1.00  0.00     0.000 C 
ENDROOT
BRANCH   1   2
ATOM      2  C   UNL     1      30.171  45.338   7.365  1.00  0.00     0.000 C 
BRANCH   2   3
ATOM      3  C   UNL     1      29.677  46.047   6.092  1.00  0.00     0.000 C 
BRANCH   3   4
ATOM      4  C   UNL     1      28.155  46.272   6.087  1.00  0.00     0.000 C 
BRANCH   4   5
ATOM      5  C   UNL     1      27.357  45.004   6.441  1.00  0.00     0.000 C 
BRANCH   5   6
ATOM      6  C   UNL     1      26.720  44.998   7.843  1.00  0.00     0.000 C 
BRANCH   6   7
ATOM      7  C   UNL     1      26.726  43.608   8.500  1.00  0.00     0.000 C 
BRANCH   7   8
ATOM      8  C   UNL     1      27.421  42.578   7.598  1.00  0.00     0.000 C 
BRANCH   8   9
ATOM      9  C   UNL     1      27.444  41.168   8.232  1.00  0.00     0.000 C 
BRANCH   9  10
ATOM     10  C   UNL     1      26.387  40.214   7.644  1.00  0.00     0.006 C 
BRANCH  10  11
ATOM     11  C   UNL     1      26.072  39.005   8.536  1.00  0.00     0.053 C 
BRANCH  11  12
ATOM     12  C   UNL     1      26.448  37.713   7.880  1.00  0.00     0.041 C 
ATOM     13  O   UNL     1      26.670  37.673   6.643  1.00  0.00    -0.550 OA
ATOM     14  O   UNL     1      26.560  36.552   8.635  1.00  0.00    -0.550 OA
ENDBRANCH  11  12
ENDBRANCH  10  11
ENDBRANCH   9  10
ENDBRANCH   8   9
ENDBRANCH   7   8
ENDBRANCH   6   7
ENDBRANCH   5   6
ENDBRANCH   4   5
ENDBRANCH   3   4
ENDBRANCH   2   3
ENDBRANCH   1   2
BRANCH   1  15
ATOM     15  C   UNL     1      30.854  47.093   9.163  1.00  0.00     0.000 C 
BRANCH  15  16
ATOM     16  C   UNL     1      29.345  47.075   9.481  1.00  0.00     0.000 C 
BRANCH  16  17
ATOM     17  C   UNL     1      28.614  48.412   9.250  1.00  0.00     0.000 C 
BRANCH  17  18
ATOM     18  C   UNL     1      27.079  48.311   9.156  1.00  0.00    -0.000 C 
BRANCH  18  19
ATOM     19  C   UNL     1      26.462  48.946   7.897  1.00  0.00    -0.000 C 
BRANCH  19  20
ATOM     20  C   UNL     1      27.433  49.887   7.170  1.00  0.00    -0.000 C 
BRANCH  20  21
ATOM     21  C   UNL     1      27.397  51.298   7.780  1.00  0.00    -0.000 C 
BRANCH  21  22
ATOM     22  C   UNL     1      28.731  52.043   7.624  1.00  0.00    -0.000 C 
BRANCH  22  23
ATOM     23  C   UNL     1      29.822  51.176   6.971  1.00  0.00    -0.000 C 
BRANCH  23  24
ATOM     24  C   UNL     1      30.921  50.766   7.964  1.00  0.00    -0.000 C 
BRANCH  24  25
ATOM     25  C   UNL     1      32.103  50.067   7.278  1.00  0.00    -0.003 C 
ATOM     26  C   UNL     1      31.628  49.181   6.129  1.00  0.00     0.004 C 
ENDBRANCH  24  25
ENDBRANCH  23  24
ENDBRANCH  22  23
ENDBRANCH  21  22
ENDBRANCH  20  21
ENDBRANCH  19  20
ENDBRANCH  18  19
ENDBRANCH  17  18
ENDBRANCH  16  17
ENDBRANCH  15  16
ENDBRANCH   1  15
TORSDOF 22
ENDMDL
MODEL 6
REMARK VINA RESULT:    -3.565      2.276      4.087
REMARK INTER + INTRA:         -10.622
REMARK INTER:                  -8.256
REMARK INTRA:                  -2.365
REMARK UNBOUND:                -2.472
REMARK SMILES CCCCCCCCCCCCCCCCCCCCCCCC(=O)[O-]
REMARK SMILES IDX 13 1 14 2 15 3 16 4 17 5 18 6 19 7 20 8 21 9 22 10 23 11
REMARK SMILES IDX 24 12 25 13 26 14 12 15 11 16 10 17 9 18 8 19 7 20 6 21 5 22
REMARK SMILES IDX 4 23 3 24 2 25 1 26
REMARK H PARENT
REMARK Flexibility Score: inf
ROOT
ATOM      1  C   UNL     1      28.288  48.001   9.127  1.00  0.00     0.000 C 
ENDROOT
BRANCH   1   2
ATOM      2  C   UNL     1      29.126  47.509   7.930  1.00  0.00     0.000 C 
BRANCH   2   3
ATOM      3  C   UNL     1      30.203  46.464   8.272  1.00  0.00     0.000 C 
BRANCH   3   4
ATOM      4  C   UNL     1      31.604  47.080   8.424  1.00  0.00     0.000 C 
BRANCH   4   5
ATOM      5  C   UNL     1      31.884  48.200   7.405  1.00  0.00     0.000 C 
BRANCH   5   6
ATOM      6  C   UNL     1      32.378  49.528   8.006  1.00  0.00     0.000 C 
BRANCH   6   7
ATOM      7  C   UNL     1      32.293  50.703   7.020  1.00  0.00     0.000 C 
BRANCH   7   8
ATOM      8  C   UNL     1      31.100  50.536   6.068  1.00  0.00     0.000 C 
BRANCH   8   9
ATOM      9  C   UNL     1      30.007  51.603   6.306  1.00  0.00     0.000 C 
BRANCH   9  10
ATOM     10  C   UNL     1      28.729  51.039   6.954  1.00  0.00     0.006 C 
BRANCH  10  11
ATOM     11  C   UNL     1      28.338  51.731   8.268  1.00  0.00     0.053 C 
BRANCH  11  12
ATOM     12  C   UNL     1      26.896  52.132   8.281  1.00  0.00     0.041 C 
ATOM     13  O   UNL     1      26.011  51.325   7.892  1.00  0.00    -0.550 OA
ATOM     14  O   UNL     1      26.525  53.395   8.726  1.00  0.00    -0.550 OA
ENDBRANCH  11  12
ENDBRANCH  10  11
ENDBRANCH   9  10
ENDBRANCH   8   9
ENDBRANCH   7   8
ENDBRANCH   6   7
ENDBRANCH   5   6
ENDBRANCH   4   5
ENDBRANCH   3   4
ENDBRANCH   2   3
ENDBRANCH   1   2
BRANCH   1  15
ATOM     15  C   UNL     1      26.761  47.980   8.911  1.00  0.00     0.000 C 
BRANCH  15  16
ATOM     16  C   UNL     1      26.014  46.854   9.653  1.00  0.00     0.000 C 
BRANCH  16  17
ATOM     17  C   UNL     1      25.666  45.624   8.791  1.00  0.00     0.000 C 
BRANCH  17  18
ATOM     18  C   UNL     1      26.707  44.488   8.822  1.00  0.00    -0.000 C 
BRANCH  18  19
ATOM     19  C   UNL     1      27.363  44.171   7.466  1.00  0.00    -0.000 C 
BRANCH  19  20
ATOM     20  C   UNL     1      26.998  42.776   6.941  1.00  0.00    -0.000 C 
BRANCH  20  21
ATOM     21  C   UNL     1      27.013  41.738   8.075  1.00  0.00    -0.000 C 
BRANCH  21  22
ATOM     22  C   UNL     1      26.521  40.356   7.616  1.00  0.00    -0.000 C 
BRANCH  22  23
ATOM     23  C   UNL     1      26.486  39.328   8.761  1.00  0.00    -0.000 C 
BRANCH  23  24
ATOM     24  C   UNL     1      25.660  38.082   8.406  1.00  0.00    -0.000 C 
BRANCH  24  25
ATOM     25  C   UNL     1      25.505  37.121   9.594  1.00  0.00    -0.003 C 
ATOM     26  C   UNL     1      26.602  36.060   9.591  1.00  0.00     0.004 C 
ENDBRANCH  24  25
ENDBRANCH  23  24
ENDBRANCH  22  23
ENDBRANCH  21  22
ENDBRANCH  20  21
ENDBRANCH  19  20
ENDBRANCH  18  19
ENDBRANCH  17  18
ENDBRANCH  16  17
ENDBRANCH  15  16
ENDBRANCH   1  15
TORSDOF 22
ENDMDL
MODEL 7
REMARK VINA RESULT:    -3.557      1.216      2.268
REMARK INTER + INTRA:         -10.604
REMARK INTER:                  -8.028
REMARK INTRA:                  -2.577
REMARK UNBOUND:                -2.472
REMARK SMILES CCCCCCCCCCCCCCCCCCCCCCCC(=O)[O-]
REMARK SMILES IDX 13 1 14 2 15 3 16 4 17 5 18 6 19 7 20 8 21 9 22 10 23 11
REMARK SMILES IDX 24 12 25 13 26 14 12 15 11 16 10 17 9 18 8 19 7 20 6 21 5 22
REMARK SMILES IDX 4 23 3 24 2 25 1 26
REMARK H PARENT
REMARK Flexibility Score: inf
ROOT
ATOM      1  C   UNL     1      30.114  45.796   6.947  1.00  0.00     0.000 C 
ENDROOT
BRANCH   1   2
ATOM      2  C   UNL     1      31.071  46.041   8.132  1.00  0.00     0.000 C 
BRANCH   2   3
ATOM      3  C   UNL     1      31.623  47.474   8.239  1.00  0.00     0.000 C 
BRANCH   3   4
ATOM      4  C   UNL     1      31.480  48.268   6.930  1.00  0.00     0.000 C 
BRANCH   4   5
ATOM      5  C   UNL     1      32.026  49.704   7.033  1.00  0.00     0.000 C 
BRANCH   5   6
ATOM      6  C   UNL     1      31.314  50.607   8.058  1.00  0.00     0.000 C 
BRANCH   6   7
ATOM      7  C   UNL     1      29.849  50.893   7.691  1.00  0.00     0.000 C 
BRANCH   7   8
ATOM      8  C   UNL     1      28.893  50.213   8.681  1.00  0.00     0.000 C 
BRANCH   8   9
ATOM      9  C   UNL     1      27.574  49.768   8.009  1.00  0.00     0.000 C 
BRANCH   9  10
ATOM     10  C   UNL     1      27.470  48.244   7.810  1.00  0.00     0.006 C 
BRANCH  10  11
ATOM     11  C   UNL     1      27.435  47.444   9.120  1.00  0.00     0.053 C 
BRANCH  11  12
ATOM     12  C   UNL     1      26.083  46.854   9.380  1.00  0.00     0.041 C 
ATOM     13  O   UNL     1      25.895  46.123  10.386  1.00  0.00    -0.550 OA
ATOM     14  O   UNL     1      25.028  47.115   8.514  1.00  0.00    -0.550 OA
ENDBRANCH  11  12
ENDBRANCH  10  11
ENDBRANCH   9  10
ENDBRANCH   8   9
ENDBRANCH   7   8
ENDBRANCH   6   7
ENDBRANCH   5   6
ENDBRANCH   4   5
ENDBRANCH   3   4
ENDBRANCH   2   3
ENDBRANCH   1   2
BRANCH   1  15
ATOM     15  C   UNL     1      30.123  44.360   6.385  1.00  0.00     0.000 C 
BRANCH  15  16
ATOM     16  C   UNL     1      28.752  43.654   6.383  1.00  0.00     0.000 C 
BRANCH  16  17
ATOM     17  C   UNL     1      27.725  44.221   7.383  1.00  0.00     0.000 C 
BRANCH  17  18
ATOM     18  C   UNL     1      26.249  43.943   7.034  1.00  0.00    -0.000 C 
BRANCH  18  19
ATOM     19  C   UNL     1      25.689  42.622   7.590  1.00  0.00    -0.000 C 
BRANCH  19  20
ATOM     20  C   UNL     1      25.751  41.475   6.572  1.00  0.00    -0.000 C 
BRANCH  20  21
ATOM     21  C   UNL     1      26.850  40.465   6.942  1.00  0.00    -0.000 C 
BRANCH  21  22
ATOM     22  C   UNL     1      26.600  39.793   8.301  1.00  0.00    -0.000 C 
BRANCH  22  23
ATOM     23  C   UNL     1      26.172  38.322   8.165  1.00  0.00    -0.000 C 
BRANCH  23  24
ATOM     24  C   UNL     1      25.181  37.895   9.260  1.00  0.00    -0.000 C 
BRANCH  24  25
ATOM     25  C   UNL     1      25.678  36.686  10.065  1.00  0.00    -0.003 C 
ATOM     26  C   UNL     1      26.721  35.893   9.281  1.00  0.00     0.004 C 
ENDBRANCH  24  25
ENDBRANCH  23  24
ENDBRANCH  22  23
ENDBRANCH  21  22
ENDBRANCH  20  21
ENDBRANCH  19  20
ENDBRANCH  18  19
ENDBRANCH  17  18
ENDBRANCH  16  17
ENDBRANCH  15  16
ENDBRANCH   1  15
TORSDOF 22
ENDMDL
MODEL 8
REMARK VINA RESULT:    -3.523      2.316      8.328
REMARK INTER + INTRA:         -10.526
REMARK INTER:                  -7.632
REMARK INTRA:                  -2.893
REMARK UNBOUND:                -2.472
REMARK SMILES CCCCCCCCCCCCCCCCCCCCCCCC(=O)[O-]
REMARK SMILES IDX 13 1 14 2 15 3 16 4 17 5 18 6 19 7 20 8 21 9 22 10 23 11
REMARK SMILES IDX 24 12 25 13 26 14 12 15 11 16 10 17 9 18 8 19 7 20 6 21 5 22
REMARK SMILES IDX 4 23 3 24 2 25 1 26
REMARK H PARENT
REMARK Flexibility Score: inf
ROOT
ATOM      1  C   UNL     1      27.281  47.900   7.527  1.00  0.00     0.000 C 
ENDROOT
BRANCH   1   2
ATOM      2  C   UNL     1      25.957  47.595   8.257  1.00  0.00     0.000 C 
BRANCH   2   3
ATOM      3  C   UNL     1      26.110  46.931   9.638  1.00  0.00     0.000 C 
BRANCH   3   4
ATOM      4  C   UNL     1      25.617  45.474   9.657  1.00  0.00     0.000 C 
BRANCH   4   5
ATOM      5  C   UNL     1      24.875  45.072   8.370  1.00  0.00     0.000 C 
BRANCH   5   6
ATOM      6  C   UNL     1      25.476  43.874   7.611  1.00  0.00     0.000 C 
BRANCH   6   7
ATOM      7  C   UNL     1      26.881  43.495   8.102  1.00  0.00     0.000 C 
BRANCH   7   8
ATOM      8  C   UNL     1      27.684  42.804   6.991  1.00  0.00     0.000 C 
BRANCH   8   9
ATOM      9  C   UNL     1      28.206  41.415   7.424  1.00  0.00     0.000 C 
BRANCH   9  10
ATOM     10  C   UNL     1      27.217  40.636   8.311  1.00  0.00     0.006 C 
BRANCH  10  11
ATOM     11  C   UNL     1      26.186  39.814   7.524  1.00  0.00     0.053 C 
BRANCH  11  12
ATOM     12  C   UNL     1      26.159  38.383   7.964  1.00  0.00     0.041 C 
ATOM     13  O   UNL     1      26.564  37.476   7.191  1.00  0.00    -0.550 OA
ATOM     14  O   UNL     1      25.691  38.048   9.228  1.00  0.00    -0.550 OA
ENDBRANCH  11  12
ENDBRANCH  10  11
ENDBRANCH   9  10
ENDBRANCH   8   9
ENDBRANCH   7   8
ENDBRANCH   6   7
ENDBRANCH   5   6
ENDBRANCH   4   5
ENDBRANCH   3   4
ENDBRANCH   2   3
ENDBRANCH   1   2
BRANCH   1  15
ATOM     15  C   UNL     1      28.339  46.781   7.593  1.00  0.00     0.000 C 
BRANCH  15  16
ATOM     16  C   UNL     1      29.446  46.993   8.646  1.00  0.00     0.000 C 
BRANCH  16  17
ATOM     17  C   UNL     1      30.814  46.380   8.286  1.00  0.00     0.000 C 
BRANCH  17  18
ATOM     18  C   UNL     1      32.004  47.358   8.343  1.00  0.00    -0.000 C 
BRANCH  18  19
ATOM     19  C   UNL     1      31.984  48.467   7.275  1.00  0.00    -0.000 C 
BRANCH  19  20
ATOM     20  C   UNL     1      32.384  49.839   7.836  1.00  0.00    -0.000 C 
BRANCH  20  21
ATOM     21  C   UNL     1      31.322  50.901   7.507  1.00  0.00    -0.000 C 
BRANCH  21  22
ATOM     22  C   UNL     1      29.889  50.358   7.625  1.00  0.00    -0.000 C 
BRANCH  22  23
ATOM     23  C   UNL     1      29.193  50.799   8.924  1.00  0.00    -0.000 C 
BRANCH  23  24
ATOM     24  C   UNL     1      28.087  51.837   8.675  1.00  0.00    -0.000 C 
BRANCH  24  25
ATOM     25  C   UNL     1      27.375  51.628   7.331  1.00  0.00    -0.003 C 
ATOM     26  C   UNL     1      25.878  51.408   7.528  1.00  0.00     0.004 C 
ENDBRANCH  24  25
ENDBRANCH  23  24
ENDBRANCH  22  23
ENDBRANCH  21  22
ENDBRANCH  20  21
ENDBRANCH  19  20
ENDBRANCH  18  19
ENDBRANCH  17  18
ENDBRANCH  16  17
ENDBRANCH  15  16
ENDBRANCH   1  15
TORSDOF 22
ENDMDL
MODEL 9
REMARK VINA RESULT:    -3.479      3.086      4.591
REMARK INTER + INTRA:         -10.426
REMARK INTER:                  -7.385
REMARK INTRA:                  -3.041
REMARK UNBOUND:                -2.472
REMARK SMILES CCCCCCCCCCCCCCCCCCCCCCCC(=O)[O-]
REMARK SMILES IDX 13 1 14 2 15 3 16 4 17 5 18 6 19 7 20 8 21 9 22 10 23 11
REMARK SMILES IDX 24 12 25 13 26 14 12 15 11 16 10 17 9 18 8 19 7 20 6 21 5 22
REMARK SMILES IDX 4 23 3 24 2 25 1 26
REMARK H PARENT
REMARK Flexibility Score: inf
ROOT
ATOM      1  C   UNL     1      30.257  47.164   8.784  1.00  0.00     0.000 C 
ENDROOT
BRANCH   1   2
ATOM      2  C   UNL     1      31.632  47.420   8.133  1.00  0.00     0.000 C 
BRANCH   2   3
ATOM      3  C   UNL     1      31.704  48.661   7.225  1.00  0.00     0.000 C 
BRANCH   3   4
ATOM      4  C   UNL     1      32.365  49.867   7.915  1.00  0.00     0.000 C 
BRANCH   4   5
ATOM      5  C   UNL     1      32.431  51.115   7.016  1.00  0.00     0.000 C 
BRANCH   5   6
ATOM      6  C   UNL     1      31.220  51.321   6.087  1.00  0.00     0.000 C 
BRANCH   6   7
ATOM      7  C   UNL     1      30.113  52.175   6.724  1.00  0.00     0.000 C 
BRANCH   7   8
ATOM      8  C   UNL     1      28.844  51.344   6.961  1.00  0.00     0.000 C 
BRANCH   8   9
ATOM      9  C   UNL     1      28.093  51.773   8.242  1.00  0.00     0.000 C 
BRANCH   9  10
ATOM     10  C   UNL     1      26.563  51.637   8.131  1.00  0.00     0.006 C 
BRANCH  10  11
ATOM     11  C   UNL     1      25.895  52.749   7.310  1.00  0.00     0.053 C 
BRANCH  11  12
ATOM     12  C   UNL     1      26.014  54.085   7.976  1.00  0.00     0.041 C 
ATOM     13  O   UNL     1      26.168  55.125   7.283  1.00  0.00    -0.550 OA
ATOM     14  O   UNL     1      25.952  54.186   9.360  1.00  0.00    -0.550 OA
ENDBRANCH  11  12
ENDBRANCH  10  11
ENDBRANCH   9  10
ENDBRANCH   8   9
ENDBRANCH   7   8
ENDBRANCH   6   7
ENDBRANCH   5   6
ENDBRANCH   4   5
ENDBRANCH   3   4
ENDBRANCH   2   3
ENDBRANCH   1   2
BRANCH   1  15
ATOM     15  C   UNL     1      29.134  48.123   8.341  1.00  0.00     0.000 C 
BRANCH  15  16
ATOM     16  C   UNL     1      27.882  48.118   9.242  1.00  0.00     0.000 C 
BRANCH  16  17
ATOM     17  C   UNL     1      26.541  47.987   8.494  1.00  0.00     0.000 C 
BRANCH  17  18
ATOM     18  C   UNL     1      26.659  47.779   6.971  1.00  0.00    -0.000 C 
BRANCH  18  19
ATOM     19  C   UNL     1      26.368  46.347   6.486  1.00  0.00    -0.000 C 
BRANCH  19  20
ATOM     20  C   UNL     1      27.644  45.557   6.165  1.00  0.00    -0.000 C 
BRANCH  20  21
ATOM     21  C   UNL     1      28.061  44.675   7.353  1.00  0.00    -0.000 C 
BRANCH  21  22
ATOM     22  C   UNL     1      26.868  44.266   8.231  1.00  0.00    -0.000 C 
BRANCH  22  23
ATOM     23  C   UNL     1      26.286  42.896   7.841  1.00  0.00    -0.000 C 
BRANCH  23  24
ATOM     24  C   UNL     1      27.378  41.846   7.581  1.00  0.00    -0.000 C 
BRANCH  24  25
ATOM     25  C   UNL     1      27.217  40.599   8.463  1.00  0.00    -0.003 C 
ATOM     26  C   UNL     1      26.671  39.422   7.658  1.00  0.00     0.004 C 
ENDBRANCH  24  25
ENDBRANCH  23  24
ENDBRANCH  22  23
ENDBRANCH  21  22
ENDBRANCH  20  21
ENDBRANCH  19  20
ENDBRANCH  18  19
ENDBRANCH  17  18
ENDBRANCH  16  17
ENDBRANCH  15  16
ENDBRANCH   1  15
TORSDOF 22
ENDMDL
