MODEL 1
REMARK VINA RESULT:    -4.529      0.000      0.000
REMARK INTER + INTRA:         -10.687
REMARK INTER:                  -8.765
REMARK INTRA:                  -1.922
REMARK UNBOUND:                -1.922
REMARK SMILES CCCCCCCCCCCCCCCCCC(=O)[O-]
REMARK SMILES IDX 10 1 11 2 12 3 13 4 14 5 15 6 16 7 17 8 18 9 19 10 20 11
REMARK SMILES IDX 9 12 8 13 7 14 6 15 5 16 4 17 3 18 2 19 1 20
REMARK H PARENT
REMARK Flexibility Score: inf
ROOT
ATOM      1  C   UNL     1      19.890   9.349   7.203  1.00  0.00     0.000 C 
ENDROOT
BRANCH   1   2
ATOM      2  C   UNL     1      20.908   9.352   8.357  1.00  0.00     0.000 C 
BRANCH   2   3
ATOM      3  C   UNL     1      21.821   8.115   8.344  1.00  0.00     0.000 C 
BRANCH   3   4
ATOM      4  C   UNL     1      21.467   7.128   7.217  1.00  0.00     0.000 C 
BRANCH   4   5
ATOM      5  C   UNL     1      22.532   6.031   7.026  1.00  0.00     0.000 C 
BRANCH   5   6
ATOM      6  C   UNL     1      23.490   6.249   5.841  1.00  0.00     0.000 C 
BRANCH   6   7
ATOM      7  C   UNL     1      23.742   4.967   5.029  1.00  0.00     0.006 C 
BRANCH   7   8
ATOM      8  C   UNL     1      23.331   5.119   3.558  1.00  0.00     0.053 C 
BRANCH   8   9
ATOM      9  C   UNL     1      24.514   5.078   2.640  1.00  0.00     0.041 C 
ATOM     10  O   UNL     1      24.373   4.719   1.440  1.00  0.00    -0.550 OA
ATOM     11  O   UNL     1      25.766   5.463   3.099  1.00  0.00    -0.550 OA
ENDBRANCH   8   9
ENDBRANCH   7   8
ENDBRANCH   6   7
ENDBRANCH   5   6
ENDBRANCH   4   5
ENDBRANCH   3   4
ENDBRANCH   2   3
ENDBRANCH   1   2
BRANCH   1  12
ATOM     12  C   UNL     1      19.599  10.762   6.671  1.00  0.00     0.000 C 
BRANCH  12  13
ATOM     13  C   UNL     1      18.436  10.789   5.667  1.00  0.00    -0.000 C 
BRANCH  13  14
ATOM     14  C   UNL     1      17.174  10.161   6.272  1.00  0.00    -0.000 C 
BRANCH  14  15
ATOM     15  C   UNL     1      16.274   9.571   5.176  1.00  0.00    -0.000 C 
BRANCH  15  16
ATOM     16  C   UNL     1      15.959   8.084   5.405  1.00  0.00    -0.000 C 
BRANCH  16  17
ATOM     17  C   UNL     1      16.785   7.472   6.550  1.00  0.00    -0.000 C 
BRANCH  17  18
ATOM     18  C   UNL     1      17.623   6.263   6.081  1.00  0.00    -0.000 C 
BRANCH  18  19
ATOM     19  C   UNL     1      17.978   6.304   4.586  1.00  0.00    -0.003 C 
ATOM     20  C   UNL     1      19.278   7.051   4.298  1.00  0.00     0.004 C 
ENDBRANCH  18  19
ENDBRANCH  17  18
ENDBRANCH  16  17
ENDBRANCH  15  16
ENDBRANCH  14  15
ENDBRANCH  13  14
ENDBRANCH  12  13
ENDBRANCH   1  12
TORSDOF 16
ENDMDL
MODEL 2
REMARK VINA RESULT:    -4.477      1.128      1.793
REMARK INTER + INTRA:         -10.586
REMARK INTER:                  -8.702
REMARK INTRA:                  -1.884
REMARK UNBOUND:                -1.922
REMARK SMILES CCCCCCCCCCCCCCCCCC(=O)[O-]
REMARK SMILES IDX 10 1 11 2 12 3 13 4 14 5 15 6 16 7 17 8 18 9 19 10 20 11
REMARK SMILES IDX 9 12 8 13 7 14 6 15 5 16 4 17 3 18 2 19 1 20
REMARK H PARENT
REMARK Flexibility Score: inf
ROOT
ATOM      1  C   UNL     1      20.165   9.989   7.766  1.00  0.00     0.000 C 
ENDROOT
BRANCH   1   2
ATOM      2  C   UNL     1      21.113   8.843   8.159  1.00  0.00     0.000 C 
BRANCH   2   3
ATOM      3  C   UNL     1      20.887   7.573   7.321  1.00  0.00     0.000 C 
BRANCH   3   4
ATOM      4  C   UNL     1      21.741   6.386   7.801  1.00  0.00     0.000 C 
BRANCH   4   5
ATOM      5  C   UNL     1      23.251   6.614   7.596  1.00  0.00     0.000 C 
BRANCH   5   6
ATOM      6  C   UNL     1      23.722   6.592   6.131  1.00  0.00     0.000 C 
BRANCH   6   7
ATOM      7  C   UNL     1      22.959   5.570   5.271  1.00  0.00     0.006 C 
BRANCH   7   8
ATOM      8  C   UNL     1      23.895   4.547   4.614  1.00  0.00     0.053 C 
BRANCH   8   9
ATOM      9  C   UNL     1      24.094   4.826   3.156  1.00  0.00     0.041 C 
ATOM     10  O   UNL     1      23.183   4.557   2.328  1.00  0.00    -0.550 OA
ATOM     11  O   UNL     1      25.274   5.409   2.713  1.00  0.00    -0.550 OA
ENDBRANCH   8   9
ENDBRANCH   7   8
ENDBRANCH   6   7
ENDBRANCH   5   6
ENDBRANCH   4   5
ENDBRANCH   3   4
ENDBRANCH   2   3
ENDBRANCH   1   2
BRANCH   1  12
ATOM     12  C   UNL     1      19.317   9.654   6.528  1.00  0.00     0.000 C 
BRANCH  12  13
ATOM     13  C   UNL     1      18.988  10.893   5.681  1.00  0.00    -0.000 C 
BRANCH  13  14
ATOM     14  C   UNL     1      18.587  10.494   4.256  1.00  0.00    -0.000 C 
BRANCH  14  15
ATOM     15  C   UNL     1      17.791   9.180   4.257  1.00  0.00    -0.000 C 
BRANCH  15  16
ATOM     16  C   UNL     1      18.534   8.036   3.549  1.00  0.00    -0.000 C 
BRANCH  16  17
ATOM     17  C   UNL     1      18.516   6.726   4.356  1.00  0.00    -0.000 C 
BRANCH  17  18
ATOM     18  C   UNL     1      17.354   6.684   5.371  1.00  0.00    -0.000 C 
BRANCH  18  19
ATOM     19  C   UNL     1      17.776   6.197   6.768  1.00  0.00    -0.003 C 
ATOM     20  C   UNL     1      17.156   7.014   7.900  1.00  0.00     0.004 C 
ENDBRANCH  18  19
ENDBRANCH  17  18
ENDBRANCH  16  17
ENDBRANCH  15  16
ENDBRANCH  14  15
ENDBRANCH  13  14
ENDBRANCH  12  13
ENDBRANCH   1  12
TORSDOF 16
ENDMDL
MODEL 3
REMARK VINA RESULT:    -4.362      2.729      6.915
REMARK INTER + INTRA:         -10.363
REMARK INTER:                  -9.102
REMARK INTRA:                  -1.261
REMARK UNBOUND:                -1.922
REMARK SMILES CCCCCCCCCCCCCCCCCC(=O)[O-]
REMARK SMILES IDX 10 1 11 2 12 3 13 4 14 5 15 6 16 7 17 8 18 9 19 10 20 11
REMARK SMILES IDX 9 12 8 13 7 14 6 15 5 16 4 17 3 18 2 19 1 20
REMARK H PARENT
REMARK Flexibility Score: inf
ROOT
ATOM      1  C   UNL     1      20.518   8.436   7.610  1.00  0.00     0.000 C 
ENDROOT
BRANCH   1   2
ATOM      2  C   UNL     1      20.486   9.843   8.231  1.00  0.00     0.000 C 
BRANCH   2   3
ATOM      3  C   UNL     1      19.987  10.914   7.246  1.00  0.00     0.000 C 
BRANCH   3   4
ATOM      4  C   UNL     1      19.206  10.315   6.064  1.00  0.00     0.000 C 
BRANCH   4   5
ATOM      5  C   UNL     1      17.719  10.714   6.064  1.00  0.00     0.000 C 
BRANCH   5   6
ATOM      6  C   UNL     1      16.748   9.619   6.543  1.00  0.00     0.000 C 
BRANCH   6   7
ATOM      7  C   UNL     1      16.205   8.754   5.392  1.00  0.00     0.006 C 
BRANCH   7   8
ATOM      8  C   UNL     1      16.174   7.262   5.749  1.00  0.00     0.053 C 
BRANCH   8   9
ATOM      9  C   UNL     1      17.540   6.734   6.064  1.00  0.00     0.041 C 
ATOM     10  O   UNL     1      17.774   6.209   7.185  1.00  0.00    -0.550 OA
ATOM     11  O   UNL     1      18.548   6.797   5.111  1.00  0.00    -0.550 OA
ENDBRANCH   8   9
ENDBRANCH   7   8
ENDBRANCH   6   7
ENDBRANCH   5   6
ENDBRANCH   4   5
ENDBRANCH   3   4
ENDBRANCH   2   3
ENDBRANCH   1   2
BRANCH   1  12
ATOM     12  C   UNL     1      21.810   7.672   7.949  1.00  0.00     0.000 C 
BRANCH  12  13
ATOM     13  C   UNL     1      22.225   6.691   6.841  1.00  0.00    -0.000 C 
BRANCH  13  14
ATOM     14  C   UNL     1      23.717   6.350   6.942  1.00  0.00    -0.000 C 
BRANCH  14  15
ATOM     15  C   UNL     1      24.266   5.876   5.588  1.00  0.00    -0.000 C 
BRANCH  15  16
ATOM     16  C   UNL     1      23.167   5.729   4.523  1.00  0.00    -0.000 C 
BRANCH  16  17
ATOM     17  C   UNL     1      23.578   4.796   3.370  1.00  0.00    -0.000 C 
BRANCH  17  18
ATOM     18  C   UNL     1      24.999   5.102   2.852  1.00  0.00    -0.000 C 
BRANCH  18  19
ATOM     19  C   UNL     1      25.490   4.112   1.782  1.00  0.00    -0.003 C 
ATOM     20  C   UNL     1      24.359   3.534   0.935  1.00  0.00     0.004 C 
ENDBRANCH  18  19
ENDBRANCH  17  18
ENDBRANCH  16  17
ENDBRANCH  15  16
ENDBRANCH  14  15
ENDBRANCH  13  14
ENDBRANCH  12  13
ENDBRANCH   1  12
TORSDOF 16
ENDMDL
MODEL 4
REMARK VINA RESULT:    -4.344      2.229      5.896
REMARK INTER + INTRA:         -10.328
REMARK INTER:                  -8.708
REMARK INTRA:                  -1.620
REMARK UNBOUND:                -1.922
REMARK SMILES CCCCCCCCCCCCCCCCCC(=O)[O-]
REMARK SMILES IDX 10 1 11 2 12 3 13 4 14 5 15 6 16 7 17 8 18 9 19 10 20 11
REMARK SMILES IDX 9 12 8 13 7 14 6 15 5 16 4 17 3 18 2 19 1 20
REMARK H PARENT
REMARK Flexibility Score: inf
ROOT
ATOM      1  C   UNL     1      20.011  10.587   7.465  1.00  0.00     0.000 C 
ENDROOT
BRANCH   1   2
ATOM      2  C   UNL     1      19.219  10.334   6.171  1.00  0.00     0.000 C 
BRANCH   2   3
ATOM      3  C   UNL     1      17.735  10.713   6.301  1.00  0.00     0.000 C 
BRANCH   3   4
ATOM      4  C   UNL     1      16.865   9.543   6.793  1.00  0.00     0.000 C 
BRANCH   4   5
ATOM      5  C   UNL     1      16.503   8.553   5.669  1.00  0.00     0.000 C 
BRANCH   5   6
ATOM      6  C   UNL     1      16.682   7.066   6.025  1.00  0.00     0.000 C 
BRANCH   6   7
ATOM      7  C   UNL     1      17.575   6.313   5.025  1.00  0.00     0.006 C 
BRANCH   7   8
ATOM      8  C   UNL     1      18.615   7.230   4.368  1.00  0.00     0.053 C 
BRANCH   8   9
ATOM      9  C   UNL     1      18.557   7.161   2.872  1.00  0.00     0.041 C 
ATOM     10  O   UNL     1      18.505   8.220   2.191  1.00  0.00    -0.550 OA
ATOM     11  O   UNL     1      18.587   5.931   2.229  1.00  0.00    -0.550 OA
ENDBRANCH   8   9
ENDBRANCH   7   8
ENDBRANCH   6   7
ENDBRANCH   5   6
ENDBRANCH   4   5
ENDBRANCH   3   4
ENDBRANCH   2   3
ENDBRANCH   1   2
BRANCH   1  12
ATOM     12  C   UNL     1      20.234   9.301   8.280  1.00  0.00     0.000 C 
BRANCH  12  13
ATOM     13  C   UNL     1      20.302   8.045   7.397  1.00  0.00    -0.000 C 
BRANCH  13  14
ATOM     14  C   UNL     1      21.610   7.280   7.632  1.00  0.00    -0.000 C 
BRANCH  14  15
ATOM     15  C   UNL     1      22.044   6.531   6.363  1.00  0.00    -0.000 C 
BRANCH  15  16
ATOM     16  C   UNL     1      23.555   6.250   6.329  1.00  0.00    -0.000 C 
BRANCH  16  17
ATOM     17  C   UNL     1      23.936   5.177   5.293  1.00  0.00    -0.000 C 
BRANCH  17  18
ATOM     18  C   UNL     1      23.422   5.524   3.880  1.00  0.00    -0.000 C 
BRANCH  18  19
ATOM     19  C   UNL     1      24.319   4.990   2.751  1.00  0.00    -0.003 C 
ATOM     20  C   UNL     1      23.649   3.901   1.916  1.00  0.00     0.004 C 
ENDBRANCH  18  19
ENDBRANCH  17  18
ENDBRANCH  16  17
ENDBRANCH  15  16
ENDBRANCH  14  15
ENDBRANCH  13  14
ENDBRANCH  12  13
ENDBRANCH   1  12
TORSDOF 16
ENDMDL
MODEL 5
REMARK VINA RESULT:    -4.308      1.319      1.989
REMARK INTER + INTRA:         -10.259
REMARK INTER:                  -8.163
REMARK INTRA:                  -2.096
REMARK UNBOUND:                -1.922
REMARK SMILES CCCCCCCCCCCCCCCCCC(=O)[O-]
REMARK SMILES IDX 10 1 11 2 12 3 13 4 14 5 15 6 16 7 17 8 18 9 19 10 20 11
REMARK SMILES IDX 9 12 8 13 7 14 6 15 5 16 4 17 3 18 2 19 1 20
REMARK H PARENT
REMARK Flexibility Score: inf
ROOT
ATOM      1  C   UNL     1      21.072  10.745   8.726  1.00  0.00     0.000 C 
ENDROOT
BRANCH   1   2
ATOM      2  C   UNL     1      21.263   9.272   9.125  1.00  0.00     0.000 C 
BRANCH   2   3
ATOM      3  C   UNL     1      22.737   8.834   9.087  1.00  0.00     0.000 C 
BRANCH   3   4
ATOM      4  C   UNL     1      22.904   7.344   8.742  1.00  0.00     0.000 C 
BRANCH   4   5
ATOM      5  C   UNL     1      21.683   6.758   8.009  1.00  0.00     0.000 C 
BRANCH   5   6
ATOM      6  C   UNL     1      21.888   6.491   6.506  1.00  0.00     0.000 C 
BRANCH   6   7
ATOM      7  C   UNL     1      23.372   6.404   6.110  1.00  0.00     0.006 C 
BRANCH   7   8
ATOM      8  C   UNL     1      23.604   5.456   4.927  1.00  0.00     0.053 C 
BRANCH   8   9
ATOM      9  C   UNL     1      25.053   5.371   4.554  1.00  0.00     0.041 C 
ATOM     10  O   UNL     1      25.934   5.274   5.449  1.00  0.00    -0.550 OA
ATOM     11  O   UNL     1      25.429   5.370   3.217  1.00  0.00    -0.550 OA
ENDBRANCH   8   9
ENDBRANCH   7   8
ENDBRANCH   6   7
ENDBRANCH   5   6
ENDBRANCH   4   5
ENDBRANCH   3   4
ENDBRANCH   2   3
ENDBRANCH   1   2
BRANCH   1  12
ATOM     12  C   UNL     1      19.991  10.928   7.647  1.00  0.00     0.000 C 
BRANCH  12  13
ATOM     13  C   UNL     1      19.717   9.637   6.859  1.00  0.00    -0.000 C 
BRANCH  13  14
ATOM     14  C   UNL     1      18.263   9.182   7.041  1.00  0.00    -0.000 C 
BRANCH  14  15
ATOM     15  C   UNL     1      18.200   7.768   7.638  1.00  0.00    -0.000 C 
BRANCH  15  16
ATOM     16  C   UNL     1      16.946   6.996   7.200  1.00  0.00    -0.000 C 
BRANCH  16  17
ATOM     17  C   UNL     1      16.659   7.134   5.694  1.00  0.00    -0.000 C 
BRANCH  17  18
ATOM     18  C   UNL     1      17.528   6.181   4.846  1.00  0.00    -0.000 C 
BRANCH  18  19
ATOM     19  C   UNL     1      18.762   6.860   4.229  1.00  0.00    -0.003 C 
ATOM     20  C   UNL     1      18.428   8.153   3.488  1.00  0.00     0.004 C 
ENDBRANCH  18  19
ENDBRANCH  17  18
ENDBRANCH  16  17
ENDBRANCH  15  16
ENDBRANCH  14  15
ENDBRANCH  13  14
ENDBRANCH  12  13
ENDBRANCH   1  12
TORSDOF 16
ENDMDL
MODEL 6
REMARK VINA RESULT:    -4.284      1.786      2.784
REMARK INTER + INTRA:         -10.212
REMARK INTER:                  -8.703
REMARK INTRA:                  -1.510
REMARK UNBOUND:                -1.922
REMARK SMILES CCCCCCCCCCCCCCCCCC(=O)[O-]
REMARK SMILES IDX 10 1 11 2 12 3 13 4 14 5 15 6 16 7 17 8 18 9 19 10 20 11
REMARK SMILES IDX 9 12 8 13 7 14 6 15 5 16 4 17 3 18 2 19 1 20
REMARK H PARENT
REMARK Flexibility Score: inf
ROOT
ATOM      1  C   UNL     1      20.452   7.265   6.790  1.00  0.00     0.000 C 
ENDROOT
BRANCH   1   2
ATOM      2  C   UNL     1      21.881   7.169   7.351  1.00  0.00     0.000 C 
BRANCH   2   3
ATOM      3  C   UNL     1      22.633   5.925   6.848  1.00  0.00     0.000 C 
BRANCH   3   4
ATOM      4  C   UNL     1      23.618   6.247   5.710  1.00  0.00     0.000 C 
BRANCH   4   5
ATOM      5  C   UNL     1      23.251   5.552   4.386  1.00  0.00     0.000 C 
BRANCH   5   6
ATOM      6  C   UNL     1      24.449   5.131   3.515  1.00  0.00     0.000 C 
BRANCH   6   7
ATOM      7  C   UNL     1      24.048   4.780   2.072  1.00  0.00     0.006 C 
BRANCH   7   8
ATOM      8  C   UNL     1      25.009   3.770   1.430  1.00  0.00     0.053 C 
BRANCH   8   9
ATOM      9  C   UNL     1      24.293   2.548   0.942  1.00  0.00     0.041 C 
ATOM     10  O   UNL     1      24.835   1.415   1.037  1.00  0.00    -0.550 OA
ATOM     11  O   UNL     1      23.016   2.656   0.408  1.00  0.00    -0.550 OA
ENDBRANCH   8   9
ENDBRANCH   7   8
ENDBRANCH   6   7
ENDBRANCH   5   6
ENDBRANCH   4   5
ENDBRANCH   3   4
ENDBRANCH   2   3
ENDBRANCH   1   2
BRANCH   1  12
ATOM     12  C   UNL     1      19.805   8.634   7.056  1.00  0.00     0.000 C 
BRANCH  12  13
ATOM     13  C   UNL     1      18.360   8.517   7.567  1.00  0.00    -0.000 C 
BRANCH  13  14
ATOM     14  C   UNL     1      17.949   7.047   7.718  1.00  0.00    -0.000 C 
BRANCH  14  15
ATOM     15  C   UNL     1      16.648   6.759   6.953  1.00  0.00    -0.000 C 
BRANCH  15  16
ATOM     16  C   UNL     1      16.335   7.828   5.894  1.00  0.00    -0.000 C 
BRANCH  16  17
ATOM     17  C   UNL     1      16.351   7.266   4.461  1.00  0.00    -0.000 C 
BRANCH  17  18
ATOM     18  C   UNL     1      17.536   6.306   4.225  1.00  0.00    -0.000 C 
BRANCH  18  19
ATOM     19  C   UNL     1      18.796   7.004   3.687  1.00  0.00    -0.003 C 
ATOM     20  C   UNL     1      18.498   8.338   3.007  1.00  0.00     0.004 C 
ENDBRANCH  18  19
ENDBRANCH  17  18
ENDBRANCH  16  17
ENDBRANCH  15  16
ENDBRANCH  14  15
ENDBRANCH  13  14
ENDBRANCH  12  13
ENDBRANCH   1  12
TORSDOF 16
ENDMDL
MODEL 7
REMARK VINA RESULT:    -4.257      1.406      2.420
REMARK INTER + INTRA:         -10.160
REMARK INTER:                  -8.288
REMARK INTRA:                  -1.872
REMARK UNBOUND:                -1.922
REMARK SMILES CCCCCCCCCCCCCCCCCC(=O)[O-]
REMARK SMILES IDX 10 1 11 2 12 3 13 4 14 5 15 6 16 7 17 8 18 9 19 10 20 11
REMARK SMILES IDX 9 12 8 13 7 14 6 15 5 16 4 17 3 18 2 19 1 20
REMARK H PARENT
REMARK Flexibility Score: inf
ROOT
ATOM      1  C   UNL     1      20.680   7.740   7.091  1.00  0.00     0.000 C 
ENDROOT
BRANCH   1   2
ATOM      2  C   UNL     1      21.518   6.557   7.605  1.00  0.00     0.000 C 
BRANCH   2   3
ATOM      3  C   UNL     1      23.010   6.902   7.741  1.00  0.00     0.000 C 
BRANCH   3   4
ATOM      4  C   UNL     1      23.815   6.563   6.473  1.00  0.00     0.000 C 
BRANCH   4   5
ATOM      5  C   UNL     1      23.230   5.370   5.695  1.00  0.00     0.000 C 
BRANCH   5   6
ATOM      6  C   UNL     1      23.087   5.586   4.177  1.00  0.00     0.000 C 
BRANCH   6   7
ATOM      7  C   UNL     1      23.852   4.540   3.347  1.00  0.00     0.006 C 
BRANCH   7   8
ATOM      8  C   UNL     1      25.075   5.140   2.640  1.00  0.00     0.053 C 
BRANCH   8   9
ATOM      9  C   UNL     1      26.326   4.973   3.447  1.00  0.00     0.041 C 
ATOM     10  O   UNL     1      27.059   3.962   3.279  1.00  0.00    -0.550 OA
ATOM     11  O   UNL     1      26.698   5.947   4.365  1.00  0.00    -0.550 OA
ENDBRANCH   8   9
ENDBRANCH   7   8
ENDBRANCH   6   7
ENDBRANCH   5   6
ENDBRANCH   4   5
ENDBRANCH   3   4
ENDBRANCH   2   3
ENDBRANCH   1   2
BRANCH   1  12
ATOM     12  C   UNL     1      20.701   8.940   8.053  1.00  0.00     0.000 C 
BRANCH  12  13
ATOM     13  C   UNL     1      20.122  10.216   7.421  1.00  0.00    -0.000 C 
BRANCH  13  14
ATOM     14  C   UNL     1      18.644  10.391   7.796  1.00  0.00    -0.000 C 
BRANCH  14  15
ATOM     15  C   UNL     1      17.780  10.594   6.542  1.00  0.00    -0.000 C 
BRANCH  15  16
ATOM     16  C   UNL     1      18.432  10.021   5.274  1.00  0.00    -0.000 C 
BRANCH  16  17
ATOM     17  C   UNL     1      17.808   8.684   4.836  1.00  0.00    -0.000 C 
BRANCH  17  18
ATOM     18  C   UNL     1      16.407   8.469   5.447  1.00  0.00    -0.000 C 
BRANCH  18  19
ATOM     19  C   UNL     1      16.243   7.109   6.146  1.00  0.00    -0.003 C 
ATOM     20  C   UNL     1      17.126   6.959   7.382  1.00  0.00     0.004 C 
ENDBRANCH  18  19
ENDBRANCH  17  18
ENDBRANCH  16  17
ENDBRANCH  15  16
ENDBRANCH  14  15
ENDBRANCH  13  14
ENDBRANCH  12  13
ENDBRANCH   1  12
TORSDOF 16
ENDMDL
MODEL 8
REMARK VINA RESULT:    -4.247      1.474      2.494
REMARK INTER + INTRA:         -10.141
REMARK INTER:                  -7.786
REMARK INTRA:                  -2.355
REMARK UNBOUND:                -1.922
REMARK SMILES CCCCCCCCCCCCCCCCCC(=O)[O-]
REMARK SMILES IDX 10 1 11 2 12 3 13 4 14 5 15 6 16 7 17 8 18 9 19 10 20 11
REMARK SMILES IDX 9 12 8 13 7 14 6 15 5 16 4 17 3 18 2 19 1 20
REMARK H PARENT
REMARK Flexibility Score: inf
ROOT
ATOM      1  C   UNL     1      19.322  10.801   6.091  1.00  0.00     0.000 C 
ENDROOT
BRANCH   1   2
ATOM      2  C   UNL     1      19.914  10.739   7.510  1.00  0.00     0.000 C 
BRANCH   2   3
ATOM      3  C   UNL     1      20.498   9.357   7.848  1.00  0.00     0.000 C 
BRANCH   3   4
ATOM      4  C   UNL     1      20.132   8.287   6.804  1.00  0.00     0.000 C 
BRANCH   4   5
ATOM      5  C   UNL     1      20.860   6.949   7.038  1.00  0.00     0.000 C 
BRANCH   5   6
ATOM      6  C   UNL     1      22.138   7.041   7.892  1.00  0.00     0.000 C 
BRANCH   6   7
ATOM      7  C   UNL     1      23.424   6.843   7.070  1.00  0.00     0.006 C 
BRANCH   7   8
ATOM      8  C   UNL     1      23.158   6.136   5.735  1.00  0.00     0.053 C 
BRANCH   8   9
ATOM      9  C   UNL     1      23.877   4.825   5.643  1.00  0.00     0.041 C 
ATOM     10  O   UNL     1      24.529   4.531   4.606  1.00  0.00    -0.550 OA
ATOM     11  O   UNL     1      23.851   3.940   6.713  1.00  0.00    -0.550 OA
ENDBRANCH   8   9
ENDBRANCH   7   8
ENDBRANCH   6   7
ENDBRANCH   5   6
ENDBRANCH   4   5
ENDBRANCH   3   4
ENDBRANCH   2   3
ENDBRANCH   1   2
BRANCH   1  12
ATOM     12  C   UNL     1      17.818  11.124   6.094  1.00  0.00     0.000 C 
BRANCH  12  13
ATOM     13  C   UNL     1      16.945   9.879   6.317  1.00  0.00    -0.000 C 
BRANCH  13  14
ATOM     14  C   UNL     1      16.025   9.632   5.114  1.00  0.00    -0.000 C 
BRANCH  14  15
ATOM     15  C   UNL     1      16.745   9.957   3.796  1.00  0.00    -0.000 C 
BRANCH  15  16
ATOM     16  C   UNL     1      17.173   8.696   3.028  1.00  0.00    -0.000 C 
BRANCH  16  17
ATOM     17  C   UNL     1      18.595   8.234   3.392  1.00  0.00    -0.000 C 
BRANCH  17  18
ATOM     18  C   UNL     1      18.638   6.746   3.799  1.00  0.00    -0.000 C 
BRANCH  18  19
ATOM     19  C   UNL     1      17.318   6.235   4.401  1.00  0.00    -0.003 C 
ATOM     20  C   UNL     1      17.336   6.179   5.926  1.00  0.00     0.004 C 
ENDBRANCH  18  19
ENDBRANCH  17  18
ENDBRANCH  16  17
ENDBRANCH  15  16
ENDBRANCH  14  15
ENDBRANCH  13  14
ENDBRANCH  12  13
ENDBRANCH   1  12
TORSDOF 16
ENDMDL
