MODEL 1
REMARK VINA RESULT:    -4.698      0.000      0.000
REMARK INTER + INTRA:          -7.571
REMARK INTER:                  -7.170
REMARK INTRA:                  -0.401
REMARK UNBOUND:                -0.401
REMARK SMILES O=C([O-])CCCCCCCCC(=O)[O-]
REMARK SMILES IDX 7 1 6 2 5 3 4 4 2 5 1 6 3 7 8 8 9 9 10 10 11 11 12 12 13 13
REMARK SMILES IDX 14 14
REMARK H PARENT
REMARK Flexibility Score: inf
ROOT
ATOM      1  C   UNL     1      31.118  -5.297 -15.682  1.00  0.00     0.000 C 
ENDROOT
BRANCH   1   2
ATOM      2  C   UNL     1      30.103  -6.415 -15.380  1.00  0.00     0.000 C 
BRANCH   2   3
ATOM      3  C   UNL     1      29.512  -6.404 -13.956  1.00  0.00     0.006 C 
BRANCH   3   4
ATOM      4  C   UNL     1      30.339  -7.199 -12.930  1.00  0.00     0.053 C 
BRANCH   4   5
ATOM      5  C   UNL     1      31.389  -6.360 -12.268  1.00  0.00     0.041 C 
ATOM      6  O   UNL     1      31.147  -5.163 -11.962  1.00  0.00    -0.550 OA
ATOM      7  O   UNL     1      32.626  -6.911 -11.955  1.00  0.00    -0.550 OA
ENDBRANCH   4   5
ENDBRANCH   3   4
ENDBRANCH   2   3
ENDBRANCH   1   2
BRANCH   1   8
ATOM      8  C   UNL     1      32.505  -5.780 -16.146  1.00  0.00     0.000 C 
BRANCH   8   9
ATOM      9  C   UNL     1      33.059  -4.967 -17.324  1.00  0.00     0.000 C 
BRANCH   9  10
ATOM     10  C   UNL     1      34.441  -5.481 -17.745  1.00  0.00     0.006 C 
BRANCH  10  11
ATOM     11  C   UNL     1      35.409  -5.487 -16.559  1.00  0.00     0.053 C 
BRANCH  11  12
ATOM     12  C   UNL     1      36.715  -4.864 -16.944  1.00  0.00     0.041 C 
ATOM     13  O   UNL     1      37.798  -5.363 -16.542  1.00  0.00    -0.550 OA
ATOM     14  O   UNL     1      36.732  -3.704 -17.707  1.00  0.00    -0.550 OA
ENDBRANCH  11  12
ENDBRANCH  10  11
ENDBRANCH   9  10
ENDBRANCH   8   9
ENDBRANCH   1   8
TORSDOF 9
ENDMDL
MODEL 2
REMARK VINA RESULT:    -4.686      0.150      6.315
REMARK INTER + INTRA:          -7.552
REMARK INTER:                  -7.189
REMARK INTRA:                  -0.364
REMARK UNBOUND:                -0.401
REMARK SMILES O=C([O-])CCCCCCCCC(=O)[O-]
REMARK SMILES IDX 7 1 6 2 5 3 4 4 2 5 1 6 3 7 8 8 9 9 10 10 11 11 12 12 13 13
REMARK SMILES IDX 14 14
REMARK H PARENT
REMARK Flexibility Score: inf
ROOT
ATOM      1  C   UNL     1      32.442  -5.813 -16.123  1.00  0.00     0.000 C 
ENDROOT
BRANCH   1   2
ATOM      2  C   UNL     1      33.025  -5.043 -17.323  1.00  0.00     0.000 C 
BRANCH   2   3
ATOM      3  C   UNL     1      34.467  -5.423 -17.715  1.00  0.00     0.006 C 
BRANCH   3   4
ATOM      4  C   UNL     1      35.449  -5.451 -16.531  1.00  0.00     0.053 C 
BRANCH   4   5
ATOM      5  C   UNL     1      36.830  -5.020 -16.921  1.00  0.00     0.041 C 
ATOM      6  O   UNL     1      37.831  -5.697 -16.566  1.00  0.00    -0.550 OA
ATOM      7  O   UNL     1      37.011  -3.889 -17.708  1.00  0.00    -0.550 OA
ENDBRANCH   4   5
ENDBRANCH   3   4
ENDBRANCH   2   3
ENDBRANCH   1   2
BRANCH   1   8
ATOM      8  C   UNL     1      31.071  -5.315 -15.629  1.00  0.00     0.000 C 
BRANCH   8   9
ATOM      9  C   UNL     1      30.084  -6.458 -15.351  1.00  0.00     0.000 C 
BRANCH   9  10
ATOM     10  C   UNL     1      29.498  -6.346 -13.938  1.00  0.00     0.006 C 
BRANCH  10  11
ATOM     11  C   UNL     1      30.297  -7.193 -12.944  1.00  0.00     0.053 C 
BRANCH  11  12
ATOM     12  C   UNL     1      31.322  -6.354 -12.246  1.00  0.00     0.041 C 
ATOM     13  O   UNL     1      31.068  -5.156 -11.954  1.00  0.00    -0.550 OA
ATOM     14  O   UNL     1      32.576  -6.881 -11.964  1.00  0.00    -0.550 OA
ENDBRANCH  11  12
ENDBRANCH  10  11
ENDBRANCH   9  10
ENDBRANCH   8   9
ENDBRANCH   1   8
TORSDOF 9
ENDMDL
MODEL 3
REMARK VINA RESULT:    -4.563      0.563      1.344
REMARK INTER + INTRA:          -7.364
REMARK INTER:                  -7.032
REMARK INTRA:                  -0.333
REMARK UNBOUND:                -0.401
REMARK SMILES O=C([O-])CCCCCCCCC(=O)[O-]
REMARK SMILES IDX 7 1 6 2 5 3 4 4 2 5 1 6 3 7 8 8 9 9 10 10 11 11 12 12 13 13
REMARK SMILES IDX 14 14
REMARK H PARENT
REMARK Flexibility Score: inf
ROOT
ATOM      1  C   UNL     1      31.110  -5.247 -15.421  1.00  0.00     0.000 C 
ENDROOT
BRANCH   1   2
ATOM      2  C   UNL     1      29.992  -6.287 -15.217  1.00  0.00     0.000 C 
BRANCH   2   3
ATOM      3  C   UNL     1      29.586  -6.543 -13.753  1.00  0.00     0.006 C 
BRANCH   3   4
ATOM      4  C   UNL     1      30.643  -7.306 -12.935  1.00  0.00     0.053 C 
BRANCH   4   5
ATOM      5  C   UNL     1      31.493  -6.394 -12.104  1.00  0.00     0.041 C 
ATOM      6  O   UNL     1      32.561  -6.816 -11.587  1.00  0.00    -0.550 OA
ATOM      7  O   UNL     1      31.124  -5.066 -11.928  1.00  0.00    -0.550 OA
ENDBRANCH   4   5
ENDBRANCH   3   4
ENDBRANCH   2   3
ENDBRANCH   1   2
BRANCH   1   8
ATOM      8  C   UNL     1      31.899  -5.384 -16.736  1.00  0.00     0.000 C 
BRANCH   8   9
ATOM      9  C   UNL     1      33.419  -5.411 -16.522  1.00  0.00     0.000 C 
BRANCH   9  10
ATOM     10  C   UNL     1      34.164  -5.252 -17.853  1.00  0.00     0.006 C 
BRANCH  10  11
ATOM     11  C   UNL     1      35.574  -5.845 -17.768  1.00  0.00     0.053 C 
BRANCH  11  12
ATOM     12  C   UNL     1      36.530  -4.845 -17.199  1.00  0.00     0.041 C 
ATOM     13  O   UNL     1      36.496  -3.647 -17.583  1.00  0.00    -0.550 OA
ATOM     14  O   UNL     1      37.492  -5.247 -16.281  1.00  0.00    -0.550 OA
ENDBRANCH  11  12
ENDBRANCH  10  11
ENDBRANCH   9  10
ENDBRANCH   8   9
ENDBRANCH   1   8
TORSDOF 9
ENDMDL
MODEL 4
REMARK VINA RESULT:    -4.473      1.046      6.161
REMARK INTER + INTRA:          -7.227
REMARK INTER:                  -6.850
REMARK INTRA:                  -0.378
REMARK UNBOUND:                -0.401
REMARK SMILES O=C([O-])CCCCCCCCC(=O)[O-]
REMARK SMILES IDX 7 1 6 2 5 3 4 4 2 5 1 6 3 7 8 8 9 9 10 10 11 11 12 12 13 13
REMARK SMILES IDX 14 14
REMARK H PARENT
REMARK Flexibility Score: inf
ROOT
ATOM      1  C   UNL     1      30.995  -5.506 -15.315  1.00  0.00     0.000 C 
ENDROOT
BRANCH   1   2
ATOM      2  C   UNL     1      31.819  -5.184 -16.576  1.00  0.00     0.000 C 
BRANCH   2   3
ATOM      3  C   UNL     1      33.317  -5.539 -16.495  1.00  0.00     0.006 C 
BRANCH   3   4
ATOM      4  C   UNL     1      34.108  -5.207 -17.773  1.00  0.00     0.053 C 
BRANCH   4   5
ATOM      5  C   UNL     1      35.589  -5.210 -17.547  1.00  0.00     0.041 C 
ATOM      6  O   UNL     1      36.211  -6.298 -17.427  1.00  0.00    -0.550 OA
ATOM      7  O   UNL     1      36.290  -4.011 -17.505  1.00  0.00    -0.550 OA
ENDBRANCH   4   5
ENDBRANCH   3   4
ENDBRANCH   2   3
ENDBRANCH   1   2
BRANCH   1   8
ATOM      8  C   UNL     1      29.976  -6.650 -15.474  1.00  0.00     0.000 C 
BRANCH   8   9
ATOM      9  C   UNL     1      29.976  -7.621 -14.285  1.00  0.00     0.000 C 
BRANCH   9  10
ATOM     10  C   UNL     1      30.185  -6.871 -12.963  1.00  0.00     0.006 C 
BRANCH  10  11
ATOM     11  C   UNL     1      31.521  -7.252 -12.320  1.00  0.00     0.053 C 
BRANCH  11  12
ATOM     12  C   UNL     1      31.993  -6.163 -11.408  1.00  0.00     0.041 C 
ATOM     13  O   UNL     1      31.546  -4.993 -11.534  1.00  0.00    -0.550 OA
ATOM     14  O   UNL     1      32.964  -6.430 -10.452  1.00  0.00    -0.550 OA
ENDBRANCH  11  12
ENDBRANCH  10  11
ENDBRANCH   9  10
ENDBRANCH   8   9
ENDBRANCH   1   8
TORSDOF 9
ENDMDL
MODEL 5
REMARK VINA RESULT:    -4.215      2.658      3.122
REMARK INTER + INTRA:          -6.834
REMARK INTER:                  -6.554
REMARK INTRA:                  -0.280
REMARK UNBOUND:                -0.401
REMARK SMILES O=C([O-])CCCCCCCCC(=O)[O-]
REMARK SMILES IDX 7 1 6 2 5 3 4 4 2 5 1 6 3 7 8 8 9 9 10 10 11 11 12 12 13 13
REMARK SMILES IDX 14 14
REMARK H PARENT
REMARK Flexibility Score: inf
ROOT
ATOM      1  C   UNL     1      31.160  -5.381 -15.242  1.00  0.00     0.000 C 
ENDROOT
BRANCH   1   2
ATOM      2  C   UNL     1      29.985  -6.377 -15.224  1.00  0.00     0.000 C 
BRANCH   2   3
ATOM      3  C   UNL     1      30.124  -7.547 -14.230  1.00  0.00     0.006 C 
BRANCH   3   4
ATOM      4  C   UNL     1      29.563  -8.881 -14.753  1.00  0.00     0.053 C 
BRANCH   4   5
ATOM      5  C   UNL     1      29.630  -8.985 -16.246  1.00  0.00     0.041 C 
ATOM      6  O   UNL     1      30.705  -9.315 -16.813  1.00  0.00    -0.550 OA
ATOM      7  O   UNL     1      28.494  -8.751 -17.012  1.00  0.00    -0.550 OA
ENDBRANCH   4   5
ENDBRANCH   3   4
ENDBRANCH   2   3
ENDBRANCH   1   2
BRANCH   1   8
ATOM      8  C   UNL     1      31.868  -5.229 -16.601  1.00  0.00     0.000 C 
BRANCH   8   9
ATOM      9  C   UNL     1      33.384  -5.458 -16.516  1.00  0.00     0.000 C 
BRANCH   9  10
ATOM     10  C   UNL     1      34.059  -5.176 -17.863  1.00  0.00     0.006 C 
BRANCH  10  11
ATOM     11  C   UNL     1      35.486  -5.730 -17.890  1.00  0.00     0.053 C 
BRANCH  11  12
ATOM     12  C   UNL     1      36.435  -4.765 -17.250  1.00  0.00     0.041 C 
ATOM     13  O   UNL     1      36.573  -3.606 -17.721  1.00  0.00    -0.550 OA
ATOM     14  O   UNL     1      37.203  -5.164 -16.164  1.00  0.00    -0.550 OA
ENDBRANCH  11  12
ENDBRANCH  10  11
ENDBRANCH   9  10
ENDBRANCH   8   9
ENDBRANCH   1   8
TORSDOF 9
ENDMDL
MODEL 6
REMARK VINA RESULT:    -3.989      2.140      6.526
REMARK INTER + INTRA:          -6.489
REMARK INTER:                  -6.111
REMARK INTRA:                  -0.378
REMARK UNBOUND:                -0.401
REMARK SMILES O=C([O-])CCCCCCCCC(=O)[O-]
REMARK SMILES IDX 7 1 6 2 5 3 4 4 2 5 1 6 3 7 8 8 9 9 10 10 11 11 12 12 13 13
REMARK SMILES IDX 14 14
REMARK H PARENT
REMARK Flexibility Score: inf
ROOT
ATOM      1  C   UNL     1      32.338  -5.849 -16.233  1.00  0.00     0.000 C 
ENDROOT
BRANCH   1   2
ATOM      2  C   UNL     1      33.164  -5.019 -17.235  1.00  0.00     0.000 C 
BRANCH   2   3
ATOM      3  C   UNL     1      34.459  -5.687 -17.738  1.00  0.00     0.006 C 
BRANCH   3   4
ATOM      4  C   UNL     1      35.554  -5.814 -16.664  1.00  0.00     0.053 C 
BRANCH   4   5
ATOM      5  C   UNL     1      36.697  -4.874 -16.898  1.00  0.00     0.041 C 
ATOM      6  O   UNL     1      37.849  -5.158 -16.474  1.00  0.00    -0.550 OA
ATOM      7  O   UNL     1      36.500  -3.701 -17.615  1.00  0.00    -0.550 OA
ENDBRANCH   4   5
ENDBRANCH   3   4
ENDBRANCH   2   3
ENDBRANCH   1   2
BRANCH   1   8
ATOM      8  C   UNL     1      31.103  -5.135 -15.654  1.00  0.00     0.000 C 
BRANCH   8   9
ATOM      9  C   UNL     1      30.811  -5.528 -14.198  1.00  0.00     0.000 C 
BRANCH   9  10
ATOM     10  C   UNL     1      29.461  -6.246 -14.083  1.00  0.00     0.006 C 
BRANCH  10  11
ATOM     11  C   UNL     1      29.654  -7.753 -13.894  1.00  0.00     0.053 C 
BRANCH  11  12
ATOM     12  C   UNL     1      29.640  -8.453 -15.217  1.00  0.00     0.041 C 
ATOM     13  O   UNL     1      30.111  -9.616 -15.323  1.00  0.00    -0.550 OA
ATOM     14  O   UNL     1      29.153  -7.802 -16.342  1.00  0.00    -0.550 OA
ENDBRANCH  11  12
ENDBRANCH  10  11
ENDBRANCH   9  10
ENDBRANCH   8   9
ENDBRANCH   1   8
TORSDOF 9
ENDMDL
MODEL 7
REMARK VINA RESULT:    -3.896      4.424      6.034
REMARK INTER + INTRA:          -6.346
REMARK INTER:                  -6.209
REMARK INTRA:                  -0.137
REMARK UNBOUND:                -0.401
REMARK SMILES O=C([O-])CCCCCCCCC(=O)[O-]
REMARK SMILES IDX 7 1 6 2 5 3 4 4 2 5 1 6 3 7 8 8 9 9 10 10 11 11 12 12 13 13
REMARK SMILES IDX 14 14
REMARK H PARENT
REMARK Flexibility Score: inf
ROOT
ATOM      1  C   UNL     1      30.690  -5.483 -14.670  1.00  0.00     0.000 C 
ENDROOT
BRANCH   1   2
ATOM      2  C   UNL     1      30.096  -6.715 -15.380  1.00  0.00     0.000 C 
BRANCH   2   3
ATOM      3  C   UNL     1      29.598  -7.838 -14.450  1.00  0.00     0.006 C 
BRANCH   3   4
ATOM      4  C   UNL     1      29.688  -9.246 -15.066  1.00  0.00     0.053 C 
BRANCH   4   5
ATOM      5  C   UNL     1      29.623  -9.221 -16.563  1.00  0.00     0.041 C 
ATOM      6  O   UNL     1      30.635  -9.526 -17.248  1.00  0.00    -0.550 OA
ATOM      7  O   UNL     1      28.434  -8.896 -17.204  1.00  0.00    -0.550 OA
ENDBRANCH   4   5
ENDBRANCH   3   4
ENDBRANCH   2   3
ENDBRANCH   1   2
BRANCH   1   8
ATOM      8  C   UNL     1      29.990  -5.085 -13.357  1.00  0.00     0.000 C 
BRANCH   8   9
ATOM      9  C   UNL     1      30.931  -5.117 -12.144  1.00  0.00     0.000 C 
BRANCH   9  10
ATOM     10  C   UNL     1      31.422  -6.543 -11.867  1.00  0.00     0.006 C 
BRANCH  10  11
ATOM     11  C   UNL     1      32.863  -6.538 -11.350  1.00  0.00     0.053 C 
BRANCH  11  12
ATOM     12  C   UNL     1      32.888  -6.324  -9.868  1.00  0.00     0.041 C 
ATOM     13  O   UNL     1      32.226  -5.385  -9.353  1.00  0.00    -0.550 OA
ATOM     14  O   UNL     1      33.682  -7.130  -9.063  1.00  0.00    -0.550 OA
ENDBRANCH  11  12
ENDBRANCH  10  11
ENDBRANCH   9  10
ENDBRANCH   8   9
ENDBRANCH   1   8
TORSDOF 9
ENDMDL
MODEL 8
REMARK VINA RESULT:    -3.893      4.403      5.372
REMARK INTER + INTRA:          -6.342
REMARK INTER:                  -5.911
REMARK INTRA:                  -0.431
REMARK UNBOUND:                -0.401
REMARK SMILES O=C([O-])CCCCCCCCC(=O)[O-]
REMARK SMILES IDX 7 1 6 2 5 3 4 4 2 5 1 6 3 7 8 8 9 9 10 10 11 11 12 12 13 13
REMARK SMILES IDX 14 14
REMARK H PARENT
REMARK Flexibility Score: inf
ROOT
ATOM      1  C   UNL     1      29.789  -5.031 -13.456  1.00  0.00     0.000 C 
ENDROOT
BRANCH   1   2
ATOM      2  C   UNL     1      30.446  -5.478 -12.135  1.00  0.00     0.000 C 
BRANCH   2   3
ATOM      3  C   UNL     1      31.982  -5.608 -12.172  1.00  0.00     0.006 C 
BRANCH   3   4
ATOM      4  C   UNL     1      32.530  -6.778 -11.336  1.00  0.00     0.053 C 
BRANCH   4   5
ATOM      5  C   UNL     1      32.873  -6.370  -9.935  1.00  0.00     0.041 C 
ATOM      6  O   UNL     1      33.750  -7.000  -9.287  1.00  0.00    -0.550 OA
ATOM      7  O   UNL     1      32.250  -5.271  -9.357  1.00  0.00    -0.550 OA
ENDBRANCH   4   5
ENDBRANCH   3   4
ENDBRANCH   2   3
ENDBRANCH   1   2
BRANCH   1   8
ATOM      8  C   UNL     1      30.687  -5.137 -14.702  1.00  0.00     0.000 C 
BRANCH   8   9
ATOM      9  C   UNL     1      30.558  -6.488 -15.420  1.00  0.00     0.000 C 
BRANCH   9  10
ATOM     10  C   UNL     1      29.459  -7.347 -14.782  1.00  0.00     0.006 C 
BRANCH  10  11
ATOM     11  C   UNL     1      29.717  -8.837 -15.021  1.00  0.00     0.053 C 
BRANCH  11  12
ATOM     12  C   UNL     1      29.654  -9.152 -16.483  1.00  0.00     0.041 C 
ATOM     13  O   UNL     1      30.660  -9.625 -17.073  1.00  0.00    -0.550 OA
ATOM     14  O   UNL     1      28.500  -8.875 -17.204  1.00  0.00    -0.550 OA
ENDBRANCH  11  12
ENDBRANCH  10  11
ENDBRANCH   9  10
ENDBRANCH   8   9
ENDBRANCH   1   8
TORSDOF 9
ENDMDL
MODEL 9
REMARK VINA RESULT:    -3.841      1.334      1.870
REMARK INTER + INTRA:          -6.263
REMARK INTER:                  -6.102
REMARK INTRA:                  -0.161
REMARK UNBOUND:                -0.401
REMARK SMILES O=C([O-])CCCCCCCCC(=O)[O-]
REMARK SMILES IDX 7 1 6 2 5 3 4 4 2 5 1 6 3 7 8 8 9 9 10 10 11 11 12 12 13 13
REMARK SMILES IDX 14 14
REMARK H PARENT
REMARK Flexibility Score: inf
ROOT
ATOM      1  C   UNL     1      31.888  -5.102 -16.541  1.00  0.00     0.000 C 
ENDROOT
BRANCH   1   2
ATOM      2  C   UNL     1      31.049  -5.645 -15.368  1.00  0.00     0.000 C 
BRANCH   2   3
ATOM      3  C   UNL     1      30.281  -6.950 -15.652  1.00  0.00     0.006 C 
BRANCH   3   4
ATOM      4  C   UNL     1      29.852  -7.711 -14.385  1.00  0.00     0.053 C 
BRANCH   4   5
ATOM      5  C   UNL     1      29.918  -6.858 -13.155  1.00  0.00     0.041 C 
ATOM      6  O   UNL     1      30.965  -6.832 -12.456  1.00  0.00    -0.550 OA
ATOM      7  O   UNL     1      28.835  -6.065 -12.798  1.00  0.00    -0.550 OA
ENDBRANCH   4   5
ENDBRANCH   3   4
ENDBRANCH   2   3
ENDBRANCH   1   2
BRANCH   1   8
ATOM      8  C   UNL     1      33.378  -5.491 -16.515  1.00  0.00     0.000 C 
BRANCH   8   9
ATOM      9  C   UNL     1      34.045  -5.395 -17.895  1.00  0.00     0.000 C 
BRANCH   9  10
ATOM     10  C   UNL     1      35.421  -4.726 -17.794  1.00  0.00     0.006 C 
BRANCH  10  11
ATOM     11  C   UNL     1      36.545  -5.746 -17.994  1.00  0.00     0.053 C 
BRANCH  11  12
ATOM     12  C   UNL     1      37.327  -5.919 -16.730  1.00  0.00     0.041 C 
ATOM     13  O   UNL     1      38.195  -6.827 -16.641  1.00  0.00    -0.550 OA
ATOM     14  O   UNL     1      37.061  -5.111 -15.632  1.00  0.00    -0.550 OA
ENDBRANCH  11  12
ENDBRANCH  10  11
ENDBRANCH   9  10
ENDBRANCH   8   9
ENDBRANCH   1   8
TORSDOF 9
ENDMDL
