MODEL 1
REMARK VINA RESULT:    -3.595      0.000      0.000
REMARK INTER + INTRA:          -6.737
REMARK INTER:                  -5.487
REMARK INTRA:                  -1.251
REMARK UNBOUND:                -1.251
REMARK SMILES CCCCCCCCCCC(=O)[O-]
REMARK SMILES IDX 7 1 8 2 9 3 10 4 11 5 12 6 13 7 6 8 5 9 4 10 3 11 2 12 1 13
REMARK H PARENT
REMARK Flexibility Score: inf
ROOT
ATOM      1  C   UNL     1      -5.582   8.752  -9.407  1.00  0.00     0.000 C 
ENDROOT
BRANCH   1   2
ATOM      2  C   UNL     1      -4.156   8.254  -9.144  1.00  0.00     0.000 C 
BRANCH   2   3
ATOM      3  C   UNL     1      -3.815   8.323  -7.650  1.00  0.00     0.006 C 
BRANCH   3   4
ATOM      4  C   UNL     1      -3.563   6.925  -7.079  1.00  0.00     0.053 C 
BRANCH   4   5
ATOM      5  C   UNL     1      -4.148   6.806  -5.708  1.00  0.00     0.041 C 
ATOM      6  O   UNL     1      -3.569   6.115  -4.829  1.00  0.00    -0.550 OA
ATOM      7  O   UNL     1      -5.309   7.498  -5.385  1.00  0.00    -0.550 OA
ENDBRANCH   4   5
ENDBRANCH   3   4
ENDBRANCH   2   3
ENDBRANCH   1   2
BRANCH   1   8
ATOM      8  C   UNL     1      -6.172   9.421  -8.160  1.00  0.00     0.000 C 
BRANCH   8   9
ATOM      9  C   UNL     1      -7.608   8.941  -7.905  1.00  0.00    -0.000 C 
BRANCH   9  10
ATOM     10  C   UNL     1      -8.169   8.087  -9.057  1.00  0.00    -0.000 C 
BRANCH  10  11
ATOM     11  C   UNL     1      -8.528   6.639  -8.678  1.00  0.00    -0.000 C 
BRANCH  11  12
ATOM     12  C   UNL     1      -7.727   6.120  -7.475  1.00  0.00    -0.003 C 
ATOM     13  C   UNL     1      -6.664   5.117  -7.915  1.00  0.00     0.004 C 
ENDBRANCH  11  12
ENDBRANCH  10  11
ENDBRANCH   9  10
ENDBRANCH   8   9
ENDBRANCH   1   8
TORSDOF 9
ENDMDL
MODEL 2
REMARK VINA RESULT:    -3.582      1.042      1.352
REMARK INTER + INTRA:          -6.717
REMARK INTER:                  -5.476
REMARK INTRA:                  -1.241
REMARK UNBOUND:                -1.251
REMARK SMILES CCCCCCCCCCC(=O)[O-]
REMARK SMILES IDX 7 1 8 2 9 3 10 4 11 5 12 6 13 7 6 8 5 9 4 10 3 11 2 12 1 13
REMARK H PARENT
REMARK Flexibility Score: inf
ROOT
ATOM      1  C   UNL     1      -4.437   9.681  -9.085  1.00  0.00     0.000 C 
ENDROOT
BRANCH   1   2
ATOM      2  C   UNL     1      -3.946   8.253  -8.821  1.00  0.00     0.000 C 
BRANCH   2   3
ATOM      3  C   UNL     1      -3.466   8.094  -7.374  1.00  0.00     0.006 C 
BRANCH   3   4
ATOM      4  C   UNL     1      -4.558   7.473  -6.499  1.00  0.00     0.053 C 
BRANCH   4   5
ATOM      5  C   UNL     1      -4.075   6.199  -5.882  1.00  0.00     0.041 C 
ATOM      6  O   UNL     1      -3.601   6.199  -4.715  1.00  0.00    -0.550 OA
ATOM      7  O   UNL     1      -4.191   5.002  -6.577  1.00  0.00    -0.550 OA
ENDBRANCH   4   5
ENDBRANCH   3   4
ENDBRANCH   2   3
ENDBRANCH   1   2
BRANCH   1   8
ATOM      8  C   UNL     1      -5.909   9.688  -9.515  1.00  0.00     0.000 C 
BRANCH   8   9
ATOM      9  C   UNL     1      -6.839   9.672  -8.293  1.00  0.00    -0.000 C 
BRANCH   9  10
ATOM     10  C   UNL     1      -7.848   8.509  -8.321  1.00  0.00    -0.000 C 
BRANCH  10  11
ATOM     11  C   UNL     1      -7.557   7.422  -9.371  1.00  0.00    -0.000 C 
BRANCH  11  12
ATOM     12  C   UNL     1      -7.030   6.119  -8.753  1.00  0.00    -0.003 C 
ATOM     13  C   UNL     1      -7.794   5.766  -7.480  1.00  0.00     0.004 C 
ENDBRANCH  11  12
ENDBRANCH  10  11
ENDBRANCH   9  10
ENDBRANCH   8   9
ENDBRANCH   1   8
TORSDOF 9
ENDMDL
MODEL 3
REMARK VINA RESULT:    -3.571      1.169      1.782
REMARK INTER + INTRA:          -6.700
REMARK INTER:                  -5.436
REMARK INTRA:                  -1.264
REMARK UNBOUND:                -1.251
REMARK SMILES CCCCCCCCCCC(=O)[O-]
REMARK SMILES IDX 7 1 8 2 9 3 10 4 11 5 12 6 13 7 6 8 5 9 4 10 3 11 2 12 1 13
REMARK H PARENT
REMARK Flexibility Score: inf
ROOT
ATOM      1  C   UNL     1      -7.097   9.233  -7.481  1.00  0.00     0.000 C 
ENDROOT
BRANCH   1   2
ATOM      2  C   UNL     1      -6.127   8.262  -6.798  1.00  0.00     0.000 C 
BRANCH   2   3
ATOM      3  C   UNL     1      -5.014   7.826  -7.760  1.00  0.00     0.006 C 
BRANCH   3   4
ATOM      4  C   UNL     1      -3.747   7.439  -6.994  1.00  0.00     0.053 C 
BRANCH   4   5
ATOM      5  C   UNL     1      -3.999   6.237  -6.139  1.00  0.00     0.041 C 
ATOM      6  O   UNL     1      -4.453   5.179  -6.649  1.00  0.00    -0.550 OA
ATOM      7  O   UNL     1      -3.685   6.269  -4.786  1.00  0.00    -0.550 OA
ENDBRANCH   4   5
ENDBRANCH   3   4
ENDBRANCH   2   3
ENDBRANCH   1   2
BRANCH   1   8
ATOM      8  C   UNL     1      -7.155   8.983  -8.993  1.00  0.00     0.000 C 
BRANCH   8   9
ATOM      9  C   UNL     1      -8.581   8.630  -9.439  1.00  0.00    -0.000 C 
BRANCH   9  10
ATOM     10  C   UNL     1      -8.942   7.155  -9.184  1.00  0.00    -0.000 C 
BRANCH  10  11
ATOM     11  C   UNL     1      -7.913   6.135  -9.705  1.00  0.00    -0.000 C 
BRANCH  11  12
ATOM     12  C   UNL     1      -7.417   5.175  -8.615  1.00  0.00    -0.003 C 
ATOM     13  C   UNL     1      -8.286   5.267  -7.364  1.00  0.00     0.004 C 
ENDBRANCH  11  12
ENDBRANCH  10  11
ENDBRANCH   9  10
ENDBRANCH   8   9
ENDBRANCH   1   8
TORSDOF 9
ENDMDL
MODEL 4
REMARK VINA RESULT:    -3.535      1.940      4.110
REMARK INTER + INTRA:          -6.646
REMARK INTER:                  -5.699
REMARK INTRA:                  -0.947
REMARK UNBOUND:                -1.251
REMARK SMILES CCCCCCCCCCC(=O)[O-]
REMARK SMILES IDX 7 1 8 2 9 3 10 4 11 5 12 6 13 7 6 8 5 9 4 10 3 11 2 12 1 13
REMARK H PARENT
REMARK Flexibility Score: inf
ROOT
ATOM      1  C   UNL     1      -6.534   9.411  -7.825  1.00  0.00     0.000 C 
ENDROOT
BRANCH   1   2
ATOM      2  C   UNL     1      -7.918   9.093  -8.405  1.00  0.00     0.000 C 
BRANCH   2   3
ATOM      3  C   UNL     1      -8.026   7.613  -8.792  1.00  0.00     0.006 C 
BRANCH   3   4
ATOM      4  C   UNL     1      -7.558   6.710  -7.648  1.00  0.00     0.053 C 
BRANCH   4   5
ATOM      5  C   UNL     1      -7.239   5.341  -8.158  1.00  0.00     0.041 C 
ATOM      6  O   UNL     1      -8.011   4.771  -8.974  1.00  0.00    -0.550 OA
ATOM      7  O   UNL     1      -6.062   4.712  -7.772  1.00  0.00    -0.550 OA
ENDBRANCH   4   5
ENDBRANCH   3   4
ENDBRANCH   2   3
ENDBRANCH   1   2
BRANCH   1   8
ATOM      8  C   UNL     1      -5.557   9.831  -8.930  1.00  0.00     0.000 C 
BRANCH   8   9
ATOM      9  C   UNL     1      -4.144   9.301  -8.645  1.00  0.00    -0.000 C 
BRANCH   9  10
ATOM     10  C   UNL     1      -4.137   7.837  -8.168  1.00  0.00    -0.000 C 
BRANCH  10  11
ATOM     11  C   UNL     1      -3.443   7.599  -6.814  1.00  0.00    -0.000 C 
BRANCH  11  12
ATOM     12  C   UNL     1      -4.331   6.849  -5.811  1.00  0.00    -0.003 C 
ATOM     13  C   UNL     1      -3.548   5.749  -5.100  1.00  0.00     0.004 C 
ENDBRANCH  11  12
ENDBRANCH  10  11
ENDBRANCH   9  10
ENDBRANCH   8   9
ENDBRANCH   1   8
TORSDOF 9
ENDMDL
MODEL 5
REMARK VINA RESULT:    -3.507      2.065      2.952
REMARK INTER + INTRA:          -6.604
REMARK INTER:                  -5.906
REMARK INTRA:                  -0.698
REMARK UNBOUND:                -1.251
REMARK SMILES CCCCCCCCCCC(=O)[O-]
REMARK SMILES IDX 7 1 8 2 9 3 10 4 11 5 12 6 13 7 6 8 5 9 4 10 3 11 2 12 1 13
REMARK H PARENT
REMARK Flexibility Score: inf
ROOT
ATOM      1  C   UNL     1      -7.179   6.655  -7.249  1.00  0.00     0.000 C 
ENDROOT
BRANCH   1   2
ATOM      2  C   UNL     1      -6.223   7.854  -7.225  1.00  0.00     0.000 C 
BRANCH   2   3
ATOM      3  C   UNL     1      -4.876   7.497  -7.865  1.00  0.00     0.006 C 
BRANCH   3   4
ATOM      4  C   UNL     1      -3.764   7.451  -6.815  1.00  0.00     0.053 C 
BRANCH   4   5
ATOM      5  C   UNL     1      -3.932   6.261  -5.925  1.00  0.00     0.041 C 
ATOM      6  O   UNL     1      -3.932   5.099  -6.413  1.00  0.00    -0.550 OA
ATOM      7  O   UNL     1      -4.040   6.429  -4.551  1.00  0.00    -0.550 OA
ENDBRANCH   4   5
ENDBRANCH   3   4
ENDBRANCH   2   3
ENDBRANCH   1   2
BRANCH   1   8
ATOM      8  C   UNL     1      -6.803   5.671  -8.364  1.00  0.00     0.000 C 
BRANCH   8   9
ATOM      9  C   UNL     1      -8.056   5.044  -8.991  1.00  0.00    -0.000 C 
BRANCH   9  10
ATOM     10  C   UNL     1      -9.329   5.285  -8.158  1.00  0.00    -0.000 C 
BRANCH  10  11
ATOM     11  C   UNL     1      -9.812   4.072  -7.343  1.00  0.00    -0.000 C 
BRANCH  11  12
ATOM     12  C   UNL     1      -9.836   4.338  -5.831  1.00  0.00    -0.003 C 
ATOM     13  C   UNL     1      -9.791   3.032  -5.043  1.00  0.00     0.004 C 
ENDBRANCH  11  12
ENDBRANCH  10  11
ENDBRANCH   9  10
ENDBRANCH   8   9
ENDBRANCH   1   8
TORSDOF 9
ENDMDL
MODEL 6
REMARK VINA RESULT:    -3.397      3.433      5.937
REMARK INTER + INTRA:          -6.435
REMARK INTER:                  -6.010
REMARK INTRA:                  -0.424
REMARK UNBOUND:                -1.251
REMARK SMILES CCCCCCCCCCC(=O)[O-]
REMARK SMILES IDX 7 1 8 2 9 3 10 4 11 5 12 6 13 7 6 8 5 9 4 10 3 11 2 12 1 13
REMARK H PARENT
REMARK Flexibility Score: inf
ROOT
ATOM      1  C   UNL     1      -3.435   7.124  -6.444  1.00  0.00     0.000 C 
ENDROOT
BRANCH   1   2
ATOM      2  C   UNL     1      -4.537   7.841  -7.233  1.00  0.00     0.000 C 
BRANCH   2   3
ATOM      3  C   UNL     1      -5.917   7.575  -6.619  1.00  0.00     0.006 C 
BRANCH   3   4
ATOM      4  C   UNL     1      -6.936   7.203  -7.698  1.00  0.00     0.053 C 
BRANCH   4   5
ATOM      5  C   UNL     1      -7.215   5.734  -7.672  1.00  0.00     0.041 C 
ATOM      6  O   UNL     1      -8.284   5.300  -7.166  1.00  0.00    -0.550 OA
ATOM      7  O   UNL     1      -6.318   4.845  -8.251  1.00  0.00    -0.550 OA
ENDBRANCH   4   5
ENDBRANCH   3   4
ENDBRANCH   2   3
ENDBRANCH   1   2
BRANCH   1   8
ATOM      8  C   UNL     1      -3.913   5.755  -5.947  1.00  0.00     0.000 C 
BRANCH   8   9
ATOM      9  C   UNL     1      -3.413   5.480  -4.521  1.00  0.00    -0.000 C 
BRANCH   9  10
ATOM     10  C   UNL     1      -2.655   4.146  -4.398  1.00  0.00    -0.000 C 
BRANCH  10  11
ATOM     11  C   UNL     1      -2.756   3.467  -3.020  1.00  0.00    -0.000 C 
BRANCH  11  12
ATOM     12  C   UNL     1      -1.497   2.669  -2.652  1.00  0.00    -0.003 C 
ATOM     13  C   UNL     1      -0.812   3.259  -1.422  1.00  0.00     0.004 C 
ENDBRANCH  11  12
ENDBRANCH  10  11
ENDBRANCH   9  10
ENDBRANCH   8   9
ENDBRANCH   1   8
TORSDOF 9
ENDMDL
MODEL 7
REMARK VINA RESULT:    -3.266      0.992      3.132
REMARK INTER + INTRA:          -6.236
REMARK INTER:                  -5.242
REMARK INTRA:                  -0.994
REMARK UNBOUND:                -1.251
REMARK SMILES CCCCCCCCCCC(=O)[O-]
REMARK SMILES IDX 7 1 8 2 9 3 10 4 11 5 12 6 13 7 6 8 5 9 4 10 3 11 2 12 1 13
REMARK H PARENT
REMARK Flexibility Score: inf
ROOT
ATOM      1  C   UNL     1      -7.926   6.381  -7.702  1.00  0.00     0.000 C 
ENDROOT
BRANCH   1   2
ATOM      2  C   UNL     1      -6.862   5.280  -7.614  1.00  0.00     0.000 C 
BRANCH   2   3
ATOM      3  C   UNL     1      -5.454   5.858  -7.801  1.00  0.00     0.006 C 
BRANCH   3   4
ATOM      4  C   UNL     1      -4.514   5.384  -6.689  1.00  0.00     0.053 C 
BRANCH   4   5
ATOM      5  C   UNL     1      -4.326   6.462  -5.669  1.00  0.00     0.041 C 
ATOM      6  O   UNL     1      -3.376   6.396  -4.845  1.00  0.00    -0.550 OA
ATOM      7  O   UNL     1      -5.170   7.565  -5.658  1.00  0.00    -0.550 OA
ENDBRANCH   4   5
ENDBRANCH   3   4
ENDBRANCH   2   3
ENDBRANCH   1   2
BRANCH   1   8
ATOM      8  C   UNL     1      -7.434   7.556  -8.556  1.00  0.00     0.000 C 
BRANCH   8   9
ATOM      9  C   UNL     1      -7.733   8.898  -7.871  1.00  0.00    -0.000 C 
BRANCH   9  10
ATOM     10  C   UNL     1      -6.750  10.012  -8.276  1.00  0.00    -0.000 C 
BRANCH  10  11
ATOM     11  C   UNL     1      -5.905   9.709  -9.526  1.00  0.00    -0.000 C 
BRANCH  11  12
ATOM     12  C   UNL     1      -4.418  10.042  -9.338  1.00  0.00    -0.003 C 
ATOM     13  C   UNL     1      -3.728   8.999  -8.463  1.00  0.00     0.004 C 
ENDBRANCH  11  12
ENDBRANCH  10  11
ENDBRANCH   9  10
ENDBRANCH   8   9
ENDBRANCH   1   8
TORSDOF 9
ENDMDL
MODEL 8
REMARK VINA RESULT:    -3.171      2.671      4.937
REMARK INTER + INTRA:          -6.091
REMARK INTER:                  -5.115
REMARK INTRA:                  -0.975
REMARK UNBOUND:                -1.251
REMARK SMILES CCCCCCCCCCC(=O)[O-]
REMARK SMILES IDX 7 1 8 2 9 3 10 4 11 5 12 6 13 7 6 8 5 9 4 10 3 11 2 12 1 13
REMARK H PARENT
REMARK Flexibility Score: inf
ROOT
ATOM      1  C   UNL     1      -6.762   7.042  -6.961  1.00  0.00     0.000 C 
ENDROOT
BRANCH   1   2
ATOM      2  C   UNL     1      -6.251   5.705  -7.511  1.00  0.00     0.000 C 
BRANCH   2   3
ATOM      3  C   UNL     1      -7.190   5.160  -8.594  1.00  0.00     0.006 C 
BRANCH   3   4
ATOM      4  C   UNL     1      -8.625   5.641  -8.370  1.00  0.00     0.053 C 
BRANCH   4   5
ATOM      5  C   UNL     1      -9.438   4.574  -7.707  1.00  0.00     0.041 C 
ATOM      6  O   UNL     1     -10.059   3.726  -8.402  1.00  0.00    -0.550 OA
ATOM      7  O   UNL     1      -9.471   4.485  -6.322  1.00  0.00    -0.550 OA
ENDBRANCH   4   5
ENDBRANCH   3   4
ENDBRANCH   2   3
ENDBRANCH   1   2
BRANCH   1   8
ATOM      8  C   UNL     1      -5.614   7.874  -6.379  1.00  0.00     0.000 C 
BRANCH   8   9
ATOM      9  C   UNL     1      -4.269   7.153  -6.552  1.00  0.00    -0.000 C 
BRANCH   9  10
ATOM     10  C   UNL     1      -3.380   7.792  -7.634  1.00  0.00    -0.000 C 
BRANCH  10  11
ATOM     11  C   UNL     1      -3.903   9.124  -8.202  1.00  0.00    -0.000 C 
BRANCH  11  12
ATOM     12  C   UNL     1      -4.130   9.079  -9.720  1.00  0.00    -0.003 C 
ATOM     13  C   UNL     1      -4.893   7.821 -10.125  1.00  0.00     0.004 C 
ENDBRANCH  11  12
ENDBRANCH  10  11
ENDBRANCH   9  10
ENDBRANCH   8   9
ENDBRANCH   1   8
TORSDOF 9
ENDMDL
MODEL 9
REMARK VINA RESULT:    -3.141      2.087      3.698
REMARK INTER + INTRA:          -6.044
REMARK INTER:                  -4.913
REMARK INTRA:                  -1.132
REMARK UNBOUND:                -1.251
REMARK SMILES CCCCCCCCCCC(=O)[O-]
REMARK SMILES IDX 7 1 8 2 9 3 10 4 11 5 12 6 13 7 6 8 5 9 4 10 3 11 2 12 1 13
REMARK H PARENT
REMARK Flexibility Score: inf
ROOT
ATOM      1  C   UNL     1      -4.185   8.001  -7.110  1.00  0.00     0.000 C 
ENDROOT
BRANCH   1   2
ATOM      2  C   UNL     1      -4.375   8.136  -8.626  1.00  0.00     0.000 C 
BRANCH   2   3
ATOM      3  C   UNL     1      -5.202   9.381  -8.969  1.00  0.00     0.006 C 
BRANCH   3   4
ATOM      4  C   UNL     1      -6.624   8.998  -9.386  1.00  0.00     0.053 C 
BRANCH   4   5
ATOM      5  C   UNL     1      -7.616   9.496  -8.383  1.00  0.00     0.041 C 
ATOM      6  O   UNL     1      -8.849   9.465  -8.639  1.00  0.00    -0.550 OA
ATOM      7  O   UNL     1      -7.183   9.951  -7.144  1.00  0.00    -0.550 OA
ENDBRANCH   4   5
ENDBRANCH   3   4
ENDBRANCH   2   3
ENDBRANCH   1   2
BRANCH   1   8
ATOM      8  C   UNL     1      -5.244   7.074  -6.502  1.00  0.00     0.000 C 
BRANCH   8   9
ATOM      9  C   UNL     1      -5.043   5.625  -6.972  1.00  0.00    -0.000 C 
BRANCH   9  10
ATOM     10  C   UNL     1      -6.260   5.066  -7.731  1.00  0.00    -0.000 C 
BRANCH  10  11
ATOM     11  C   UNL     1      -7.563   5.866  -7.549  1.00  0.00    -0.000 C 
BRANCH  11  12
ATOM     12  C   UNL     1      -8.448   5.863  -8.804  1.00  0.00    -0.003 C 
ATOM     13  C   UNL     1      -8.444   4.493  -9.476  1.00  0.00     0.004 C 
ENDBRANCH  11  12
ENDBRANCH  10  11
ENDBRANCH   9  10
ENDBRANCH   8   9
ENDBRANCH   1   8
TORSDOF 9
ENDMDL
