MODEL 1
REMARK VINA RESULT:    -5.919      0.000      0.000
REMARK INTER + INTRA:          -8.182
REMARK INTER:                  -7.476
REMARK INTRA:                  -0.706
REMARK UNBOUND:                -0.706
REMARK SMILES O=C(C=Cc1ccc(O)cc1)c1ccc(O)cc1O
REMARK SMILES IDX 4 1 3 2 5 3 6 4 7 5 8 6 11 7 10 8 9 9 2 11 1 12 12 13 18 14
REMARK SMILES IDX 13 15 17 16 14 17 15 18 19 19 16 21
REMARK H PARENT 9 10 19 20 16 22
REMARK Flexibility Score: inf
ROOT
ATOM      1  C   UNL     1      44.198  -7.869  40.034  1.00  0.00     0.012 C 
ATOM      2  C   UNL     1      43.879  -7.474  41.274  1.00  0.00     0.053 C 
ENDROOT
BRANCH   1   3
ATOM      3  C   UNL     1      45.412  -8.656  39.707  1.00  0.00    -0.025 A 
ATOM      4  C   UNL     1      45.351  -9.940  39.128  1.00  0.00     0.012 A 
ATOM      5  C   UNL     1      46.525 -10.638  38.828  1.00  0.00     0.047 A 
ATOM      6  C   UNL     1      47.772 -10.066  39.091  1.00  0.00     0.115 A 
ATOM      7  C   UNL     1      46.672  -8.084  39.953  1.00  0.00     0.012 A 
ATOM      8  C   UNL     1      47.844  -8.785  39.652  1.00  0.00     0.047 A 
BRANCH   6   9
ATOM      9  O   UNL     1      48.933 -10.774  38.787  1.00  0.00    -0.508 OA
ATOM     10  H   UNL     1      49.038 -11.750  39.037  1.00  0.00     0.293 HD
ENDBRANCH   6   9
ENDBRANCH   1   3
BRANCH   2  11
ATOM     11  C   UNL     1      42.666  -6.678  41.561  1.00  0.00     0.189 C 
ATOM     12  O   UNL     1      42.769  -5.484  41.956  1.00  0.00    -0.289 OA
BRANCH  11  13
ATOM     13  C   UNL     1      41.322  -7.262  41.356  1.00  0.00     0.064 A 
ATOM     14  C   UNL     1      40.277  -6.536  40.733  1.00  0.00     0.130 A 
ATOM     15  C   UNL     1      41.086  -8.590  41.756  1.00  0.00     0.020 A 
ATOM     16  C   UNL     1      39.045  -7.158  40.496  1.00  0.00     0.093 A 
ATOM     17  C   UNL     1      39.848  -9.193  41.527  1.00  0.00     0.047 A 
ATOM     18  C   UNL     1      38.826  -8.483  40.893  1.00  0.00     0.119 A 
BRANCH  14  19
ATOM     19  O   UNL     1      40.416  -5.196  40.365  1.00  0.00    -0.507 OA
ATOM     20  H   UNL     1      41.060  -4.881  39.651  1.00  0.00     0.293 HD
ENDBRANCH  14  19
BRANCH  18  21
ATOM     21  O   UNL     1      37.600  -9.100  40.664  1.00  0.00    -0.508 OA
ATOM     22  H   UNL     1      37.332  -9.421  39.740  1.00  0.00     0.293 HD
ENDBRANCH  18  21
ENDBRANCH  11  13
ENDBRANCH   2  11
TORSDOF 6
ENDMDL
MODEL 2
REMARK VINA RESULT:    -5.782      2.342      7.742
REMARK INTER + INTRA:          -8.010
REMARK INTER:                  -7.269
REMARK INTRA:                  -0.741
REMARK UNBOUND:                -0.706
REMARK SMILES O=C(C=Cc1ccc(O)cc1)c1ccc(O)cc1O
REMARK SMILES IDX 4 1 3 2 5 3 6 4 7 5 8 6 11 7 10 8 9 9 2 11 1 12 12 13 18 14
REMARK SMILES IDX 13 15 17 16 14 17 15 18 19 19 16 21
REMARK H PARENT 9 10 19 20 16 22
REMARK Flexibility Score: inf
ROOT
ATOM      1  C   UNL     1      45.494  -8.663  40.133  1.00  0.00     0.012 C 
ATOM      2  C   UNL     1      45.826  -9.685  39.332  1.00  0.00     0.053 C 
ENDROOT
BRANCH   1   3
ATOM      3  C   UNL     1      44.112  -8.143  40.276  1.00  0.00    -0.025 A 
ATOM      4  C   UNL     1      43.011  -8.726  39.616  1.00  0.00     0.012 A 
ATOM      5  C   UNL     1      41.724  -8.205  39.792  1.00  0.00     0.047 A 
ATOM      6  C   UNL     1      41.517  -7.107  40.629  1.00  0.00     0.115 A 
ATOM      7  C   UNL     1      43.889  -7.048  41.128  1.00  0.00     0.012 A 
ATOM      8  C   UNL     1      42.602  -6.531  41.301  1.00  0.00     0.047 A 
BRANCH   6   9
ATOM      9  O   UNL     1      40.229  -6.600  40.793  1.00  0.00    -0.508 OA
ATOM     10  H   UNL     1      39.412  -7.134  40.525  1.00  0.00     0.293 HD
ENDBRANCH   6   9
ENDBRANCH   1   3
BRANCH   2  11
ATOM     11  C   UNL     1      47.218 -10.168  39.205  1.00  0.00     0.189 C 
ATOM     12  O   UNL     1      47.786 -10.177  38.078  1.00  0.00    -0.289 OA
BRANCH  11  13
ATOM     13  C   UNL     1      47.966 -10.615  40.400  1.00  0.00     0.064 A 
ATOM     14  C   UNL     1      49.090  -9.904  40.888  1.00  0.00     0.130 A 
ATOM     15  C   UNL     1      47.526 -11.757  41.096  1.00  0.00     0.020 A 
ATOM     16  C   UNL     1      49.721 -10.326  42.066  1.00  0.00     0.093 A 
ATOM     17  C   UNL     1      48.173 -12.174  42.260  1.00  0.00     0.047 A 
ATOM     18  C   UNL     1      49.267 -11.460  42.751  1.00  0.00     0.119 A 
BRANCH  14  19
ATOM     19  O   UNL     1      49.623  -8.800  40.220  1.00  0.00    -0.507 OA
ATOM     20  H   UNL     1      50.535  -8.414  40.425  1.00  0.00     0.293 HD
ENDBRANCH  14  19
BRANCH  18  21
ATOM     21  O   UNL     1      49.897 -11.884  43.918  1.00  0.00    -0.508 OA
ATOM     22  H   UNL     1      49.583 -11.577  44.832  1.00  0.00     0.293 HD
ENDBRANCH  18  21
ENDBRANCH  11  13
ENDBRANCH   2  11
TORSDOF 6
ENDMDL
MODEL 3
REMARK VINA RESULT:    -5.709      1.921      7.256
REMARK INTER + INTRA:          -7.917
REMARK INTER:                  -7.216
REMARK INTRA:                  -0.701
REMARK UNBOUND:                -0.706
REMARK SMILES O=C(C=Cc1ccc(O)cc1)c1ccc(O)cc1O
REMARK SMILES IDX 4 1 3 2 5 3 6 4 7 5 8 6 11 7 10 8 9 9 2 11 1 12 12 13 18 14
REMARK SMILES IDX 13 15 17 16 14 17 15 18 19 19 16 21
REMARK H PARENT 9 10 19 20 16 22
REMARK Flexibility Score: inf
ROOT
ATOM      1  C   UNL     1      43.994  -8.032  40.464  1.00  0.00     0.012 C 
ATOM      2  C   UNL     1      44.839  -7.867  39.437  1.00  0.00     0.053 C 
ENDROOT
BRANCH   1   3
ATOM      3  C   UNL     1      42.594  -7.541  40.466  1.00  0.00    -0.025 A 
ATOM      4  C   UNL     1      42.168  -6.465  41.272  1.00  0.00     0.012 A 
ATOM      5  C   UNL     1      40.839  -6.032  41.229  1.00  0.00     0.047 A 
ATOM      6  C   UNL     1      39.921  -6.655  40.381  1.00  0.00     0.115 A 
ATOM      7  C   UNL     1      41.666  -8.150  39.604  1.00  0.00     0.012 A 
ATOM      8  C   UNL     1      40.338  -7.714  39.565  1.00  0.00     0.047 A 
BRANCH   6   9
ATOM      9  O   UNL     1      38.600  -6.212  40.350  1.00  0.00    -0.508 OA
ATOM     10  H   UNL     1      38.112  -5.947  41.196  1.00  0.00     0.293 HD
ENDBRANCH   6   9
ENDBRANCH   1   3
BRANCH   2  11
ATOM     11  C   UNL     1      46.233  -8.359  39.476  1.00  0.00     0.189 C 
ATOM     12  O   UNL     1      47.195  -7.546  39.395  1.00  0.00    -0.289 OA
BRANCH  11  13
ATOM     13  C   UNL     1      46.513  -9.802  39.642  1.00  0.00     0.064 A 
ATOM     14  C   UNL     1      47.531 -10.271  40.510  1.00  0.00     0.130 A 
ATOM     15  C   UNL     1      45.722 -10.737  38.950  1.00  0.00     0.020 A 
ATOM     16  C   UNL     1      47.708 -11.649  40.689  1.00  0.00     0.093 A 
ATOM     17  C   UNL     1      45.920 -12.107  39.127  1.00  0.00     0.047 A 
ATOM     18  C   UNL     1      46.908 -12.568  39.999  1.00  0.00     0.119 A 
BRANCH  14  19
ATOM     19  O   UNL     1      48.395  -9.406  41.183  1.00  0.00    -0.507 OA
ATOM     20  H   UNL     1      48.818  -8.596  40.750  1.00  0.00     0.293 HD
ENDBRANCH  14  19
BRANCH  18  21
ATOM     21  O   UNL     1      47.089 -13.938  40.171  1.00  0.00    -0.508 OA
ATOM     22  H   UNL     1      47.012 -14.372  41.084  1.00  0.00     0.293 HD
ENDBRANCH  18  21
ENDBRANCH  11  13
ENDBRANCH   2  11
TORSDOF 6
ENDMDL
MODEL 4
REMARK VINA RESULT:    -5.598      1.137      1.645
REMARK INTER + INTRA:          -7.777
REMARK INTER:                  -7.182
REMARK INTRA:                  -0.595
REMARK UNBOUND:                -0.706
REMARK SMILES O=C(C=Cc1ccc(O)cc1)c1ccc(O)cc1O
REMARK SMILES IDX 4 1 3 2 5 3 6 4 7 5 8 6 11 7 10 8 9 9 2 11 1 12 12 13 18 14
REMARK SMILES IDX 13 15 17 16 14 17 15 18 19 19 16 21
REMARK H PARENT 9 10 19 20 16 22
REMARK Flexibility Score: inf
ROOT
ATOM      1  C   UNL     1      43.421  -7.922  40.452  1.00  0.00     0.012 C 
ATOM      2  C   UNL     1      43.404  -6.732  41.071  1.00  0.00     0.053 C 
ENDROOT
BRANCH   1   3
ATOM      3  C   UNL     1      44.652  -8.558  39.925  1.00  0.00    -0.025 A 
ATOM      4  C   UNL     1      44.652  -9.840  39.336  1.00  0.00     0.012 A 
ATOM      5  C   UNL     1      45.838 -10.392  38.842  1.00  0.00     0.047 A 
ATOM      6  C   UNL     1      47.035  -9.676  38.919  1.00  0.00     0.115 A 
ATOM      7  C   UNL     1      45.859  -7.840  39.982  1.00  0.00     0.012 A 
ATOM      8  C   UNL     1      47.043  -8.396  39.488  1.00  0.00     0.047 A 
BRANCH   6   9
ATOM      9  O   UNL     1      48.208 -10.240  38.423  1.00  0.00    -0.508 OA
ATOM     10  H   UNL     1      48.781  -9.757  37.742  1.00  0.00     0.293 HD
ENDBRANCH   6   9
ENDBRANCH   1   3
BRANCH   2  11
ATOM     11  C   UNL     1      42.154  -6.122  41.573  1.00  0.00     0.189 C 
ATOM     12  O   UNL     1      42.182  -4.995  42.141  1.00  0.00    -0.289 OA
BRANCH  11  13
ATOM     13  C   UNL     1      40.858  -6.810  41.386  1.00  0.00     0.064 A 
ATOM     14  C   UNL     1      40.377  -7.765  42.315  1.00  0.00     0.130 A 
ATOM     15  C   UNL     1      40.062  -6.479  40.274  1.00  0.00     0.020 A 
ATOM     16  C   UNL     1      39.110  -8.334  42.133  1.00  0.00     0.093 A 
ATOM     17  C   UNL     1      38.808  -7.065  40.096  1.00  0.00     0.047 A 
ATOM     18  C   UNL     1      38.326  -7.990  41.025  1.00  0.00     0.119 A 
BRANCH  14  19
ATOM     19  O   UNL     1      41.134  -8.189  43.409  1.00  0.00    -0.507 OA
ATOM     20  H   UNL     1      41.985  -8.729  43.319  1.00  0.00     0.293 HD
ENDBRANCH  14  19
BRANCH  18  21
ATOM     21  O   UNL     1      37.070  -8.560  40.838  1.00  0.00    -0.508 OA
ATOM     22  H   UNL     1      36.880  -9.182  40.060  1.00  0.00     0.293 HD
ENDBRANCH  18  21
ENDBRANCH  11  13
ENDBRANCH   2  11
TORSDOF 6
ENDMDL
MODEL 5
REMARK VINA RESULT:    -5.574      1.483      7.355
REMARK INTER + INTRA:          -7.746
REMARK INTER:                  -7.216
REMARK INTRA:                  -0.530
REMARK UNBOUND:                -0.706
REMARK SMILES O=C(C=Cc1ccc(O)cc1)c1ccc(O)cc1O
REMARK SMILES IDX 4 1 3 2 5 3 6 4 7 5 8 6 11 7 10 8 9 9 2 11 1 12 12 13 18 14
REMARK SMILES IDX 13 15 17 16 14 17 15 18 19 19 16 21
REMARK H PARENT 9 10 19 20 16 22
REMARK Flexibility Score: inf
ROOT
ATOM      1  C   UNL     1      41.876  -7.179  40.872  1.00  0.00     0.012 C 
ATOM      2  C   UNL     1      42.748  -7.596  39.943  1.00  0.00     0.053 C 
ENDROOT
BRANCH   1   3
ATOM      3  C   UNL     1      40.431  -7.514  40.854  1.00  0.00    -0.025 A 
ATOM      4  C   UNL     1      39.900  -8.620  41.549  1.00  0.00     0.012 A 
ATOM      5  C   UNL     1      38.527  -8.887  41.511  1.00  0.00     0.047 A 
ATOM      6  C   UNL     1      37.667  -8.055  40.790  1.00  0.00     0.115 A 
ATOM      7  C   UNL     1      39.554  -6.675  40.145  1.00  0.00     0.012 A 
ATOM      8  C   UNL     1      38.183  -6.946  40.109  1.00  0.00     0.047 A 
BRANCH   6   9
ATOM      9  O   UNL     1      36.302  -8.335  40.761  1.00  0.00    -0.508 OA
ATOM     10  H   UNL     1      35.636  -7.773  41.275  1.00  0.00     0.293 HD
ENDBRANCH   6   9
ENDBRANCH   1   3
BRANCH   2  11
ATOM     11  C   UNL     1      44.180  -7.231  39.985  1.00  0.00     0.189 C 
ATOM     12  O   UNL     1      44.528  -6.064  40.316  1.00  0.00    -0.289 OA
BRANCH  11  13
ATOM     13  C   UNL     1      45.218  -8.238  39.673  1.00  0.00     0.064 A 
ATOM     14  C   UNL     1      46.585  -7.888  39.543  1.00  0.00     0.130 A 
ATOM     15  C   UNL     1      44.844  -9.588  39.539  1.00  0.00     0.020 A 
ATOM     16  C   UNL     1      47.539  -8.889  39.320  1.00  0.00     0.093 A 
ATOM     17  C   UNL     1      45.804 -10.573  39.302  1.00  0.00     0.047 A 
ATOM     18  C   UNL     1      47.153 -10.229  39.196  1.00  0.00     0.119 A 
BRANCH  14  19
ATOM     19  O   UNL     1      47.026  -6.565  39.602  1.00  0.00    -0.507 OA
ATOM     20  H   UNL     1      47.981  -6.306  39.812  1.00  0.00     0.293 HD
ENDBRANCH  14  19
BRANCH  18  21
ATOM     21  O   UNL     1      48.100 -11.224  38.967  1.00  0.00    -0.508 OA
ATOM     22  H   UNL     1      48.837 -11.106  38.281  1.00  0.00     0.293 HD
ENDBRANCH  18  21
ENDBRANCH  11  13
ENDBRANCH   2  11
TORSDOF 6
ENDMDL
MODEL 6
REMARK VINA RESULT:    -5.509      2.030      3.420
REMARK INTER + INTRA:          -7.664
REMARK INTER:                  -7.103
REMARK INTRA:                  -0.561
REMARK UNBOUND:                -0.706
REMARK SMILES O=C(C=Cc1ccc(O)cc1)c1ccc(O)cc1O
REMARK SMILES IDX 4 1 3 2 5 3 6 4 7 5 8 6 11 7 10 8 9 9 2 11 1 12 12 13 18 14
REMARK SMILES IDX 13 15 17 16 14 17 15 18 19 19 16 21
REMARK H PARENT 9 10 19 20 16 22
REMARK Flexibility Score: inf
ROOT
ATOM      1  C   UNL     1      43.734  -7.817  40.873  1.00  0.00     0.012 C 
ATOM      2  C   UNL     1      42.525  -7.563  40.351  1.00  0.00     0.053 C 
ENDROOT
BRANCH   1   3
ATOM      3  C   UNL     1      44.806  -8.546  40.151  1.00  0.00    -0.025 A 
ATOM      4  C   UNL     1      44.592  -9.798  39.539  1.00  0.00     0.012 A 
ATOM      5  C   UNL     1      45.632 -10.440  38.859  1.00  0.00     0.047 A 
ATOM      6  C   UNL     1      46.892  -9.844  38.773  1.00  0.00     0.115 A 
ATOM      7  C   UNL     1      46.072  -7.948  40.044  1.00  0.00     0.012 A 
ATOM      8  C   UNL     1      47.110  -8.594  39.364  1.00  0.00     0.047 A 
BRANCH   6   9
ATOM      9  O   UNL     1      47.918 -10.497  38.093  1.00  0.00    -0.508 OA
ATOM     10  H   UNL     1      48.673  -9.984  37.655  1.00  0.00     0.293 HD
ENDBRANCH   6   9
ENDBRANCH   1   3
BRANCH   2  11
ATOM     11  C   UNL     1      41.476  -6.844  41.106  1.00  0.00     0.189 C 
ATOM     12  O   UNL     1      40.278  -6.875  40.713  1.00  0.00    -0.289 OA
BRANCH  11  13
ATOM     13  C   UNL     1      41.816  -6.110  42.345  1.00  0.00     0.064 A 
ATOM     14  C   UNL     1      42.404  -4.822  42.314  1.00  0.00     0.130 A 
ATOM     15  C   UNL     1      41.510  -6.691  43.590  1.00  0.00     0.020 A 
ATOM     16  C   UNL     1      42.639  -4.137  43.513  1.00  0.00     0.093 A 
ATOM     17  C   UNL     1      41.764  -6.004  44.778  1.00  0.00     0.047 A 
ATOM     18  C   UNL     1      42.323  -4.725  44.745  1.00  0.00     0.119 A 
BRANCH  14  19
ATOM     19  O   UNL     1      42.792  -4.206  41.122  1.00  0.00    -0.507 OA
ATOM     20  H   UNL     1      43.393  -3.394  41.087  1.00  0.00     0.293 HD
ENDBRANCH  14  19
BRANCH  18  21
ATOM     21  O   UNL     1      42.563  -4.048  45.938  1.00  0.00    -0.508 OA
ATOM     22  H   UNL     1      42.390  -3.054  46.027  1.00  0.00     0.293 HD
ENDBRANCH  18  21
ENDBRANCH  11  13
ENDBRANCH   2  11
TORSDOF 6
ENDMDL
MODEL 7
REMARK VINA RESULT:    -5.501      2.302      7.771
REMARK INTER + INTRA:          -7.654
REMARK INTER:                  -7.028
REMARK INTRA:                  -0.626
REMARK UNBOUND:                -0.706
REMARK SMILES O=C(C=Cc1ccc(O)cc1)c1ccc(O)cc1O
REMARK SMILES IDX 4 1 3 2 5 3 6 4 7 5 8 6 11 7 10 8 9 9 2 11 1 12 12 13 18 14
REMARK SMILES IDX 13 15 17 16 14 17 15 18 19 19 16 21
REMARK H PARENT 9 10 19 20 16 22
REMARK Flexibility Score: inf
ROOT
ATOM      1  C   UNL     1      40.848  -8.595  41.086  1.00  0.00     0.012 C 
ATOM      2  C   UNL     1      41.770  -8.584  40.112  1.00  0.00     0.053 C 
ENDROOT
BRANCH   1   3
ATOM      3  C   UNL     1      39.473  -8.064  40.923  1.00  0.00    -0.025 A 
ATOM      4  C   UNL     1      39.175  -6.973  40.080  1.00  0.00     0.012 A 
ATOM      5  C   UNL     1      37.859  -6.517  39.952  1.00  0.00     0.047 A 
ATOM      6  C   UNL     1      36.824  -7.143  40.651  1.00  0.00     0.115 A 
ATOM      7  C   UNL     1      38.422  -8.696  41.610  1.00  0.00     0.012 A 
ATOM      8  C   UNL     1      37.108  -8.236  41.479  1.00  0.00     0.047 A 
BRANCH   6   9
ATOM      9  O   UNL     1      35.519  -6.676  40.513  1.00  0.00    -0.508 OA
ATOM     10  H   UNL     1      35.164  -6.352  39.622  1.00  0.00     0.293 HD
ENDBRANCH   6   9
ENDBRANCH   1   3
BRANCH   2  11
ATOM     11  C   UNL     1      43.137  -9.110  40.315  1.00  0.00     0.189 C 
ATOM     12  O   UNL     1      43.308 -10.292  40.722  1.00  0.00    -0.289 OA
BRANCH  11  13
ATOM     13  C   UNL     1      44.315  -8.269  40.011  1.00  0.00     0.064 A 
ATOM     14  C   UNL     1      45.568  -8.832  39.665  1.00  0.00     0.130 A 
ATOM     15  C   UNL     1      44.179  -6.868  40.028  1.00  0.00     0.020 A 
ATOM     16  C   UNL     1      46.633  -7.993  39.314  1.00  0.00     0.093 A 
ATOM     17  C   UNL     1      45.253  -6.044  39.691  1.00  0.00     0.047 A 
ATOM     18  C   UNL     1      46.481  -6.601  39.328  1.00  0.00     0.119 A 
BRANCH  14  19
ATOM     19  O   UNL     1      45.798 -10.209  39.685  1.00  0.00    -0.507 OA
ATOM     20  H   UNL     1      46.721 -10.619  39.620  1.00  0.00     0.293 HD
ENDBRANCH  14  19
BRANCH  18  21
ATOM     21  O   UNL     1      47.541  -5.766  38.986  1.00  0.00    -0.508 OA
ATOM     22  H   UNL     1      47.444  -4.757  38.990  1.00  0.00     0.293 HD
ENDBRANCH  18  21
ENDBRANCH  11  13
ENDBRANCH   2  11
TORSDOF 6
ENDMDL
MODEL 8
REMARK VINA RESULT:    -5.482      3.741      5.910
REMARK INTER + INTRA:          -7.631
REMARK INTER:                  -6.913
REMARK INTRA:                  -0.718
REMARK UNBOUND:                -0.706
REMARK SMILES O=C(C=Cc1ccc(O)cc1)c1ccc(O)cc1O
REMARK SMILES IDX 4 1 3 2 5 3 6 4 7 5 8 6 11 7 10 8 9 9 2 11 1 12 12 13 18 14
REMARK SMILES IDX 13 15 17 16 14 17 15 18 19 19 16 21
REMARK H PARENT 9 10 19 20 16 22
REMARK Flexibility Score: inf
ROOT
ATOM      1  C   UNL     1      47.947 -10.892  41.323  1.00  0.00     0.012 C 
ATOM      2  C   UNL     1      47.444 -11.191  40.116  1.00  0.00     0.053 C 
ENDROOT
BRANCH   1   3
ATOM      3  C   UNL     1      48.363 -11.911  42.317  1.00  0.00    -0.025 A 
ATOM      4  C   UNL     1      49.517 -11.765  43.115  1.00  0.00     0.012 A 
ATOM      5  C   UNL     1      49.861 -12.750  44.048  1.00  0.00     0.047 A 
ATOM      6  C   UNL     1      49.061 -13.884  44.203  1.00  0.00     0.115 A 
ATOM      7  C   UNL     1      47.557 -13.049  42.493  1.00  0.00     0.012 A 
ATOM      8  C   UNL     1      47.905 -14.030  43.426  1.00  0.00     0.047 A 
BRANCH   6   9
ATOM      9  O   UNL     1      49.418 -14.856  45.136  1.00  0.00    -0.508 OA
ATOM     10  H   UNL     1      49.119 -15.819  45.037  1.00  0.00     0.293 HD
ENDBRANCH   6   9
ENDBRANCH   1   3
BRANCH   2  11
ATOM     11  C   UNL     1      47.027 -10.148  39.155  1.00  0.00     0.189 C 
ATOM     12  O   UNL     1      47.649 -10.003  38.067  1.00  0.00    -0.289 OA
BRANCH  11  13
ATOM     13  C   UNL     1      45.859  -9.288  39.445  1.00  0.00     0.064 A 
ATOM     14  C   UNL     1      45.971  -7.878  39.531  1.00  0.00     0.130 A 
ATOM     15  C   UNL     1      44.593  -9.883  39.603  1.00  0.00     0.020 A 
ATOM     16  C   UNL     1      44.823  -7.102  39.734  1.00  0.00     0.093 A 
ATOM     17  C   UNL     1      43.460  -9.097  39.821  1.00  0.00     0.047 A 
ATOM     18  C   UNL     1      43.569  -7.707  39.882  1.00  0.00     0.119 A 
BRANCH  14  19
ATOM     19  O   UNL     1      47.199  -7.220  39.446  1.00  0.00    -0.507 OA
ATOM     20  H   UNL     1      47.888  -7.419  38.732  1.00  0.00     0.293 HD
ENDBRANCH  14  19
BRANCH  18  21
ATOM     21  O   UNL     1      42.428  -6.937  40.092  1.00  0.00    -0.508 OA
ATOM     22  H   UNL     1      41.714  -7.216  40.755  1.00  0.00     0.293 HD
ENDBRANCH  18  21
ENDBRANCH  11  13
ENDBRANCH   2  11
TORSDOF 6
ENDMDL
MODEL 9
REMARK VINA RESULT:    -5.394      1.768      2.349
REMARK INTER + INTRA:          -7.519
REMARK INTER:                  -6.832
REMARK INTRA:                  -0.687
REMARK UNBOUND:                -0.706
REMARK SMILES O=C(C=Cc1ccc(O)cc1)c1ccc(O)cc1O
REMARK SMILES IDX 4 1 3 2 5 3 6 4 7 5 8 6 11 7 10 8 9 9 2 11 1 12 12 13 18 14
REMARK SMILES IDX 13 15 17 16 14 17 15 18 19 19 16 21
REMARK H PARENT 9 10 19 20 16 22
REMARK Flexibility Score: inf
ROOT
ATOM      1  C   UNL     1      43.467  -9.134  39.614  1.00  0.00     0.012 C 
ATOM      2  C   UNL     1      42.995  -7.941  40.005  1.00  0.00     0.053 C 
ENDROOT
BRANCH   1   3
ATOM      3  C   UNL     1      44.911  -9.443  39.478  1.00  0.00    -0.025 A 
ATOM      4  C   UNL     1      45.383 -10.728  39.136  1.00  0.00     0.012 A 
ATOM      5  C   UNL     1      46.755 -10.966  39.008  1.00  0.00     0.047 A 
ATOM      6  C   UNL     1      47.673  -9.932  39.210  1.00  0.00     0.115 A 
ATOM      7  C   UNL     1      45.842  -8.407  39.663  1.00  0.00     0.012 A 
ATOM      8  C   UNL     1      47.213  -8.650  39.535  1.00  0.00     0.047 A 
BRANCH   6   9
ATOM      9  O   UNL     1      49.037 -10.186  39.080  1.00  0.00    -0.508 OA
ATOM     10  H   UNL     1      49.426 -11.099  39.281  1.00  0.00     0.293 HD
ENDBRANCH   6   9
ENDBRANCH   1   3
BRANCH   2  11
ATOM     11  C   UNL     1      41.547  -7.665  40.116  1.00  0.00     0.189 C 
ATOM     12  O   UNL     1      40.874  -7.379  39.088  1.00  0.00    -0.289 OA
BRANCH  11  13
ATOM     13  C   UNL     1      40.868  -7.752  41.428  1.00  0.00     0.064 A 
ATOM     14  C   UNL     1      39.630  -8.423  41.586  1.00  0.00     0.130 A 
ATOM     15  C   UNL     1      41.487  -7.186  42.558  1.00  0.00     0.020 A 
ATOM     16  C   UNL     1      39.063  -8.542  42.861  1.00  0.00     0.093 A 
ATOM     17  C   UNL     1      40.903  -7.300  43.821  1.00  0.00     0.047 A 
ATOM     18  C   UNL     1      39.694  -7.980  43.978  1.00  0.00     0.119 A 
BRANCH  14  19
ATOM     19  O   UNL     1      38.925  -8.955  40.504  1.00  0.00    -0.507 OA
ATOM     20  H   UNL     1      39.216  -8.841  39.542  1.00  0.00     0.293 HD
ENDBRANCH  14  19
BRANCH  18  21
ATOM     21  O   UNL     1      39.128  -8.092  45.246  1.00  0.00    -0.508 OA
ATOM     22  H   UNL     1      38.816  -7.276  45.760  1.00  0.00     0.293 HD
ENDBRANCH  18  21
ENDBRANCH  11  13
ENDBRANCH   2  11
TORSDOF 6
ENDMDL
