MODEL 1
REMARK VINA RESULT:    -7.884      0.000      0.000
REMARK INTER + INTRA:          -8.565
REMARK INTER:                  -8.345
REMARK INTRA:                  -0.220
REMARK UNBOUND:                -0.220
REMARK SMILES O=c1cc(-c2ccccc2)oc2ccccc12
REMARK SMILES IDX 4 1 3 2 2 3 1 4 17 5 16 6 15 7 14 8 13 9 12 10 11 11 5 12
REMARK SMILES IDX 8 13 7 14 9 15 6 16 10 17
REMARK H PARENT
REMARK Flexibility Score: inf
ROOT
ATOM      1  C   UNL     1     -17.249   8.701  23.108  1.00  0.00     0.138 A 
ATOM      2  C   UNL     1     -18.040   9.869  23.075  1.00  0.00     0.100 A 
ATOM      3  C   UNL     1     -18.779  10.168  21.930  1.00  0.00     0.193 A 
ATOM      4  O   UNL     1     -19.486  11.212  21.901  1.00  0.00    -0.289 OA
ATOM      5  C   UNL     1     -18.724   9.304  20.827  1.00  0.00     0.065 A 
ATOM      6  C   UNL     1     -19.444   9.547  19.643  1.00  0.00     0.016 A 
ATOM      7  C   UNL     1     -19.353   8.651  18.572  1.00  0.00     0.001 A 
ATOM      8  C   UNL     1     -18.548   7.513  18.675  1.00  0.00     0.004 A 
ATOM      9  C   UNL     1     -17.830   7.263  19.848  1.00  0.00     0.048 A 
ATOM     10  C   UNL     1     -17.913   8.153  20.925  1.00  0.00     0.138 A 
ATOM     11  O   UNL     1     -17.227   7.907  22.036  1.00  0.00    -0.456 OA
ENDROOT
BRANCH   1  12
ATOM     12  C   UNL     1     -16.428   8.306  24.294  1.00  0.00     0.017 A 
ATOM     13  C   UNL     1     -14.803   7.607  26.494  1.00  0.00     0.000 A 
ATOM     14  C   UNL     1     -14.269   8.342  25.437  1.00  0.00     0.001 A 
ATOM     15  C   UNL     1     -16.142   7.218  26.464  1.00  0.00     0.001 A 
ATOM     16  C   UNL     1     -15.071   8.690  24.346  1.00  0.00     0.012 A 
ATOM     17  C   UNL     1     -16.952   7.561  25.376  1.00  0.00     0.012 A 
ENDBRANCH   1  12
TORSDOF 1
ENDMDL
MODEL 2
REMARK VINA RESULT:    -7.755      1.212      1.694
REMARK INTER + INTRA:          -8.429
REMARK INTER:                  -8.176
REMARK INTRA:                  -0.253
REMARK UNBOUND:                -0.220
REMARK SMILES O=c1cc(-c2ccccc2)oc2ccccc12
REMARK SMILES IDX 4 1 3 2 2 3 1 4 17 5 16 6 15 7 14 8 13 9 12 10 11 11 5 12
REMARK SMILES IDX 8 13 7 14 9 15 6 16 10 17
REMARK H PARENT
REMARK Flexibility Score: inf
ROOT
ATOM      1  C   UNL     1     -17.812   8.906  23.730  1.00  0.00     0.138 A 
ATOM      2  C   UNL     1     -18.421  10.083  23.249  1.00  0.00     0.100 A 
ATOM      3  C   UNL     1     -18.740  10.190  21.894  1.00  0.00     0.193 A 
ATOM      4  O   UNL     1     -19.285  11.243  21.465  1.00  0.00    -0.289 OA
ATOM      5  C   UNL     1     -18.449   9.125  21.031  1.00  0.00     0.065 A 
ATOM      6  C   UNL     1     -18.743   9.167  19.656  1.00  0.00     0.016 A 
ATOM      7  C   UNL     1     -18.431   8.075  18.839  1.00  0.00     0.001 A 
ATOM      8  C   UNL     1     -17.827   6.939  19.385  1.00  0.00     0.004 A 
ATOM      9  C   UNL     1     -17.531   6.888  20.750  1.00  0.00     0.048 A 
ATOM     10  C   UNL     1     -17.839   7.975  21.576  1.00  0.00     0.138 A 
ATOM     11  O   UNL     1     -17.554   7.917  22.873  1.00  0.00    -0.456 OA
ENDROOT
BRANCH   1  12
ATOM     12  C   UNL     1     -17.439   8.710  25.166  1.00  0.00     0.017 A 
ATOM     13  C   UNL     1     -16.814   8.393  27.900  1.00  0.00     0.000 A 
ATOM     14  C   UNL     1     -17.929   9.136  27.521  1.00  0.00     0.001 A 
ATOM     15  C   UNL     1     -16.006   7.804  26.927  1.00  0.00     0.001 A 
ATOM     16  C   UNL     1     -18.242   9.296  26.168  1.00  0.00     0.012 A 
ATOM     17  C   UNL     1     -16.311   7.959  25.570  1.00  0.00     0.012 A 
ENDBRANCH   1  12
TORSDOF 1
ENDMDL
MODEL 3
REMARK VINA RESULT:    -7.712      1.478      5.985
REMARK INTER + INTRA:          -8.383
REMARK INTER:                  -8.160
REMARK INTRA:                  -0.223
REMARK UNBOUND:                -0.220
REMARK SMILES O=c1cc(-c2ccccc2)oc2ccccc12
REMARK SMILES IDX 4 1 3 2 2 3 1 4 17 5 16 6 15 7 14 8 13 9 12 10 11 11 5 12
REMARK SMILES IDX 8 13 7 14 9 15 6 16 10 17
REMARK H PARENT
REMARK Flexibility Score: inf
ROOT
ATOM      1  C   UNL     1     -17.766   8.252  22.785  1.00  0.00     0.138 A 
ATOM      2  C   UNL     1     -18.752   8.015  23.765  1.00  0.00     0.100 A 
ATOM      3  C   UNL     1     -18.415   8.102  25.117  1.00  0.00     0.193 A 
ATOM      4  O   UNL     1     -19.297   7.889  25.992  1.00  0.00    -0.289 OA
ATOM      5  C   UNL     1     -17.100   8.424  25.480  1.00  0.00     0.065 A 
ATOM      6  C   UNL     1     -16.693   8.526  26.824  1.00  0.00     0.016 A 
ATOM      7  C   UNL     1     -15.368   8.851  27.131  1.00  0.00     0.001 A 
ATOM      8  C   UNL     1     -14.443   9.073  26.107  1.00  0.00     0.004 A 
ATOM      9  C   UNL     1     -14.838   8.973  24.769  1.00  0.00     0.048 A 
ATOM     10  C   UNL     1     -16.161   8.649  24.450  1.00  0.00     0.138 A 
ATOM     11  O   UNL     1     -16.527   8.556  23.176  1.00  0.00    -0.456 OA
ENDROOT
BRANCH   1  12
ATOM     12  C   UNL     1     -18.043   8.181  21.316  1.00  0.00     0.017 A 
ATOM     13  C   UNL     1     -18.612   8.132  18.552  1.00  0.00     0.000 A 
ATOM     14  C   UNL     1     -19.045   9.200  19.335  1.00  0.00     0.001 A 
ATOM     15  C   UNL     1     -17.895   7.087  19.135  1.00  0.00     0.001 A 
ATOM     16  C   UNL     1     -18.765   9.227  20.704  1.00  0.00     0.012 A 
ATOM     17  C   UNL     1     -17.611   7.106  20.505  1.00  0.00     0.012 A 
ENDBRANCH   1  12
TORSDOF 1
ENDMDL
MODEL 4
REMARK VINA RESULT:    -7.562      7.678     10.475
REMARK INTER + INTRA:          -8.224
REMARK INTER:                  -7.970
REMARK INTRA:                  -0.255
REMARK UNBOUND:                -0.220
REMARK SMILES O=c1cc(-c2ccccc2)oc2ccccc12
REMARK SMILES IDX 4 1 3 2 2 3 1 4 17 5 16 6 15 7 14 8 13 9 12 10 11 11 5 12
REMARK SMILES IDX 8 13 7 14 9 15 6 16 10 17
REMARK H PARENT
REMARK Flexibility Score: inf
ROOT
ATOM      1  C   UNL     1     -20.787   5.304  29.655  1.00  0.00     0.138 A 
ATOM      2  C   UNL     1     -19.949   4.548  30.502  1.00  0.00     0.100 A 
ATOM      3  C   UNL     1     -20.517   3.699  31.453  1.00  0.00     0.193 A 
ATOM      4  O   UNL     1     -19.768   3.024  32.210  1.00  0.00    -0.289 OA
ATOM      5  C   UNL     1     -21.913   3.609  31.552  1.00  0.00     0.065 A 
ATOM      6  C   UNL     1     -22.550   2.774  32.489  1.00  0.00     0.016 A 
ATOM      7  C   UNL     1     -23.946   2.723  32.544  1.00  0.00     0.001 A 
ATOM      8  C   UNL     1     -24.714   3.499  31.673  1.00  0.00     0.004 A 
ATOM      9  C   UNL     1     -24.090   4.333  30.739  1.00  0.00     0.048 A 
ATOM     10  C   UNL     1     -22.693   4.392  30.674  1.00  0.00     0.138 A 
ATOM     11  O   UNL     1     -22.109   5.186  29.783  1.00  0.00    -0.456 OA
ENDROOT
BRANCH   1  12
ATOM     12  C   UNL     1     -20.260   6.236  28.609  1.00  0.00     0.017 A 
ATOM     13  C   UNL     1     -19.189   7.935  26.626  1.00  0.00     0.000 A 
ATOM     14  C   UNL     1     -18.504   6.782  27.001  1.00  0.00     0.001 A 
ATOM     15  C   UNL     1     -20.407   8.249  27.231  1.00  0.00     0.001 A 
ATOM     16  C   UNL     1     -19.031   5.938  27.983  1.00  0.00     0.012 A 
ATOM     17  C   UNL     1     -20.941   7.410  28.215  1.00  0.00     0.012 A 
ENDBRANCH   1  12
TORSDOF 1
ENDMDL
MODEL 5
REMARK VINA RESULT:    -7.528      8.091     10.895
REMARK INTER + INTRA:          -8.189
REMARK INTER:                  -7.931
REMARK INTRA:                  -0.258
REMARK UNBOUND:                -0.220
REMARK SMILES O=c1cc(-c2ccccc2)oc2ccccc12
REMARK SMILES IDX 4 1 3 2 2 3 1 4 17 5 16 6 15 7 14 8 13 9 12 10 11 11 5 12
REMARK SMILES IDX 8 13 7 14 9 15 6 16 10 17
REMARK H PARENT
REMARK Flexibility Score: inf
ROOT
ATOM      1  C   UNL     1     -20.376   5.218  30.882  1.00  0.00     0.138 A 
ATOM      2  C   UNL     1     -19.698   4.044  31.272  1.00  0.00     0.100 A 
ATOM      3  C   UNL     1     -20.432   2.914  31.637  1.00  0.00     0.193 A 
ATOM      4  O   UNL     1     -19.826   1.865  31.986  1.00  0.00    -0.289 OA
ATOM      5  C   UNL     1     -21.833   2.962  31.611  1.00  0.00     0.065 A 
ATOM      6  C   UNL     1     -22.632   1.860  31.968  1.00  0.00     0.016 A 
ATOM      7  C   UNL     1     -24.026   1.964  31.923  1.00  0.00     0.001 A 
ATOM      8  C   UNL     1     -24.631   3.159  31.526  1.00  0.00     0.004 A 
ATOM      9  C   UNL     1     -23.844   4.259  31.171  1.00  0.00     0.048 A 
ATOM     10  C   UNL     1     -22.449   4.168  31.211  1.00  0.00     0.138 A 
ATOM     11  O   UNL     1     -21.710   5.219  30.871  1.00  0.00    -0.456 OA
ENDROOT
BRANCH   1  12
ATOM     12  C   UNL     1     -19.667   6.471  30.475  1.00  0.00     0.017 A 
ATOM     13  C   UNL     1     -18.253   8.780  29.679  1.00  0.00     0.000 A 
ATOM     14  C   UNL     1     -17.664   7.524  29.553  1.00  0.00     0.001 A 
ATOM     15  C   UNL     1     -19.542   8.896  30.198  1.00  0.00     0.001 A 
ATOM     16  C   UNL     1     -18.362   6.378  29.946  1.00  0.00     0.012 A 
ATOM     17  C   UNL     1     -20.248   7.754  30.595  1.00  0.00     0.012 A 
ENDBRANCH   1  12
TORSDOF 1
ENDMDL
MODEL 6
REMARK VINA RESULT:    -7.436      7.611     10.424
REMARK INTER + INTRA:          -8.091
REMARK INTER:                  -7.869
REMARK INTRA:                  -0.222
REMARK UNBOUND:                -0.220
REMARK SMILES O=c1cc(-c2ccccc2)oc2ccccc12
REMARK SMILES IDX 4 1 3 2 2 3 1 4 17 5 16 6 15 7 14 8 13 9 12 10 11 11 5 12
REMARK SMILES IDX 8 13 7 14 9 15 6 16 10 17
REMARK H PARENT
REMARK Flexibility Score: inf
ROOT
ATOM      1  C   UNL     1     -21.378   5.177  30.492  1.00  0.00     0.138 A 
ATOM      2  C   UNL     1     -20.682   4.932  29.290  1.00  0.00     0.100 A 
ATOM      3  C   UNL     1     -19.716   5.842  28.855  1.00  0.00     0.193 A 
ATOM      4  O   UNL     1     -19.094   5.622  27.780  1.00  0.00    -0.289 OA
ATOM      5  C   UNL     1     -19.452   6.986  29.621  1.00  0.00     0.065 A 
ATOM      6  C   UNL     1     -18.492   7.942  29.240  1.00  0.00     0.016 A 
ATOM      7  C   UNL     1     -18.268   9.067  30.042  1.00  0.00     0.001 A 
ATOM      8  C   UNL     1     -18.995   9.245  31.222  1.00  0.00     0.004 A 
ATOM      9  C   UNL     1     -19.951   8.300  31.608  1.00  0.00     0.048 A 
ATOM     10  C   UNL     1     -20.183   7.171  30.814  1.00  0.00     0.138 A 
ATOM     11  O   UNL     1     -21.093   6.279  31.189  1.00  0.00    -0.456 OA
ENDROOT
BRANCH   1  12
ATOM     12  C   UNL     1     -22.426   4.254  31.029  1.00  0.00     0.017 A 
ATOM     13  C   UNL     1     -24.332   2.453  32.072  1.00  0.00     0.000 A 
ATOM     14  C   UNL     1     -22.973   2.162  32.166  1.00  0.00     0.001 A 
ATOM     15  C   UNL     1     -24.750   3.636  31.463  1.00  0.00     0.001 A 
ATOM     16  C   UNL     1     -22.026   3.052  31.650  1.00  0.00     0.012 A 
ATOM     17  C   UNL     1     -23.809   4.532  30.943  1.00  0.00     0.012 A 
ENDBRANCH   1  12
TORSDOF 1
ENDMDL
MODEL 7
REMARK VINA RESULT:    -7.379      1.928      6.046
REMARK INTER + INTRA:          -8.031
REMARK INTER:                  -7.806
REMARK INTRA:                  -0.225
REMARK UNBOUND:                -0.220
REMARK SMILES O=c1cc(-c2ccccc2)oc2ccccc12
REMARK SMILES IDX 4 1 3 2 2 3 1 4 17 5 16 6 15 7 14 8 13 9 12 10 11 11 5 12
REMARK SMILES IDX 8 13 7 14 9 15 6 16 10 17
REMARK H PARENT
REMARK Flexibility Score: inf
ROOT
ATOM      1  C   UNL     1     -17.731   8.366  23.023  1.00  0.00     0.138 A 
ATOM      2  C   UNL     1     -16.454   8.710  23.514  1.00  0.00     0.100 A 
ATOM      3  C   UNL     1     -16.256   8.834  24.890  1.00  0.00     0.193 A 
ATOM      4  O   UNL     1     -15.114   9.142  25.328  1.00  0.00    -0.289 OA
ATOM      5  C   UNL     1     -17.329   8.614  25.764  1.00  0.00     0.065 A 
ATOM      6  C   UNL     1     -17.198   8.723  27.161  1.00  0.00     0.016 A 
ATOM      7  C   UNL     1     -18.302   8.493  27.988  1.00  0.00     0.001 A 
ATOM      8  C   UNL     1     -19.539   8.155  27.432  1.00  0.00     0.004 A 
ATOM      9  C   UNL     1     -19.679   8.044  26.045  1.00  0.00     0.048 A 
ATOM     10  C   UNL     1     -18.581   8.272  25.208  1.00  0.00     0.138 A 
ATOM     11  O   UNL     1     -18.724   8.165  23.891  1.00  0.00    -0.456 OA
ENDROOT
BRANCH   1  12
ATOM     12  C   UNL     1     -18.029   8.212  21.565  1.00  0.00     0.017 A 
ATOM     13  C   UNL     1     -18.631   8.011  18.815  1.00  0.00     0.000 A 
ATOM     14  C   UNL     1     -18.993   9.153  19.526  1.00  0.00     0.001 A 
ATOM     15  C   UNL     1     -17.970   6.967  19.462  1.00  0.00     0.001 A 
ATOM     16  C   UNL     1     -18.696   9.256  20.888  1.00  0.00     0.012 A 
ATOM     17  C   UNL     1     -17.670   7.061  20.826  1.00  0.00     0.012 A 
ENDBRANCH   1  12
TORSDOF 1
ENDMDL
MODEL 8
REMARK VINA RESULT:    -7.327      1.995      6.060
REMARK INTER + INTRA:          -7.976
REMARK INTER:                  -7.755
REMARK INTRA:                  -0.221
REMARK UNBOUND:                -0.220
REMARK SMILES O=c1cc(-c2ccccc2)oc2ccccc12
REMARK SMILES IDX 4 1 3 2 2 3 1 4 17 5 16 6 15 7 14 8 13 9 12 10 11 11 5 12
REMARK SMILES IDX 8 13 7 14 9 15 6 16 10 17
REMARK H PARENT
REMARK Flexibility Score: inf
ROOT
ATOM      1  C   UNL     1     -17.693   8.289  23.162  1.00  0.00     0.138 A 
ATOM      2  C   UNL     1     -16.432   8.626  23.698  1.00  0.00     0.100 A 
ATOM      3  C   UNL     1     -16.279   8.738  25.081  1.00  0.00     0.193 A 
ATOM      4  O   UNL     1     -15.152   9.040  25.560  1.00  0.00    -0.289 OA
ATOM      5  C   UNL     1     -17.381   8.513  25.918  1.00  0.00     0.065 A 
ATOM      6  C   UNL     1     -17.296   8.610  27.319  1.00  0.00     0.016 A 
ATOM      7  C   UNL     1     -18.428   8.375  28.107  1.00  0.00     0.001 A 
ATOM      8  C   UNL     1     -19.646   8.045  27.507  1.00  0.00     0.004 A 
ATOM      9  C   UNL     1     -19.740   7.946  26.115  1.00  0.00     0.048 A 
ATOM     10  C   UNL     1     -18.615   8.179  25.318  1.00  0.00     0.138 A 
ATOM     11  O   UNL     1     -18.714   8.083  23.996  1.00  0.00    -0.456 OA
ENDROOT
BRANCH   1  12
ATOM     12  C   UNL     1     -17.942   8.148  21.694  1.00  0.00     0.017 A 
ATOM     13  C   UNL     1     -18.381   7.789  18.929  1.00  0.00     0.000 A 
ATOM     14  C   UNL     1     -17.865   6.746  19.694  1.00  0.00     0.001 A 
ATOM     15  C   UNL     1     -18.682   9.011  19.530  1.00  0.00     0.001 A 
ATOM     16  C   UNL     1     -17.646   6.920  21.064  1.00  0.00     0.012 A 
ATOM     17  C   UNL     1     -18.465   9.195  20.900  1.00  0.00     0.012 A 
ENDBRANCH   1  12
TORSDOF 1
ENDMDL
MODEL 9
REMARK VINA RESULT:    -7.243      8.046     10.503
REMARK INTER + INTRA:          -7.886
REMARK INTER:                  -7.651
REMARK INTRA:                  -0.235
REMARK UNBOUND:                -0.220
REMARK SMILES O=c1cc(-c2ccccc2)oc2ccccc12
REMARK SMILES IDX 4 1 3 2 2 3 1 4 17 5 16 6 15 7 14 8 13 9 12 10 11 11 5 12
REMARK SMILES IDX 8 13 7 14 9 15 6 16 10 17
REMARK H PARENT
REMARK Flexibility Score: inf
ROOT
ATOM      1  C   UNL     1     -20.433   5.650  30.684  1.00  0.00     0.138 A 
ATOM      2  C   UNL     1     -21.817   5.795  30.451  1.00  0.00     0.100 A 
ATOM      3  C   UNL     1     -22.671   4.715  30.683  1.00  0.00     0.193 A 
ATOM      4  O   UNL     1     -23.908   4.845  30.474  1.00  0.00    -0.289 OA
ATOM      5  C   UNL     1     -22.140   3.502  31.143  1.00  0.00     0.065 A 
ATOM      6  C   UNL     1     -22.944   2.375  31.395  1.00  0.00     0.016 A 
ATOM      7  C   UNL     1     -22.362   1.189  31.854  1.00  0.00     0.001 A 
ATOM      8  C   UNL     1     -20.983   1.118  32.064  1.00  0.00     0.004 A 
ATOM      9  C   UNL     1     -20.176   2.232  31.815  1.00  0.00     0.048 A 
ATOM     10  C   UNL     1     -20.747   3.424  31.356  1.00  0.00     0.138 A 
ATOM     11  O   UNL     1     -19.972   4.478  31.123  1.00  0.00    -0.456 OA
ENDROOT
BRANCH   1  12
ATOM     12  C   UNL     1     -19.451   6.756  30.463  1.00  0.00     0.017 A 
ATOM     13  C   UNL     1     -17.648   8.899  30.107  1.00  0.00     0.000 A 
ATOM     14  C   UNL     1     -18.747   9.045  30.951  1.00  0.00     0.001 A 
ATOM     15  C   UNL     1     -17.438   7.692  29.439  1.00  0.00     0.001 A 
ATOM     16  C   UNL     1     -19.642   7.986  31.129  1.00  0.00     0.012 A 
ATOM     17  C   UNL     1     -18.329   6.627  29.611  1.00  0.00     0.012 A 
ENDBRANCH   1  12
TORSDOF 1
ENDMDL
