MODEL 1
REMARK VINA RESULT:     4.672      0.000      0.000
REMARK INTER + INTRA:           5.054
REMARK INTER:                   5.355
REMARK INTRA:                  -0.301
REMARK UNBOUND:                -0.301
REMARK SMILES O=C1C[C@H](c2ccc(O)cc2)Oc2cc(O)cc(O)c21
REMARK SMILES IDX 3 1 4 2 12 3 13 4 14 5 15 6 17 7 18 8 20 9 2 10 1 11 5 12
REMARK SMILES IDX 6 13 11 14 7 15 10 16 8 17 9 18 19 20 16 22
REMARK H PARENT 9 19 19 21 16 23
REMARK Flexibility Score: inf
ROOT
ATOM      1  C   UNL     1      31.208  24.099  29.761  1.00  0.00     0.131 C 
ATOM      2  C   UNL     1      32.511  24.706  30.298  1.00  0.00     0.211 C 
ATOM      3  O   UNL     1      32.588  24.554  31.719  1.00  0.00    -0.484 OA
ATOM      4  C   UNL     1      31.476  24.708  32.558  1.00  0.00     0.138 A 
ATOM      5  C   UNL     1      31.677  24.821  33.935  1.00  0.00     0.093 A 
ATOM      6  C   UNL     1      30.592  24.990  34.795  1.00  0.00     0.123 A 
ATOM      7  C   UNL     1      29.292  25.015  34.276  1.00  0.00     0.093 A 
ATOM      8  C   UNL     1      29.065  24.864  32.903  1.00  0.00     0.133 A 
ATOM      9  C   UNL     1      30.171  24.740  32.021  1.00  0.00     0.102 A 
ATOM     10  C   UNL     1      30.051  24.645  30.545  1.00  0.00     0.174 C 
ATOM     11  O   UNL     1      29.032  25.058  29.933  1.00  0.00    -0.294 OA
ENDROOT
BRANCH   2  12
ATOM     12  C   UNL     1      33.709  24.063  29.644  1.00  0.00    -0.007 A 
ATOM     13  C   UNL     1      33.532  23.088  28.647  1.00  0.00     0.011 A 
ATOM     14  C   UNL     1      35.013  24.387  30.061  1.00  0.00     0.011 A 
ATOM     15  C   UNL     1      34.640  22.469  28.060  1.00  0.00     0.046 A 
ATOM     16  C   UNL     1      36.118  23.766  29.473  1.00  0.00     0.046 A 
ATOM     17  C   UNL     1      35.935  22.806  28.469  1.00  0.00     0.115 A 
BRANCH  17  18
ATOM     18  O   UNL     1      37.028  22.180  27.875  1.00  0.00    -0.508 OA
ATOM     19  H   UNL     1      37.817  21.860  28.425  1.00  0.00     0.293 HD
ENDBRANCH  17  18
ENDBRANCH   2  12
BRANCH   8  20
ATOM     20  O   UNL     1      27.737  24.806  32.474  1.00  0.00    -0.507 OA
ATOM     21  H   UNL     1      26.946  24.719  33.095  1.00  0.00     0.293 HD
ENDBRANCH   8  20
BRANCH   6  22
ATOM     22  O   UNL     1      30.813  25.123  36.163  1.00  0.00    -0.508 OA
ATOM     23  H   UNL     1      31.345  25.898  36.541  1.00  0.00     0.293 HD
ENDBRANCH   6  22
TORSDOF 4
ENDMDL
MODEL 2
REMARK VINA RESULT:     6.881      2.125      7.025
REMARK INTER + INTRA:           7.585
REMARK INTER:                   7.902
REMARK INTRA:                  -0.316
REMARK UNBOUND:                -0.301
REMARK SMILES O=C1C[C@H](c2ccc(O)cc2)Oc2cc(O)cc(O)c21
REMARK SMILES IDX 3 1 4 2 12 3 13 4 14 5 15 6 17 7 18 8 20 9 2 10 1 11 5 12
REMARK SMILES IDX 6 13 11 14 7 15 10 16 8 17 9 18 19 20 16 22
REMARK H PARENT 9 19 19 21 16 23
REMARK Flexibility Score: inf
ROOT
ATOM      1  C   UNL     1      32.863  24.032  33.713  1.00  0.00     0.131 C 
ATOM      2  C   UNL     1      32.163  25.125  32.893  1.00  0.00     0.211 C 
ATOM      3  O   UNL     1      32.593  25.083  31.529  1.00  0.00    -0.484 OA
ATOM      4  C   UNL     1      33.922  24.830  31.163  1.00  0.00     0.138 A 
ATOM      5  C   UNL     1      34.320  25.078  29.847  1.00  0.00     0.093 A 
ATOM      6  C   UNL     1      35.640  24.851  29.455  1.00  0.00     0.123 A 
ATOM      7  C   UNL     1      36.561  24.342  30.378  1.00  0.00     0.093 A 
ATOM      8  C   UNL     1      36.173  24.049  31.691  1.00  0.00     0.133 A 
ATOM      9  C   UNL     1      34.843  24.324  32.105  1.00  0.00     0.102 A 
ATOM     10  C   UNL     1      34.343  24.121  33.487  1.00  0.00     0.174 C 
ATOM     11  O   UNL     1      35.122  24.074  34.475  1.00  0.00    -0.294 OA
ENDROOT
BRANCH   2  12
ATOM     12  C   UNL     1      30.664  24.970  32.967  1.00  0.00    -0.007 A 
ATOM     13  C   UNL     1      29.880  25.117  31.809  1.00  0.00     0.011 A 
ATOM     14  C   UNL     1      30.028  24.735  34.199  1.00  0.00     0.011 A 
ATOM     15  C   UNL     1      28.488  25.004  31.880  1.00  0.00     0.046 A 
ATOM     16  C   UNL     1      28.637  24.624  34.267  1.00  0.00     0.046 A 
ATOM     17  C   UNL     1      27.862  24.756  33.106  1.00  0.00     0.115 A 
BRANCH  17  18
ATOM     18  O   UNL     1      26.475  24.647  33.160  1.00  0.00    -0.508 OA
ATOM     19  H   UNL     1      25.876  25.457  33.054  1.00  0.00     0.293 HD
ENDBRANCH  17  18
ENDBRANCH   2  12
BRANCH   8  20
ATOM     20  O   UNL     1      37.125  23.457  32.524  1.00  0.00    -0.507 OA
ATOM     21  H   UNL     1      37.411  22.492  32.458  1.00  0.00     0.293 HD
ENDBRANCH   8  20
BRANCH   6  22
ATOM     22  O   UNL     1      36.025  25.125  28.145  1.00  0.00    -0.508 OA
ATOM     23  H   UNL     1      35.466  25.716  27.541  1.00  0.00     0.293 HD
ENDBRANCH   6  22
TORSDOF 4
ENDMDL
