MODEL 1
REMARK VINA RESULT:    -7.997      0.000      0.000
REMARK INTER + INTRA:          -9.863
REMARK INTER:                  -9.633
REMARK INTRA:                  -0.230
REMARK UNBOUND:                -0.230
REMARK SMILES O=c1c(O)c(-c2ccc(O)c(O)c2)oc2cc(O)cc(O)c12
REMARK SMILES IDX 5 1 3 2 2 3 1 4 22 5 20 6 19 7 17 8 16 9 15 10 14 11 6 12
REMARK SMILES IDX 7 13 8 14 9 15 13 16 11 17 10 18 12 20 4 22 21 24 18 26
REMARK H PARENT 10 19 12 21 4 23 21 25 18 27
REMARK Flexibility Score: inf
ROOT
ATOM      1  C   UNL     1     -25.229 -18.937 -13.182  1.00  0.00     0.180 A 
ATOM      2  C   UNL     1     -24.442 -20.003 -13.650  1.00  0.00     0.208 A 
ATOM      3  C   UNL     1     -24.521 -21.245 -12.997  1.00  0.00     0.238 A 
ATOM      4  O   UNL     1     -23.775 -22.180 -13.386  1.00  0.00    -0.285 OA
ATOM      5  C   UNL     1     -25.397 -21.408 -11.898  1.00  0.00     0.111 A 
ATOM      6  C   UNL     1     -25.588 -22.632 -11.188  1.00  0.00     0.134 A 
ATOM      7  C   UNL     1     -26.381 -22.644 -10.034  1.00  0.00     0.093 A 
ATOM      8  C   UNL     1     -27.043 -21.493  -9.602  1.00  0.00     0.123 A 
ATOM      9  C   UNL     1     -26.912 -20.308 -10.322  1.00  0.00     0.094 A 
ATOM     10  C   UNL     1     -26.098 -20.255 -11.457  1.00  0.00     0.146 A 
ATOM     11  O   UNL     1     -25.991 -19.103 -12.108  1.00  0.00    -0.452 OA
ENDROOT
BRANCH   1  12
ATOM     12  C   UNL     1     -25.219 -17.607 -13.832  1.00  0.00     0.025 A 
ATOM     13  C   UNL     1     -26.308 -17.216 -14.623  1.00  0.00     0.016 A 
ATOM     14  C   UNL     1     -26.309 -15.974 -15.262  1.00  0.00     0.051 A 
ATOM     15  C   UNL     1     -25.219 -15.105 -15.136  1.00  0.00     0.157 A 
ATOM     16  C   UNL     1     -24.112 -16.747 -13.722  1.00  0.00     0.062 A 
ATOM     17  C   UNL     1     -24.103 -15.500 -14.361  1.00  0.00     0.158 A 
BRANCH  15  18
ATOM     18  O   UNL     1     -25.286 -13.875 -15.793  1.00  0.00    -0.504 OA
ATOM     19  H   UNL     1     -24.550 -13.508 -16.379  1.00  0.00     0.293 HD
ENDBRANCH  15  18
BRANCH  17  20
ATOM     20  O   UNL     1     -22.971 -14.696 -14.207  1.00  0.00    -0.504 OA
ATOM     21  H   UNL     1     -23.001 -13.693 -14.103  1.00  0.00     0.293 HD
ENDBRANCH  17  20
ENDBRANCH   1  12
BRANCH   2  22
ATOM     22  O   UNL     1     -23.568 -19.814 -14.723  1.00  0.00    -0.502 OA
ATOM     23  H   UNL     1     -22.910 -20.525 -15.020  1.00  0.00     0.293 HD
ENDBRANCH   2  22
BRANCH   6  24
ATOM     24  O   UNL     1     -25.046 -23.858 -11.587  1.00  0.00    -0.507 OA
ATOM     25  H   UNL     1     -25.563 -24.722 -11.644  1.00  0.00     0.293 HD
ENDBRANCH   6  24
BRANCH   8  26
ATOM     26  O   UNL     1     -27.844 -21.519  -8.462  1.00  0.00    -0.508 OA
ATOM     27  H   UNL     1     -28.128 -20.668  -7.993  1.00  0.00     0.293 HD
ENDBRANCH   8  26
TORSDOF 6
ENDMDL
MODEL 2
REMARK VINA RESULT:    -7.870      1.934      3.336
REMARK INTER + INTRA:          -9.710
REMARK INTER:                  -9.379
REMARK INTRA:                  -0.331
REMARK UNBOUND:                -0.230
REMARK SMILES O=c1c(O)c(-c2ccc(O)c(O)c2)oc2cc(O)cc(O)c12
REMARK SMILES IDX 5 1 3 2 2 3 1 4 22 5 20 6 19 7 17 8 16 9 15 10 14 11 6 12
REMARK SMILES IDX 7 13 8 14 9 15 13 16 11 17 10 18 12 20 4 22 21 24 18 26
REMARK H PARENT 10 19 12 21 4 23 21 25 18 27
REMARK Flexibility Score: inf
ROOT
ATOM      1  C   UNL     1     -24.917 -19.744 -13.665  1.00  0.00     0.180 A 
ATOM      2  C   UNL     1     -24.909 -20.137 -12.316  1.00  0.00     0.208 A 
ATOM      3  C   UNL     1     -24.923 -21.507 -12.006  1.00  0.00     0.238 A 
ATOM      4  O   UNL     1     -24.970 -21.852 -10.797  1.00  0.00    -0.285 OA
ATOM      5  C   UNL     1     -24.928 -22.465 -13.048  1.00  0.00     0.111 A 
ATOM      6  C   UNL     1     -24.901 -23.878 -12.850  1.00  0.00     0.134 A 
ATOM      7  C   UNL     1     -25.042 -24.733 -13.950  1.00  0.00     0.093 A 
ATOM      8  C   UNL     1     -25.142 -24.225 -15.248  1.00  0.00     0.123 A 
ATOM      9  C   UNL     1     -25.108 -22.849 -15.457  1.00  0.00     0.094 A 
ATOM     10  C   UNL     1     -25.006 -21.970 -14.376  1.00  0.00     0.146 A 
ATOM     11  O   UNL     1     -24.989 -20.665 -14.619  1.00  0.00    -0.452 OA
ENDROOT
BRANCH   1  12
ATOM     12  C   UNL     1     -24.879 -18.320 -14.071  1.00  0.00     0.025 A 
ATOM     13  C   UNL     1     -26.075 -17.658 -14.380  1.00  0.00     0.016 A 
ATOM     14  C   UNL     1     -26.059 -16.322 -14.784  1.00  0.00     0.051 A 
ATOM     15  C   UNL     1     -24.852 -15.625 -14.903  1.00  0.00     0.157 A 
ATOM     16  C   UNL     1     -23.662 -17.631 -14.211  1.00  0.00     0.062 A 
ATOM     17  C   UNL     1     -23.636 -16.292 -14.619  1.00  0.00     0.158 A 
BRANCH  15  18
ATOM     18  O   UNL     1     -24.905 -14.289 -15.304  1.00  0.00    -0.504 OA
ATOM     19  H   UNL     1     -25.706 -13.866 -15.751  1.00  0.00     0.293 HD
ENDBRANCH  15  18
BRANCH  17  20
ATOM     20  O   UNL     1     -22.391 -15.669 -14.735  1.00  0.00    -0.504 OA
ATOM     21  H   UNL     1     -21.942 -15.162 -13.988  1.00  0.00     0.293 HD
ENDBRANCH  17  20
ENDBRANCH   1  12
BRANCH   2  22
ATOM     22  O   UNL     1     -24.926 -19.174 -11.303  1.00  0.00    -0.502 OA
ATOM     23  H   UNL     1     -25.141 -19.402 -10.340  1.00  0.00     0.293 HD
ENDBRANCH   2  22
BRANCH   6  24
ATOM     24  O   UNL     1     -24.713 -24.488 -11.605  1.00  0.00    -0.507 OA
ATOM     25  H   UNL     1     -25.392 -24.492 -10.859  1.00  0.00     0.293 HD
ENDBRANCH   6  24
BRANCH   8  26
ATOM     26  O   UNL     1     -25.264 -25.084 -16.338  1.00  0.00    -0.508 OA
ATOM     27  H   UNL     1     -24.453 -25.415 -16.846  1.00  0.00     0.293 HD
ENDBRANCH   8  26
TORSDOF 6
ENDMDL
MODEL 3
REMARK VINA RESULT:    -7.512      2.924      8.251
REMARK INTER + INTRA:          -9.279
REMARK INTER:                  -9.402
REMARK INTRA:                   0.124
REMARK UNBOUND:                -0.230
REMARK SMILES O=c1c(O)c(-c2ccc(O)c(O)c2)oc2cc(O)cc(O)c12
REMARK SMILES IDX 5 1 3 2 2 3 1 4 22 5 20 6 19 7 17 8 16 9 15 10 14 11 6 12
REMARK SMILES IDX 7 13 8 14 9 15 13 16 11 17 10 18 12 20 4 22 21 24 18 26
REMARK H PARENT 10 19 12 21 4 23 21 25 18 27
REMARK Flexibility Score: inf
ROOT
ATOM      1  C   UNL     1     -26.827 -22.760 -10.212  1.00  0.00     0.180 A 
ATOM      2  C   UNL     1     -27.199 -21.405 -10.166  1.00  0.00     0.208 A 
ATOM      3  C   UNL     1     -26.540 -20.490 -11.002  1.00  0.00     0.238 A 
ATOM      4  O   UNL     1     -26.839 -19.270 -10.917  1.00  0.00    -0.285 OA
ATOM      5  C   UNL     1     -25.530 -20.942 -11.885  1.00  0.00     0.111 A 
ATOM      6  C   UNL     1     -24.825 -20.109 -12.805  1.00  0.00     0.134 A 
ATOM      7  C   UNL     1     -23.755 -20.640 -13.536  1.00  0.00     0.093 A 
ATOM      8  C   UNL     1     -23.408 -21.988 -13.429  1.00  0.00     0.123 A 
ATOM      9  C   UNL     1     -24.128 -22.823 -12.579  1.00  0.00     0.094 A 
ATOM     10  C   UNL     1     -25.178 -22.315 -11.809  1.00  0.00     0.146 A 
ATOM     11  O   UNL     1     -25.831 -23.142 -11.003  1.00  0.00    -0.452 OA
ENDROOT
BRANCH   1  12
ATOM     12  C   UNL     1     -27.493 -23.788  -9.380  1.00  0.00     0.025 A 
ATOM     13  C   UNL     1     -28.886 -23.763  -9.234  1.00  0.00     0.016 A 
ATOM     14  C   UNL     1     -29.531 -24.711  -8.436  1.00  0.00     0.051 A 
ATOM     15  C   UNL     1     -28.799 -25.692  -7.759  1.00  0.00     0.157 A 
ATOM     16  C   UNL     1     -26.751 -24.758  -8.682  1.00  0.00     0.062 A 
ATOM     17  C   UNL     1     -27.388 -25.711  -7.878  1.00  0.00     0.158 A 
BRANCH  15  18
ATOM     18  O   UNL     1     -29.504 -26.615  -6.985  1.00  0.00    -0.504 OA
ATOM     19  H   UNL     1     -29.079 -27.204  -6.283  1.00  0.00     0.293 HD
ENDBRANCH  15  18
BRANCH  17  20
ATOM     20  O   UNL     1     -26.589 -26.645  -7.216  1.00  0.00    -0.504 OA
ATOM     21  H   UNL     1     -26.008 -27.324  -7.684  1.00  0.00     0.293 HD
ENDBRANCH  17  20
ENDBRANCH   1  12
BRANCH   2  22
ATOM     22  O   UNL     1     -28.184 -20.977  -9.272  1.00  0.00    -0.502 OA
ATOM     23  H   UNL     1     -29.174 -21.076  -9.464  1.00  0.00     0.293 HD
ENDBRANCH   2  22
BRANCH   6  24
ATOM     24  O   UNL     1     -25.150 -18.772 -13.055  1.00  0.00    -0.507 OA
ATOM     25  H   UNL     1     -25.378 -18.094 -12.344  1.00  0.00     0.293 HD
ENDBRANCH   6  24
BRANCH   8  26
ATOM     26  O   UNL     1     -22.352 -22.511 -14.174  1.00  0.00    -0.508 OA
ATOM     27  H   UNL     1     -22.339 -23.480 -14.467  1.00  0.00     0.293 HD
ENDBRANCH   8  26
TORSDOF 6
ENDMDL
MODEL 4
REMARK VINA RESULT:    -7.473      3.848      8.397
REMARK INTER + INTRA:          -9.232
REMARK INTER:                  -8.934
REMARK INTRA:                  -0.298
REMARK UNBOUND:                -0.230
REMARK SMILES O=c1c(O)c(-c2ccc(O)c(O)c2)oc2cc(O)cc(O)c12
REMARK SMILES IDX 5 1 3 2 2 3 1 4 22 5 20 6 19 7 17 8 16 9 15 10 14 11 6 12
REMARK SMILES IDX 7 13 8 14 9 15 13 16 11 17 10 18 12 20 4 22 21 24 18 26
REMARK H PARENT 10 19 12 21 4 23 21 25 18 27
REMARK Flexibility Score: inf
ROOT
ATOM      1  C   UNL     1     -25.961 -23.757 -10.620  1.00  0.00     0.180 A 
ATOM      2  C   UNL     1     -25.039 -22.715 -10.418  1.00  0.00     0.208 A 
ATOM      3  C   UNL     1     -24.581 -21.987 -11.528  1.00  0.00     0.238 A 
ATOM      4  O   UNL     1     -23.716 -21.092 -11.347  1.00  0.00    -0.285 OA
ATOM      5  C   UNL     1     -25.063 -22.297 -12.822  1.00  0.00     0.111 A 
ATOM      6  C   UNL     1     -24.698 -21.598 -14.012  1.00  0.00     0.134 A 
ATOM      7  C   UNL     1     -25.134 -22.076 -15.254  1.00  0.00     0.093 A 
ATOM      8  C   UNL     1     -25.975 -23.188 -15.344  1.00  0.00     0.123 A 
ATOM      9  C   UNL     1     -26.386 -23.840 -14.184  1.00  0.00     0.094 A 
ATOM     10  C   UNL     1     -25.938 -23.410 -12.932  1.00  0.00     0.146 A 
ATOM     11  O   UNL     1     -26.343 -24.067 -11.853  1.00  0.00    -0.452 OA
ENDROOT
BRANCH   1  12
ATOM     12  C   UNL     1     -26.508 -24.553  -9.498  1.00  0.00     0.025 A 
ATOM     13  C   UNL     1     -25.766 -25.627  -8.987  1.00  0.00     0.016 A 
ATOM     14  C   UNL     1     -26.273 -26.403  -7.943  1.00  0.00     0.051 A 
ATOM     15  C   UNL     1     -27.533 -26.133  -7.398  1.00  0.00     0.157 A 
ATOM     16  C   UNL     1     -27.785 -24.293  -8.969  1.00  0.00     0.062 A 
ATOM     17  C   UNL     1     -28.303 -25.068  -7.924  1.00  0.00     0.158 A 
BRANCH  15  18
ATOM     18  O   UNL     1     -27.979 -26.942  -6.351  1.00  0.00    -0.504 OA
ATOM     19  H   UNL     1     -27.779 -27.929  -6.276  1.00  0.00     0.293 HD
ENDBRANCH  15  18
BRANCH  17  20
ATOM     20  O   UNL     1     -29.576 -24.752  -7.446  1.00  0.00    -0.504 OA
ATOM     21  H   UNL     1     -29.922 -23.810  -7.341  1.00  0.00     0.293 HD
ENDBRANCH  17  20
ENDBRANCH   1  12
BRANCH   2  22
ATOM     22  O   UNL     1     -24.561 -22.439  -9.134  1.00  0.00    -0.502 OA
ATOM     23  H   UNL     1     -24.726 -21.554  -8.671  1.00  0.00     0.293 HD
ENDBRANCH   2  22
BRANCH   6  24
ATOM     24  O   UNL     1     -23.938 -20.425 -14.026  1.00  0.00    -0.507 OA
ATOM     25  H   UNL     1     -23.018 -20.341 -14.430  1.00  0.00     0.293 HD
ENDBRANCH   6  24
BRANCH   8  26
ATOM     26  O   UNL     1     -26.418 -23.645 -16.583  1.00  0.00    -0.508 OA
ATOM     27  H   UNL     1     -26.706 -23.005 -17.313  1.00  0.00     0.293 HD
ENDBRANCH   8  26
TORSDOF 6
ENDMDL
MODEL 5
REMARK VINA RESULT:    -7.437      4.539      6.433
REMARK INTER + INTRA:          -9.188
REMARK INTER:                  -8.858
REMARK INTRA:                  -0.330
REMARK UNBOUND:                -0.230
REMARK SMILES O=c1c(O)c(-c2ccc(O)c(O)c2)oc2cc(O)cc(O)c12
REMARK SMILES IDX 5 1 3 2 2 3 1 4 22 5 20 6 19 7 17 8 16 9 15 10 14 11 6 12
REMARK SMILES IDX 7 13 8 14 9 15 13 16 11 17 10 18 12 20 4 22 21 24 18 26
REMARK H PARENT 10 19 12 21 4 23 21 25 18 27
REMARK Flexibility Score: inf
ROOT
ATOM      1  C   UNL     1     -26.444 -22.043 -11.048  1.00  0.00     0.180 A 
ATOM      2  C   UNL     1     -25.071 -21.771 -11.173  1.00  0.00     0.208 A 
ATOM      3  C   UNL     1     -24.385 -22.239 -12.305  1.00  0.00     0.238 A 
ATOM      4  O   UNL     1     -23.145 -22.039 -12.385  1.00  0.00    -0.285 OA
ATOM      5  C   UNL     1     -25.082 -22.958 -13.305  1.00  0.00     0.111 A 
ATOM      6  C   UNL     1     -24.496 -23.444 -14.512  1.00  0.00     0.134 A 
ATOM      7  C   UNL     1     -25.250 -24.257 -15.367  1.00  0.00     0.093 A 
ATOM      8  C   UNL     1     -26.589 -24.546 -15.092  1.00  0.00     0.123 A 
ATOM      9  C   UNL     1     -27.187 -24.026 -13.947  1.00  0.00     0.094 A 
ATOM     10  C   UNL     1     -26.451 -23.243 -13.055  1.00  0.00     0.146 A 
ATOM     11  O   UNL     1     -27.056 -22.777 -11.970  1.00  0.00    -0.452 OA
ENDROOT
BRANCH   1  12
ATOM     12  C   UNL     1     -27.241 -21.562  -9.896  1.00  0.00     0.025 A 
ATOM     13  C   UNL     1     -27.481 -22.421  -8.816  1.00  0.00     0.016 A 
ATOM     14  C   UNL     1     -28.247 -21.994  -7.729  1.00  0.00     0.051 A 
ATOM     15  C   UNL     1     -28.800 -20.709  -7.706  1.00  0.00     0.157 A 
ATOM     16  C   UNL     1     -27.814 -20.278  -9.887  1.00  0.00     0.062 A 
ATOM     17  C   UNL     1     -28.586 -19.842  -8.804  1.00  0.00     0.158 A 
BRANCH  15  18
ATOM     18  O   UNL     1     -29.549 -20.341  -6.587  1.00  0.00    -0.504 OA
ATOM     19  H   UNL     1     -29.618 -20.896  -5.746  1.00  0.00     0.293 HD
ENDBRANCH  15  18
BRANCH  17  20
ATOM     20  O   UNL     1     -29.122 -18.553  -8.861  1.00  0.00    -0.504 OA
ATOM     21  H   UNL     1     -28.622 -17.748  -9.206  1.00  0.00     0.293 HD
ENDBRANCH  17  20
ENDBRANCH   1  12
BRANCH   2  22
ATOM     22  O   UNL     1     -24.398 -21.077 -10.164  1.00  0.00    -0.502 OA
ATOM     23  H   UNL     1     -23.396 -21.148 -10.031  1.00  0.00     0.293 HD
ENDBRANCH   2  22
BRANCH   6  24
ATOM     24  O   UNL     1     -23.196 -23.139 -14.926  1.00  0.00    -0.507 OA
ATOM     25  H   UNL     1     -22.908 -23.038 -15.888  1.00  0.00     0.293 HD
ENDBRANCH   6  24
BRANCH   8  26
ATOM     26  O   UNL     1     -27.337 -25.341 -15.958  1.00  0.00    -0.508 OA
ATOM     27  H   UNL     1     -27.010 -26.252 -16.258  1.00  0.00     0.293 HD
ENDBRANCH   8  26
TORSDOF 6
ENDMDL
MODEL 6
REMARK VINA RESULT:    -7.428      1.857      7.393
REMARK INTER + INTRA:          -9.177
REMARK INTER:                  -8.844
REMARK INTRA:                  -0.333
REMARK UNBOUND:                -0.230
REMARK SMILES O=c1c(O)c(-c2ccc(O)c(O)c2)oc2cc(O)cc(O)c12
REMARK SMILES IDX 5 1 3 2 2 3 1 4 22 5 20 6 19 7 17 8 16 9 15 10 14 11 6 12
REMARK SMILES IDX 7 13 8 14 9 15 13 16 11 17 10 18 12 20 4 22 21 24 18 26
REMARK H PARENT 10 19 12 21 4 23 21 25 18 27
REMARK Flexibility Score: inf
ROOT
ATOM      1  C   UNL     1     -24.576 -18.275 -13.728  1.00  0.00     0.180 A 
ATOM      2  C   UNL     1     -25.752 -17.715 -14.255  1.00  0.00     0.208 A 
ATOM      3  C   UNL     1     -25.687 -16.458 -14.878  1.00  0.00     0.238 A 
ATOM      4  O   UNL     1     -26.751 -15.936 -15.300  1.00  0.00    -0.285 OA
ATOM      5  C   UNL     1     -24.445 -15.786 -14.981  1.00  0.00     0.111 A 
ATOM      6  C   UNL     1     -24.255 -14.527 -15.627  1.00  0.00     0.134 A 
ATOM      7  C   UNL     1     -23.008 -13.894 -15.553  1.00  0.00     0.093 A 
ATOM      8  C   UNL     1     -21.927 -14.505 -14.914  1.00  0.00     0.123 A 
ATOM      9  C   UNL     1     -22.086 -15.760 -14.332  1.00  0.00     0.094 A 
ATOM     10  C   UNL     1     -23.328 -16.401 -14.357  1.00  0.00     0.146 A 
ATOM     11  O   UNL     1     -23.439 -17.591 -13.781  1.00  0.00    -0.452 OA
ENDROOT
BRANCH   1  12
ATOM     12  C   UNL     1     -24.561 -19.606 -13.079  1.00  0.00     0.025 A 
ATOM     13  C   UNL     1     -24.668 -19.696 -11.685  1.00  0.00     0.016 A 
ATOM     14  C   UNL     1     -24.635 -20.940 -11.051  1.00  0.00     0.051 A 
ATOM     15  C   UNL     1     -24.480 -22.116 -11.794  1.00  0.00     0.157 A 
ATOM     16  C   UNL     1     -24.381 -20.784 -13.827  1.00  0.00     0.062 A 
ATOM     17  C   UNL     1     -24.344 -22.035 -13.200  1.00  0.00     0.158 A 
BRANCH  15  18
ATOM     18  O   UNL     1     -24.462 -23.328 -11.101  1.00  0.00    -0.504 OA
ATOM     19  H   UNL     1     -24.098 -24.190 -11.481  1.00  0.00     0.293 HD
ENDBRANCH  15  18
BRANCH  17  20
ATOM     20  O   UNL     1     -24.165 -23.163 -14.005  1.00  0.00    -0.504 OA
ATOM     21  H   UNL     1     -23.408 -23.273 -14.663  1.00  0.00     0.293 HD
ENDBRANCH  17  20
ENDBRANCH   1  12
BRANCH   2  22
ATOM     22  O   UNL     1     -26.971 -18.385 -14.124  1.00  0.00    -0.502 OA
ATOM     23  H   UNL     1     -27.847 -17.898 -13.980  1.00  0.00     0.293 HD
ENDBRANCH   2  22
BRANCH   6  24
ATOM     24  O   UNL     1     -25.244 -13.875 -16.371  1.00  0.00    -0.507 OA
ATOM     25  H   UNL     1     -25.085 -13.067 -16.953  1.00  0.00     0.293 HD
ENDBRANCH   6  24
BRANCH   8  26
ATOM     26  O   UNL     1     -20.685 -13.875 -14.861  1.00  0.00    -0.508 OA
ATOM     27  H   UNL     1     -20.389 -13.354 -14.045  1.00  0.00     0.293 HD
ENDBRANCH   8  26
TORSDOF 6
ENDMDL
MODEL 7
REMARK VINA RESULT:    -7.375      4.740      6.379
REMARK INTER + INTRA:          -9.114
REMARK INTER:                  -8.851
REMARK INTRA:                  -0.263
REMARK UNBOUND:                -0.230
REMARK SMILES O=c1c(O)c(-c2ccc(O)c(O)c2)oc2cc(O)cc(O)c12
REMARK SMILES IDX 5 1 3 2 2 3 1 4 22 5 20 6 19 7 17 8 16 9 15 10 14 11 6 12
REMARK SMILES IDX 7 13 8 14 9 15 13 16 11 17 10 18 12 20 4 22 21 24 18 26
REMARK H PARENT 10 19 12 21 4 23 21 25 18 27
REMARK Flexibility Score: inf
ROOT
ATOM      1  C   UNL     1     -26.837 -22.326 -10.456  1.00  0.00     0.180 A 
ATOM      2  C   UNL     1     -27.305 -23.342  -9.604  1.00  0.00     0.208 A 
ATOM      3  C   UNL     1     -28.146 -22.998  -8.533  1.00  0.00     0.238 A 
ATOM      4  O   UNL     1     -28.517 -23.903  -7.742  1.00  0.00    -0.285 OA
ATOM      5  C   UNL     1     -28.522 -21.647  -8.338  1.00  0.00     0.111 A 
ATOM      6  C   UNL     1     -29.402 -21.191  -7.311  1.00  0.00     0.134 A 
ATOM      7  C   UNL     1     -29.599 -19.816  -7.131  1.00  0.00     0.093 A 
ATOM      8  C   UNL     1     -29.001 -18.885  -7.984  1.00  0.00     0.123 A 
ATOM      9  C   UNL     1     -28.190 -19.323  -9.027  1.00  0.00     0.094 A 
ATOM     10  C   UNL     1     -27.944 -20.687  -9.209  1.00  0.00     0.146 A 
ATOM     11  O   UNL     1     -27.155 -21.061 -10.208  1.00  0.00    -0.452 OA
ENDROOT
BRANCH   1  12
ATOM     12  C   UNL     1     -25.968 -22.613 -11.620  1.00  0.00     0.025 A 
ATOM     13  C   UNL     1     -24.628 -22.204 -11.598  1.00  0.00     0.016 A 
ATOM     14  C   UNL     1     -23.796 -22.447 -12.694  1.00  0.00     0.051 A 
ATOM     15  C   UNL     1     -24.288 -23.087 -13.836  1.00  0.00     0.157 A 
ATOM     16  C   UNL     1     -26.472 -23.237 -12.775  1.00  0.00     0.062 A 
ATOM     17  C   UNL     1     -25.647 -23.481 -13.880  1.00  0.00     0.158 A 
BRANCH  15  18
ATOM     18  O   UNL     1     -23.403 -23.307 -14.893  1.00  0.00    -0.504 OA
ATOM     19  H   UNL     1     -22.810 -22.593 -15.290  1.00  0.00     0.293 HD
ENDBRANCH  15  18
BRANCH  17  20
ATOM     20  O   UNL     1     -26.214 -24.106 -14.992  1.00  0.00    -0.504 OA
ATOM     21  H   UNL     1     -25.873 -24.968 -15.392  1.00  0.00     0.293 HD
ENDBRANCH  17  20
ENDBRANCH   1  12
BRANCH   2  22
ATOM     22  O   UNL     1     -26.904 -24.665  -9.802  1.00  0.00    -0.502 OA
ATOM     23  H   UNL     1     -27.382 -25.288 -10.443  1.00  0.00     0.293 HD
ENDBRANCH   2  22
BRANCH   6  24
ATOM     24  O   UNL     1     -30.120 -22.041  -6.464  1.00  0.00    -0.507 OA
ATOM     25  H   UNL     1     -31.125 -22.124  -6.451  1.00  0.00     0.293 HD
ENDBRANCH   6  24
BRANCH   8  26
ATOM     26  O   UNL     1     -29.218 -17.520  -7.808  1.00  0.00    -0.508 OA
ATOM     27  H   UNL     1     -28.509 -16.917  -7.409  1.00  0.00     0.293 HD
ENDBRANCH   8  26
TORSDOF 6
ENDMDL
MODEL 8
REMARK VINA RESULT:    -7.189      2.833      6.586
REMARK INTER + INTRA:          -8.889
REMARK INTER:                  -9.080
REMARK INTRA:                   0.191
REMARK UNBOUND:                -0.230
REMARK SMILES O=c1c(O)c(-c2ccc(O)c(O)c2)oc2cc(O)cc(O)c12
REMARK SMILES IDX 5 1 3 2 2 3 1 4 22 5 20 6 19 7 17 8 16 9 15 10 14 11 6 12
REMARK SMILES IDX 7 13 8 14 9 15 13 16 11 17 10 18 12 20 4 22 21 24 18 26
REMARK H PARENT 10 19 12 21 4 23 21 25 18 27
REMARK Flexibility Score: inf
ROOT
ATOM      1  C   UNL     1     -27.324 -20.749  -9.893  1.00  0.00     0.180 A 
ATOM      2  C   UNL     1     -27.380 -22.148 -10.019  1.00  0.00     0.208 A 
ATOM      3  C   UNL     1     -26.635 -22.770 -11.035  1.00  0.00     0.238 A 
ATOM      4  O   UNL     1     -26.731 -24.016 -11.177  1.00  0.00    -0.285 OA
ATOM      5  C   UNL     1     -25.833 -21.988 -11.900  1.00  0.00     0.111 A 
ATOM      6  C   UNL     1     -25.006 -22.516 -12.937  1.00  0.00     0.134 A 
ATOM      7  C   UNL     1     -24.357 -21.639 -13.816  1.00  0.00     0.093 A 
ATOM      8  C   UNL     1     -24.453 -20.255 -13.654  1.00  0.00     0.123 A 
ATOM      9  C   UNL     1     -25.208 -19.731 -12.609  1.00  0.00     0.094 A 
ATOM     10  C   UNL     1     -25.897 -20.579 -11.737  1.00  0.00     0.146 A 
ATOM     11  O   UNL     1     -26.614 -20.038 -10.761  1.00  0.00    -0.452 OA
ENDROOT
BRANCH   1  12
ATOM     12  C   UNL     1     -28.061 -20.024  -8.833  1.00  0.00     0.025 A 
ATOM     13  C   UNL     1     -28.536 -18.730  -9.084  1.00  0.00     0.016 A 
ATOM     14  C   UNL     1     -29.216 -18.021  -8.091  1.00  0.00     0.051 A 
ATOM     15  C   UNL     1     -29.421 -18.583  -6.826  1.00  0.00     0.157 A 
ATOM     16  C   UNL     1     -28.245 -20.583  -7.556  1.00  0.00     0.062 A 
ATOM     17  C   UNL     1     -28.923 -19.879  -6.553  1.00  0.00     0.158 A 
BRANCH  15  18
ATOM     18  O   UNL     1     -30.115 -17.825  -5.880  1.00  0.00    -0.504 OA
ATOM     19  H   UNL     1     -30.375 -18.165  -4.965  1.00  0.00     0.293 HD
ENDBRANCH  15  18
BRANCH  17  20
ATOM     20  O   UNL     1     -29.071 -20.496  -5.309  1.00  0.00    -0.504 OA
ATOM     21  H   UNL     1     -28.368 -20.485  -4.585  1.00  0.00     0.293 HD
ENDBRANCH  17  20
ENDBRANCH   1  12
BRANCH   2  22
ATOM     22  O   UNL     1     -28.195 -22.899  -9.168  1.00  0.00    -0.502 OA
ATOM     23  H   UNL     1     -28.086 -22.888  -8.161  1.00  0.00     0.293 HD
ENDBRANCH   2  22
BRANCH   6  24
ATOM     24  O   UNL     1     -24.770 -23.880 -13.128  1.00  0.00    -0.507 OA
ATOM     25  H   UNL     1     -24.207 -24.457 -12.520  1.00  0.00     0.293 HD
ENDBRANCH   6  24
BRANCH   8  26
ATOM     26  O   UNL     1     -23.789 -19.392 -14.524  1.00  0.00    -0.508 OA
ATOM     27  H   UNL     1     -24.272 -18.631 -14.986  1.00  0.00     0.293 HD
ENDBRANCH   8  26
TORSDOF 6
ENDMDL
MODEL 9
REMARK VINA RESULT:    -7.030      2.409      4.796
REMARK INTER + INTRA:          -8.698
REMARK INTER:                  -9.154
REMARK INTRA:                   0.456
REMARK UNBOUND:                -0.230
REMARK SMILES O=c1c(O)c(-c2ccc(O)c(O)c2)oc2cc(O)cc(O)c12
REMARK SMILES IDX 5 1 3 2 2 3 1 4 22 5 20 6 19 7 17 8 16 9 15 10 14 11 6 12
REMARK SMILES IDX 7 13 8 14 9 15 13 16 11 17 10 18 12 20 4 22 21 24 18 26
REMARK H PARENT 10 19 12 21 4 23 21 25 18 27
REMARK Flexibility Score: inf
ROOT
ATOM      1  C   UNL     1     -26.757 -21.009 -10.681  1.00  0.00     0.180 A 
ATOM      2  C   UNL     1     -26.963 -22.377 -10.436  1.00  0.00     0.208 A 
ATOM      3  C   UNL     1     -27.828 -22.760  -9.398  1.00  0.00     0.238 A 
ATOM      4  O   UNL     1     -27.967 -23.986  -9.149  1.00  0.00    -0.285 OA
ATOM      5  C   UNL     1     -28.488 -21.772  -8.630  1.00  0.00     0.111 A 
ATOM      6  C   UNL     1     -29.417 -22.046  -7.582  1.00  0.00     0.134 A 
ATOM      7  C   UNL     1     -29.909 -20.992  -6.802  1.00  0.00     0.093 A 
ATOM      8  C   UNL     1     -29.557 -19.668  -7.075  1.00  0.00     0.123 A 
ATOM      9  C   UNL     1     -28.699 -19.385  -8.135  1.00  0.00     0.094 A 
ATOM     10  C   UNL     1     -28.162 -20.418  -8.908  1.00  0.00     0.146 A 
ATOM     11  O   UNL     1     -27.339 -20.106  -9.900  1.00  0.00    -0.452 OA
ENDROOT
BRANCH   1  12
ATOM     12  C   UNL     1     -25.880 -20.527 -11.772  1.00  0.00     0.025 A 
ATOM     13  C   UNL     1     -25.921 -19.177 -12.147  1.00  0.00     0.016 A 
ATOM     14  C   UNL     1     -25.117 -18.707 -13.187  1.00  0.00     0.051 A 
ATOM     15  C   UNL     1     -24.268 -19.575 -13.882  1.00  0.00     0.157 A 
ATOM     16  C   UNL     1     -25.046 -21.408 -12.484  1.00  0.00     0.062 A 
ATOM     17  C   UNL     1     -24.238 -20.946 -13.531  1.00  0.00     0.158 A 
BRANCH  15  18
ATOM     18  O   UNL     1     -23.484 -19.041 -14.907  1.00  0.00    -0.504 OA
ATOM     19  H   UNL     1     -22.845 -19.583 -15.470  1.00  0.00     0.293 HD
ENDBRANCH  15  18
BRANCH  17  20
ATOM     20  O   UNL     1     -23.432 -21.875 -14.192  1.00  0.00    -0.504 OA
ATOM     21  H   UNL     1     -23.243 -21.855 -15.183  1.00  0.00     0.293 HD
ENDBRANCH  17  20
ENDBRANCH   1  12
BRANCH   2  22
ATOM     22  O   UNL     1     -26.285 -23.336 -11.193  1.00  0.00    -0.502 OA
ATOM     23  H   UNL     1     -25.274 -23.403 -11.207  1.00  0.00     0.293 HD
ENDBRANCH   2  22
BRANCH   6  24
ATOM     24  O   UNL     1     -29.904 -23.323  -7.285  1.00  0.00    -0.507 OA
ATOM     25  H   UNL     1     -29.794 -23.788  -6.397  1.00  0.00     0.293 HD
ENDBRANCH   6  24
BRANCH   8  26
ATOM     26  O   UNL     1     -30.065 -18.624  -6.305  1.00  0.00    -0.508 OA
ATOM     27  H   UNL     1     -31.062 -18.466  -6.218  1.00  0.00     0.293 HD
ENDBRANCH   8  26
TORSDOF 6
ENDMDL
