MODEL 1
REMARK VINA RESULT:    -5.305      0.000      0.000
REMARK INTER + INTRA:          -6.365
REMARK INTER:                  -6.236
REMARK INTRA:                  -0.129
REMARK UNBOUND:                -0.129
REMARK SMILES O=C([O-])C=Cc1ccc(O)c(O)c1
REMARK SMILES IDX 6 1 13 2 7 3 11 4 8 5 9 6 5 7 4 8 2 9 1 10 3 11 12 12 10 14
REMARK H PARENT 12 13 10 15
REMARK Flexibility Score: inf
ROOT
ATOM      1  C   UNL     1       8.337  -6.363  -7.487  1.00  0.00    -0.022 A 
ATOM      2  C   UNL     1       8.277  -5.333  -6.537  1.00  0.00     0.058 A 
ATOM      3  C   UNL     1       8.094  -7.685  -7.071  1.00  0.00     0.012 A 
ATOM      4  C   UNL     1       7.957  -5.598  -5.199  1.00  0.00     0.157 A 
ATOM      5  C   UNL     1       7.775  -7.958  -5.740  1.00  0.00     0.051 A 
ATOM      6  C   UNL     1       7.699  -6.928  -4.796  1.00  0.00     0.157 A 
ENDROOT
BRANCH   1   7
ATOM      7  C   UNL     1       8.692  -6.020  -8.888  1.00  0.00     0.010 C 
ATOM      8  C   UNL     1       8.095  -5.046  -9.589  1.00  0.00     0.025 C 
BRANCH   8   9
ATOM      9  C   UNL     1       8.488  -4.732 -10.972  1.00  0.00     0.064 C 
ATOM     10  O   UNL     1       9.707  -4.600 -11.256  1.00  0.00    -0.545 OA
ATOM     11  O   UNL     1       7.534  -4.576 -11.971  1.00  0.00    -0.545 OA
ENDBRANCH   8   9
ENDBRANCH   1   7
BRANCH   4  12
ATOM     12  O   UNL     1       7.908  -4.519  -4.314  1.00  0.00    -0.504 OA
ATOM     13  H   UNL     1       8.152  -3.572  -4.563  1.00  0.00     0.293 HD
ENDBRANCH   4  12
BRANCH   6  14
ATOM     14  O   UNL     1       7.371  -7.270  -3.482  1.00  0.00    -0.504 OA
ATOM     15  H   UNL     1       7.998  -7.743  -2.848  1.00  0.00     0.293 HD
ENDBRANCH   6  14
TORSDOF 4
ENDMDL
MODEL 2
REMARK VINA RESULT:    -5.021      2.508      3.113
REMARK INTER + INTRA:          -6.031
REMARK INTER:                  -5.903
REMARK INTRA:                  -0.128
REMARK UNBOUND:                -0.129
REMARK SMILES O=C([O-])C=Cc1ccc(O)c(O)c1
REMARK SMILES IDX 6 1 13 2 7 3 11 4 8 5 9 6 5 7 4 8 2 9 1 10 3 11 12 12 10 14
REMARK H PARENT 12 13 10 15
REMARK Flexibility Score: inf
ROOT
ATOM      1  C   UNL     1       9.450  -6.771  -8.322  1.00  0.00    -0.022 A 
ATOM      2  C   UNL     1      10.224  -6.000  -7.440  1.00  0.00     0.058 A 
ATOM      3  C   UNL     1       8.071  -6.903  -8.077  1.00  0.00     0.012 A 
ATOM      4  C   UNL     1       9.641  -5.348  -6.346  1.00  0.00     0.157 A 
ATOM      5  C   UNL     1       7.483  -6.257  -6.988  1.00  0.00     0.051 A 
ATOM      6  C   UNL     1       8.252  -5.475  -6.119  1.00  0.00     0.157 A 
ENDROOT
BRANCH   1   7
ATOM      7  C   UNL     1      10.128  -7.446  -9.458  1.00  0.00     0.010 C 
ATOM      8  C   UNL     1      10.951  -6.822 -10.312  1.00  0.00     0.025 C 
BRANCH   8   9
ATOM      9  C   UNL     1      11.611  -7.535 -11.417  1.00  0.00     0.064 C 
ATOM     10  O   UNL     1      10.916  -8.198 -12.230  1.00  0.00    -0.545 OA
ATOM     11  O   UNL     1      12.991  -7.489 -11.577  1.00  0.00    -0.545 OA
ENDBRANCH   8   9
ENDBRANCH   1   7
BRANCH   4  12
ATOM     12  O   UNL     1      10.474  -4.593  -5.518  1.00  0.00    -0.504 OA
ATOM     13  H   UNL     1      10.180  -3.761  -5.028  1.00  0.00     0.293 HD
ENDBRANCH   4  12
BRANCH   6  14
ATOM     14  O   UNL     1       7.601  -4.853  -5.052  1.00  0.00    -0.504 OA
ATOM     15  H   UNL     1       8.043  -4.633  -4.171  1.00  0.00     0.293 HD
ENDBRANCH   6  14
TORSDOF 4
ENDMDL
MODEL 3
REMARK VINA RESULT:    -4.995      1.540      1.824
REMARK INTER + INTRA:          -5.999
REMARK INTER:                  -5.871
REMARK INTRA:                  -0.128
REMARK UNBOUND:                -0.129
REMARK SMILES O=C([O-])C=Cc1ccc(O)c(O)c1
REMARK SMILES IDX 6 1 13 2 7 3 11 4 8 5 9 6 5 7 4 8 2 9 1 10 3 11 12 12 10 14
REMARK H PARENT 12 13 10 15
REMARK Flexibility Score: inf
ROOT
ATOM      1  C   UNL     1       8.866  -6.445  -7.194  1.00  0.00    -0.022 A 
ATOM      2  C   UNL     1       8.653  -5.380  -6.304  1.00  0.00     0.058 A 
ATOM      3  C   UNL     1       8.536  -7.749  -6.782  1.00  0.00     0.012 A 
ATOM      4  C   UNL     1       8.099  -5.596  -5.036  1.00  0.00     0.157 A 
ATOM      5  C   UNL     1       7.984  -7.972  -5.519  1.00  0.00     0.051 A 
ATOM      6  C   UNL     1       7.756  -6.909  -4.639  1.00  0.00     0.157 A 
ENDROOT
BRANCH   1   7
ATOM      7  C   UNL     1       9.466  -6.153  -8.520  1.00  0.00     0.010 C 
ATOM      8  C   UNL     1      10.783  -6.192  -8.766  1.00  0.00     0.025 C 
BRANCH   8   9
ATOM      9  C   UNL     1      11.333  -5.908 -10.101  1.00  0.00     0.064 C 
ATOM     10  O   UNL     1      12.484  -5.410 -10.205  1.00  0.00    -0.545 OA
ATOM     11  O   UNL     1      10.600  -6.179 -11.251  1.00  0.00    -0.545 OA
ENDBRANCH   8   9
ENDBRANCH   1   7
BRANCH   4  12
ATOM     12  O   UNL     1       7.909  -4.486  -4.210  1.00  0.00    -0.504 OA
ATOM     13  H   UNL     1       7.004  -4.117  -3.957  1.00  0.00     0.293 HD
ENDBRANCH   4  12
BRANCH   6  14
ATOM     14  O   UNL     1       7.198  -7.201  -3.393  1.00  0.00    -0.504 OA
ATOM     15  H   UNL     1       6.207  -7.189  -3.202  1.00  0.00     0.293 HD
ENDBRANCH   6  14
TORSDOF 4
ENDMDL
MODEL 4
REMARK VINA RESULT:    -4.879     13.823     17.381
REMARK INTER + INTRA:          -5.863
REMARK INTER:                  -5.734
REMARK INTRA:                  -0.130
REMARK UNBOUND:                -0.129
REMARK SMILES O=C([O-])C=Cc1ccc(O)c(O)c1
REMARK SMILES IDX 6 1 13 2 7 3 11 4 8 5 9 6 5 7 4 8 2 9 1 10 3 11 12 12 10 14
REMARK H PARENT 12 13 10 15
REMARK Flexibility Score: inf
ROOT
ATOM      1  C   UNL     1      19.537  -0.634 -18.289  1.00  0.00    -0.022 A 
ATOM      2  C   UNL     1      20.608   0.209 -17.956  1.00  0.00     0.058 A 
ATOM      3  C   UNL     1      19.216  -0.820 -19.646  1.00  0.00     0.012 A 
ATOM      4  C   UNL     1      21.368   0.841 -18.947  1.00  0.00     0.157 A 
ATOM      5  C   UNL     1      19.969  -0.193 -20.641  1.00  0.00     0.051 A 
ATOM      6  C   UNL     1      21.047   0.635 -20.309  1.00  0.00     0.157 A 
ENDROOT
BRANCH   1   7
ATOM      7  C   UNL     1      18.762  -1.267 -17.192  1.00  0.00     0.010 C 
ATOM      8  C   UNL     1      18.054  -0.578 -16.286  1.00  0.00     0.025 C 
BRANCH   8   9
ATOM      9  C   UNL     1      17.290  -1.249 -15.222  1.00  0.00     0.064 C 
ATOM     10  O   UNL     1      17.598  -2.421 -14.882  1.00  0.00    -0.545 OA
ATOM     11  O   UNL     1      16.232  -0.609 -14.587  1.00  0.00    -0.545 OA
ENDBRANCH   8   9
ENDBRANCH   1   7
BRANCH   4  12
ATOM     12  O   UNL     1      22.424   1.658 -18.538  1.00  0.00    -0.504 OA
ATOM     13  H   UNL     1      22.322   2.442 -17.911  1.00  0.00     0.293 HD
ENDBRANCH   4  12
BRANCH   6  14
ATOM     14  O   UNL     1      21.761   1.228 -21.352  1.00  0.00    -0.504 OA
ATOM     15  H   UNL     1      22.541   0.792 -21.821  1.00  0.00     0.293 HD
ENDBRANCH   6  14
TORSDOF 4
ENDMDL
MODEL 5
REMARK VINA RESULT:    -4.853      1.497      2.259
REMARK INTER + INTRA:          -5.833
REMARK INTER:                  -5.691
REMARK INTRA:                  -0.142
REMARK UNBOUND:                -0.129
REMARK SMILES O=C([O-])C=Cc1ccc(O)c(O)c1
REMARK SMILES IDX 6 1 13 2 7 3 11 4 8 5 9 6 5 7 4 8 2 9 1 10 3 11 12 12 10 14
REMARK H PARENT 12 13 10 15
REMARK Flexibility Score: inf
ROOT
ATOM      1  C   UNL     1       7.968  -6.788  -7.168  1.00  0.00    -0.022 A 
ATOM      2  C   UNL     1       7.534  -7.710  -6.203  1.00  0.00     0.058 A 
ATOM      3  C   UNL     1       8.378  -5.510  -6.749  1.00  0.00     0.012 A 
ATOM      4  C   UNL     1       7.529  -7.385  -4.841  1.00  0.00     0.157 A 
ATOM      5  C   UNL     1       8.375  -5.177  -5.393  1.00  0.00     0.051 A 
ATOM      6  C   UNL     1       7.959  -6.102  -4.430  1.00  0.00     0.157 A 
ENDROOT
BRANCH   1   7
ATOM      7  C   UNL     1       7.940  -7.189  -8.598  1.00  0.00     0.010 C 
ATOM      8  C   UNL     1       8.267  -6.370  -9.607  1.00  0.00     0.025 C 
BRANCH   8   9
ATOM      9  C   UNL     1       8.236  -6.814 -11.010  1.00  0.00     0.064 C 
ATOM     10  O   UNL     1       8.439  -8.026 -11.281  1.00  0.00    -0.545 OA
ATOM     11  O   UNL     1       7.989  -5.916 -12.041  1.00  0.00    -0.545 OA
ENDBRANCH   8   9
ENDBRANCH   1   7
BRANCH   4  12
ATOM     12  O   UNL     1       7.092  -8.358  -3.940  1.00  0.00    -0.504 OA
ATOM     13  H   UNL     1       7.254  -9.348  -4.054  1.00  0.00     0.293 HD
ENDBRANCH   4  12
BRANCH   6  14
ATOM     14  O   UNL     1       7.984  -5.707  -3.091  1.00  0.00    -0.504 OA
ATOM     15  H   UNL     1       7.345  -5.038  -2.688  1.00  0.00     0.293 HD
ENDBRANCH   6  14
TORSDOF 4
ENDMDL
MODEL 6
REMARK VINA RESULT:    -4.851      1.780      6.423
REMARK INTER + INTRA:          -5.831
REMARK INTER:                  -5.705
REMARK INTRA:                  -0.126
REMARK UNBOUND:                -0.129
REMARK SMILES O=C([O-])C=Cc1ccc(O)c(O)c1
REMARK SMILES IDX 6 1 13 2 7 3 11 4 8 5 9 6 5 7 4 8 2 9 1 10 3 11 12 12 10 14
REMARK H PARENT 12 13 10 15
REMARK Flexibility Score: inf
ROOT
ATOM      1  C   UNL     1       8.227  -5.562  -9.979  1.00  0.00    -0.022 A 
ATOM      2  C   UNL     1       8.372  -6.661 -10.840  1.00  0.00     0.058 A 
ATOM      3  C   UNL     1       7.813  -4.330 -10.517  1.00  0.00     0.012 A 
ATOM      4  C   UNL     1       8.089  -6.553 -12.207  1.00  0.00     0.157 A 
ATOM      5  C   UNL     1       7.529  -4.214 -11.879  1.00  0.00     0.051 A 
ATOM      6  C   UNL     1       7.658  -5.314 -12.733  1.00  0.00     0.157 A 
ENDROOT
BRANCH   1   7
ATOM      7  C   UNL     1       8.552  -5.737  -8.541  1.00  0.00     0.010 C 
ATOM      8  C   UNL     1       7.646  -5.660  -7.557  1.00  0.00     0.025 C 
BRANCH   8   9
ATOM      9  C   UNL     1       8.012  -5.852  -6.145  1.00  0.00     0.064 C 
ATOM     10  O   UNL     1       7.629  -6.887  -5.540  1.00  0.00    -0.545 OA
ATOM     11  O   UNL     1       8.773  -4.907  -5.467  1.00  0.00    -0.545 OA
ENDBRANCH   8   9
ENDBRANCH   1   7
BRANCH   4  12
ATOM     12  O   UNL     1       8.249  -7.693 -12.998  1.00  0.00    -0.504 OA
ATOM     13  H   UNL     1       8.622  -7.682 -13.936  1.00  0.00     0.293 HD
ENDBRANCH   4  12
BRANCH   6  14
ATOM     14  O   UNL     1       7.355  -5.131 -14.084  1.00  0.00    -0.504 OA
ATOM     15  H   UNL     1       6.832  -4.346 -14.443  1.00  0.00     0.293 HD
ENDBRANCH   6  14
TORSDOF 4
ENDMDL
MODEL 7
REMARK VINA RESULT:    -4.835      3.011      4.297
REMARK INTER + INTRA:          -5.812
REMARK INTER:                  -5.684
REMARK INTRA:                  -0.127
REMARK UNBOUND:                -0.129
REMARK SMILES O=C([O-])C=Cc1ccc(O)c(O)c1
REMARK SMILES IDX 6 1 13 2 7 3 11 4 8 5 9 6 5 7 4 8 2 9 1 10 3 11 12 12 10 14
REMARK H PARENT 12 13 10 15
REMARK Flexibility Score: inf
ROOT
ATOM      1  C   UNL     1       8.810  -5.394 -10.666  1.00  0.00    -0.022 A 
ATOM      2  C   UNL     1      10.211  -5.427 -10.744  1.00  0.00     0.058 A 
ATOM      3  C   UNL     1       8.191  -5.724  -9.446  1.00  0.00     0.012 A 
ATOM      4  C   UNL     1      10.992  -5.754  -9.628  1.00  0.00     0.157 A 
ATOM      5  C   UNL     1       8.962  -6.052  -8.330  1.00  0.00     0.051 A 
ATOM      6  C   UNL     1      10.359  -6.068  -8.403  1.00  0.00     0.157 A 
ENDROOT
BRANCH   1   7
ATOM      7  C   UNL     1       8.038  -5.050 -11.886  1.00  0.00     0.010 C 
ATOM      8  C   UNL     1       7.935  -3.807 -12.376  1.00  0.00     0.025 C 
BRANCH   8   9
ATOM      9  C   UNL     1       7.168  -3.513 -13.597  1.00  0.00     0.064 C 
ATOM     10  O   UNL     1       7.187  -4.331 -14.554  1.00  0.00    -0.545 OA
ATOM     11  O   UNL     1       6.424  -2.345 -13.712  1.00  0.00    -0.545 OA
ENDBRANCH   8   9
ENDBRANCH   1   7
BRANCH   4  12
ATOM     12  O   UNL     1      12.380  -5.757  -9.781  1.00  0.00    -0.504 OA
ATOM     13  H   UNL     1      13.014  -5.226  -9.202  1.00  0.00     0.293 HD
ENDBRANCH   4  12
BRANCH   6  14
ATOM     14  O   UNL     1      11.070  -6.401  -7.249  1.00  0.00    -0.504 OA
ATOM     15  H   UNL     1      12.075  -6.485  -7.209  1.00  0.00     0.293 HD
ENDBRANCH   6  14
TORSDOF 4
ENDMDL
MODEL 8
REMARK VINA RESULT:    -4.831      2.812      3.902
REMARK INTER + INTRA:          -5.807
REMARK INTER:                  -5.679
REMARK INTRA:                  -0.129
REMARK UNBOUND:                -0.129
REMARK SMILES O=C([O-])C=Cc1ccc(O)c(O)c1
REMARK SMILES IDX 6 1 13 2 7 3 11 4 8 5 9 6 5 7 4 8 2 9 1 10 3 11 12 12 10 14
REMARK H PARENT 12 13 10 15
REMARK Flexibility Score: inf
ROOT
ATOM      1  C   UNL     1       8.902  -5.369 -10.734  1.00  0.00    -0.022 A 
ATOM      2  C   UNL     1       8.258  -5.336  -9.488  1.00  0.00     0.058 A 
ATOM      3  C   UNL     1      10.272  -5.686 -10.781  1.00  0.00     0.012 A 
ATOM      4  C   UNL     1       8.948  -5.636  -8.307  1.00  0.00     0.157 A 
ATOM      5  C   UNL     1      10.967  -5.985  -9.608  1.00  0.00     0.051 A 
ATOM      6  C   UNL     1      10.320  -5.969  -8.367  1.00  0.00     0.157 A 
ENDROOT
BRANCH   1   7
ATOM      7  C   UNL     1       8.119  -5.030 -11.949  1.00  0.00     0.010 C 
ATOM      8  C   UNL     1       7.945  -3.780 -12.399  1.00  0.00     0.025 C 
BRANCH   8   9
ATOM      9  C   UNL     1       7.170  -3.492 -13.616  1.00  0.00     0.064 C 
ATOM     10  O   UNL     1       7.307  -4.228 -14.627  1.00  0.00    -0.545 OA
ATOM     11  O   UNL     1       6.289  -2.418 -13.668  1.00  0.00    -0.545 OA
ENDBRANCH   8   9
ENDBRANCH   1   7
BRANCH   4  12
ATOM     12  O   UNL     1       8.236  -5.591  -7.106  1.00  0.00    -0.504 OA
ATOM     13  H   UNL     1       8.512  -6.078  -6.266  1.00  0.00     0.293 HD
ENDBRANCH   4  12
BRANCH   6  14
ATOM     14  O   UNL     1      11.073  -6.282  -7.234  1.00  0.00    -0.504 OA
ATOM     15  H   UNL     1      11.335  -7.221  -6.972  1.00  0.00     0.293 HD
ENDBRANCH   6  14
TORSDOF 4
ENDMDL
MODEL 9
REMARK VINA RESULT:    -4.776      2.047      3.105
REMARK INTER + INTRA:          -5.743
REMARK INTER:                  -5.610
REMARK INTRA:                  -0.133
REMARK UNBOUND:                -0.129
REMARK SMILES O=C([O-])C=Cc1ccc(O)c(O)c1
REMARK SMILES IDX 6 1 13 2 7 3 11 4 8 5 9 6 5 7 4 8 2 9 1 10 3 11 12 12 10 14
REMARK H PARENT 12 13 10 15
REMARK Flexibility Score: inf
ROOT
ATOM      1  C   UNL     1       8.274  -5.202  -9.741  1.00  0.00    -0.022 A 
ATOM      2  C   UNL     1       9.487  -5.670  -9.212  1.00  0.00     0.058 A 
ATOM      3  C   UNL     1       7.190  -4.991  -8.869  1.00  0.00     0.012 A 
ATOM      4  C   UNL     1       9.637  -5.903  -7.840  1.00  0.00     0.157 A 
ATOM      5  C   UNL     1       7.332  -5.222  -7.499  1.00  0.00     0.051 A 
ATOM      6  C   UNL     1       8.546  -5.673  -6.970  1.00  0.00     0.157 A 
ENDROOT
BRANCH   1   7
ATOM      7  C   UNL     1       8.174  -4.984 -11.206  1.00  0.00     0.010 C 
ATOM      8  C   UNL     1       7.539  -3.943 -11.762  1.00  0.00     0.025 C 
BRANCH   8   9
ATOM      9  C   UNL     1       7.475  -3.760 -13.221  1.00  0.00     0.064 C 
ATOM     10  O   UNL     1       7.113  -4.719 -13.951  1.00  0.00    -0.545 OA
ATOM     11  O   UNL     1       7.809  -2.544 -13.806  1.00  0.00    -0.545 OA
ENDBRANCH   8   9
ENDBRANCH   1   7
BRANCH   4  12
ATOM     12  O   UNL     1      10.877  -6.361  -7.388  1.00  0.00    -0.504 OA
ATOM     13  H   UNL     1      11.663  -6.555  -7.992  1.00  0.00     0.293 HD
ENDBRANCH   4  12
BRANCH   6  14
ATOM     14  O   UNL     1       8.622  -5.880  -5.592  1.00  0.00    -0.504 OA
ATOM     15  H   UNL     1       8.001  -5.451  -4.922  1.00  0.00     0.293 HD
ENDBRANCH   6  14
TORSDOF 4
ENDMDL
