MODEL 1
REMARK VINA RESULT:    -3.831      0.000      0.000
REMARK INTER + INTRA:          -4.583
REMARK INTER:                  -4.615
REMARK INTRA:                   0.032
REMARK UNBOUND:                 0.032
REMARK SMILES CC[C@@H](C)[C@H]([NH3+])C(=O)[O-]
REMARK SMILES IDX 3 1 4 2 5 3 6 4 7 8 8 9 9 10 2 11 1 12
REMARK H PARENT 6 5 6 6 6 7
REMARK Flexibility Score: inf
ROOT
ATOM      1  C   UNL     1      34.598  37.317  13.478  1.00  0.00     0.050 C 
ATOM      2  C   UNL     1      34.154  36.689  12.143  1.00  0.00     0.014 C 
ENDROOT
BRANCH   1   3
ATOM      3  C   UNL     1      33.945  36.629  14.720  1.00  0.00     0.230 C 
BRANCH   3   4
ATOM      4  N   UNL     1      34.417  37.182  16.000  1.00  0.00    -0.350 N 
ATOM      5  H   UNL     1      34.589  36.402  16.676  1.00  0.00     0.345 HD
ATOM      6  H   UNL     1      35.304  37.719  15.879  1.00  0.00     0.345 HD
ATOM      7  H   UNL     1      33.688  37.800  16.420  1.00  0.00     0.345 HD
ENDBRANCH   3   4
BRANCH   3   8
ATOM      8  C   UNL     1      34.137  35.132  14.673  1.00  0.00     0.099 C 
ATOM      9  O   UNL     1      33.181  34.365  14.382  1.00  0.00    -0.544 OA
ATOM     10  O   UNL     1      35.373  34.587  15.001  1.00  0.00    -0.544 OA
ENDBRANCH   3   8
ENDBRANCH   1   3
BRANCH   1  11
ATOM     11  C   UNL     1      36.145  37.365  13.532  1.00  0.00     0.006 C 
ATOM     12  C   UNL     1      36.732  38.690  13.043  1.00  0.00     0.004 C 
ENDBRANCH   1  11
TORSDOF 4
ENDMDL
MODEL 2
REMARK VINA RESULT:    -3.780      1.872      2.892
REMARK INTER + INTRA:          -4.521
REMARK INTER:                  -4.390
REMARK INTRA:                  -0.131
REMARK UNBOUND:                 0.032
REMARK SMILES CC[C@@H](C)[C@H]([NH3+])C(=O)[O-]
REMARK SMILES IDX 3 1 4 2 5 3 6 4 7 8 8 9 9 10 2 11 1 12
REMARK H PARENT 6 5 6 6 6 7
REMARK Flexibility Score: inf
ROOT
ATOM      1  C   UNL     1      34.257  36.052  12.987  1.00  0.00     0.050 C 
ATOM      2  C   UNL     1      33.846  37.450  12.487  1.00  0.00     0.014 C 
ENDROOT
BRANCH   1   3
ATOM      3  C   UNL     1      34.107  35.891  14.534  1.00  0.00     0.230 C 
BRANCH   3   4
ATOM      4  N   UNL     1      33.479  37.058  15.177  1.00  0.00    -0.350 N 
ATOM      5  H   UNL     1      33.310  36.850  16.188  1.00  0.00     0.345 HD
ATOM      6  H   UNL     1      34.087  37.904  15.108  1.00  0.00     0.345 HD
ATOM      7  H   UNL     1      32.552  37.258  14.742  1.00  0.00     0.345 HD
ENDBRANCH   3   4
BRANCH   3   8
ATOM      8  C   UNL     1      35.435  35.568  15.177  1.00  0.00     0.099 C 
ATOM      9  O   UNL     1      36.510  36.023  14.704  1.00  0.00    -0.544 OA
ATOM     10  O   UNL     1      35.477  34.721  16.277  1.00  0.00    -0.544 OA
ENDBRANCH   3   8
ENDBRANCH   1   3
BRANCH   1  11
ATOM     11  C   UNL     1      33.501  34.973  12.170  1.00  0.00     0.006 C 
ATOM     12  C   UNL     1      32.836  33.905  13.040  1.00  0.00     0.004 C 
ENDBRANCH   1  11
TORSDOF 4
ENDMDL
MODEL 3
REMARK VINA RESULT:    -3.751      1.337      1.871
REMARK INTER + INTRA:          -4.486
REMARK INTER:                  -4.427
REMARK INTRA:                  -0.059
REMARK UNBOUND:                 0.032
REMARK SMILES CC[C@@H](C)[C@H]([NH3+])C(=O)[O-]
REMARK SMILES IDX 3 1 4 2 5 3 6 4 7 8 8 9 9 10 2 11 1 12
REMARK H PARENT 6 5 6 6 6 7
REMARK Flexibility Score: inf
ROOT
ATOM      1  C   UNL     1      35.698  37.045  13.352  1.00  0.00     0.050 C 
ATOM      2  C   UNL     1      36.505  36.639  14.599  1.00  0.00     0.014 C 
ENDROOT
BRANCH   1   3
ATOM      3  C   UNL     1      34.172  36.733  13.486  1.00  0.00     0.230 C 
BRANCH   3   4
ATOM      4  N   UNL     1      33.645  37.004  14.834  1.00  0.00    -0.350 N 
ATOM      5  H   UNL     1      32.707  37.461  14.756  1.00  0.00     0.345 HD
ATOM      6  H   UNL     1      33.542  36.125  15.387  1.00  0.00     0.345 HD
ATOM      7  H   UNL     1      34.271  37.667  15.343  1.00  0.00     0.345 HD
ENDBRANCH   3   4
BRANCH   3   8
ATOM      8  C   UNL     1      33.870  35.316  13.062  1.00  0.00     0.099 C 
ATOM      9  O   UNL     1      33.538  35.052  11.875  1.00  0.00    -0.544 OA
ATOM     10  O   UNL     1      33.912  34.293  14.001  1.00  0.00    -0.544 OA
ENDBRANCH   3   8
ENDBRANCH   1   3
BRANCH   1  11
ATOM     11  C   UNL     1      36.005  38.523  13.002  1.00  0.00     0.006 C 
ATOM     12  C   UNL     1      37.498  38.852  13.001  1.00  0.00     0.004 C 
ENDBRANCH   1  11
TORSDOF 4
ENDMDL
MODEL 4
REMARK VINA RESULT:    -3.747     18.375     19.897
REMARK INTER + INTRA:          -4.482
REMARK INTER:                  -4.467
REMARK INTRA:                  -0.014
REMARK UNBOUND:                 0.032
REMARK SMILES CC[C@@H](C)[C@H]([NH3+])C(=O)[O-]
REMARK SMILES IDX 3 1 4 2 5 3 6 4 7 8 8 9 9 10 2 11 1 12
REMARK H PARENT 6 5 6 6 6 7
REMARK Flexibility Score: inf
ROOT
ATOM      1  C   UNL     1      31.460  24.852  30.737  1.00  0.00     0.050 C 
ATOM      2  C   UNL     1      30.911  25.439  32.051  1.00  0.00     0.014 C 
ENDROOT
BRANCH   1   3
ATOM      3  C   UNL     1      31.291  25.819  29.521  1.00  0.00     0.230 C 
BRANCH   3   4
ATOM      4  N   UNL     1      31.236  25.116  28.228  1.00  0.00    -0.350 N 
ATOM      5  H   UNL     1      31.176  25.816  27.453  1.00  0.00     0.345 HD
ATOM      6  H   UNL     1      32.084  24.526  28.079  1.00  0.00     0.345 HD
ATOM      7  H   UNL     1      30.381  24.520  28.175  1.00  0.00     0.345 HD
ENDBRANCH   3   4
BRANCH   3   8
ATOM      8  C   UNL     1      32.368  26.877  29.517  1.00  0.00     0.099 C 
ATOM      9  O   UNL     1      32.289  27.884  30.269  1.00  0.00    -0.544 OA
ATOM     10  O   UNL     1      33.439  26.764  28.638  1.00  0.00    -0.544 OA
ENDBRANCH   3   8
ENDBRANCH   1   3
BRANCH   1  11
ATOM     11  C   UNL     1      32.918  24.377  30.959  1.00  0.00     0.006 C 
ATOM     12  C   UNL     1      33.027  22.899  31.340  1.00  0.00     0.004 C 
ENDBRANCH   1  11
TORSDOF 4
ENDMDL
MODEL 5
REMARK VINA RESULT:    -3.705      2.301      3.592
REMARK INTER + INTRA:          -4.431
REMARK INTER:                  -4.371
REMARK INTRA:                  -0.060
REMARK UNBOUND:                 0.032
REMARK SMILES CC[C@@H](C)[C@H]([NH3+])C(=O)[O-]
REMARK SMILES IDX 3 1 4 2 5 3 6 4 7 8 8 9 9 10 2 11 1 12
REMARK H PARENT 6 5 6 6 6 7
REMARK Flexibility Score: inf
ROOT
ATOM      1  C   UNL     1      34.988  35.068  14.792  1.00  0.00     0.050 C 
ATOM      2  C   UNL     1      33.647  34.378  14.482  1.00  0.00     0.014 C 
ENDROOT
BRANCH   1   3
ATOM      3  C   UNL     1      34.863  36.623  14.894  1.00  0.00     0.230 C 
BRANCH   3   4
ATOM      4  N   UNL     1      33.505  37.070  15.249  1.00  0.00    -0.350 N 
ATOM      5  H   UNL     1      33.424  38.100  15.089  1.00  0.00     0.345 HD
ATOM      6  H   UNL     1      32.782  36.585  14.673  1.00  0.00     0.345 HD
ATOM      7  H   UNL     1      33.319  36.898  16.261  1.00  0.00     0.345 HD
ENDBRANCH   3   4
BRANCH   3   8
ATOM      8  C   UNL     1      35.337  37.289  13.624  1.00  0.00     0.099 C 
ATOM      9  O   UNL     1      36.533  37.666  13.500  1.00  0.00    -0.544 OA
ATOM     10  O   UNL     1      34.434  37.532  12.597  1.00  0.00    -0.544 OA
ENDBRANCH   3   8
ENDBRANCH   1   3
BRANCH   1  11
ATOM     11  C   UNL     1      35.626  34.410  16.042  1.00  0.00     0.006 C 
ATOM     12  C   UNL     1      36.724  33.400  15.705  1.00  0.00     0.004 C 
ENDBRANCH   1  11
TORSDOF 4
ENDMDL
MODEL 6
REMARK VINA RESULT:    -3.696      2.063      3.721
REMARK INTER + INTRA:          -4.421
REMARK INTER:                  -4.409
REMARK INTRA:                  -0.012
REMARK UNBOUND:                 0.032
REMARK SMILES CC[C@@H](C)[C@H]([NH3+])C(=O)[O-]
REMARK SMILES IDX 3 1 4 2 5 3 6 4 7 8 8 9 9 10 2 11 1 12
REMARK H PARENT 6 5 6 6 6 7
REMARK Flexibility Score: inf
ROOT
ATOM      1  C   UNL     1      34.783  34.990  15.037  1.00  0.00     0.050 C 
ATOM      2  C   UNL     1      36.199  34.408  15.199  1.00  0.00     0.014 C 
ENDROOT
BRANCH   1   3
ATOM      3  C   UNL     1      34.767  36.552  15.012  1.00  0.00     0.230 C 
BRANCH   3   4
ATOM      4  N   UNL     1      33.445  37.121  15.328  1.00  0.00    -0.350 N 
ATOM      5  H   UNL     1      32.804  36.986  14.513  1.00  0.00     0.345 HD
ATOM      6  H   UNL     1      33.022  36.660  16.164  1.00  0.00     0.345 HD
ATOM      7  H   UNL     1      33.522  38.148  15.496  1.00  0.00     0.345 HD
ENDBRANCH   3   4
BRANCH   3   8
ATOM      8  C   UNL     1      35.281  37.079  13.694  1.00  0.00     0.099 C 
ATOM      9  O   UNL     1      36.517  37.215  13.490  1.00  0.00    -0.544 OA
ATOM     10  O   UNL     1      34.380  37.462  12.708  1.00  0.00    -0.544 OA
ENDBRANCH   3   8
ENDBRANCH   1   3
BRANCH   1  11
ATOM     11  C   UNL     1      34.099  34.339  13.808  1.00  0.00     0.006 C 
ATOM     12  C   UNL     1      32.735  33.723  14.124  1.00  0.00     0.004 C 
ENDBRANCH   1  11
TORSDOF 4
ENDMDL
MODEL 7
REMARK VINA RESULT:    -3.664      1.867      2.213
REMARK INTER + INTRA:          -4.381
REMARK INTER:                  -4.350
REMARK INTRA:                  -0.032
REMARK UNBOUND:                 0.032
REMARK SMILES CC[C@@H](C)[C@H]([NH3+])C(=O)[O-]
REMARK SMILES IDX 3 1 4 2 5 3 6 4 7 8 8 9 9 10 2 11 1 12
REMARK H PARENT 6 5 6 6 6 7
REMARK Flexibility Score: inf
ROOT
ATOM      1  C   UNL     1      34.501  36.535  13.397  1.00  0.00     0.050 C 
ATOM      2  C   UNL     1      33.986  37.589  12.399  1.00  0.00     0.014 C 
ENDROOT
BRANCH   1   3
ATOM      3  C   UNL     1      34.057  35.082  13.029  1.00  0.00     0.230 C 
BRANCH   3   4
ATOM      4  N   UNL     1      33.033  35.042  11.972  1.00  0.00    -0.350 N 
ATOM      5  H   UNL     1      32.731  34.052  11.816  1.00  0.00     0.345 HD
ATOM      6  H   UNL     1      32.195  35.609  12.231  1.00  0.00     0.345 HD
ATOM      7  H   UNL     1      33.427  35.391  11.071  1.00  0.00     0.345 HD
ENDBRANCH   3   4
BRANCH   3   8
ATOM      8  C   UNL     1      33.600  34.328  14.255  1.00  0.00     0.099 C 
ATOM      9  O   UNL     1      34.337  34.239  15.272  1.00  0.00    -0.544 OA
ATOM     10  O   UNL     1      32.369  33.684  14.246  1.00  0.00    -0.544 OA
ENDBRANCH   3   8
ENDBRANCH   1   3
BRANCH   1  11
ATOM     11  C   UNL     1      36.032  36.696  13.568  1.00  0.00     0.006 C 
ATOM     12  C   UNL     1      36.533  38.110  13.272  1.00  0.00     0.004 C 
ENDBRANCH   1  11
TORSDOF 4
ENDMDL
MODEL 8
REMARK VINA RESULT:    -3.626      1.745      2.214
REMARK INTER + INTRA:          -4.336
REMARK INTER:                  -4.442
REMARK INTRA:                   0.106
REMARK UNBOUND:                 0.032
REMARK SMILES CC[C@@H](C)[C@H]([NH3+])C(=O)[O-]
REMARK SMILES IDX 3 1 4 2 5 3 6 4 7 8 8 9 9 10 2 11 1 12
REMARK H PARENT 6 5 6 6 6 7
REMARK Flexibility Score: inf
ROOT
ATOM      1  C   UNL     1      35.943  36.954  13.241  1.00  0.00     0.050 C 
ATOM      2  C   UNL     1      36.545  36.489  14.581  1.00  0.00     0.014 C 
ENDROOT
BRANCH   1   3
ATOM      3  C   UNL     1      34.452  36.521  13.063  1.00  0.00     0.230 C 
BRANCH   3   4
ATOM      4  N   UNL     1      33.629  37.546  12.400  1.00  0.00    -0.350 N 
ATOM      5  H   UNL     1      33.485  37.283  11.397  1.00  0.00     0.345 HD
ATOM      6  H   UNL     1      32.695  37.639  12.857  1.00  0.00     0.345 HD
ATOM      7  H   UNL     1      34.117  38.468  12.411  1.00  0.00     0.345 HD
ENDBRANCH   3   4
BRANCH   3   8
ATOM      8  C   UNL     1      33.845  36.110  14.383  1.00  0.00     0.099 C 
ATOM      9  O   UNL     1      33.583  34.902  14.627  1.00  0.00    -0.544 OA
ATOM     10  O   UNL     1      33.528  37.081  15.325  1.00  0.00    -0.544 OA
ENDBRANCH   3   8
ENDBRANCH   1   3
BRANCH   1  11
ATOM     11  C   UNL     1      36.175  38.478  13.077  1.00  0.00     0.006 C 
ATOM     12  C   UNL     1      37.652  38.873  13.075  1.00  0.00     0.004 C 
ENDBRANCH   1  11
TORSDOF 4
ENDMDL
MODEL 9
REMARK VINA RESULT:    -3.623     18.123     19.283
REMARK INTER + INTRA:          -4.333
REMARK INTER:                  -4.247
REMARK INTRA:                  -0.086
REMARK UNBOUND:                 0.032
REMARK SMILES CC[C@@H](C)[C@H]([NH3+])C(=O)[O-]
REMARK SMILES IDX 3 1 4 2 5 3 6 4 7 8 8 9 9 10 2 11 1 12
REMARK H PARENT 6 5 6 6 6 7
REMARK Flexibility Score: inf
ROOT
ATOM      1  C   UNL     1      32.569  25.999  29.720  1.00  0.00     0.050 C 
ATOM      2  C   UNL     1      31.233  25.405  29.236  1.00  0.00     0.014 C 
ENDROOT
BRANCH   1   3
ATOM      3  C   UNL     1      32.380  27.170  30.738  1.00  0.00     0.230 C 
BRANCH   3   4
ATOM      4  N   UNL     1      31.218  26.983  31.623  1.00  0.00    -0.350 N 
ATOM      5  H   UNL     1      30.826  26.023  31.486  1.00  0.00     0.345 HD
ATOM      6  H   UNL     1      31.482  27.094  32.627  1.00  0.00     0.345 HD
ATOM      7  H   UNL     1      30.464  27.663  31.383  1.00  0.00     0.345 HD
ENDBRANCH   3   4
BRANCH   3   8
ATOM      8  C   UNL     1      32.310  28.501  30.027  1.00  0.00     0.099 C 
ATOM      9  O   UNL     1      33.151  28.805  29.140  1.00  0.00    -0.544 OA
ATOM     10  O   UNL     1      31.334  29.422  30.387  1.00  0.00    -0.544 OA
ENDBRANCH   3   8
ENDBRANCH   1   3
BRANCH   1  11
ATOM     11  C   UNL     1      33.478  24.858  30.242  1.00  0.00     0.006 C 
ATOM     12  C   UNL     1      32.719  23.781  31.018  1.00  0.00     0.004 C 
ENDBRANCH   1  11
TORSDOF 4
ENDMDL
