MODEL 1
REMARK VINA RESULT:    -2.962      0.000      0.000
REMARK INTER + INTRA:          -3.597
REMARK INTER:                  -3.481
REMARK INTRA:                  -0.116
REMARK UNBOUND:                -0.116
REMARK SMILES O=C([O-])CCC(=O)[O-]
REMARK SMILES IDX 4 1 2 2 1 3 3 4 5 5 6 6 7 7 8 8
REMARK H PARENT
REMARK Flexibility Score: inf
ROOT
ATOM      1  C   UNL     1      97.277   2.224  25.019  1.00  0.00     0.059 C 
ENDROOT
BRANCH   1   2
ATOM      2  C   UNL     1      98.465   1.792  24.219  1.00  0.00     0.042 C 
ATOM      3  O   UNL     1      98.693   0.569  24.032  1.00  0.00    -0.550 OA
ATOM      4  O   UNL     1      99.295   2.743  23.639  1.00  0.00    -0.550 OA
ENDBRANCH   1   2
BRANCH   1   5
ATOM      5  C   UNL     1      96.170   2.741  24.097  1.00  0.00     0.059 C 
BRANCH   5   6
ATOM      6  C   UNL     1      96.071   4.231  24.184  1.00  0.00     0.042 C 
ATOM      7  O   UNL     1      96.529   4.951  23.259  1.00  0.00    -0.550 OA
ATOM      8  O   UNL     1      95.515   4.826  25.308  1.00  0.00    -0.550 OA
ENDBRANCH   5   6
ENDBRANCH   1   5
TORSDOF 3
ENDMDL
MODEL 2
REMARK VINA RESULT:    -2.937      1.345      4.168
REMARK INTER + INTRA:          -3.568
REMARK INTER:                  -3.445
REMARK INTRA:                  -0.123
REMARK UNBOUND:                -0.116
REMARK SMILES O=C([O-])CCC(=O)[O-]
REMARK SMILES IDX 4 1 2 2 1 3 3 4 5 5 6 6 7 7 8 8
REMARK H PARENT
REMARK Flexibility Score: inf
ROOT
ATOM      1  C   UNL     1      96.498   4.380  23.667  1.00  0.00     0.059 C 
ENDROOT
BRANCH   1   2
ATOM      2  C   UNL     1      95.587   5.324  24.388  1.00  0.00     0.042 C 
ATOM      3  O   UNL     1      95.045   6.277  23.769  1.00  0.00    -0.550 OA
ATOM      4  O   UNL     1      95.300   5.123  25.731  1.00  0.00    -0.550 OA
ENDBRANCH   1   2
BRANCH   1   5
ATOM      5  C   UNL     1      96.158   2.931  24.025  1.00  0.00     0.059 C 
BRANCH   5   6
ATOM      6  C   UNL     1      97.320   2.273  24.698  1.00  0.00     0.042 C 
ATOM      7  O   UNL     1      97.772   2.734  25.778  1.00  0.00    -0.550 OA
ATOM      8  O   UNL     1      97.935   1.177  24.108  1.00  0.00    -0.550 OA
ENDBRANCH   5   6
ENDBRANCH   1   5
TORSDOF 3
ENDMDL
MODEL 3
REMARK VINA RESULT:    -2.936     13.862     14.728
REMARK INTER + INTRA:          -3.567
REMARK INTER:                  -3.507
REMARK INTRA:                  -0.060
REMARK UNBOUND:                -0.116
REMARK SMILES O=C([O-])CCC(=O)[O-]
REMARK SMILES IDX 4 1 2 2 1 3 3 4 5 5 6 6 7 7 8 8
REMARK H PARENT
REMARK Flexibility Score: inf
ROOT
ATOM      1  C   UNL     1     105.966  11.252  15.539  1.00  0.00     0.059 C 
ENDROOT
BRANCH   1   2
ATOM      2  C   UNL     1     104.531  11.672  15.519  1.00  0.00     0.042 C 
ATOM      3  O   UNL     1     103.977  11.983  14.432  1.00  0.00    -0.550 OA
ATOM      4  O   UNL     1     103.791  11.674  16.694  1.00  0.00    -0.550 OA
ENDBRANCH   1   2
BRANCH   1   5
ATOM      5  C   UNL     1     106.603  11.586  16.890  1.00  0.00     0.059 C 
BRANCH   5   6
ATOM      6  C   UNL     1     107.417  10.432  17.384  1.00  0.00     0.042 C 
ATOM      7  O   UNL     1     107.868  10.433  18.559  1.00  0.00    -0.550 OA
ATOM      8  O   UNL     1     107.718   9.378  16.532  1.00  0.00    -0.550 OA
ENDBRANCH   5   6
ENDBRANCH   1   5
TORSDOF 3
ENDMDL
MODEL 4
REMARK VINA RESULT:    -2.932     13.873     14.309
REMARK INTER + INTRA:          -3.562
REMARK INTER:                  -3.501
REMARK INTRA:                  -0.061
REMARK UNBOUND:                -0.116
REMARK SMILES O=C([O-])CCC(=O)[O-]
REMARK SMILES IDX 4 1 2 2 1 3 3 4 5 5 6 6 7 7 8 8
REMARK H PARENT
REMARK Flexibility Score: inf
ROOT
ATOM      1  C   UNL     1     106.483  11.567  16.841  1.00  0.00     0.059 C 
ENDROOT
BRANCH   1   2
ATOM      2  C   UNL     1     107.388  10.455  17.268  1.00  0.00     0.042 C 
ATOM      3  O   UNL     1     107.665   9.521  16.471  1.00  0.00    -0.550 OA
ATOM      4  O   UNL     1     107.963  10.473  18.532  1.00  0.00    -0.550 OA
ENDBRANCH   1   2
BRANCH   1   5
ATOM      5  C   UNL     1     105.890  11.274  15.461  1.00  0.00     0.059 C 
BRANCH   5   6
ATOM      6  C   UNL     1     104.443  11.654  15.423  1.00  0.00     0.042 C 
ATOM      7  O   UNL     1     103.913  12.019  14.341  1.00  0.00    -0.550 OA
ATOM      8  O   UNL     1     103.692  11.650  16.591  1.00  0.00    -0.550 OA
ENDBRANCH   5   6
ENDBRANCH   1   5
TORSDOF 3
ENDMDL
MODEL 5
REMARK VINA RESULT:    -2.916      1.377      1.858
REMARK INTER + INTRA:          -3.543
REMARK INTER:                  -3.424
REMARK INTRA:                  -0.119
REMARK UNBOUND:                -0.116
REMARK SMILES O=C([O-])CCC(=O)[O-]
REMARK SMILES IDX 4 1 2 2 1 3 3 4 5 5 6 6 7 7 8 8
REMARK H PARENT
REMARK Flexibility Score: inf
ROOT
ATOM      1  C   UNL     1      96.134   2.984  24.016  1.00  0.00     0.059 C 
ENDROOT
BRANCH   1   2
ATOM      2  C   UNL     1      97.294   2.291  24.658  1.00  0.00     0.042 C 
ATOM      3  O   UNL     1      97.747   2.703  25.758  1.00  0.00    -0.550 OA
ATOM      4  O   UNL     1      97.845   1.163  24.066  1.00  0.00    -0.550 OA
ENDBRANCH   1   2
BRANCH   1   5
ATOM      5  C   UNL     1      96.482   4.444  23.715  1.00  0.00     0.059 C 
BRANCH   5   6
ATOM      6  C   UNL     1      95.527   5.362  24.410  1.00  0.00     0.042 C 
ATOM      7  O   UNL     1      94.959   6.287  23.772  1.00  0.00    -0.550 OA
ATOM      8  O   UNL     1      95.300   5.227  25.773  1.00  0.00    -0.550 OA
ENDBRANCH   5   6
ENDBRANCH   1   5
TORSDOF 3
ENDMDL
MODEL 6
REMARK VINA RESULT:    -2.905      2.051      2.631
REMARK INTER + INTRA:          -3.530
REMARK INTER:                  -3.442
REMARK INTRA:                  -0.089
REMARK UNBOUND:                -0.116
REMARK SMILES O=C([O-])CCC(=O)[O-]
REMARK SMILES IDX 4 1 2 2 1 3 3 4 5 5 6 6 7 7 8 8
REMARK H PARENT
REMARK Flexibility Score: inf
ROOT
ATOM      1  C   UNL     1      99.500   2.357  24.591  1.00  0.00     0.059 C 
ENDROOT
BRANCH   1   2
ATOM      2  C   UNL     1     100.110   2.982  23.376  1.00  0.00     0.042 C 
ATOM      3  O   UNL     1      99.627   4.041  22.898  1.00  0.00    -0.550 OA
ATOM      4  O   UNL     1     101.243   2.421  22.800  1.00  0.00    -0.550 OA
ENDBRANCH   1   2
BRANCH   1   5
ATOM      5  C   UNL     1      98.326   1.458  24.197  1.00  0.00     0.059 C 
BRANCH   5   6
ATOM      6  C   UNL     1      97.026   2.117  24.534  1.00  0.00     0.042 C 
ATOM      7  O   UNL     1      96.073   2.094  23.713  1.00  0.00    -0.550 OA
ATOM      8  O   UNL     1      96.883   2.797  25.736  1.00  0.00    -0.550 OA
ENDBRANCH   5   6
ENDBRANCH   1   5
TORSDOF 3
ENDMDL
MODEL 7
REMARK VINA RESULT:    -2.902      2.010      3.591
REMARK INTER + INTRA:          -3.527
REMARK INTER:                  -3.424
REMARK INTRA:                  -0.103
REMARK UNBOUND:                -0.116
REMARK SMILES O=C([O-])CCC(=O)[O-]
REMARK SMILES IDX 4 1 2 2 1 3 3 4 5 5 6 6 7 7 8 8
REMARK H PARENT
REMARK Flexibility Score: inf
ROOT
ATOM      1  C   UNL     1      98.296   1.597  24.350  1.00  0.00     0.059 C 
ENDROOT
BRANCH   1   2
ATOM      2  C   UNL     1      97.019   2.318  24.645  1.00  0.00     0.042 C 
ATOM      3  O   UNL     1      96.831   2.836  25.777  1.00  0.00    -0.550 OA
ATOM      4  O   UNL     1      96.056   2.461  23.655  1.00  0.00    -0.550 OA
ENDBRANCH   1   2
BRANCH   1   5
ATOM      5  C   UNL     1      99.499   2.490  24.660  1.00  0.00     0.059 C 
BRANCH   5   6
ATOM      6  C   UNL     1     100.029   3.108  23.404  1.00  0.00     0.042 C 
ATOM      7  O   UNL     1     101.032   2.611  22.828  1.00  0.00    -0.550 OA
ATOM      8  O   UNL     1      99.444   4.260  22.896  1.00  0.00    -0.550 OA
ENDBRANCH   5   6
ENDBRANCH   1   5
TORSDOF 3
ENDMDL
MODEL 8
REMARK VINA RESULT:    -2.901      2.076      2.915
REMARK INTER + INTRA:          -3.526
REMARK INTER:                  -3.389
REMARK INTRA:                  -0.137
REMARK UNBOUND:                -0.116
REMARK SMILES O=C([O-])CCC(=O)[O-]
REMARK SMILES IDX 4 1 2 2 1 3 3 4 5 5 6 6 7 7 8 8
REMARK H PARENT
REMARK Flexibility Score: inf
ROOT
ATOM      1  C   UNL     1      96.040   4.711  24.083  1.00  0.00     0.059 C 
ENDROOT
BRANCH   1   2
ATOM      2  C   UNL     1      96.606   3.330  23.973  1.00  0.00     0.042 C 
ATOM      3  O   UNL     1      95.839   2.338  23.867  1.00  0.00    -0.550 OA
ATOM      4  O   UNL     1      97.982   3.144  23.941  1.00  0.00    -0.550 OA
ENDBRANCH   1   2
BRANCH   1   5
ATOM      5  C   UNL     1      95.659   5.019  25.533  1.00  0.00     0.059 C 
BRANCH   5   6
ATOM      6  C   UNL     1      96.845   5.530  26.288  1.00  0.00     0.042 C 
ATOM      7  O   UNL     1      96.951   5.314  27.523  1.00  0.00    -0.550 OA
ATOM      8  O   UNL     1      97.811   6.285  25.636  1.00  0.00    -0.550 OA
ENDBRANCH   5   6
ENDBRANCH   1   5
TORSDOF 3
ENDMDL
MODEL 9
REMARK VINA RESULT:    -2.900      1.430      3.632
REMARK INTER + INTRA:          -3.525
REMARK INTER:                  -3.366
REMARK INTRA:                  -0.160
REMARK UNBOUND:                -0.116
REMARK SMILES O=C([O-])CCC(=O)[O-]
REMARK SMILES IDX 4 1 2 2 1 3 3 4 5 5 6 6 7 7 8 8
REMARK H PARENT
REMARK Flexibility Score: inf
ROOT
ATOM      1  C   UNL     1      96.925   2.851  25.546  1.00  0.00     0.059 C 
ENDROOT
BRANCH   1   2
ATOM      2  C   UNL     1      96.353   2.998  24.172  1.00  0.00     0.042 C 
ATOM      3  O   UNL     1      95.854   2.004  23.583  1.00  0.00    -0.550 OA
ATOM      4  O   UNL     1      96.328   4.244  23.559  1.00  0.00    -0.550 OA
ENDBRANCH   1   2
BRANCH   1   5
ATOM      5  C   UNL     1      98.434   3.107  25.528  1.00  0.00     0.059 C 
BRANCH   5   6
ATOM      6  C   UNL     1      99.140   2.017  24.785  1.00  0.00     0.042 C 
ATOM      7  O   UNL     1      99.237   0.868  25.288  1.00  0.00    -0.550 OA
ATOM      8  O   UNL     1      99.732   2.284  23.558  1.00  0.00    -0.550 OA
ENDBRANCH   5   6
ENDBRANCH   1   5
TORSDOF 3
ENDMDL
