MODEL 1
REMARK VINA RESULT:    -4.339      0.000      0.000
REMARK INTER + INTRA:          -4.466
REMARK INTER:                  -4.466
REMARK INTRA:                   0.000
REMARK UNBOUND:                 0.000
REMARK SMILES O=c1ccc2ccc(O)cc2o1
REMARK SMILES IDX 6 1 7 2 8 3 10 4 11 5 5 6 4 7 3 8 2 9 1 10 12 11 9 12
REMARK H PARENT 9 13
REMARK Flexibility Score: inf
ROOT
ATOM      1  C   UNL     1     -23.699  23.813   9.339  1.00  0.00     0.016 A 
ATOM      2  C   UNL     1     -23.314  23.479  10.642  1.00  0.00     0.047 A 
ATOM      3  C   UNL     1     -22.958  24.483  11.555  1.00  0.00     0.119 A 
ATOM      4  C   UNL     1     -22.988  25.826  11.161  1.00  0.00     0.094 A 
ATOM      5  C   UNL     1     -23.371  26.170   9.859  1.00  0.00     0.142 A 
ATOM      6  C   UNL     1     -23.729  25.158   8.943  1.00  0.00     0.018 A 
ATOM      7  C   UNL     1     -24.108  25.532   7.650  1.00  0.00     0.019 A 
ATOM      8  C   UNL     1     -24.121  26.883   7.305  1.00  0.00     0.094 A 
ATOM      9  C   UNL     1     -23.755  27.831   8.266  1.00  0.00     0.336 A 
ATOM     10  O   UNL     1     -23.760  29.056   7.973  1.00  0.00    -0.246 OA
ATOM     11  O   UNL     1     -23.398  27.448   9.489  1.00  0.00    -0.423 OA
ENDROOT
BRANCH   3  12
ATOM     12  O   UNL     1     -22.574  24.158  12.853  1.00  0.00    -0.508 OA
ATOM     13  H   UNL     1     -22.991  24.610  13.658  1.00  0.00     0.293 HD
ENDBRANCH   3  12
TORSDOF 1
ENDMDL
MODEL 2
REMARK VINA RESULT:    -4.271      0.988      4.363
REMARK INTER + INTRA:          -4.395
REMARK INTER:                  -4.395
REMARK INTRA:                   0.000
REMARK UNBOUND:                 0.000
REMARK SMILES O=c1ccc2ccc(O)cc2o1
REMARK SMILES IDX 6 1 7 2 8 3 10 4 11 5 5 6 4 7 3 8 2 9 1 10 12 11 9 12
REMARK H PARENT 9 13
REMARK Flexibility Score: inf
ROOT
ATOM      1  C   UNL     1     -24.038  24.393   8.594  1.00  0.00     0.016 A 
ATOM      2  C   UNL     1     -24.088  25.660   8.002  1.00  0.00     0.047 A 
ATOM      3  C   UNL     1     -23.569  26.776   8.675  1.00  0.00     0.119 A 
ATOM      4  C   UNL     1     -22.998  26.623   9.944  1.00  0.00     0.094 A 
ATOM      5  C   UNL     1     -22.943  25.359  10.544  1.00  0.00     0.142 A 
ATOM      6  C   UNL     1     -23.466  24.237   9.864  1.00  0.00     0.018 A 
ATOM      7  C   UNL     1     -23.397  22.988  10.489  1.00  0.00     0.019 A 
ATOM      8  C   UNL     1     -22.819  22.886  11.753  1.00  0.00     0.094 A 
ATOM      9  C   UNL     1     -22.321  24.041  12.366  1.00  0.00     0.336 A 
ATOM     10  O   UNL     1     -21.795  23.969  13.508  1.00  0.00    -0.246 OA
ATOM     11  O   UNL     1     -22.399  25.218  11.750  1.00  0.00    -0.423 OA
ENDROOT
BRANCH   3  12
ATOM     12  O   UNL     1     -23.616  28.040   8.092  1.00  0.00    -0.508 OA
ATOM     13  H   UNL     1     -22.869  28.376   7.496  1.00  0.00     0.293 HD
ENDBRANCH   3  12
TORSDOF 1
ENDMDL
MODEL 3
REMARK VINA RESULT:    -4.049      3.127      5.656
REMARK INTER + INTRA:          -4.167
REMARK INTER:                  -4.167
REMARK INTRA:                   0.000
REMARK UNBOUND:                 0.000
REMARK SMILES O=c1ccc2ccc(O)cc2o1
REMARK SMILES IDX 6 1 7 2 8 3 10 4 11 5 5 6 4 7 3 8 2 9 1 10 12 11 9 12
REMARK H PARENT 9 13
REMARK Flexibility Score: inf
ROOT
ATOM      1  C   UNL     1     -24.021  23.134  12.394  1.00  0.00     0.016 A 
ATOM      2  C   UNL     1     -24.125  23.298  11.008  1.00  0.00     0.047 A 
ATOM      3  C   UNL     1     -23.014  23.716  10.260  1.00  0.00     0.119 A 
ATOM      4  C   UNL     1     -21.797  23.972  10.901  1.00  0.00     0.094 A 
ATOM      5  C   UNL     1     -21.684  23.811  12.287  1.00  0.00     0.142 A 
ATOM      6  C   UNL     1     -22.802  23.389  13.038  1.00  0.00     0.018 A 
ATOM      7  C   UNL     1     -22.659  23.237  14.420  1.00  0.00     0.019 A 
ATOM      8  C   UNL     1     -21.426  23.504  15.013  1.00  0.00     0.094 A 
ATOM      9  C   UNL     1     -20.361  23.918  14.206  1.00  0.00     0.336 A 
ATOM     10  O   UNL     1     -19.239  24.164  14.723  1.00  0.00    -0.246 OA
ATOM     11  O   UNL     1     -20.524  24.055  12.893  1.00  0.00    -0.423 OA
ENDROOT
BRANCH   3  12
ATOM     12  O   UNL     1     -23.111  23.881   8.880  1.00  0.00    -0.508 OA
ATOM     13  H   UNL     1     -24.009  23.914   8.412  1.00  0.00     0.293 HD
ENDBRANCH   3  12
TORSDOF 1
ENDMDL
MODEL 4
REMARK VINA RESULT:    -4.026      2.822      4.270
REMARK INTER + INTRA:          -4.144
REMARK INTER:                  -4.144
REMARK INTRA:                   0.000
REMARK UNBOUND:                 0.000
REMARK SMILES O=c1ccc2ccc(O)cc2o1
REMARK SMILES IDX 6 1 7 2 8 3 10 4 11 5 5 6 4 7 3 8 2 9 1 10 12 11 9 12
REMARK H PARENT 9 13
REMARK Flexibility Score: inf
ROOT
ATOM      1  C   UNL     1     -23.095  23.249  14.197  1.00  0.00     0.016 A 
ATOM      2  C   UNL     1     -21.993  23.250  15.059  1.00  0.00     0.047 A 
ATOM      3  C   UNL     1     -20.726  23.625  14.586  1.00  0.00     0.119 A 
ATOM      4  C   UNL     1     -20.563  24.000  13.248  1.00  0.00     0.094 A 
ATOM      5  C   UNL     1     -21.660  24.002  12.378  1.00  0.00     0.142 A 
ATOM      6  C   UNL     1     -22.934  23.625  12.856  1.00  0.00     0.018 A 
ATOM      7  C   UNL     1     -24.010  23.637  11.964  1.00  0.00     0.019 A 
ATOM      8  C   UNL     1     -23.797  24.018  10.640  1.00  0.00     0.094 A 
ATOM      9  C   UNL     1     -22.507  24.380  10.237  1.00  0.00     0.336 A 
ATOM     10  O   UNL     1     -22.295  24.726   9.046  1.00  0.00    -0.246 OA
ATOM     11  O   UNL     1     -21.500  24.360  11.107  1.00  0.00    -0.423 OA
ENDROOT
BRANCH   3  12
ATOM     12  O   UNL     1     -19.625  23.628  15.439  1.00  0.00    -0.508 OA
ATOM     13  H   UNL     1     -19.731  23.532  16.442  1.00  0.00     0.293 HD
ENDBRANCH   3  12
TORSDOF 1
ENDMDL
MODEL 5
REMARK VINA RESULT:    -3.918      3.989      6.016
REMARK INTER + INTRA:          -4.032
REMARK INTER:                  -4.032
REMARK INTRA:                   0.000
REMARK UNBOUND:                 0.000
REMARK SMILES O=c1ccc2ccc(O)cc2o1
REMARK SMILES IDX 6 1 7 2 8 3 10 4 11 5 5 6 4 7 3 8 2 9 1 10 12 11 9 12
REMARK H PARENT 9 13
REMARK Flexibility Score: inf
ROOT
ATOM      1  C   UNL     1     -22.105  22.909  15.989  1.00  0.00     0.016 A 
ATOM      2  C   UNL     1     -20.964  22.979  16.796  1.00  0.00     0.047 A 
ATOM      3  C   UNL     1     -19.749  23.438  16.266  1.00  0.00     0.119 A 
ATOM      4  C   UNL     1     -19.676  23.828  14.924  1.00  0.00     0.094 A 
ATOM      5  C   UNL     1     -20.812  23.762  14.109  1.00  0.00     0.142 A 
ATOM      6  C   UNL     1     -22.034  23.300  14.644  1.00  0.00     0.018 A 
ATOM      7  C   UNL     1     -23.151  23.245  13.805  1.00  0.00     0.019 A 
ATOM      8  C   UNL     1     -23.028  23.645  12.476  1.00  0.00     0.094 A 
ATOM      9  C   UNL     1     -21.785  24.092  12.014  1.00  0.00     0.336 A 
ATOM     10  O   UNL     1     -21.654  24.457  10.816  1.00  0.00    -0.246 OA
ATOM     11  O   UNL     1     -20.738  24.134  12.834  1.00  0.00    -0.423 OA
ENDROOT
BRANCH   3  12
ATOM     12  O   UNL     1     -18.610  23.510  17.065  1.00  0.00    -0.508 OA
ATOM     13  H   UNL     1     -18.648  23.868  18.012  1.00  0.00     0.293 HD
ENDBRANCH   3  12
TORSDOF 1
ENDMDL
MODEL 6
REMARK VINA RESULT:    -3.905      4.728      6.772
REMARK INTER + INTRA:          -4.019
REMARK INTER:                  -4.019
REMARK INTRA:                   0.000
REMARK UNBOUND:                 0.000
REMARK SMILES O=c1ccc2ccc(O)cc2o1
REMARK SMILES IDX 6 1 7 2 8 3 10 4 11 5 5 6 4 7 3 8 2 9 1 10 12 11 9 12
REMARK H PARENT 9 13
REMARK Flexibility Score: inf
ROOT
ATOM      1  C   UNL     1     -19.246  23.857  15.646  1.00  0.00     0.016 A 
ATOM      2  C   UNL     1     -19.470  23.637  17.010  1.00  0.00     0.047 A 
ATOM      3  C   UNL     1     -20.753  23.307  17.472  1.00  0.00     0.119 A 
ATOM      4  C   UNL     1     -21.815  23.198  16.565  1.00  0.00     0.094 A 
ATOM      5  C   UNL     1     -21.599  23.416  15.200  1.00  0.00     0.142 A 
ATOM      6  C   UNL     1     -20.307  23.747  14.737  1.00  0.00     0.018 A 
ATOM      7  C   UNL     1     -20.123  23.960  13.368  1.00  0.00     0.019 A 
ATOM      8  C   UNL     1     -21.212  23.839  12.505  1.00  0.00     0.094 A 
ATOM      9  C   UNL     1     -22.463  23.507  13.034  1.00  0.00     0.336 A 
ATOM     10  O   UNL     1     -23.458  23.394  12.271  1.00  0.00    -0.246 OA
ATOM     11  O   UNL     1     -22.611  23.310  14.342  1.00  0.00    -0.423 OA
ENDROOT
BRANCH   3  12
ATOM     12  O   UNL     1     -20.983  23.087  18.827  1.00  0.00    -0.508 OA
ATOM     13  H   UNL     1     -21.627  22.372  19.146  1.00  0.00     0.293 HD
ENDBRANCH   3  12
TORSDOF 1
ENDMDL
MODEL 7
REMARK VINA RESULT:    -3.873      4.662      7.627
REMARK INTER + INTRA:          -3.987
REMARK INTER:                  -3.987
REMARK INTRA:                   0.000
REMARK UNBOUND:                 0.000
REMARK SMILES O=c1ccc2ccc(O)cc2o1
REMARK SMILES IDX 6 1 7 2 8 3 10 4 11 5 5 6 4 7 3 8 2 9 1 10 12 11 9 12
REMARK H PARENT 9 13
REMARK Flexibility Score: inf
ROOT
ATOM      1  C   UNL     1     -20.082  23.984  13.331  1.00  0.00     0.016 A 
ATOM      2  C   UNL     1     -21.140  23.859  12.424  1.00  0.00     0.047 A 
ATOM      3  C   UNL     1     -22.416  23.483  12.871  1.00  0.00     0.119 A 
ATOM      4  C   UNL     1     -22.633  23.232  14.231  1.00  0.00     0.094 A 
ATOM      5  C   UNL     1     -21.580  23.355  15.146  1.00  0.00     0.142 A 
ATOM      6  C   UNL     1     -20.298  23.733  14.694  1.00  0.00     0.018 A 
ATOM      7  C   UNL     1     -19.267  23.847  15.631  1.00  0.00     0.019 A 
ATOM      8  C   UNL     1     -19.532  23.587  16.975  1.00  0.00     0.094 A 
ATOM      9  C   UNL     1     -20.828  23.218  17.351  1.00  0.00     0.336 A 
ATOM     10  O   UNL     1     -21.087  22.978  18.559  1.00  0.00    -0.246 OA
ATOM     11  O   UNL     1     -21.791  23.116  16.438  1.00  0.00    -0.423 OA
ENDROOT
BRANCH   3  12
ATOM     12  O   UNL     1     -23.473  23.357  11.973  1.00  0.00    -0.508 OA
ATOM     13  H   UNL     1     -24.086  22.550  11.987  1.00  0.00     0.293 HD
ENDBRANCH   3  12
TORSDOF 1
ENDMDL
MODEL 8
REMARK VINA RESULT:    -3.865      4.485      7.623
REMARK INTER + INTRA:          -3.978
REMARK INTER:                  -3.978
REMARK INTRA:                   0.000
REMARK UNBOUND:                 0.000
REMARK SMILES O=c1ccc2ccc(O)cc2o1
REMARK SMILES IDX 6 1 7 2 8 3 10 4 11 5 5 6 4 7 3 8 2 9 1 10 12 11 9 12
REMARK H PARENT 9 13
REMARK Flexibility Score: inf
ROOT
ATOM      1  C   UNL     1     -22.818  23.254  14.447  1.00  0.00     0.016 A 
ATOM      2  C   UNL     1     -22.697  23.642  13.109  1.00  0.00     0.047 A 
ATOM      3  C   UNL     1     -21.458  24.067  12.605  1.00  0.00     0.119 A 
ATOM      4  C   UNL     1     -20.339  24.105  13.444  1.00  0.00     0.094 A 
ATOM      5  C   UNL     1     -20.451  23.719  14.785  1.00  0.00     0.142 A 
ATOM      6  C   UNL     1     -21.698  23.291  15.290  1.00  0.00     0.018 A 
ATOM      7  C   UNL     1     -21.779  22.911  16.633  1.00  0.00     0.019 A 
ATOM      8  C   UNL     1     -20.636  22.966  17.429  1.00  0.00     0.094 A 
ATOM      9  C   UNL     1     -19.434  23.400  16.861  1.00  0.00     0.336 A 
ATOM     10  O   UNL     1     -18.391  23.457  17.564  1.00  0.00    -0.246 OA
ATOM     11  O   UNL     1     -19.384  23.755  15.579  1.00  0.00    -0.423 OA
ENDROOT
BRANCH   3  12
ATOM     12  O   UNL     1     -21.331  24.455  11.273  1.00  0.00    -0.508 OA
ATOM     13  H   UNL     1     -20.840  25.302  11.012  1.00  0.00     0.293 HD
ENDBRANCH   3  12
TORSDOF 1
ENDMDL
