MODEL 1
REMARK VINA RESULT:    -5.438      0.000      0.000
REMARK INTER + INTRA:          -6.313
REMARK INTER:                  -6.233
REMARK INTRA:                  -0.080
REMARK UNBOUND:                -0.080
REMARK SMILES COc1cc(C(=O)[O-])ccc1O
REMARK SMILES IDX 5 1 9 2 4 3 10 4 3 5 11 6 6 7 7 8 8 9 2 10 1 11 12 12
REMARK H PARENT 12 13
REMARK Flexibility Score: inf
ROOT
ATOM      1  C   UNL     1      57.331   1.065  16.055  1.00  0.00     0.001 A 
ATOM      2  C   UNL     1      55.999   1.126  15.616  1.00  0.00     0.014 A 
ATOM      3  C   UNL     1      58.130  -0.027  15.672  1.00  0.00     0.060 A 
ATOM      4  C   UNL     1      55.475   0.114  14.808  1.00  0.00     0.051 A 
ATOM      5  C   UNL     1      57.605  -1.050  14.857  1.00  0.00     0.161 A 
ATOM      6  C   UNL     1      56.273  -0.972  14.428  1.00  0.00     0.157 A 
ENDROOT
BRANCH   1   7
ATOM      7  C   UNL     1      57.890   2.136  16.911  1.00  0.00     0.072 C 
ATOM      8  O   UNL     1      57.604   3.344  16.694  1.00  0.00    -0.545 OA
ATOM      9  O   UNL     1      58.738   1.825  17.968  1.00  0.00    -0.545 OA
ENDBRANCH   1   7
BRANCH   5  10
ATOM     10  O   UNL     1      58.372  -2.154  14.453  1.00  0.00    -0.493 OA
ATOM     11  C   UNL     1      59.795  -2.196  14.468  1.00  0.00     0.278 C 
ENDBRANCH   5  10
BRANCH   6  12
ATOM     12  O   UNL     1      55.748  -1.981  13.622  1.00  0.00    -0.504 OA
ATOM     13  H   UNL     1      56.145  -2.195  12.714  1.00  0.00     0.293 HD
ENDBRANCH   6  12
TORSDOF 3
ENDMDL
MODEL 2
REMARK VINA RESULT:    -5.217      2.574      3.327
REMARK INTER + INTRA:          -6.059
REMARK INTER:                  -5.981
REMARK INTRA:                  -0.079
REMARK UNBOUND:                -0.080
REMARK SMILES COc1cc(C(=O)[O-])ccc1O
REMARK SMILES IDX 5 1 9 2 4 3 10 4 3 5 11 6 6 7 7 8 8 9 2 10 1 11 12 12
REMARK H PARENT 12 13
REMARK Flexibility Score: inf
ROOT
ATOM      1  C   UNL     1      58.721   1.021  17.724  1.00  0.00     0.001 A 
ATOM      2  C   UNL     1      58.753   0.363  18.965  1.00  0.00     0.014 A 
ATOM      3  C   UNL     1      59.075   0.311  16.563  1.00  0.00     0.060 A 
ATOM      4  C   UNL     1      59.134  -0.979  19.043  1.00  0.00     0.051 A 
ATOM      5  C   UNL     1      59.460  -1.043  16.638  1.00  0.00     0.161 A 
ATOM      6  C   UNL     1      59.487  -1.682  17.885  1.00  0.00     0.157 A 
ENDROOT
BRANCH   1   7
ATOM      7  C   UNL     1      58.317   2.442  17.638  1.00  0.00     0.072 C 
ATOM      8  O   UNL     1      57.608   2.850  16.679  1.00  0.00    -0.545 OA
ATOM      9  O   UNL     1      58.713   3.349  18.615  1.00  0.00    -0.545 OA
ENDBRANCH   1   7
BRANCH   5  10
ATOM     10  O   UNL     1      59.819  -1.784  15.501  1.00  0.00    -0.493 OA
ATOM     11  C   UNL     1      59.851  -1.263  14.176  1.00  0.00     0.278 C 
ENDBRANCH   5  10
BRANCH   6  12
ATOM     12  O   UNL     1      59.866  -3.022  17.965  1.00  0.00    -0.504 OA
ATOM     13  H   UNL     1      60.777  -3.335  17.650  1.00  0.00     0.293 HD
ENDBRANCH   6  12
TORSDOF 3
ENDMDL
MODEL 3
REMARK VINA RESULT:    -5.189      2.768      4.319
REMARK INTER + INTRA:          -6.028
REMARK INTER:                  -5.935
REMARK INTRA:                  -0.093
REMARK UNBOUND:                -0.080
REMARK SMILES COc1cc(C(=O)[O-])ccc1O
REMARK SMILES IDX 5 1 9 2 4 3 10 4 3 5 11 6 6 7 7 8 8 9 2 10 1 11 12 12
REMARK H PARENT 12 13
REMARK Flexibility Score: inf
ROOT
ATOM      1  C   UNL     1      58.134   0.765  18.409  1.00  0.00     0.001 A 
ATOM      2  C   UNL     1      58.422   2.021  18.968  1.00  0.00     0.014 A 
ATOM      3  C   UNL     1      57.788   0.684  17.049  1.00  0.00     0.060 A 
ATOM      4  C   UNL     1      58.365   3.174  18.181  1.00  0.00     0.051 A 
ATOM      5  C   UNL     1      57.729   1.845  16.251  1.00  0.00     0.161 A 
ATOM      6  C   UNL     1      58.019   3.089  16.827  1.00  0.00     0.157 A 
ENDROOT
BRANCH   1   7
ATOM      7  C   UNL     1      58.194  -0.458  19.240  1.00  0.00     0.072 C 
ATOM      8  O   UNL     1      57.349  -0.655  20.153  1.00  0.00    -0.545 OA
ATOM      9  O   UNL     1      59.184  -1.410  19.024  1.00  0.00    -0.545 OA
ENDBRANCH   1   7
BRANCH   5  10
ATOM     10  O   UNL     1      57.388   1.802  14.891  1.00  0.00    -0.493 OA
ATOM     11  C   UNL     1      58.143   1.126  13.891  1.00  0.00     0.278 C 
ENDBRANCH   5  10
BRANCH   6  12
ATOM     12  O   UNL     1      57.963   4.241  16.043  1.00  0.00    -0.504 OA
ATOM     13  H   UNL     1      57.508   5.085  16.372  1.00  0.00     0.293 HD
ENDBRANCH   6  12
TORSDOF 3
ENDMDL
MODEL 4
REMARK VINA RESULT:    -5.177      1.375      1.662
REMARK INTER + INTRA:          -6.013
REMARK INTER:                  -5.931
REMARK INTRA:                  -0.082
REMARK UNBOUND:                -0.080
REMARK SMILES COc1cc(C(=O)[O-])ccc1O
REMARK SMILES IDX 5 1 9 2 4 3 10 4 3 5 11 6 6 7 7 8 8 9 2 10 1 11 12 12
REMARK H PARENT 12 13
REMARK Flexibility Score: inf
ROOT
ATOM      1  C   UNL     1      57.205  -0.121  16.635  1.00  0.00     0.001 A 
ATOM      2  C   UNL     1      56.243   0.488  15.813  1.00  0.00     0.014 A 
ATOM      3  C   UNL     1      57.598  -1.444  16.364  1.00  0.00     0.060 A 
ATOM      4  C   UNL     1      55.685  -0.211  14.741  1.00  0.00     0.051 A 
ATOM      5  C   UNL     1      57.037  -2.154  15.283  1.00  0.00     0.161 A 
ATOM      6  C   UNL     1      56.078  -1.528  14.474  1.00  0.00     0.157 A 
ENDROOT
BRANCH   1   7
ATOM      7  C   UNL     1      57.799   0.617  17.772  1.00  0.00     0.072 C 
ATOM      8  O   UNL     1      57.634   0.214  18.955  1.00  0.00    -0.545 OA
ATOM      9  O   UNL     1      58.550   1.766  17.552  1.00  0.00    -0.545 OA
ENDBRANCH   1   7
BRANCH   5  10
ATOM     10  O   UNL     1      57.406  -3.474  14.982  1.00  0.00    -0.493 OA
ATOM     11  C   UNL     1      58.738  -3.974  15.045  1.00  0.00     0.278 C 
ENDBRANCH   5  10
BRANCH   6  12
ATOM     12  O   UNL     1      55.521  -2.225  13.403  1.00  0.00    -0.504 OA
ATOM     13  H   UNL     1      54.541  -2.488  13.393  1.00  0.00     0.293 HD
ENDBRANCH   6  12
TORSDOF 3
ENDMDL
MODEL 5
REMARK VINA RESULT:    -5.101      1.934      4.467
REMARK INTER + INTRA:          -5.926
REMARK INTER:                  -5.827
REMARK INTRA:                  -0.099
REMARK UNBOUND:                -0.080
REMARK SMILES COc1cc(C(=O)[O-])ccc1O
REMARK SMILES IDX 5 1 9 2 4 3 10 4 3 5 11 6 6 7 7 8 8 9 2 10 1 11 12 12
REMARK H PARENT 12 13
REMARK Flexibility Score: inf
ROOT
ATOM      1  C   UNL     1      58.115   0.907  15.423  1.00  0.00     0.001 A 
ATOM      2  C   UNL     1      57.631   2.220  15.535  1.00  0.00     0.014 A 
ATOM      3  C   UNL     1      58.691   0.291  16.548  1.00  0.00     0.060 A 
ATOM      4  C   UNL     1      57.721   2.905  16.749  1.00  0.00     0.051 A 
ATOM      5  C   UNL     1      58.784   0.978  17.775  1.00  0.00     0.161 A 
ATOM      6  C   UNL     1      58.295   2.288  17.868  1.00  0.00     0.157 A 
ENDROOT
BRANCH   1   7
ATOM      7  C   UNL     1      58.021   0.178  14.138  1.00  0.00     0.072 C 
ATOM      8  O   UNL     1      58.247   0.769  13.048  1.00  0.00    -0.545 OA
ATOM      9  O   UNL     1      57.683  -1.171  14.114  1.00  0.00    -0.545 OA
ENDBRANCH   1   7
BRANCH   5  10
ATOM     10  O   UNL     1      59.351   0.395  18.920  1.00  0.00    -0.493 OA
ATOM     11  C   UNL     1      58.745  -0.647  19.678  1.00  0.00     0.278 C 
ENDBRANCH   5  10
BRANCH   6  12
ATOM     12  O   UNL     1      58.384   2.973  19.079  1.00  0.00    -0.504 OA
ATOM     13  H   UNL     1      58.848   2.568  19.884  1.00  0.00     0.293 HD
ENDBRANCH   6  12
TORSDOF 3
ENDMDL
MODEL 6
REMARK VINA RESULT:    -5.065      3.167      4.862
REMARK INTER + INTRA:          -5.885
REMARK INTER:                  -5.813
REMARK INTRA:                  -0.073
REMARK UNBOUND:                -0.080
REMARK SMILES COc1cc(C(=O)[O-])ccc1O
REMARK SMILES IDX 5 1 9 2 4 3 10 4 3 5 11 6 6 7 7 8 8 9 2 10 1 11 12 12
REMARK H PARENT 12 13
REMARK Flexibility Score: inf
ROOT
ATOM      1  C   UNL     1      58.983  -2.789  14.791  1.00  0.00     0.001 A 
ATOM      2  C   UNL     1      59.883  -3.867  14.795  1.00  0.00     0.014 A 
ATOM      3  C   UNL     1      57.604  -3.049  14.711  1.00  0.00     0.060 A 
ATOM      4  C   UNL     1      59.413  -5.180  14.721  1.00  0.00     0.051 A 
ATOM      5  C   UNL     1      57.125  -4.373  14.636  1.00  0.00     0.161 A 
ATOM      6  C   UNL     1      58.039  -5.435  14.641  1.00  0.00     0.157 A 
ENDROOT
BRANCH   1   7
ATOM      7  C   UNL     1      59.478  -1.396  14.870  1.00  0.00     0.072 C 
ATOM      8  O   UNL     1      60.409  -1.003  14.118  1.00  0.00    -0.545 OA
ATOM      9  O   UNL     1      58.921  -0.500  15.776  1.00  0.00    -0.545 OA
ENDBRANCH   1   7
BRANCH   5  10
ATOM     10  O   UNL     1      55.756  -4.671  14.557  1.00  0.00    -0.493 OA
ATOM     11  C   UNL     1      54.910  -4.882  15.682  1.00  0.00     0.278 C 
ENDBRANCH   5  10
BRANCH   6  12
ATOM     12  O   UNL     1      57.571  -6.747  14.567  1.00  0.00    -0.504 OA
ATOM     13  H   UNL     1      57.218  -7.136  13.700  1.00  0.00     0.293 HD
ENDBRANCH   6  12
TORSDOF 3
ENDMDL
MODEL 7
REMARK VINA RESULT:    -5.023      1.703      3.998
REMARK INTER + INTRA:          -5.837
REMARK INTER:                  -5.756
REMARK INTRA:                  -0.081
REMARK UNBOUND:                -0.080
REMARK SMILES COc1cc(C(=O)[O-])ccc1O
REMARK SMILES IDX 5 1 9 2 4 3 10 4 3 5 11 6 6 7 7 8 8 9 2 10 1 11 12 12
REMARK H PARENT 12 13
REMARK Flexibility Score: inf
ROOT
ATOM      1  C   UNL     1      58.506  -0.441  14.688  1.00  0.00     0.001 A 
ATOM      2  C   UNL     1      57.348  -1.095  14.235  1.00  0.00     0.014 A 
ATOM      3  C   UNL     1      58.375   0.755  15.416  1.00  0.00     0.060 A 
ATOM      4  C   UNL     1      56.085  -0.564  14.506  1.00  0.00     0.051 A 
ATOM      5  C   UNL     1      57.103   1.294  15.692  1.00  0.00     0.161 A 
ATOM      6  C   UNL     1      55.959   0.627  15.231  1.00  0.00     0.157 A 
ENDROOT
BRANCH   1   7
ATOM      7  C   UNL     1      59.846  -1.001  14.403  1.00  0.00     0.072 C 
ATOM      8  O   UNL     1      60.010  -2.245  14.291  1.00  0.00    -0.545 OA
ATOM      9  O   UNL     1      60.945  -0.162  14.253  1.00  0.00    -0.545 OA
ENDBRANCH   1   7
BRANCH   5  10
ATOM     10  O   UNL     1      56.934   2.484  16.417  1.00  0.00    -0.493 OA
ATOM     11  C   UNL     1      57.954   3.110  17.189  1.00  0.00     0.278 C 
ENDBRANCH   5  10
BRANCH   6  12
ATOM     12  O   UNL     1      54.698   1.155  15.501  1.00  0.00    -0.504 OA
ATOM     13  H   UNL     1      54.193   0.918  16.348  1.00  0.00     0.293 HD
ENDBRANCH   6  12
TORSDOF 3
ENDMDL
MODEL 8
REMARK VINA RESULT:    -5.000      1.630      1.942
REMARK INTER + INTRA:          -5.810
REMARK INTER:                  -5.712
REMARK INTRA:                  -0.098
REMARK UNBOUND:                -0.080
REMARK SMILES COc1cc(C(=O)[O-])ccc1O
REMARK SMILES IDX 5 1 9 2 4 3 10 4 3 5 11 6 6 7 7 8 8 9 2 10 1 11 12 12
REMARK H PARENT 12 13
REMARK Flexibility Score: inf
ROOT
ATOM      1  C   UNL     1      57.611   1.382  16.545  1.00  0.00     0.001 A 
ATOM      2  C   UNL     1      56.781   0.314  16.923  1.00  0.00     0.014 A 
ATOM      3  C   UNL     1      58.016   1.493  15.203  1.00  0.00     0.060 A 
ATOM      4  C   UNL     1      56.365  -0.625  15.978  1.00  0.00     0.051 A 
ATOM      5  C   UNL     1      57.598   0.546  14.246  1.00  0.00     0.161 A 
ATOM      6  C   UNL     1      56.770  -0.513  14.642  1.00  0.00     0.157 A 
ENDROOT
BRANCH   1   7
ATOM      7  C   UNL     1      58.054   2.381  17.544  1.00  0.00     0.072 C 
ATOM      8  O   UNL     1      58.690   2.021  18.571  1.00  0.00    -0.545 OA
ATOM      9  O   UNL     1      57.776   3.731  17.364  1.00  0.00    -0.545 OA
ENDBRANCH   1   7
BRANCH   5  10
ATOM     10  O   UNL     1      57.981   0.625  12.898  1.00  0.00    -0.493 OA
ATOM     11  C   UNL     1      59.244   0.204  12.393  1.00  0.00     0.278 C 
ENDBRANCH   5  10
BRANCH   6  12
ATOM     12  O   UNL     1      56.353  -1.452  13.700  1.00  0.00    -0.504 OA
ATOM     13  H   UNL     1      56.299  -2.439  13.923  1.00  0.00     0.293 HD
ENDBRANCH   6  12
TORSDOF 3
ENDMDL
