MODEL 1
REMARK VINA RESULT:    -3.929      0.000      0.000
REMARK INTER + INTRA:          -6.821
REMARK INTER:                  -6.225
REMARK INTRA:                  -0.596
REMARK UNBOUND:                -0.596
REMARK SMILES CCCCCCCCCCCC(=O)[O-]
REMARK SMILES IDX 7 1 8 2 9 3 10 4 11 5 12 6 13 7 14 8 6 9 5 10 4 11 3 12 2 13
REMARK SMILES IDX 1 14
REMARK H PARENT
REMARK Flexibility Score: inf
ROOT
ATOM      1  C   UNL     1      -7.728  -7.296  -0.059  1.00  0.00     0.000 C 
ENDROOT
BRANCH   1   2
ATOM      2  C   UNL     1      -6.445  -6.576   0.376  1.00  0.00     0.000 C 
BRANCH   2   3
ATOM      3  C   UNL     1      -6.763  -5.377   1.276  1.00  0.00     0.000 C 
BRANCH   3   4
ATOM      4  C   UNL     1      -8.093  -5.583   2.017  1.00  0.00     0.006 C 
BRANCH   4   5
ATOM      5  C   UNL     1      -8.702  -4.259   2.496  1.00  0.00     0.053 C 
BRANCH   5   6
ATOM      6  C   UNL     1     -10.200  -4.309   2.513  1.00  0.00     0.041 C 
ATOM      7  O   UNL     1     -10.871  -3.376   2.000  1.00  0.00    -0.550 OA
ATOM      8  O   UNL     1     -10.853  -5.372   3.125  1.00  0.00    -0.550 OA
ENDBRANCH   5   6
ENDBRANCH   4   5
ENDBRANCH   3   4
ENDBRANCH   2   3
ENDBRANCH   1   2
BRANCH   1   9
ATOM      9  C   UNL     1      -7.496  -8.805  -0.187  1.00  0.00     0.000 C 
BRANCH   9  10
ATOM     10  C   UNL     1      -6.906  -9.385   1.105  1.00  0.00    -0.000 C 
BRANCH  10  11
ATOM     11  C   UNL     1      -5.690 -10.273   0.804  1.00  0.00    -0.000 C 
BRANCH  11  12
ATOM     12  C   UNL     1      -5.974 -11.315  -0.289  1.00  0.00    -0.000 C 
BRANCH  12  13
ATOM     13  C   UNL     1      -5.151 -12.599  -0.111  1.00  0.00    -0.003 C 
ATOM     14  C   UNL     1      -6.000 -13.717   0.490  1.00  0.00     0.004 C 
ENDBRANCH  12  13
ENDBRANCH  11  12
ENDBRANCH  10  11
ENDBRANCH   9  10
ENDBRANCH   1   9
TORSDOF 10
ENDMDL
MODEL 2
REMARK VINA RESULT:    -3.923      3.680      7.421
REMARK INTER + INTRA:          -6.811
REMARK INTER:                  -6.232
REMARK INTRA:                  -0.580
REMARK UNBOUND:                -0.596
REMARK SMILES CCCCCCCCCCCC(=O)[O-]
REMARK SMILES IDX 7 1 8 2 9 3 10 4 11 5 12 6 13 7 14 8 6 9 5 10 4 11 3 12 2 13
REMARK SMILES IDX 1 14
REMARK H PARENT
REMARK Flexibility Score: inf
ROOT
ATOM      1  C   UNL     1      -7.508  -8.177  -0.336  1.00  0.00     0.000 C 
ENDROOT
BRANCH   1   2
ATOM      2  C   UNL     1      -7.054  -9.380   0.501  1.00  0.00     0.000 C 
BRANCH   2   3
ATOM      3  C   UNL     1      -6.702 -10.572  -0.395  1.00  0.00     0.000 C 
BRANCH   3   4
ATOM      4  C   UNL     1      -5.387 -11.229   0.054  1.00  0.00     0.006 C 
BRANCH   4   5
ATOM      5  C   UNL     1      -5.496 -12.757   0.125  1.00  0.00     0.053 C 
BRANCH   5   6
ATOM      6  C   UNL     1      -6.051 -13.216   1.439  1.00  0.00     0.041 C 
ATOM      7  O   UNL     1      -6.605 -14.342   1.534  1.00  0.00    -0.550 OA
ATOM      8  O   UNL     1      -5.987 -12.384   2.549  1.00  0.00    -0.550 OA
ENDBRANCH   5   6
ENDBRANCH   4   5
ENDBRANCH   3   4
ENDBRANCH   2   3
ENDBRANCH   1   2
BRANCH   1   9
ATOM      9  C   UNL     1      -7.223  -6.860   0.393  1.00  0.00     0.000 C 
BRANCH   9  10
ATOM     10  C   UNL     1      -7.026  -7.092   1.896  1.00  0.00    -0.000 C 
BRANCH  10  11
ATOM     11  C   UNL     1      -8.137  -6.410   2.708  1.00  0.00    -0.000 C 
BRANCH  11  12
ATOM     12  C   UNL     1      -8.847  -5.297   1.922  1.00  0.00    -0.000 C 
BRANCH  12  13
ATOM     13  C   UNL     1     -10.151  -4.839   2.590  1.00  0.00    -0.003 C 
ATOM     14  C   UNL     1     -11.174  -4.391   1.550  1.00  0.00     0.004 C 
ENDBRANCH  12  13
ENDBRANCH  11  12
ENDBRANCH  10  11
ENDBRANCH   9  10
ENDBRANCH   1   9
TORSDOF 10
ENDMDL
MODEL 3
REMARK VINA RESULT:    -3.879      1.573      2.363
REMARK INTER + INTRA:          -6.743
REMARK INTER:                  -5.911
REMARK INTRA:                  -0.832
REMARK UNBOUND:                -0.596
REMARK SMILES CCCCCCCCCCCC(=O)[O-]
REMARK SMILES IDX 7 1 8 2 9 3 10 4 11 5 12 6 13 7 14 8 6 9 5 10 4 11 3 12 2 13
REMARK SMILES IDX 1 14
REMARK H PARENT
REMARK Flexibility Score: inf
ROOT
ATOM      1  C   UNL     1      -7.399  -9.605   0.328  1.00  0.00     0.000 C 
ENDROOT
BRANCH   1   2
ATOM      2  C   UNL     1      -7.620  -8.379  -0.568  1.00  0.00     0.000 C 
BRANCH   2   3
ATOM      3  C   UNL     1      -7.137  -7.099   0.123  1.00  0.00     0.000 C 
BRANCH   3   4
ATOM      4  C   UNL     1      -6.763  -7.371   1.588  1.00  0.00     0.006 C 
BRANCH   4   5
ATOM      5  C   UNL     1      -7.791  -6.791   2.567  1.00  0.00     0.053 C 
BRANCH   5   6
ATOM      6  C   UNL     1      -8.136  -5.371   2.236  1.00  0.00     0.041 C 
ATOM      7  O   UNL     1      -7.252  -4.476   2.286  1.00  0.00    -0.550 OA
ATOM      8  O   UNL     1      -9.442  -5.031   1.904  1.00  0.00    -0.550 OA
ENDBRANCH   5   6
ENDBRANCH   4   5
ENDBRANCH   3   4
ENDBRANCH   2   3
ENDBRANCH   1   2
BRANCH   1   9
ATOM      9  C   UNL     1      -6.470 -10.620  -0.347  1.00  0.00     0.000 C 
BRANCH   9  10
ATOM     10  C   UNL     1      -5.390 -11.111   0.625  1.00  0.00    -0.000 C 
BRANCH  10  11
ATOM     11  C   UNL     1      -5.972 -11.331   2.029  1.00  0.00    -0.000 C 
BRANCH  11  12
ATOM     12  C   UNL     1      -6.354 -12.796   2.289  1.00  0.00    -0.000 C 
BRANCH  12  13
ATOM     13  C   UNL     1      -5.588 -13.776   1.388  1.00  0.00    -0.003 C 
ATOM     14  C   UNL     1      -6.541 -14.756   0.708  1.00  0.00     0.004 C 
ENDBRANCH  12  13
ENDBRANCH  11  12
ENDBRANCH  10  11
ENDBRANCH   9  10
ENDBRANCH   1   9
TORSDOF 10
ENDMDL
MODEL 4
REMARK VINA RESULT:    -3.856     19.459     20.534
REMARK INTER + INTRA:          -6.706
REMARK INTER:                  -5.555
REMARK INTRA:                  -1.151
REMARK UNBOUND:                -0.596
REMARK SMILES CCCCCCCCCCCC(=O)[O-]
REMARK SMILES IDX 7 1 8 2 9 3 10 4 11 5 12 6 13 7 14 8 6 9 5 10 4 11 3 12 2 13
REMARK SMILES IDX 1 14
REMARK H PARENT
REMARK Flexibility Score: inf
ROOT
ATOM      1  C   UNL     1     -19.632  -4.600 -15.209  1.00  0.00     0.000 C 
ENDROOT
BRANCH   1   2
ATOM      2  C   UNL     1     -19.613  -3.110 -15.574  1.00  0.00     0.000 C 
BRANCH   2   3
ATOM      3  C   UNL     1     -21.036  -2.570 -15.757  1.00  0.00     0.000 C 
BRANCH   3   4
ATOM      4  C   UNL     1     -21.577  -1.986 -14.443  1.00  0.00     0.006 C 
BRANCH   4   5
ATOM      5  C   UNL     1     -22.802  -2.752 -13.928  1.00  0.00     0.053 C 
BRANCH   5   6
ATOM      6  C   UNL     1     -22.435  -3.731 -12.854  1.00  0.00     0.041 C 
ATOM      7  O   UNL     1     -21.332  -3.629 -12.254  1.00  0.00    -0.550 OA
ATOM      8  O   UNL     1     -23.296  -4.774 -12.539  1.00  0.00    -0.550 OA
ENDBRANCH   5   6
ENDBRANCH   4   5
ENDBRANCH   3   4
ENDBRANCH   2   3
ENDBRANCH   1   2
BRANCH   1   9
ATOM      9  C   UNL     1     -20.758  -5.334 -15.946  1.00  0.00     0.000 C 
BRANCH   9  10
ATOM     10  C   UNL     1     -21.257  -6.535 -15.134  1.00  0.00    -0.000 C 
BRANCH  10  11
ATOM     11  C   UNL     1     -20.160  -7.059 -14.196  1.00  0.00    -0.000 C 
BRANCH  11  12
ATOM     12  C   UNL     1     -20.597  -7.071 -12.722  1.00  0.00    -0.000 C 
BRANCH  12  13
ATOM     13  C   UNL     1     -20.587  -8.480 -12.113  1.00  0.00    -0.003 C 
ATOM     14  C   UNL     1     -20.121  -9.516 -13.133  1.00  0.00     0.004 C 
ENDBRANCH  12  13
ENDBRANCH  11  12
ENDBRANCH  10  11
ENDBRANCH   9  10
ENDBRANCH   1   9
TORSDOF 10
ENDMDL
MODEL 5
REMARK VINA RESULT:    -3.831      3.535      6.286
REMARK INTER + INTRA:          -6.666
REMARK INTER:                  -6.258
REMARK INTRA:                  -0.408
REMARK UNBOUND:                -0.596
REMARK SMILES CCCCCCCCCCCC(=O)[O-]
REMARK SMILES IDX 7 1 8 2 9 3 10 4 11 5 12 6 13 7 14 8 6 9 5 10 4 11 3 12 2 13
REMARK SMILES IDX 1 14
REMARK H PARENT
REMARK Flexibility Score: inf
ROOT
ATOM      1  C   UNL     1      -6.022 -13.057   1.623  1.00  0.00     0.000 C 
ENDROOT
BRANCH   1   2
ATOM      2  C   UNL     1      -5.439 -13.050   0.205  1.00  0.00     0.000 C 
BRANCH   2   3
ATOM      3  C   UNL     1      -5.082 -11.627  -0.238  1.00  0.00     0.000 C 
BRANCH   3   4
ATOM      4  C   UNL     1      -6.342 -10.755  -0.357  1.00  0.00     0.006 C 
BRANCH   4   5
ATOM      5  C   UNL     1      -6.268  -9.503   0.526  1.00  0.00     0.053 C 
BRANCH   5   6
ATOM      6  C   UNL     1      -6.961  -8.335  -0.105  1.00  0.00     0.041 C 
ATOM      7  O   UNL     1      -8.135  -8.456  -0.543  1.00  0.00    -0.550 OA
ATOM      8  O   UNL     1      -6.297  -7.122  -0.240  1.00  0.00    -0.550 OA
ENDBRANCH   5   6
ENDBRANCH   4   5
ENDBRANCH   3   4
ENDBRANCH   2   3
ENDBRANCH   1   2
BRANCH   1   9
ATOM      9  C   UNL     1      -6.362 -14.483   2.072  1.00  0.00     0.000 C 
BRANCH   9  10
ATOM     10  C   UNL     1      -6.704 -15.372   0.870  1.00  0.00    -0.000 C 
BRANCH  10  11
ATOM     11  C   UNL     1      -5.881 -16.669   0.894  1.00  0.00    -0.000 C 
BRANCH  11  12
ATOM     12  C   UNL     1      -6.760 -17.929   0.855  1.00  0.00    -0.000 C 
BRANCH  12  13
ATOM     13  C   UNL     1      -6.150 -19.050   0.001  1.00  0.00    -0.003 C 
ATOM     14  C   UNL     1      -7.228 -20.007  -0.500  1.00  0.00     0.004 C 
ENDBRANCH  12  13
ENDBRANCH  11  12
ENDBRANCH  10  11
ENDBRANCH   9  10
ENDBRANCH   1   9
TORSDOF 10
ENDMDL
MODEL 6
REMARK VINA RESULT:    -3.790     20.292     21.493
REMARK INTER + INTRA:          -6.601
REMARK INTER:                  -5.547
REMARK INTRA:                  -1.053
REMARK UNBOUND:                -0.596
REMARK SMILES CCCCCCCCCCCC(=O)[O-]
REMARK SMILES IDX 7 1 8 2 9 3 10 4 11 5 12 6 13 7 14 8 6 9 5 10 4 11 3 12 2 13
REMARK SMILES IDX 1 14
REMARK H PARENT
REMARK Flexibility Score: inf
ROOT
ATOM      1  C   UNL     1     -22.118  -4.063 -12.648  1.00  0.00     0.000 C 
ENDROOT
BRANCH   1   2
ATOM      2  C   UNL     1     -23.557  -3.956 -13.169  1.00  0.00     0.000 C 
BRANCH   2   3
ATOM      3  C   UNL     1     -23.584  -3.863 -14.698  1.00  0.00     0.000 C 
BRANCH   3   4
ATOM      4  C   UNL     1     -23.839  -5.240 -15.329  1.00  0.00     0.006 C 
BRANCH   4   5
ATOM      5  C   UNL     1     -23.087  -5.421 -16.654  1.00  0.00     0.053 C 
BRANCH   5   6
ATOM      6  C   UNL     1     -22.139  -6.581 -16.602  1.00  0.00     0.041 C 
ATOM      7  O   UNL     1     -20.941  -6.436 -16.960  1.00  0.00    -0.550 OA
ATOM      8  O   UNL     1     -22.590  -7.829 -16.191  1.00  0.00    -0.550 OA
ENDBRANCH   5   6
ENDBRANCH   4   5
ENDBRANCH   3   4
ENDBRANCH   2   3
ENDBRANCH   1   2
BRANCH   1   9
ATOM      9  C   UNL     1     -21.112  -3.603 -13.710  1.00  0.00     0.000 C 
BRANCH   9  10
ATOM     10  C   UNL     1     -20.004  -4.644 -13.908  1.00  0.00    -0.000 C 
BRANCH  10  11
ATOM     11  C   UNL     1     -20.141  -5.793 -12.897  1.00  0.00    -0.000 C 
BRANCH  11  12
ATOM     12  C   UNL     1     -20.194  -7.172 -13.572  1.00  0.00    -0.000 C 
BRANCH  12  13
ATOM     13  C   UNL     1     -20.668  -8.279 -12.620  1.00  0.00    -0.003 C 
ATOM     14  C   UNL     1     -20.145  -9.644 -13.060  1.00  0.00     0.004 C 
ENDBRANCH  12  13
ENDBRANCH  11  12
ENDBRANCH  10  11
ENDBRANCH   9  10
ENDBRANCH   1   9
TORSDOF 10
ENDMDL
MODEL 7
REMARK VINA RESULT:    -3.789     19.834     20.975
REMARK INTER + INTRA:          -6.600
REMARK INTER:                  -5.442
REMARK INTRA:                  -1.158
REMARK UNBOUND:                -0.596
REMARK SMILES CCCCCCCCCCCC(=O)[O-]
REMARK SMILES IDX 7 1 8 2 9 3 10 4 11 5 12 6 13 7 14 8 6 9 5 10 4 11 3 12 2 13
REMARK SMILES IDX 1 14
REMARK H PARENT
REMARK Flexibility Score: inf
ROOT
ATOM      1  C   UNL     1     -21.779  -5.190 -16.119  1.00  0.00     0.000 C 
ENDROOT
BRANCH   1   2
ATOM      2  C   UNL     1     -23.041  -5.577 -15.338  1.00  0.00     0.000 C 
BRANCH   2   3
ATOM      3  C   UNL     1     -24.043  -4.418 -15.301  1.00  0.00     0.000 C 
BRANCH   3   4
ATOM      4  C   UNL     1     -24.700  -4.302 -13.917  1.00  0.00     0.006 C 
BRANCH   4   5
ATOM      5  C   UNL     1     -23.669  -4.315 -12.782  1.00  0.00     0.053 C 
BRANCH   5   6
ATOM      6  C   UNL     1     -23.151  -2.941 -12.484  1.00  0.00     0.041 C 
ATOM      7  O   UNL     1     -23.832  -1.927 -12.789  1.00  0.00    -0.550 OA
ATOM      8  O   UNL     1     -21.900  -2.780 -11.902  1.00  0.00    -0.550 OA
ENDBRANCH   5   6
ENDBRANCH   4   5
ENDBRANCH   3   4
ENDBRANCH   2   3
ENDBRANCH   1   2
BRANCH   1   9
ATOM      9  C   UNL     1     -20.761  -4.492 -15.210  1.00  0.00     0.000 C 
BRANCH   9  10
ATOM     10  C   UNL     1     -19.855  -5.513 -14.511  1.00  0.00    -0.000 C 
BRANCH  10  11
ATOM     11  C   UNL     1     -20.232  -5.659 -13.029  1.00  0.00    -0.000 C 
BRANCH  11  12
ATOM     12  C   UNL     1     -20.607  -7.101 -12.654  1.00  0.00    -0.000 C 
BRANCH  12  13
ATOM     13  C   UNL     1     -19.961  -8.142 -13.579  1.00  0.00    -0.003 C 
ATOM     14  C   UNL     1     -20.112  -9.551 -13.013  1.00  0.00     0.004 C 
ENDBRANCH  12  13
ENDBRANCH  11  12
ENDBRANCH  10  11
ENDBRANCH   9  10
ENDBRANCH   1   9
TORSDOF 10
ENDMDL
MODEL 8
REMARK VINA RESULT:    -3.766     19.939     21.133
REMARK INTER + INTRA:          -6.563
REMARK INTER:                  -5.311
REMARK INTRA:                  -1.251
REMARK UNBOUND:                -0.596
REMARK SMILES CCCCCCCCCCCC(=O)[O-]
REMARK SMILES IDX 7 1 8 2 9 3 10 4 11 5 12 6 13 7 14 8 6 9 5 10 4 11 3 12 2 13
REMARK SMILES IDX 1 14
REMARK H PARENT
REMARK Flexibility Score: inf
ROOT
ATOM      1  C   UNL     1     -22.666  -4.724 -12.682  1.00  0.00     0.000 C 
ENDROOT
BRANCH   1   2
ATOM      2  C   UNL     1     -23.584  -4.150 -13.769  1.00  0.00     0.000 C 
BRANCH   2   3
ATOM      3  C   UNL     1     -23.165  -4.640 -15.159  1.00  0.00     0.000 C 
BRANCH   3   4
ATOM      4  C   UNL     1     -22.839  -3.458 -16.085  1.00  0.00     0.006 C 
BRANCH   4   5
ATOM      5  C   UNL     1     -21.461  -3.600 -16.744  1.00  0.00     0.053 C 
BRANCH   5   6
ATOM      6  C   UNL     1     -20.433  -2.738 -16.076  1.00  0.00     0.041 C 
ATOM      7  O   UNL     1     -20.788  -1.735 -15.404  1.00  0.00    -0.550 OA
ATOM      8  O   UNL     1     -19.082  -3.025 -16.224  1.00  0.00    -0.550 OA
ENDBRANCH   5   6
ENDBRANCH   4   5
ENDBRANCH   3   4
ENDBRANCH   2   3
ENDBRANCH   1   2
BRANCH   1   9
ATOM      9  C   UNL     1     -21.238  -4.187 -12.827  1.00  0.00     0.000 C 
BRANCH   9  10
ATOM     10  C   UNL     1     -20.212  -5.326 -12.769  1.00  0.00    -0.000 C 
BRANCH  10  11
ATOM     11  C   UNL     1     -19.916  -5.871 -14.174  1.00  0.00    -0.000 C 
BRANCH  11  12
ATOM     12  C   UNL     1     -20.218  -7.373 -14.302  1.00  0.00    -0.000 C 
BRANCH  12  13
ATOM     13  C   UNL     1     -20.501  -8.037 -12.947  1.00  0.00    -0.003 C 
ATOM     14  C   UNL     1     -20.132  -9.518 -12.973  1.00  0.00     0.004 C 
ENDBRANCH  12  13
ENDBRANCH  11  12
ENDBRANCH  10  11
ENDBRANCH   9  10
ENDBRANCH   1   9
TORSDOF 10
ENDMDL
MODEL 9
REMARK VINA RESULT:    -3.686     20.123     21.242
REMARK INTER + INTRA:          -6.436
REMARK INTER:                  -5.240
REMARK INTRA:                  -1.197
REMARK UNBOUND:                -0.596
REMARK SMILES CCCCCCCCCCCC(=O)[O-]
REMARK SMILES IDX 7 1 8 2 9 3 10 4 11 5 12 6 13 7 14 8 6 9 5 10 4 11 3 12 2 13
REMARK SMILES IDX 1 14
REMARK H PARENT
REMARK Flexibility Score: inf
ROOT
ATOM      1  C   UNL     1     -23.466  -5.703 -15.542  1.00  0.00     0.000 C 
ENDROOT
BRANCH   1   2
ATOM      2  C   UNL     1     -24.166  -4.399 -15.139  1.00  0.00     0.000 C 
BRANCH   2   3
ATOM      3  C   UNL     1     -24.274  -4.280 -13.615  1.00  0.00     0.000 C 
BRANCH   3   4
ATOM      4  C   UNL     1     -22.970  -4.724 -12.935  1.00  0.00     0.006 C 
BRANCH   4   5
ATOM      5  C   UNL     1     -22.146  -3.534 -12.426  1.00  0.00     0.053 C 
BRANCH   5   6
ATOM      6  C   UNL     1     -21.353  -2.896 -13.526  1.00  0.00     0.041 C 
ATOM      7  O   UNL     1     -21.596  -1.711 -13.876  1.00  0.00    -0.550 OA
ATOM      8  O   UNL     1     -20.370  -3.621 -14.187  1.00  0.00    -0.550 OA
ENDBRANCH   5   6
ENDBRANCH   4   5
ENDBRANCH   3   4
ENDBRANCH   2   3
ENDBRANCH   1   2
BRANCH   1   9
ATOM      9  C   UNL     1     -22.319  -5.432 -16.522  1.00  0.00     0.000 C 
BRANCH   9  10
ATOM     10  C   UNL     1     -21.124  -6.351 -16.240  1.00  0.00    -0.000 C 
BRANCH  10  11
ATOM     11  C   UNL     1     -21.388  -7.236 -15.013  1.00  0.00    -0.000 C 
BRANCH  11  12
ATOM     12  C   UNL     1     -20.263  -7.154 -13.970  1.00  0.00    -0.000 C 
BRANCH  12  13
ATOM     13  C   UNL     1     -20.532  -8.031 -12.739  1.00  0.00    -0.003 C 
ATOM     14  C   UNL     1     -20.151  -9.485 -13.006  1.00  0.00     0.004 C 
ENDBRANCH  12  13
ENDBRANCH  11  12
ENDBRANCH  10  11
ENDBRANCH   9  10
ENDBRANCH   1   9
TORSDOF 10
ENDMDL
