MODEL 1
REMARK VINA RESULT:    -3.580      0.000      0.000
REMARK INTER + INTRA:          -5.194
REMARK INTER:                  -4.731
REMARK INTRA:                  -0.463
REMARK UNBOUND:                -0.463
REMARK SMILES C=CCC[C@H](O)CCC
REMARK SMILES IDX 4 1 5 2 7 3 8 4 9 5 6 6 3 8 2 9 1 10
REMARK H PARENT 6 7
REMARK Flexibility Score: inf
ROOT
ATOM      1  C   UNL     1     180.034 181.543 184.587  1.00  0.00     0.036 C 
ENDROOT
BRANCH   1   2
ATOM      2  C   UNL     1     179.652 180.567 183.455  1.00  0.00     0.114 C 
BRANCH   2   3
ATOM      3  C   UNL     1     179.776 179.086 183.885  1.00  0.00     0.031 C 
BRANCH   3   4
ATOM      4  C   UNL     1     181.084 178.373 183.489  1.00  0.00    -0.001 C 
ATOM      5  C   UNL     1     181.131 176.905 183.914  1.00  0.00     0.004 C 
ENDBRANCH   3   4
ENDBRANCH   2   3
BRANCH   2   6
ATOM      6  O   UNL     1     178.352 180.849 183.002  1.00  0.00    -0.393 OA
ATOM      7  H   UNL     1     177.803 181.045 183.806  1.00  0.00     0.210 HD
ENDBRANCH   2   6
ENDBRANCH   1   2
BRANCH   1   8
ATOM      8  C   UNL     1     179.827 180.940 185.986  1.00  0.00     0.029 C 
BRANCH   8   9
ATOM      9  C   UNL     1     181.086 180.951 186.811  1.00  0.00    -0.035 C 
ATOM     10  C   UNL     1     181.977 179.957 186.749  1.00  0.00     0.004 C 
ENDBRANCH   8   9
ENDBRANCH   1   8
TORSDOF 6
ENDMDL
MODEL 2
REMARK VINA RESULT:    -3.579      1.820      3.417
REMARK INTER + INTRA:          -5.193
REMARK INTER:                  -4.593
REMARK INTRA:                  -0.599
REMARK UNBOUND:                -0.463
REMARK SMILES C=CCC[C@H](O)CCC
REMARK SMILES IDX 4 1 5 2 7 3 8 4 9 5 6 6 3 8 2 9 1 10
REMARK H PARENT 6 7
REMARK Flexibility Score: inf
ROOT
ATOM      1  C   UNL     1     180.626 178.672 185.341  1.00  0.00     0.036 C 
ENDROOT
BRANCH   1   2
ATOM      2  C   UNL     1     179.851 179.967 185.023  1.00  0.00     0.114 C 
BRANCH   2   3
ATOM      3  C   UNL     1     179.115 179.897 183.663  1.00  0.00     0.031 C 
BRANCH   3   4
ATOM      4  C   UNL     1     179.675 180.796 182.543  1.00  0.00    -0.001 C 
ATOM      5  C   UNL     1     180.396 180.019 181.441  1.00  0.00     0.004 C 
ENDBRANCH   3   4
ENDBRANCH   2   3
BRANCH   2   6
ATOM      6  O   UNL     1     178.952 180.251 186.064  1.00  0.00    -0.393 OA
ATOM      7  H   UNL     1     178.169 179.652 185.941  1.00  0.00     0.210 HD
ENDBRANCH   2   6
ENDBRANCH   1   2
BRANCH   1   8
ATOM      8  C   UNL     1     182.018 178.639 184.688  1.00  0.00     0.029 C 
BRANCH   8   9
ATOM      9  C   UNL     1     182.139 177.563 183.642  1.00  0.00    -0.035 C 
ATOM     10  C   UNL     1     181.203 176.622 183.489  1.00  0.00     0.004 C 
ENDBRANCH   8   9
ENDBRANCH   1   8
TORSDOF 6
ENDMDL
MODEL 3
REMARK VINA RESULT:    -3.572      0.890      3.664
REMARK INTER + INTRA:          -5.183
REMARK INTER:                  -4.843
REMARK INTRA:                  -0.340
REMARK UNBOUND:                -0.463
REMARK SMILES C=CCC[C@H](O)CCC
REMARK SMILES IDX 4 1 5 2 7 3 8 4 9 5 6 6 3 8 2 9 1 10
REMARK H PARENT 6 7
REMARK Flexibility Score: inf
ROOT
ATOM      1  C   UNL     1     180.704 179.443 183.406  1.00  0.00     0.036 C 
ENDROOT
BRANCH   1   2
ATOM      2  C   UNL     1     179.333 179.524 184.109  1.00  0.00     0.114 C 
BRANCH   2   3
ATOM      3  C   UNL     1     179.462 179.789 185.628  1.00  0.00     0.031 C 
BRANCH   3   4
ATOM      4  C   UNL     1     180.037 181.161 186.030  1.00  0.00    -0.001 C 
ATOM      5  C   UNL     1     181.275 181.066 186.922  1.00  0.00     0.004 C 
ENDBRANCH   3   4
ENDBRANCH   2   3
BRANCH   2   6
ATOM      6  O   UNL     1     178.540 180.507 183.495  1.00  0.00    -0.393 OA
ATOM      7  H   UNL     1     179.004 181.375 183.627  1.00  0.00     0.210 HD
ENDBRANCH   2   6
ENDBRANCH   1   2
BRANCH   1   8
ATOM      8  C   UNL     1     181.598 178.329 183.977  1.00  0.00     0.029 C 
BRANCH   8   9
ATOM      9  C   UNL     1     181.016 176.958 183.764  1.00  0.00    -0.035 C 
ATOM     10  C   UNL     1     181.756 175.941 183.312  1.00  0.00     0.004 C 
ENDBRANCH   8   9
ENDBRANCH   1   8
TORSDOF 6
ENDMDL
MODEL 4
REMARK VINA RESULT:    -3.549      1.566      2.755
REMARK INTER + INTRA:          -5.153
REMARK INTER:                  -4.650
REMARK INTRA:                  -0.504
REMARK UNBOUND:                -0.463
REMARK SMILES C=CCC[C@H](O)CCC
REMARK SMILES IDX 4 1 5 2 7 3 8 4 9 5 6 6 3 8 2 9 1 10
REMARK H PARENT 6 7
REMARK Flexibility Score: inf
ROOT
ATOM      1  C   UNL     1     180.020 180.917 184.623  1.00  0.00     0.036 C 
ENDROOT
BRANCH   1   2
ATOM      2  C   UNL     1     179.382 181.621 183.408  1.00  0.00     0.114 C 
BRANCH   2   3
ATOM      3  C   UNL     1     180.398 181.867 182.266  1.00  0.00     0.031 C 
BRANCH   3   4
ATOM      4  C   UNL     1     180.261 180.958 181.030  1.00  0.00    -0.001 C 
ATOM      5  C   UNL     1     180.990 179.622 181.172  1.00  0.00     0.004 C 
ENDBRANCH   3   4
ENDBRANCH   2   3
BRANCH   2   6
ATOM      6  O   UNL     1     178.284 180.877 182.948  1.00  0.00    -0.393 OA
ATOM      7  H   UNL     1     178.030 180.255 183.680  1.00  0.00     0.210 HD
ENDBRANCH   2   6
ENDBRANCH   1   2
BRANCH   1   8
ATOM      8  C   UNL     1     179.587 179.447 184.751  1.00  0.00     0.029 C 
BRANCH   8   9
ATOM      9  C   UNL     1     180.756 178.515 184.923  1.00  0.00    -0.035 C 
ATOM     10  C   UNL     1     180.918 177.438 184.149  1.00  0.00     0.004 C 
ENDBRANCH   8   9
ENDBRANCH   1   8
TORSDOF 6
ENDMDL
MODEL 5
REMARK VINA RESULT:    -3.539      1.601      2.011
REMARK INTER + INTRA:          -5.140
REMARK INTER:                  -4.950
REMARK INTRA:                  -0.191
REMARK UNBOUND:                -0.463
REMARK SMILES C=CCC[C@H](O)CCC
REMARK SMILES IDX 4 1 5 2 7 3 8 4 9 5 6 6 3 8 2 9 1 10
REMARK H PARENT 6 7
REMARK Flexibility Score: inf
ROOT
ATOM      1  C   UNL     1     181.340 180.211 186.292  1.00  0.00     0.036 C 
ENDROOT
BRANCH   1   2
ATOM      2  C   UNL     1     180.098 180.343 185.387  1.00  0.00     0.114 C 
BRANCH   2   3
ATOM      3  C   UNL     1     179.954 179.158 184.403  1.00  0.00     0.031 C 
BRANCH   3   4
ATOM      4  C   UNL     1     180.892 177.959 184.644  1.00  0.00    -0.001 C 
ATOM      5  C   UNL     1     181.044 177.049 183.425  1.00  0.00     0.004 C 
ENDBRANCH   3   4
ENDBRANCH   2   3
BRANCH   2   6
ATOM      6  O   UNL     1     178.945 180.481 186.177  1.00  0.00    -0.393 OA
ATOM      7  H   UNL     1     179.157 181.147 186.883  1.00  0.00     0.210 HD
ENDBRANCH   2   6
ENDBRANCH   1   2
BRANCH   1   8
ATOM      8  C   UNL     1     181.310 181.180 187.486  1.00  0.00     0.029 C 
BRANCH   8   9
ATOM      9  C   UNL     1     182.389 180.887 188.493  1.00  0.00    -0.035 C 
ATOM     10  C   UNL     1     183.034 179.717 188.514  1.00  0.00     0.004 C 
ENDBRANCH   8   9
ENDBRANCH   1   8
TORSDOF 6
ENDMDL
MODEL 6
REMARK VINA RESULT:    -3.506      0.727      3.365
REMARK INTER + INTRA:          -5.097
REMARK INTER:                  -4.600
REMARK INTRA:                  -0.497
REMARK UNBOUND:                -0.463
REMARK SMILES C=CCC[C@H](O)CCC
REMARK SMILES IDX 4 1 5 2 7 3 8 4 9 5 6 6 3 8 2 9 1 10
REMARK H PARENT 6 7
REMARK Flexibility Score: inf
ROOT
ATOM      1  C   UNL     1     180.443 179.931 182.372  1.00  0.00     0.036 C 
ENDROOT
BRANCH   1   2
ATOM      2  C   UNL     1     179.415 180.288 183.465  1.00  0.00     0.114 C 
BRANCH   2   3
ATOM      3  C   UNL     1     180.017 181.187 184.572  1.00  0.00     0.031 C 
BRANCH   3   4
ATOM      4  C   UNL     1     180.045 180.588 185.991  1.00  0.00    -0.001 C 
ATOM      5  C   UNL     1     181.411 180.033 186.392  1.00  0.00     0.004 C 
ENDBRANCH   3   4
ENDBRANCH   2   3
BRANCH   2   6
ATOM      6  O   UNL     1     178.291 180.896 182.882  1.00  0.00    -0.393 OA
ATOM      7  H   UNL     1     178.464 180.944 181.905  1.00  0.00     0.210 HD
ENDBRANCH   2   6
ENDBRANCH   1   2
BRANCH   1   8
ATOM      8  C   UNL     1     181.425 178.834 182.816  1.00  0.00     0.029 C 
BRANCH   8   9
ATOM      9  C   UNL     1     180.742 177.715 183.555  1.00  0.00    -0.035 C 
ATOM     10  C   UNL     1     181.246 176.478 183.582  1.00  0.00     0.004 C 
ENDBRANCH   8   9
ENDBRANCH   1   8
TORSDOF 6
ENDMDL
MODEL 7
REMARK VINA RESULT:    -3.505      1.459      3.805
REMARK INTER + INTRA:          -5.095
REMARK INTER:                  -4.761
REMARK INTRA:                  -0.334
REMARK UNBOUND:                -0.463
REMARK SMILES C=CCC[C@H](O)CCC
REMARK SMILES IDX 4 1 5 2 7 3 8 4 9 5 6 6 3 8 2 9 1 10
REMARK H PARENT 6 7
REMARK Flexibility Score: inf
ROOT
ATOM      1  C   UNL     1     179.717 179.767 184.951  1.00  0.00     0.036 C 
ENDROOT
BRANCH   1   2
ATOM      2  C   UNL     1     179.785 180.882 186.016  1.00  0.00     0.114 C 
BRANCH   2   3
ATOM      3  C   UNL     1     181.238 181.305 186.339  1.00  0.00     0.031 C 
BRANCH   3   4
ATOM      4  C   UNL     1     181.674 181.167 187.810  1.00  0.00    -0.001 C 
ATOM      5  C   UNL     1     182.645 180.011 188.052  1.00  0.00     0.004 C 
ENDBRANCH   3   4
ENDBRANCH   2   3
BRANCH   2   6
ATOM      6  O   UNL     1     179.022 181.985 185.600  1.00  0.00    -0.393 OA
ATOM      7  H   UNL     1     178.743 182.469 186.421  1.00  0.00     0.210 HD
ENDBRANCH   2   6
ENDBRANCH   1   2
BRANCH   1   8
ATOM      8  C   UNL     1     180.551 178.533 185.332  1.00  0.00     0.029 C 
BRANCH   8   9
ATOM      9  C   UNL     1     180.981 177.735 184.130  1.00  0.00    -0.035 C 
ATOM     10  C   UNL     1     181.016 178.269 182.906  1.00  0.00     0.004 C 
ENDBRANCH   8   9
ENDBRANCH   1   8
TORSDOF 6
ENDMDL
MODEL 8
REMARK VINA RESULT:    -3.439      1.861      4.217
REMARK INTER + INTRA:          -5.007
REMARK INTER:                  -4.881
REMARK INTRA:                  -0.127
REMARK UNBOUND:                -0.463
REMARK SMILES C=CCC[C@H](O)CCC
REMARK SMILES IDX 4 1 5 2 7 3 8 4 9 5 6 6 3 8 2 9 1 10
REMARK H PARENT 6 7
REMARK Flexibility Score: inf
ROOT
ATOM      1  C   UNL     1     180.000 180.192 183.375  1.00  0.00     0.036 C 
ENDROOT
BRANCH   1   2
ATOM      2  C   UNL     1     178.984 181.354 183.402  1.00  0.00     0.114 C 
BRANCH   2   3
ATOM      3  C   UNL     1     179.635 182.698 183.805  1.00  0.00     0.031 C 
BRANCH   3   4
ATOM      4  C   UNL     1     178.839 183.565 184.800  1.00  0.00    -0.001 C 
ATOM      5  C   UNL     1     178.106 184.733 184.139  1.00  0.00     0.004 C 
ENDBRANCH   3   4
ENDBRANCH   2   3
BRANCH   2   6
ATOM      6  O   UNL     1     178.349 181.460 182.154  1.00  0.00    -0.393 OA
ATOM      7  H   UNL     1     178.606 182.340 181.773  1.00  0.00     0.210 HD
ENDBRANCH   2   6
ENDBRANCH   1   2
BRANCH   1   8
ATOM      8  C   UNL     1     179.714 179.130 184.449  1.00  0.00     0.029 C 
BRANCH   8   9
ATOM      9  C   UNL     1     180.818 178.114 184.562  1.00  0.00    -0.035 C 
ATOM     10  C   UNL     1     180.971 177.137 183.664  1.00  0.00     0.004 C 
ENDBRANCH   8   9
ENDBRANCH   1   8
TORSDOF 6
ENDMDL
MODEL 9
REMARK VINA RESULT:    -3.416      1.959      3.855
REMARK INTER + INTRA:          -4.977
REMARK INTER:                  -4.560
REMARK INTRA:                  -0.418
REMARK UNBOUND:                -0.463
REMARK SMILES C=CCC[C@H](O)CCC
REMARK SMILES IDX 4 1 5 2 7 3 8 4 9 5 6 6 3 8 2 9 1 10
REMARK H PARENT 6 7
REMARK Flexibility Score: inf
ROOT
ATOM      1  C   UNL     1     181.548 179.572 186.068  1.00  0.00     0.036 C 
ENDROOT
BRANCH   1   2
ATOM      2  C   UNL     1     181.135 181.057 186.002  1.00  0.00     0.114 C 
BRANCH   2   3
ATOM      3  C   UNL     1     179.681 181.245 185.507  1.00  0.00     0.031 C 
BRANCH   3   4
ATOM      4  C   UNL     1     179.506 182.069 184.217  1.00  0.00    -0.001 C 
ATOM      5  C   UNL     1     179.027 181.240 183.025  1.00  0.00     0.004 C 
ENDBRANCH   3   4
ENDBRANCH   2   3
BRANCH   2   6
ATOM      6  O   UNL     1     181.318 181.657 187.259  1.00  0.00    -0.393 OA
ATOM      7  H   UNL     1     181.149 180.956 187.941  1.00  0.00     0.210 HD
ENDBRANCH   2   6
ENDBRANCH   1   2
BRANCH   1   8
ATOM      8  C   UNL     1     180.525 178.642 185.393  1.00  0.00     0.029 C 
BRANCH   8   9
ATOM      9  C   UNL     1     181.004 178.129 184.061  1.00  0.00    -0.035 C 
ATOM     10  C   UNL     1     181.099 176.822 183.803  1.00  0.00     0.004 C 
ENDBRANCH   8   9
ENDBRANCH   1   8
TORSDOF 6
ENDMDL
