MODEL 1
REMARK VINA RESULT:    -5.183      0.000      0.000
REMARK INTER + INTRA:          -5.637
REMARK INTER:                  -5.637
REMARK INTRA:                   0.000
REMARK UNBOUND:                 0.000
REMARK SMILES Cc1cc(O)c2c(c1)C(=O)c1cc(O)cc(O)c1C2=O
REMARK SMILES IDX 1 1 2 2 8 3 7 4 6 5 4 6 3 7 19 8 20 9 18 10 11 11 9 12 10 13
REMARK SMILES IDX 12 14 13 15 15 16 16 17 5 18 17 20 14 22
REMARK H PARENT 5 19 17 21 14 23
REMARK Flexibility Score: inf
ROOT
ATOM      1  C   UNL     1      -7.273  30.202  12.875  1.00  0.00     0.044 C 
ATOM      2  C   UNL     1      -8.643  30.193  12.263  1.00  0.00    -0.047 A 
ATOM      3  C   UNL     1      -8.808  30.483  10.905  1.00  0.00     0.016 A 
ATOM      4  C   UNL     1     -10.085  30.453  10.315  1.00  0.00     0.038 A 
ATOM      5  C   UNL     1     -11.216  30.126  11.098  1.00  0.00     0.076 A 
ATOM      6  C   UNL     1     -11.024  29.734  12.451  1.00  0.00     0.127 A 
ATOM      7  C   UNL     1      -9.750  29.799  13.021  1.00  0.00     0.050 A 
ATOM      8  C   UNL     1     -12.566  30.256  10.482  1.00  0.00     0.201 C 
ATOM      9  O   UNL     1     -13.584  30.386  11.213  1.00  0.00    -0.288 OA
ATOM     10  C   UNL     1     -12.707  30.354   9.006  1.00  0.00     0.076 A 
ATOM     11  C   UNL     1     -11.563  30.615   8.222  1.00  0.00     0.041 A 
ATOM     12  C   UNL     1     -10.240  30.752   8.872  1.00  0.00     0.194 C 
ATOM     13  O   UNL     1      -9.239  31.108   8.190  1.00  0.00    -0.289 OA
ATOM     14  C   UNL     1     -11.687  30.745   6.828  1.00  0.00     0.059 A 
ATOM     15  C   UNL     1     -12.934  30.612   6.210  1.00  0.00     0.120 A 
ATOM     16  C   UNL     1     -14.065  30.346   6.981  1.00  0.00     0.093 A 
ATOM     17  C   UNL     1     -13.963  30.214   8.372  1.00  0.00     0.131 A 
ENDROOT
BRANCH   6  18
ATOM     18  O   UNL     1     -12.056  29.240  13.253  1.00  0.00    -0.507 OA
ATOM     19  H   UNL     1     -13.018  29.539  13.177  1.00  0.00     0.293 HD
ENDBRANCH   6  18
BRANCH  17  20
ATOM     20  O   UNL     1     -15.110  29.935   9.117  1.00  0.00    -0.507 OA
ATOM     21  H   UNL     1     -16.034  29.949   8.700  1.00  0.00     0.293 HD
ENDBRANCH  17  20
BRANCH  15  22
ATOM     22  O   UNL     1     -13.060  30.741   4.828  1.00  0.00    -0.508 OA
ATOM     23  H   UNL     1     -12.689  30.042   4.195  1.00  0.00     0.293 HD
ENDBRANCH  15  22
TORSDOF 3
ENDMDL
MODEL 2
REMARK VINA RESULT:    -4.895      1.290      6.344
REMARK INTER + INTRA:          -5.324
REMARK INTER:                  -5.324
REMARK INTRA:                   0.000
REMARK UNBOUND:                 0.000
REMARK SMILES Cc1cc(O)c2c(c1)C(=O)c1cc(O)cc(O)c1C2=O
REMARK SMILES IDX 1 1 2 2 8 3 7 4 6 5 4 6 3 7 19 8 20 9 18 10 11 11 9 12 10 13
REMARK SMILES IDX 12 14 13 15 15 16 16 17 5 18 17 20 14 22
REMARK H PARENT 5 19 17 21 14 23
REMARK Flexibility Score: inf
ROOT
ATOM      1  C   UNL     1     -17.125  30.576   7.068  1.00  0.00     0.044 C 
ATOM      2  C   UNL     1     -15.646  30.567   7.322  1.00  0.00    -0.047 A 
ATOM      3  C   UNL     1     -15.157  30.486   8.630  1.00  0.00     0.016 A 
ATOM      4  C   UNL     1     -13.773  30.452   8.878  1.00  0.00     0.038 A 
ATOM      5  C   UNL     1     -12.862  30.499   7.798  1.00  0.00     0.076 A 
ATOM      6  C   UNL     1     -13.369  30.479   6.470  1.00  0.00     0.127 A 
ATOM      7  C   UNL     1     -14.748  30.541   6.251  1.00  0.00     0.050 A 
ATOM      8  C   UNL     1     -11.409  30.620   8.102  1.00  0.00     0.201 C 
ATOM      9  O   UNL     1     -10.617  31.074   7.233  1.00  0.00    -0.288 OA
ATOM     10  C   UNL     1     -10.903  30.319   9.467  1.00  0.00     0.076 A 
ATOM     11  C   UNL     1     -11.824  30.206  10.531  1.00  0.00     0.041 A 
ATOM     12  C   UNL     1     -13.273  30.353  10.270  1.00  0.00     0.194 C 
ATOM     13  O   UNL     1     -14.086  30.378  11.235  1.00  0.00    -0.289 OA
ATOM     14  C   UNL     1     -11.358  29.957  11.833  1.00  0.00     0.059 A 
ATOM     15  C   UNL     1      -9.989  29.813  12.083  1.00  0.00     0.120 A 
ATOM     16  C   UNL     1      -9.078  29.916  11.032  1.00  0.00     0.093 A 
ATOM     17  C   UNL     1      -9.522  30.165   9.727  1.00  0.00     0.131 A 
ENDROOT
BRANCH   6  18
ATOM     18  O   UNL     1     -12.550  30.361   5.345  1.00  0.00    -0.507 OA
ATOM     19  H   UNL     1     -12.661  30.918   4.509  1.00  0.00     0.293 HD
ENDBRANCH   6  18
BRANCH  17  20
ATOM     20  O   UNL     1      -8.589  30.250   8.693  1.00  0.00    -0.507 OA
ATOM     21  H   UNL     1      -7.685  30.689   8.825  1.00  0.00     0.293 HD
ENDBRANCH  17  20
BRANCH  15  22
ATOM     22  O   UNL     1      -9.525  29.567  13.373  1.00  0.00    -0.508 OA
ATOM     23  H   UNL     1      -9.270  28.634  13.675  1.00  0.00     0.293 HD
ENDBRANCH  15  22
TORSDOF 3
ENDMDL
MODEL 3
REMARK VINA RESULT:    -4.675     21.193     22.486
REMARK INTER + INTRA:          -5.085
REMARK INTER:                  -5.085
REMARK INTRA:                   0.000
REMARK UNBOUND:                 0.000
REMARK SMILES Cc1cc(O)c2c(c1)C(=O)c1cc(O)cc(O)c1C2=O
REMARK SMILES IDX 1 1 2 2 8 3 7 4 6 5 4 6 3 7 19 8 20 9 18 10 11 11 9 12 10 13
REMARK SMILES IDX 12 14 13 15 15 16 16 17 5 18 17 20 14 22
REMARK H PARENT 5 19 17 21 14 23
REMARK Flexibility Score: inf
ROOT
ATOM      1  C   UNL     1      -0.317  10.875   3.324  1.00  0.00     0.044 C 
ATOM      2  C   UNL     1      -0.586  11.027   4.793  1.00  0.00    -0.047 A 
ATOM      3  C   UNL     1       0.465  11.282   5.678  1.00  0.00     0.016 A 
ATOM      4  C   UNL     1       0.221  11.450   7.053  1.00  0.00     0.038 A 
ATOM      5  C   UNL     1      -1.099  11.362   7.551  1.00  0.00     0.076 A 
ATOM      6  C   UNL     1      -2.171  11.203   6.630  1.00  0.00     0.127 A 
ATOM      7  C   UNL     1      -1.900  11.010   5.273  1.00  0.00     0.050 A 
ATOM      8  C   UNL     1      -1.304  11.388   9.026  1.00  0.00     0.201 C 
ATOM      9  O   UNL     1      -2.357  10.909   9.527  1.00  0.00    -0.288 OA
ATOM     10  C   UNL     1      -0.220  11.869   9.922  1.00  0.00     0.076 A 
ATOM     11  C   UNL     1       1.084  12.020   9.404  1.00  0.00     0.041 A 
ATOM     12  C   UNL     1       1.347  11.733   7.975  1.00  0.00     0.194 C 
ATOM     13  O   UNL     1       2.531  11.746   7.539  1.00  0.00    -0.289 OA
ATOM     14  C   UNL     1       2.126  12.440  10.248  1.00  0.00     0.059 A 
ATOM     15  C   UNL     1       1.881  12.716  11.596  1.00  0.00     0.120 A 
ATOM     16  C   UNL     1       0.592  12.575  12.109  1.00  0.00     0.093 A 
ATOM     17  C   UNL     1      -0.461  12.157  11.286  1.00  0.00     0.131 A 
ENDROOT
BRANCH   6  18
ATOM     18  O   UNL     1      -3.514  11.266   7.009  1.00  0.00    -0.507 OA
ATOM     19  H   UNL     1      -3.981  10.547   7.543  1.00  0.00     0.293 HD
ENDBRANCH   6  18
BRANCH  17  20
ATOM     20  O   UNL     1      -1.743  12.038  11.823  1.00  0.00    -0.507 OA
ATOM     21  H   UNL     1      -1.904  11.616  12.731  1.00  0.00     0.293 HD
ENDBRANCH  17  20
BRANCH  15  22
ATOM     22  O   UNL     1       2.913  13.132  12.435  1.00  0.00    -0.508 OA
ATOM     23  H   UNL     1       3.176  12.599  13.256  1.00  0.00     0.293 HD
ENDBRANCH  15  22
TORSDOF 3
ENDMDL
MODEL 4
REMARK VINA RESULT:    -4.556     20.944     21.949
REMARK INTER + INTRA:          -4.956
REMARK INTER:                  -4.956
REMARK INTRA:                   0.000
REMARK UNBOUND:                 0.000
REMARK SMILES Cc1cc(O)c2c(c1)C(=O)c1cc(O)cc(O)c1C2=O
REMARK SMILES IDX 1 1 2 2 8 3 7 4 6 5 4 6 3 7 19 8 20 9 18 10 11 11 9 12 10 13
REMARK SMILES IDX 12 14 13 15 15 16 16 17 5 18 17 20 14 22
REMARK H PARENT 5 19 17 21 14 23
REMARK Flexibility Score: inf
ROOT
ATOM      1  C   UNL     1      -1.105  12.915  14.989  1.00  0.00     0.044 C 
ATOM      2  C   UNL     1      -0.345  12.744  13.706  1.00  0.00    -0.047 A 
ATOM      3  C   UNL     1      -1.023  12.436  12.523  1.00  0.00     0.016 A 
ATOM      4  C   UNL     1      -0.324  12.298  11.310  1.00  0.00     0.038 A 
ATOM      5  C   UNL     1       1.079  12.471  11.282  1.00  0.00     0.076 A 
ATOM      6  C   UNL     1       1.745  12.882  12.469  1.00  0.00     0.127 A 
ATOM      7  C   UNL     1       1.032  12.986  13.666  1.00  0.00     0.050 A 
ATOM      8  C   UNL     1       1.806  12.164  10.018  1.00  0.00     0.201 C 
ATOM      9  O   UNL     1       3.038  11.898  10.046  1.00  0.00    -0.288 OA
ATOM     10  C   UNL     1       1.061  12.051   8.737  1.00  0.00     0.076 A 
ATOM     11  C   UNL     1      -0.346  11.946   8.767  1.00  0.00     0.041 A 
ATOM     12  C   UNL     1      -1.060  11.984  10.063  1.00  0.00     0.194 C 
ATOM     13  O   UNL     1      -2.302  11.765  10.102  1.00  0.00    -0.289 OA
ATOM     14  C   UNL     1      -1.060  11.803   7.565  1.00  0.00     0.059 A 
ATOM     15  C   UNL     1      -0.390  11.771   6.339  1.00  0.00     0.120 A 
ATOM     16  C   UNL     1       1.000  11.883   6.306  1.00  0.00     0.093 A 
ATOM     17  C   UNL     1       1.732  12.024   7.492  1.00  0.00     0.131 A 
ENDROOT
BRANCH   6  18
ATOM     18  O   UNL     1       3.097  13.233  12.500  1.00  0.00    -0.507 OA
ATOM     19  H   UNL     1       3.850  12.580  12.338  1.00  0.00     0.293 HD
ENDBRANCH   6  18
BRANCH  17  20
ATOM     20  O   UNL     1       3.120  12.148   7.428  1.00  0.00    -0.507 OA
ATOM     21  H   UNL     1       3.605  12.260   6.544  1.00  0.00     0.293 HD
ENDBRANCH  17  20
BRANCH  15  22
ATOM     22  O   UNL     1      -1.096  11.629   5.146  1.00  0.00    -0.508 OA
ATOM     23  H   UNL     1      -2.043  11.268   5.131  1.00  0.00     0.293 HD
ENDBRANCH  15  22
TORSDOF 3
ENDMDL
MODEL 5
REMARK VINA RESULT:    -4.373      1.086      3.313
REMARK INTER + INTRA:          -4.756
REMARK INTER:                  -4.756
REMARK INTRA:                   0.000
REMARK UNBOUND:                 0.000
REMARK SMILES Cc1cc(O)c2c(c1)C(=O)c1cc(O)cc(O)c1C2=O
REMARK SMILES IDX 1 1 2 2 8 3 7 4 6 5 4 6 3 7 19 8 20 9 18 10 11 11 9 12 10 13
REMARK SMILES IDX 12 14 13 15 15 16 16 17 5 18 17 20 14 22
REMARK H PARENT 5 19 17 21 14 23
REMARK Flexibility Score: inf
ROOT
ATOM      1  C   UNL     1      -8.036  30.498  13.680  1.00  0.00     0.044 C 
ATOM      2  C   UNL     1      -8.779  30.495  12.375  1.00  0.00    -0.047 A 
ATOM      3  C   UNL     1     -10.170  30.357  12.358  1.00  0.00     0.016 A 
ATOM      4  C   UNL     1     -10.878  30.377  11.143  1.00  0.00     0.038 A 
ATOM      5  C   UNL     1     -10.182  30.539   9.924  1.00  0.00     0.076 A 
ATOM      6  C   UNL     1      -8.781  30.780   9.960  1.00  0.00     0.127 A 
ATOM      7  C   UNL     1      -8.097  30.727  11.177  1.00  0.00     0.050 A 
ATOM      8  C   UNL     1     -10.941  30.399   8.650  1.00  0.00     0.201 C 
ATOM      9  O   UNL     1     -10.335  30.121   7.580  1.00  0.00    -0.288 OA
ATOM     10  C   UNL     1     -12.426  30.468   8.654  1.00  0.00     0.076 A 
ATOM     11  C   UNL     1     -13.115  30.373   9.882  1.00  0.00     0.041 A 
ATOM     12  C   UNL     1     -12.354  30.242  11.145  1.00  0.00     0.194 C 
ATOM     13  O   UNL     1     -12.967  30.031  12.228  1.00  0.00    -0.289 OA
ATOM     14  C   UNL     1     -14.519  30.400   9.897  1.00  0.00     0.059 A 
ATOM     15  C   UNL     1     -15.241  30.528   8.707  1.00  0.00     0.120 A 
ATOM     16  C   UNL     1     -14.563  30.630   7.492  1.00  0.00     0.093 A 
ATOM     17  C   UNL     1     -13.163  30.604   7.455  1.00  0.00     0.131 A 
ENDROOT
BRANCH   6  18
ATOM     18  O   UNL     1      -8.037  31.111   8.824  1.00  0.00    -0.507 OA
ATOM     19  H   UNL     1      -7.873  32.059   8.517  1.00  0.00     0.293 HD
ENDBRANCH   6  18
BRANCH  17  20
ATOM     20  O   UNL     1     -12.511  30.722   6.227  1.00  0.00    -0.507 OA
ATOM     21  H   UNL     1     -13.004  30.614   5.348  1.00  0.00     0.293 HD
ENDBRANCH  17  20
BRANCH  15  22
ATOM     22  O   UNL     1     -16.634  30.555   8.720  1.00  0.00    -0.508 OA
ATOM     23  H   UNL     1     -17.161  31.052   8.011  1.00  0.00     0.293 HD
ENDBRANCH  15  22
TORSDOF 3
ENDMDL
MODEL 6
REMARK VINA RESULT:    -4.347     21.180     22.168
REMARK INTER + INTRA:          -4.728
REMARK INTER:                  -4.728
REMARK INTRA:                   0.000
REMARK UNBOUND:                 0.000
REMARK SMILES Cc1cc(O)c2c(c1)C(=O)c1cc(O)cc(O)c1C2=O
REMARK SMILES IDX 1 1 2 2 8 3 7 4 6 5 4 6 3 7 19 8 20 9 18 10 11 11 9 12 10 13
REMARK SMILES IDX 12 14 13 15 15 16 16 17 5 18 17 20 14 22
REMARK H PARENT 5 19 17 21 14 23
REMARK Flexibility Score: inf
ROOT
ATOM      1  C   UNL     1       2.292  12.228  11.643  1.00  0.00     0.044 C 
ATOM      2  C   UNL     1       1.790  12.026  10.243  1.00  0.00    -0.047 A 
ATOM      3  C   UNL     1       0.442  11.730  10.015  1.00  0.00     0.016 A 
ATOM      4  C   UNL     1      -0.044  11.563   8.706  1.00  0.00     0.038 A 
ATOM      5  C   UNL     1       0.834  11.695   7.605  1.00  0.00     0.076 A 
ATOM      6  C   UNL     1       2.177  12.095   7.842  1.00  0.00     0.127 A 
ATOM      7  C   UNL     1       2.643  12.227   9.153  1.00  0.00     0.050 A 
ATOM      8  C   UNL     1       0.324  11.358   6.247  1.00  0.00     0.201 C 
ATOM      9  O   UNL     1       1.129  11.057   5.325  1.00  0.00    -0.288 OA
ATOM     10  C   UNL     1      -1.139  11.258   6.003  1.00  0.00     0.076 A 
ATOM     11  C   UNL     1      -2.018  11.195   7.105  1.00  0.00     0.041 A 
ATOM     12  C   UNL     1      -1.478  11.263   8.482  1.00  0.00     0.194 C 
ATOM     13  O   UNL     1      -2.245  11.080   9.467  1.00  0.00    -0.289 OA
ATOM     14  C   UNL     1      -3.400  11.065   6.890  1.00  0.00     0.059 A 
ATOM     15  C   UNL     1      -3.914  11.004   5.591  1.00  0.00     0.120 A 
ATOM     16  C   UNL     1      -3.049  11.075   4.499  1.00  0.00     0.093 A 
ATOM     17  C   UNL     1      -1.668  11.204   4.692  1.00  0.00     0.131 A 
ENDROOT
BRANCH   6  18
ATOM     18  O   UNL     1       3.071  12.406   6.815  1.00  0.00    -0.507 OA
ATOM     19  H   UNL     1       2.793  12.554   5.855  1.00  0.00     0.293 HD
ENDBRANCH   6  18
BRANCH  17  20
ATOM     20  O   UNL     1      -0.828  11.286   3.581  1.00  0.00    -0.507 OA
ATOM     21  H   UNL     1      -0.662  10.488   2.977  1.00  0.00     0.293 HD
ENDBRANCH  17  20
BRANCH  15  22
ATOM     22  O   UNL     1      -5.285  10.875   5.374  1.00  0.00    -0.508 OA
ATOM     23  H   UNL     1      -5.946  11.547   5.746  1.00  0.00     0.293 HD
ENDBRANCH  15  22
TORSDOF 3
ENDMDL
MODEL 7
REMARK VINA RESULT:    -4.318      1.786      5.783
REMARK INTER + INTRA:          -4.697
REMARK INTER:                  -4.697
REMARK INTRA:                   0.000
REMARK UNBOUND:                 0.000
REMARK SMILES Cc1cc(O)c2c(c1)C(=O)c1cc(O)cc(O)c1C2=O
REMARK SMILES IDX 1 1 2 2 8 3 7 4 6 5 4 6 3 7 19 8 20 9 18 10 11 11 9 12 10 13
REMARK SMILES IDX 12 14 13 15 15 16 16 17 5 18 17 20 14 22
REMARK H PARENT 5 19 17 21 14 23
REMARK Flexibility Score: inf
ROOT
ATOM      1  C   UNL     1     -13.462  30.367   6.998  1.00  0.00     0.044 C 
ATOM      2  C   UNL     1     -12.956  30.375   8.410  1.00  0.00    -0.047 A 
ATOM      3  C   UNL     1     -11.581  30.378   8.665  1.00  0.00     0.016 A 
ATOM      4  C   UNL     1     -11.095  30.411   9.985  1.00  0.00     0.038 A 
ATOM      5  C   UNL     1     -12.002  30.441  11.069  1.00  0.00     0.076 A 
ATOM      6  C   UNL     1     -13.394  30.540  10.798  1.00  0.00     0.127 A 
ATOM      7  C   UNL     1     -13.852  30.477   9.479  1.00  0.00     0.050 A 
ATOM      8  C   UNL     1     -11.460  30.316  12.451  1.00  0.00     0.201 C 
ATOM      9  O   UNL     1     -12.204  29.926  13.390  1.00  0.00    -0.288 OA
ATOM     10  C   UNL     1     -10.012  30.535  12.707  1.00  0.00     0.076 A 
ATOM     11  C   UNL     1      -9.118  30.571  11.615  1.00  0.00     0.041 A 
ATOM     12  C   UNL     1      -9.635  30.426  10.235  1.00  0.00     0.194 C 
ATOM     13  O   UNL     1      -8.828  30.332   9.269  1.00  0.00    -0.289 OA
ATOM     14  C   UNL     1      -7.743  30.742  11.845  1.00  0.00     0.059 A 
ATOM     15  C   UNL     1      -7.252  30.884  13.147  1.00  0.00     0.120 A 
ATOM     16  C   UNL     1      -8.133  30.857  14.227  1.00  0.00     0.093 A 
ATOM     17  C   UNL     1      -9.508  30.686  14.020  1.00  0.00     0.131 A 
ENDROOT
BRANCH   6  18
ATOM     18  O   UNL     1     -14.352  30.737  11.796  1.00  0.00    -0.507 OA
ATOM     19  H   UNL     1     -15.171  31.316  11.681  1.00  0.00     0.293 HD
ENDBRANCH   6  18
BRANCH  17  20
ATOM     20  O   UNL     1     -10.368  30.677  15.118  1.00  0.00    -0.507 OA
ATOM     21  H   UNL     1     -10.029  30.516  16.060  1.00  0.00     0.293 HD
ENDBRANCH  17  20
BRANCH  15  22
ATOM     22  O   UNL     1      -5.888  31.053  13.377  1.00  0.00    -0.508 OA
ATOM     23  H   UNL     1      -5.206  30.382  13.043  1.00  0.00     0.293 HD
ENDBRANCH  15  22
TORSDOF 3
ENDMDL
MODEL 8
REMARK VINA RESULT:    -4.103      2.194      5.154
REMARK INTER + INTRA:          -4.463
REMARK INTER:                  -4.463
REMARK INTRA:                   0.000
REMARK UNBOUND:                 0.000
REMARK SMILES Cc1cc(O)c2c(c1)C(=O)c1cc(O)cc(O)c1C2=O
REMARK SMILES IDX 1 1 2 2 8 3 7 4 6 5 4 6 3 7 19 8 20 9 18 10 11 11 9 12 10 13
REMARK SMILES IDX 12 14 13 15 15 16 16 17 5 18 17 20 14 22
REMARK H PARENT 5 19 17 21 14 23
REMARK Flexibility Score: inf
ROOT
ATOM      1  C   UNL     1     -17.080  29.777  13.172  1.00  0.00     0.044 C 
ATOM      2  C   UNL     1     -16.242  29.972  11.943  1.00  0.00    -0.047 A 
ATOM      3  C   UNL     1     -14.880  30.263  12.059  1.00  0.00     0.016 A 
ATOM      4  C   UNL     1     -14.079  30.424  10.914  1.00  0.00     0.038 A 
ATOM      5  C   UNL     1     -14.653  30.291   9.629  1.00  0.00     0.076 A 
ATOM      6  C   UNL     1     -16.015  29.896   9.522  1.00  0.00     0.127 A 
ATOM      7  C   UNL     1     -16.795  29.770  10.674  1.00  0.00     0.050 A 
ATOM      8  C   UNL     1     -13.817  30.621   8.441  1.00  0.00     0.201 C 
ATOM      9  O   UNL     1     -14.364  30.921   7.346  1.00  0.00    -0.288 OA
ATOM     10  C   UNL     1     -12.339  30.716   8.571  1.00  0.00     0.076 A 
ATOM     11  C   UNL     1     -11.766  30.781   9.859  1.00  0.00     0.041 A 
ATOM     12  C   UNL     1     -12.634  30.720  11.056  1.00  0.00     0.194 C 
ATOM     13  O   UNL     1     -12.138  30.903  12.202  1.00  0.00    -0.289 OA
ATOM     14  C   UNL     1     -10.373  30.906   9.997  1.00  0.00     0.059 A 
ATOM     15  C   UNL     1      -9.549  30.960   8.868  1.00  0.00     0.120 A 
ATOM     16  C   UNL     1     -10.113  30.888   7.595  1.00  0.00     0.093 A 
ATOM     17  C   UNL     1     -11.499  30.764   7.435  1.00  0.00     0.131 A 
ENDROOT
BRANCH   6  18
ATOM     18  O   UNL     1     -16.623  29.583   8.304  1.00  0.00    -0.507 OA
ATOM     19  H   UNL     1     -16.392  28.768   7.753  1.00  0.00     0.293 HD
ENDBRANCH   6  18
BRANCH  17  20
ATOM     20  O   UNL     1     -12.033  30.680   6.149  1.00  0.00    -0.507 OA
ATOM     21  H   UNL     1     -12.918  30.219   5.968  1.00  0.00     0.293 HD
ENDBRANCH  17  20
BRANCH  15  22
ATOM     22  O   UNL     1      -8.168  31.085   9.002  1.00  0.00    -0.508 OA
ATOM     23  H   UNL     1      -7.537  30.354   8.694  1.00  0.00     0.293 HD
ENDBRANCH  15  22
TORSDOF 3
ENDMDL
MODEL 9
REMARK VINA RESULT:    -4.083      2.210      5.902
REMARK INTER + INTRA:          -4.441
REMARK INTER:                  -4.441
REMARK INTRA:                   0.000
REMARK UNBOUND:                 0.000
REMARK SMILES Cc1cc(O)c2c(c1)C(=O)c1cc(O)cc(O)c1C2=O
REMARK SMILES IDX 1 1 2 2 8 3 7 4 6 5 4 6 3 7 19 8 20 9 18 10 11 11 9 12 10 13
REMARK SMILES IDX 12 14 13 15 15 16 16 17 5 18 17 20 14 22
REMARK H PARENT 5 19 17 21 14 23
REMARK Flexibility Score: inf
ROOT
ATOM      1  C   UNL     1     -13.033  30.925   5.218  1.00  0.00     0.044 C 
ATOM      2  C   UNL     1     -12.651  30.849   6.667  1.00  0.00    -0.047 A 
ATOM      3  C   UNL     1     -13.640  30.833   7.655  1.00  0.00     0.016 A 
ATOM      4  C   UNL     1     -13.295  30.736   9.015  1.00  0.00     0.038 A 
ATOM      5  C   UNL     1     -11.935  30.655   9.393  1.00  0.00     0.076 A 
ATOM      6  C   UNL     1     -10.943  30.571   8.377  1.00  0.00     0.127 A 
ATOM      7  C   UNL     1     -11.310  30.697   7.035  1.00  0.00     0.050 A 
ATOM      8  C   UNL     1     -11.597  30.713  10.843  1.00  0.00     0.201 C 
ATOM      9  O   UNL     1     -10.442  31.058  11.210  1.00  0.00    -0.288 OA
ATOM     10  C   UNL     1     -12.651  30.480  11.865  1.00  0.00     0.076 A 
ATOM     11  C   UNL     1     -14.006  30.496  11.470  1.00  0.00     0.041 A 
ATOM     12  C   UNL     1     -14.357  30.707  10.048  1.00  0.00     0.194 C 
ATOM     13  O   UNL     1     -15.566  30.847   9.713  1.00  0.00    -0.289 OA
ATOM     14  C   UNL     1     -15.014  30.313  12.432  1.00  0.00     0.059 A 
ATOM     15  C   UNL     1     -14.687  30.108  13.776  1.00  0.00     0.120 A 
ATOM     16  C   UNL     1     -13.348  30.084  14.167  1.00  0.00     0.093 A 
ATOM     17  C   UNL     1     -12.328  30.266  13.224  1.00  0.00     0.131 A 
ENDROOT
BRANCH   6  18
ATOM     18  O   UNL     1      -9.595  30.327   8.649  1.00  0.00    -0.507 OA
ATOM     19  H   UNL     1      -9.060  30.837   9.337  1.00  0.00     0.293 HD
ENDBRANCH   6  18
BRANCH  17  20
ATOM     20  O   UNL     1     -10.997  30.223  13.643  1.00  0.00    -0.507 OA
ATOM     21  H   UNL     1     -10.735  29.860  14.552  1.00  0.00     0.293 HD
ENDBRANCH  17  20
BRANCH  15  22
ATOM     22  O   UNL     1     -15.685  29.927  14.731  1.00  0.00    -0.508 OA
ATOM     23  H   UNL     1     -16.588  29.538  14.486  1.00  0.00     0.293 HD
ENDBRANCH  15  22
TORSDOF 3
ENDMDL
