MODEL 1
REMARK VINA RESULT:    -4.568      0.000      0.000
REMARK INTER + INTRA:          -7.134
REMARK INTER:                  -6.171
REMARK INTRA:                  -0.963
REMARK UNBOUND:                -0.963
REMARK SMILES C[C@@H](O)[C@H](O)[C@@H](O)[C@@H](O)C=O
REMARK SMILES IDX 4 1 2 2 1 3 3 4 6 6 8 7 10 8 11 9 9 10 7 12 5 14
REMARK H PARENT 3 5 9 11 7 13 5 15
REMARK Flexibility Score: inf
ROOT
ATOM      1  C   UNL     1      11.444   5.746  55.104  1.00  0.00     0.174 C 
ENDROOT
BRANCH   1   2
ATOM      2  C   UNL     1      11.853   5.892  53.615  1.00  0.00     0.142 C 
ATOM      3  C   UNL     1      11.353   7.211  53.009  1.00  0.00     0.041 C 
BRANCH   2   4
ATOM      4  O   UNL     1      13.244   5.773  53.446  1.00  0.00    -0.391 OA
ATOM      5  H   UNL     1      13.579   6.636  53.088  1.00  0.00     0.211 HD
ENDBRANCH   2   4
ENDBRANCH   1   2
BRANCH   1   6
ATOM      6  C   UNL     1      11.261   4.272  55.565  1.00  0.00     0.181 C 
BRANCH   6   7
ATOM      7  C   UNL     1      12.187   3.888  56.749  1.00  0.00     0.209 C 
BRANCH   7   8
ATOM      8  C   UNL     1      13.469   3.256  56.264  1.00  0.00     0.258 C 
ATOM      9  O   UNL     1      14.235   3.879  55.546  1.00  0.00    -0.300 OA
ENDBRANCH   7   8
BRANCH   7  10
ATOM     10  O   UNL     1      11.532   2.969  57.584  1.00  0.00    -0.383 OA
ATOM     11  H   UNL     1      11.729   2.062  57.228  1.00  0.00     0.211 HD
ENDBRANCH   7  10
ENDBRANCH   6   7
BRANCH   6  12
ATOM     12  O   UNL     1      11.536   3.429  54.471  1.00  0.00    -0.387 OA
ATOM     13  H   UNL     1      10.670   3.064  54.154  1.00  0.00     0.211 HD
ENDBRANCH   6  12
ENDBRANCH   1   6
BRANCH   1  14
ATOM     14  O   UNL     1      12.422   6.362  55.908  1.00  0.00    -0.388 OA
ATOM     15  H   UNL     1      12.322   7.343  55.797  1.00  0.00     0.211 HD
ENDBRANCH   1  14
TORSDOF 8
ENDMDL
MODEL 2
REMARK VINA RESULT:    -4.543      1.519      2.242
REMARK INTER + INTRA:          -7.099
REMARK INTER:                  -6.538
REMARK INTRA:                  -0.562
REMARK UNBOUND:                -0.963
REMARK SMILES C[C@@H](O)[C@H](O)[C@@H](O)[C@@H](O)C=O
REMARK SMILES IDX 4 1 2 2 1 3 3 4 6 6 8 7 10 8 11 9 9 10 7 12 5 14
REMARK H PARENT 3 5 9 11 7 13 5 15
REMARK Flexibility Score: inf
ROOT
ATOM      1  C   UNL     1      11.614   5.440  55.594  1.00  0.00     0.174 C 
ENDROOT
BRANCH   1   2
ATOM      2  C   UNL     1      10.336   5.659  54.743  1.00  0.00     0.142 C 
ATOM      3  C   UNL     1       9.469   6.800  55.294  1.00  0.00     0.041 C 
BRANCH   2   4
ATOM      4  O   UNL     1      10.647   5.890  53.391  1.00  0.00    -0.391 OA
ATOM      5  H   UNL     1      10.053   5.313  52.843  1.00  0.00     0.211 HD
ENDBRANCH   2   4
ENDBRANCH   1   2
BRANCH   1   6
ATOM      6  C   UNL     1      12.660   4.500  54.929  1.00  0.00     0.181 C 
BRANCH   6   7
ATOM      7  C   UNL     1      13.696   3.937  55.936  1.00  0.00     0.209 C 
BRANCH   7   8
ATOM      8  C   UNL     1      13.019   3.325  57.138  1.00  0.00     0.258 C 
ATOM      9  O   UNL     1      12.692   2.149  57.135  1.00  0.00    -0.300 OA
ENDBRANCH   7   8
BRANCH   7  10
ATOM     10  O   UNL     1      14.533   4.972  56.382  1.00  0.00    -0.383 OA
ATOM     11  H   UNL     1      14.103   5.366  57.187  1.00  0.00     0.211 HD
ENDBRANCH   7  10
ENDBRANCH   6   7
BRANCH   6  12
ATOM     12  O   UNL     1      13.335   5.226  53.929  1.00  0.00    -0.387 OA
ATOM     13  H   UNL     1      14.259   4.869  53.877  1.00  0.00     0.211 HD
ENDBRANCH   6  12
ENDBRANCH   1   6
BRANCH   1  14
ATOM     14  O   UNL     1      12.214   6.688  55.847  1.00  0.00    -0.388 OA
ATOM     15  H   UNL     1      11.765   7.356  55.265  1.00  0.00     0.211 HD
ENDBRANCH   1  14
TORSDOF 8
ENDMDL
MODEL 3
REMARK VINA RESULT:    -4.456      1.385      4.105
REMARK INTER + INTRA:          -6.982
REMARK INTER:                  -6.003
REMARK INTRA:                  -0.979
REMARK UNBOUND:                -0.963
REMARK SMILES C[C@@H](O)[C@H](O)[C@@H](O)[C@@H](O)C=O
REMARK SMILES IDX 4 1 2 2 1 3 3 4 6 6 8 7 10 8 11 9 9 10 7 12 5 14
REMARK H PARENT 3 5 9 11 7 13 5 15
REMARK Flexibility Score: inf
ROOT
ATOM      1  C   UNL     1      12.939   3.951  55.376  1.00  0.00     0.174 C 
ENDROOT
BRANCH   1   2
ATOM      2  C   UNL     1      12.020   3.018  56.207  1.00  0.00     0.142 C 
ATOM      3  C   UNL     1      12.754   2.418  57.414  1.00  0.00     0.041 C 
BRANCH   2   4
ATOM      4  O   UNL     1      10.852   3.680  56.624  1.00  0.00    -0.391 OA
ATOM      5  H   UNL     1      11.118   4.573  56.967  1.00  0.00     0.211 HD
ENDBRANCH   2   4
ENDBRANCH   1   2
BRANCH   1   6
ATOM      6  C   UNL     1      12.405   4.249  53.945  1.00  0.00     0.181 C 
BRANCH   6   7
ATOM      7  C   UNL     1      12.267   5.767  53.654  1.00  0.00     0.209 C 
BRANCH   7   8
ATOM      8  C   UNL     1      10.849   6.240  53.858  1.00  0.00     0.258 C 
ATOM      9  O   UNL     1      10.327   6.182  54.961  1.00  0.00    -0.300 OA
ENDBRANCH   7   8
BRANCH   7  10
ATOM     10  O   UNL     1      12.631   6.028  52.324  1.00  0.00    -0.383 OA
ATOM     11  H   UNL     1      11.915   6.597  51.934  1.00  0.00     0.211 HD
ENDBRANCH   7  10
ENDBRANCH   6   7
BRANCH   6  12
ATOM     12  O   UNL     1      11.145   3.636  53.807  1.00  0.00    -0.387 OA
ATOM     13  H   UNL     1      10.503   4.152  54.361  1.00  0.00     0.211 HD
ENDBRANCH   6  12
ENDBRANCH   1   6
BRANCH   1  14
ATOM     14  O   UNL     1      13.102   5.166  56.068  1.00  0.00    -0.388 OA
ATOM     15  H   UNL     1      12.648   5.070  56.946  1.00  0.00     0.211 HD
ENDBRANCH   1  14
TORSDOF 8
ENDMDL
MODEL 4
REMARK VINA RESULT:    -4.449      1.365      1.949
REMARK INTER + INTRA:          -6.972
REMARK INTER:                  -6.511
REMARK INTRA:                  -0.461
REMARK UNBOUND:                -0.963
REMARK SMILES C[C@@H](O)[C@H](O)[C@@H](O)[C@@H](O)C=O
REMARK SMILES IDX 4 1 2 2 1 3 3 4 6 6 8 7 10 8 11 9 9 10 7 12 5 14
REMARK H PARENT 3 5 9 11 7 13 5 15
REMARK Flexibility Score: inf
ROOT
ATOM      1  C   UNL     1      11.650   5.434  55.009  1.00  0.00     0.174 C 
ENDROOT
BRANCH   1   2
ATOM      2  C   UNL     1      12.554   4.971  53.837  1.00  0.00     0.142 C 
ATOM      3  C   UNL     1      11.848   3.948  52.937  1.00  0.00     0.041 C 
BRANCH   2   4
ATOM      4  O   UNL     1      13.011   6.061  53.074  1.00  0.00    -0.391 OA
ATOM      5  H   UNL     1      12.216   6.585  52.791  1.00  0.00     0.211 HD
ENDBRANCH   2   4
ENDBRANCH   1   2
BRANCH   1   6
ATOM      6  C   UNL     1      11.748   4.534  56.274  1.00  0.00     0.181 C 
BRANCH   6   7
ATOM      7  C   UNL     1      13.142   3.873  56.440  1.00  0.00     0.209 C 
BRANCH   7   8
ATOM      8  C   UNL     1      13.147   2.874  57.571  1.00  0.00     0.258 C 
ATOM      9  O   UNL     1      12.756   1.732  57.392  1.00  0.00    -0.300 OA
ENDBRANCH   7   8
BRANCH   7  10
ATOM     10  O   UNL     1      14.102   4.858  56.718  1.00  0.00    -0.383 OA
ATOM     11  H   UNL     1      13.680   5.506  57.343  1.00  0.00     0.211 HD
ENDBRANCH   7  10
ENDBRANCH   6   7
BRANCH   6  12
ATOM     12  O   UNL     1      10.768   3.527  56.178  1.00  0.00    -0.387 OA
ATOM     13  H   UNL     1      10.577   3.212  57.099  1.00  0.00     0.211 HD
ENDBRANCH   6  12
ENDBRANCH   1   6
BRANCH   1  14
ATOM     14  O   UNL     1      11.992   6.754  55.356  1.00  0.00    -0.388 OA
ATOM     15  H   UNL     1      12.076   7.271  54.513  1.00  0.00     0.211 HD
ENDBRANCH   1  14
TORSDOF 8
ENDMDL
MODEL 5
REMARK VINA RESULT:    -4.428      2.013      3.733
REMARK INTER + INTRA:          -6.944
REMARK INTER:                  -6.230
REMARK INTRA:                  -0.714
REMARK UNBOUND:                -0.963
REMARK SMILES C[C@@H](O)[C@H](O)[C@@H](O)[C@@H](O)C=O
REMARK SMILES IDX 4 1 2 2 1 3 3 4 6 6 8 7 10 8 11 9 9 10 7 12 5 14
REMARK H PARENT 3 5 9 11 7 13 5 15
REMARK Flexibility Score: inf
ROOT
ATOM      1  C   UNL     1      11.827   5.992  53.546  1.00  0.00     0.174 C 
ENDROOT
BRANCH   1   2
ATOM      2  C   UNL     1      12.222   4.492  53.570  1.00  0.00     0.142 C 
ATOM      3  C   UNL     1      12.983   4.120  54.850  1.00  0.00     0.041 C 
BRANCH   2   4
ATOM      4  O   UNL     1      11.101   3.659  53.407  1.00  0.00    -0.391 OA
ATOM      5  H   UNL     1      10.708   3.505  54.305  1.00  0.00     0.211 HD
ENDBRANCH   2   4
ENDBRANCH   1   2
BRANCH   1   6
ATOM      6  C   UNL     1      11.380   6.548  54.929  1.00  0.00     0.181 C 
BRANCH   6   7
ATOM      7  C   UNL     1       9.847   6.467  55.147  1.00  0.00     0.209 C 
BRANCH   7   8
ATOM      8  C   UNL     1       9.481   5.342  56.084  1.00  0.00     0.258 C 
ATOM      9  O   UNL     1       9.244   4.226  55.650  1.00  0.00    -0.300 OA
ENDBRANCH   7   8
BRANCH   7  10
ATOM     10  O   UNL     1       9.206   6.243  53.918  1.00  0.00    -0.383 OA
ATOM     11  H   UNL     1       9.766   5.596  53.413  1.00  0.00     0.211 HD
ENDBRANCH   7  10
ENDBRANCH   6   7
BRANCH   6  12
ATOM     12  O   UNL     1      11.791   7.892  55.018  1.00  0.00    -0.387 OA
ATOM     13  H   UNL     1      11.428   8.255  55.867  1.00  0.00     0.211 HD
ENDBRANCH   6  12
ENDBRANCH   1   6
BRANCH   1  14
ATOM     14  O   UNL     1      12.921   6.745  53.080  1.00  0.00    -0.388 OA
ATOM     15  H   UNL     1      12.877   6.750  52.088  1.00  0.00     0.211 HD
ENDBRANCH   1  14
TORSDOF 8
ENDMDL
MODEL 6
REMARK VINA RESULT:    -4.330      2.382      3.373
REMARK INTER + INTRA:          -6.812
REMARK INTER:                  -6.129
REMARK INTRA:                  -0.683
REMARK UNBOUND:                -0.963
REMARK SMILES C[C@@H](O)[C@H](O)[C@@H](O)[C@@H](O)C=O
REMARK SMILES IDX 4 1 2 2 1 3 3 4 6 6 8 7 10 8 11 9 9 10 7 12 5 14
REMARK H PARENT 3 5 9 11 7 13 5 15
REMARK Flexibility Score: inf
ROOT
ATOM      1  C   UNL     1      10.604   7.012  53.492  1.00  0.00     0.174 C 
ENDROOT
BRANCH   1   2
ATOM      2  C   UNL     1       9.157   7.496  53.770  1.00  0.00     0.142 C 
ATOM      3  C   UNL     1       9.069   9.027  53.841  1.00  0.00     0.041 C 
BRANCH   2   4
ATOM      4  O   UNL     1       8.252   6.997  52.817  1.00  0.00    -0.391 OA
ATOM      5  H   UNL     1       8.203   7.656  52.075  1.00  0.00     0.211 HD
ENDBRANCH   2   4
ENDBRANCH   1   2
BRANCH   1   6
ATOM      6  C   UNL     1      11.012   5.749  54.303  1.00  0.00     0.181 C 
BRANCH   6   7
ATOM      7  C   UNL     1      12.253   5.026  53.716  1.00  0.00     0.209 C 
BRANCH   7   8
ATOM      8  C   UNL     1      12.963   4.208  54.766  1.00  0.00     0.258 C 
ATOM      9  O   UNL     1      12.333   3.484  55.521  1.00  0.00    -0.300 OA
ENDBRANCH   7   8
BRANCH   7  10
ATOM     10  O   UNL     1      13.156   5.974  53.210  1.00  0.00    -0.383 OA
ATOM     11  H   UNL     1      14.061   5.564  53.255  1.00  0.00     0.211 HD
ENDBRANCH   7  10
ENDBRANCH   6   7
BRANCH   6  12
ATOM     12  O   UNL     1       9.921   4.859  54.314  1.00  0.00    -0.387 OA
ATOM     13  H   UNL     1       9.309   5.151  55.039  1.00  0.00     0.211 HD
ENDBRANCH   6  12
ENDBRANCH   1   6
BRANCH   1  14
ATOM     14  O   UNL     1      10.738   6.738  52.118  1.00  0.00    -0.388 OA
ATOM     15  H   UNL     1      10.001   6.122  51.865  1.00  0.00     0.211 HD
ENDBRANCH   1  14
TORSDOF 8
ENDMDL
MODEL 7
REMARK VINA RESULT:    -4.301      1.502      4.102
REMARK INTER + INTRA:          -6.773
REMARK INTER:                  -6.417
REMARK INTRA:                  -0.356
REMARK UNBOUND:                -0.963
REMARK SMILES C[C@@H](O)[C@H](O)[C@@H](O)[C@@H](O)C=O
REMARK SMILES IDX 4 1 2 2 1 3 3 4 6 6 8 7 10 8 11 9 9 10 7 12 5 14
REMARK H PARENT 3 5 9 11 7 13 5 15
REMARK Flexibility Score: inf
ROOT
ATOM      1  C   UNL     1      12.782   4.033  56.289  1.00  0.00     0.174 C 
ENDROOT
BRANCH   1   2
ATOM      2  C   UNL     1      12.350   3.097  57.447  1.00  0.00     0.142 C 
ATOM      3  C   UNL     1      13.252   1.859  57.551  1.00  0.00     0.041 C 
BRANCH   2   4
ATOM      4  O   UNL     1      12.312   3.779  58.677  1.00  0.00    -0.391 OA
ATOM      5  H   UNL     1      11.361   3.969  58.887  1.00  0.00     0.211 HD
ENDBRANCH   2   4
ENDBRANCH   1   2
BRANCH   1   6
ATOM      6  C   UNL     1      11.679   5.036  55.844  1.00  0.00     0.181 C 
BRANCH   6   7
ATOM      7  C   UNL     1      11.046   4.673  54.475  1.00  0.00     0.209 C 
BRANCH   7   8
ATOM      8  C   UNL     1      12.073   4.698  53.370  1.00  0.00     0.258 C 
ATOM      9  O   UNL     1      12.424   5.756  52.872  1.00  0.00    -0.300 OA
ENDBRANCH   7   8
BRANCH   7  10
ATOM     10  O   UNL     1      10.038   5.597  54.160  1.00  0.00    -0.383 OA
ATOM     11  H   UNL     1       9.605   5.279  53.323  1.00  0.00     0.211 HD
ENDBRANCH   7  10
ENDBRANCH   6   7
BRANCH   6  12
ATOM     12  O   UNL     1      12.255   6.319  55.762  1.00  0.00    -0.387 OA
ATOM     13  H   UNL     1      12.673   6.397  54.865  1.00  0.00     0.211 HD
ENDBRANCH   6  12
ENDBRANCH   1   6
BRANCH   1  14
ATOM     14  O   UNL     1      13.925   4.754  56.685  1.00  0.00    -0.388 OA
ATOM     15  H   UNL     1      13.639   5.405  57.378  1.00  0.00     0.211 HD
ENDBRANCH   1  14
TORSDOF 8
ENDMDL
MODEL 8
REMARK VINA RESULT:    -4.264      1.705      4.012
REMARK INTER + INTRA:          -6.722
REMARK INTER:                  -6.171
REMARK INTRA:                  -0.551
REMARK UNBOUND:                -0.963
REMARK SMILES C[C@@H](O)[C@H](O)[C@@H](O)[C@@H](O)C=O
REMARK SMILES IDX 4 1 2 2 1 3 3 4 6 6 8 7 10 8 11 9 9 10 7 12 5 14
REMARK H PARENT 3 5 9 11 7 13 5 15
REMARK Flexibility Score: inf
ROOT
ATOM      1  C   UNL     1      12.496   4.280  54.998  1.00  0.00     0.174 C 
ENDROOT
BRANCH   1   2
ATOM      2  C   UNL     1      13.451   3.591  56.006  1.00  0.00     0.142 C 
ATOM      3  C   UNL     1      14.920   3.712  55.579  1.00  0.00     0.041 C 
BRANCH   2   4
ATOM      4  O   UNL     1      13.277   4.091  57.309  1.00  0.00    -0.391 OA
ATOM      5  H   UNL     1      13.044   5.053  57.233  1.00  0.00     0.211 HD
ENDBRANCH   2   4
ENDBRANCH   1   2
BRANCH   1   6
ATOM      6  C   UNL     1      11.516   5.297  55.653  1.00  0.00     0.181 C 
BRANCH   6   7
ATOM      7  C   UNL     1      10.314   5.654  54.739  1.00  0.00     0.209 C 
BRANCH   7   8
ATOM      8  C   UNL     1       9.470   6.749  55.343  1.00  0.00     0.258 C 
ATOM      9  O   UNL     1       9.795   7.920  55.224  1.00  0.00    -0.300 OA
ENDBRANCH   7   8
BRANCH   7  10
ATOM     10  O   UNL     1       9.504   4.522  54.558  1.00  0.00    -0.383 OA
ATOM     11  H   UNL     1       8.694   4.654  55.119  1.00  0.00     0.211 HD
ENDBRANCH   7  10
ENDBRANCH   6   7
BRANCH   6  12
ATOM     12  O   UNL     1      12.233   6.470  55.954  1.00  0.00    -0.387 OA
ATOM     13  H   UNL     1      12.706   6.315  56.813  1.00  0.00     0.211 HD
ENDBRANCH   6  12
ENDBRANCH   1   6
BRANCH   1  14
ATOM     14  O   UNL     1      13.263   4.945  54.023  1.00  0.00    -0.388 OA
ATOM     15  H   UNL     1      13.054   5.913  54.090  1.00  0.00     0.211 HD
ENDBRANCH   1  14
TORSDOF 8
ENDMDL
MODEL 9
REMARK VINA RESULT:    -4.138      1.450      2.295
REMARK INTER + INTRA:          -6.552
REMARK INTER:                  -5.909
REMARK INTRA:                  -0.644
REMARK UNBOUND:                -0.963
REMARK SMILES C[C@@H](O)[C@H](O)[C@@H](O)[C@@H](O)C=O
REMARK SMILES IDX 4 1 2 2 1 3 3 4 6 6 8 7 10 8 11 9 9 10 7 12 5 14
REMARK H PARENT 3 5 9 11 7 13 5 15
REMARK Flexibility Score: inf
ROOT
ATOM      1  C   UNL     1      12.127   4.770  54.048  1.00  0.00     0.174 C 
ENDROOT
BRANCH   1   2
ATOM      2  C   UNL     1      11.233   6.035  54.117  1.00  0.00     0.142 C 
ATOM      3  C   UNL     1      11.687   7.114  53.124  1.00  0.00     0.041 C 
BRANCH   2   4
ATOM      4  O   UNL     1       9.877   5.722  53.913  1.00  0.00    -0.391 OA
ATOM      5  H   UNL     1       9.665   5.909  52.961  1.00  0.00     0.211 HD
ENDBRANCH   2   4
ENDBRANCH   1   2
BRANCH   1   6
ATOM      6  C   UNL     1      12.579   4.242  55.441  1.00  0.00     0.181 C 
BRANCH   6   7
ATOM      7  C   UNL     1      11.422   4.188  56.473  1.00  0.00     0.209 C 
BRANCH   7   8
ATOM      8  C   UNL     1      11.887   3.622  57.792  1.00  0.00     0.258 C 
ATOM      9  O   UNL     1      12.843   2.865  57.840  1.00  0.00    -0.300 OA
ENDBRANCH   7   8
BRANCH   7  10
ATOM     10  O   UNL     1      10.389   3.374  55.983  1.00  0.00    -0.383 OA
ATOM     11  H   UNL     1      10.448   3.396  54.991  1.00  0.00     0.211 HD
ENDBRANCH   7  10
ENDBRANCH   6   7
BRANCH   6  12
ATOM     12  O   UNL     1      13.594   5.089  55.926  1.00  0.00    -0.387 OA
ATOM     13  H   UNL     1      13.781   4.818  56.863  1.00  0.00     0.211 HD
ENDBRANCH   6  12
ENDBRANCH   1   6
BRANCH   1  14
ATOM     14  O   UNL     1      11.427   3.751  53.375  1.00  0.00    -0.388 OA
ATOM     15  H   UNL     1      10.632   3.525  53.926  1.00  0.00     0.211 HD
ENDBRANCH   1  14
TORSDOF 8
ENDMDL
