MODEL 1
REMARK VINA RESULT:    -7.864      0.000      0.000
REMARK INTER + INTRA:          -8.266
REMARK INTER:                  -8.554
REMARK INTRA:                   0.288
REMARK UNBOUND:                 0.288
REMARK SMILES CC1(C)CC[C@]2(C(=O)[O-])CC[C@@]3(C)C(=CC[C@H]4[C@@]5(C)CC[C@@H](O)C(C)(C)[C@H]5CC[C@@]43C)[C@H]2C1
REMARK SMILES IDX 6 1 5 2 10 3 32 4 4 5 11 6 14 7 33 8 2 9 12 10 15 11 1 12
REMARK SMILES IDX 3 13 13 14 30 15 16 16 17 17 29 18 31 19 18 20 28 21 27 22
REMARK SMILES IDX 20 23 19 24 24 25 21 26 22 27 25 28 26 29 7 30 8 31 9 32
REMARK SMILES IDX 23 33
REMARK H PARENT 23 34
REMARK Flexibility Score: inf
ROOT
ATOM      1  C   UNL     1       9.206  10.350  36.760  1.00  0.00     0.017 C 
ATOM      2  C   UNL     1       9.872  11.655  36.241  1.00  0.00     0.014 C 
ATOM      3  C   UNL     1       8.855   9.443  35.526  1.00  0.00     0.014 C 
ATOM      4  C   UNL     1       7.908  10.738  37.543  1.00  0.00     0.028 C 
ATOM      5  C   UNL     1      10.196  12.644  37.370  1.00  0.00     0.007 C 
ATOM      6  C   UNL     1       7.417   8.872  35.514  1.00  0.00     0.013 C 
ATOM      7  C   UNL     1       7.106   9.486  37.950  1.00  0.00    -0.064 C 
ATOM      8  C   UNL     1       8.187  11.768  38.678  1.00  0.00     0.015 C 
ATOM      9  C   UNL     1       8.951  13.037  38.203  1.00  0.00    -0.035 C 
ATOM     10  C   UNL     1       6.898   8.376  36.905  1.00  0.00    -0.006 C 
ATOM     11  C   UNL     1       6.432   9.427  39.129  1.00  0.00    -0.027 C 
ATOM     12  C   UNL     1       9.421  13.821  39.447  1.00  0.00     0.011 C 
ATOM     13  C   UNL     1       8.019  13.965  37.386  1.00  0.00     0.011 C 
ATOM     14  C   UNL     1       7.808   7.170  37.327  1.00  0.00     0.017 C 
ATOM     15  C   UNL     1       5.330   7.998  36.856  1.00  0.00    -0.020 C 
ATOM     16  C   UNL     1       5.153   8.647  39.330  1.00  0.00     0.032 C 
ATOM     17  C   UNL     1       4.890   7.527  38.290  1.00  0.00     0.006 C 
ATOM     18  C   UNL     1       5.048   6.834  35.873  1.00  0.00     0.008 C 
ATOM     19  C   UNL     1       4.519   9.257  36.394  1.00  0.00     0.012 C 
ATOM     20  C   UNL     1       3.500   6.742  38.503  1.00  0.00    -0.025 C 
ATOM     21  C   UNL     1       3.584   6.414  35.891  1.00  0.00     0.005 C 
ATOM     22  C   UNL     1       3.136   5.823  37.255  1.00  0.00     0.003 C 
ATOM     23  C   UNL     1       2.284   7.680  38.783  1.00  0.00     0.010 C 
ATOM     24  C   UNL     1       3.709   5.834  39.786  1.00  0.00     0.012 C 
ATOM     25  C   UNL     1       1.612   5.306  37.197  1.00  0.00    -0.006 C 
ATOM     26  C   UNL     1       0.957   6.945  39.090  1.00  0.00     0.033 C 
ATOM     27  C   UNL     1       0.898   5.486  38.573  1.00  0.00     0.120 C 
ATOM     28  C   UNL     1       0.756   6.017  36.103  1.00  0.00     0.014 C 
ATOM     29  C   UNL     1       1.621   3.796  36.848  1.00  0.00     0.014 C 
ENDROOT
BRANCH   1  30
ATOM     30  C   UNL     1      10.219   9.616  37.640  1.00  0.00     0.048 C 
ATOM     31  O   UNL     1       9.961   9.315  38.835  1.00  0.00    -0.550 OA
ATOM     32  O   UNL     1      11.444   9.230  37.105  1.00  0.00    -0.550 OA
ENDBRANCH   1  30
BRANCH  27  33
ATOM     33  O   UNL     1      -0.426   4.998  38.556  1.00  0.00    -0.393 OA
ATOM     34  H   UNL     1      -0.431   4.054  38.859  1.00  0.00     0.210 HD
ENDBRANCH  27  33
TORSDOF 2
ENDMDL
MODEL 2
REMARK VINA RESULT:    -7.579     11.959     15.228
REMARK INTER + INTRA:          -7.955
REMARK INTER:                  -8.287
REMARK INTRA:                   0.331
REMARK UNBOUND:                 0.288
REMARK SMILES CC1(C)CC[C@]2(C(=O)[O-])CC[C@@]3(C)C(=CC[C@H]4[C@@]5(C)CC[C@@H](O)C(C)(C)[C@H]5CC[C@@]43C)[C@H]2C1
REMARK SMILES IDX 6 1 5 2 10 3 32 4 4 5 11 6 14 7 33 8 2 9 12 10 15 11 1 12
REMARK SMILES IDX 3 13 13 14 30 15 16 16 17 17 29 18 31 19 18 20 28 21 27 22
REMARK SMILES IDX 20 23 19 24 24 25 21 26 22 27 25 28 26 29 7 30 8 31 9 32
REMARK SMILES IDX 23 33
REMARK H PARENT 23 34
REMARK Flexibility Score: inf
ROOT
ATOM      1  C   UNL     1      12.195  13.975  22.118  1.00  0.00     0.017 C 
ATOM      2  C   UNL     1      11.274  14.404  20.942  1.00  0.00     0.014 C 
ATOM      3  C   UNL     1      12.959  12.667  21.702  1.00  0.00     0.014 C 
ATOM      4  C   UNL     1      11.297  13.711  23.373  1.00  0.00     0.028 C 
ATOM      5  C   UNL     1      10.429  15.644  21.272  1.00  0.00     0.007 C 
ATOM      6  C   UNL     1      12.934  11.526  22.748  1.00  0.00     0.013 C 
ATOM      7  C   UNL     1      12.122  13.125  24.536  1.00  0.00    -0.064 C 
ATOM      8  C   UNL     1      10.397  14.933  23.723  1.00  0.00     0.015 C 
ATOM      9  C   UNL     1       9.545  15.452  22.530  1.00  0.00    -0.035 C 
ATOM     10  C   UNL     1      13.119  11.993  24.230  1.00  0.00    -0.006 C 
ATOM     11  C   UNL     1      11.856  13.449  25.829  1.00  0.00    -0.027 C 
ATOM     12  C   UNL     1       8.939  16.818  22.916  1.00  0.00     0.011 C 
ATOM     13  C   UNL     1       8.373  14.485  22.230  1.00  0.00     0.011 C 
ATOM     14  C   UNL     1      14.558  12.607  24.338  1.00  0.00     0.017 C 
ATOM     15  C   UNL     1      12.867  10.786  25.272  1.00  0.00    -0.020 C 
ATOM     16  C   UNL     1      12.073  12.511  26.994  1.00  0.00     0.032 C 
ATOM     17  C   UNL     1      13.058  11.343  26.730  1.00  0.00     0.006 C 
ATOM     18  C   UNL     1      13.882   9.632  25.073  1.00  0.00     0.008 C 
ATOM     19  C   UNL     1      11.419  10.227  25.059  1.00  0.00     0.012 C 
ATOM     20  C   UNL     1      13.236  10.335  27.973  1.00  0.00    -0.025 C 
ATOM     21  C   UNL     1      13.705   8.532  26.112  1.00  0.00     0.005 C 
ATOM     22  C   UNL     1      14.007   9.006  27.559  1.00  0.00     0.003 C 
ATOM     23  C   UNL     1      11.889   9.923  28.647  1.00  0.00     0.010 C 
ATOM     24  C   UNL     1      14.087  11.128  29.052  1.00  0.00     0.012 C 
ATOM     25  C   UNL     1      13.901   7.788  28.607  1.00  0.00    -0.006 C 
ATOM     26  C   UNL     1      12.041   9.035  29.906  1.00  0.00     0.033 C 
ATOM     27  C   UNL     1      13.390   8.279  29.998  1.00  0.00     0.120 C 
ATOM     28  C   UNL     1      12.973   6.631  28.124  1.00  0.00     0.014 C 
ATOM     29  C   UNL     1      15.314   7.181  28.796  1.00  0.00     0.014 C 
ENDROOT
BRANCH   1  30
ATOM     30  C   UNL     1      13.215  15.089  22.356  1.00  0.00     0.048 C 
ATOM     31  O   UNL     1      12.960  16.070  23.102  1.00  0.00    -0.550 OA
ATOM     32  O   UNL     1      14.474  15.006  21.771  1.00  0.00    -0.550 OA
ENDBRANCH   1  30
BRANCH  27  33
ATOM     33  O   UNL     1      13.331   7.234  30.945  1.00  0.00    -0.393 OA
ATOM     34  H   UNL     1      13.215   6.370  30.473  1.00  0.00     0.210 HD
ENDBRANCH  27  33
TORSDOF 2
ENDMDL
MODEL 3
REMARK VINA RESULT:    -7.425     11.792     15.931
REMARK INTER + INTRA:          -7.788
REMARK INTER:                  -8.096
REMARK INTRA:                   0.308
REMARK UNBOUND:                 0.288
REMARK SMILES CC1(C)CC[C@]2(C(=O)[O-])CC[C@@]3(C)C(=CC[C@H]4[C@@]5(C)CC[C@@H](O)C(C)(C)[C@H]5CC[C@@]43C)[C@H]2C1
REMARK SMILES IDX 6 1 5 2 10 3 32 4 4 5 11 6 14 7 33 8 2 9 12 10 15 11 1 12
REMARK SMILES IDX 3 13 13 14 30 15 16 16 17 17 29 18 31 19 18 20 28 21 27 22
REMARK SMILES IDX 20 23 19 24 24 25 21 26 22 27 25 28 26 29 7 30 8 31 9 32
REMARK SMILES IDX 23 33
REMARK H PARENT 23 34
REMARK Flexibility Score: inf
ROOT
ATOM      1  C   UNL     1      12.596   8.246  27.498  1.00  0.00     0.017 C 
ATOM      2  C   UNL     1      12.092   6.779  27.394  1.00  0.00     0.014 C 
ATOM      3  C   UNL     1      11.442   9.129  28.095  1.00  0.00     0.014 C 
ATOM      4  C   UNL     1      12.977   8.738  26.062  1.00  0.00     0.028 C 
ATOM      5  C   UNL     1      13.128   5.840  26.758  1.00  0.00     0.007 C 
ATOM      6  C   UNL     1      11.150  10.441  27.327  1.00  0.00     0.013 C 
ATOM      7  C   UNL     1      13.333  10.238  26.062  1.00  0.00    -0.064 C 
ATOM      8  C   UNL     1      14.002   7.794  25.366  1.00  0.00     0.015 C 
ATOM      9  C   UNL     1      13.570   6.300  25.346  1.00  0.00    -0.035 C 
ATOM     10  C   UNL     1      12.422  11.208  26.834  1.00  0.00    -0.006 C 
ATOM     11  C   UNL     1      14.306  10.736  25.254  1.00  0.00    -0.027 C 
ATOM     12  C   UNL     1      14.779   5.444  24.909  1.00  0.00     0.011 C 
ATOM     13  C   UNL     1      12.434   6.070  24.318  1.00  0.00     0.011 C 
ATOM     14  C   UNL     1      13.209  11.656  28.114  1.00  0.00     0.017 C 
ATOM     15  C   UNL     1      12.037  12.440  25.864  1.00  0.00    -0.020 C 
ATOM     16  C   UNL     1      14.285  12.130  24.671  1.00  0.00     0.032 C 
ATOM     17  C   UNL     1      13.367  13.141  25.405  1.00  0.00     0.006 C 
ATOM     18  C   UNL     1      11.175  13.499  26.594  1.00  0.00     0.008 C 
ATOM     19  C   UNL     1      11.230  11.888  24.640  1.00  0.00     0.012 C 
ATOM     20  C   UNL     1      13.330  14.606  24.737  1.00  0.00    -0.025 C 
ATOM     21  C   UNL     1      10.886  14.706  25.711  1.00  0.00     0.005 C 
ATOM     22  C   UNL     1      12.161  15.506  25.334  1.00  0.00     0.003 C 
ATOM     23  C   UNL     1      13.178  14.585  23.183  1.00  0.00     0.010 C 
ATOM     24  C   UNL     1      14.733  15.268  25.070  1.00  0.00     0.012 C 
ATOM     25  C   UNL     1      11.797  16.823  24.482  1.00  0.00    -0.006 C 
ATOM     26  C   UNL     1      13.240  15.976  22.507  1.00  0.00     0.033 C 
ATOM     27  C   UNL     1      12.919  17.162  23.451  1.00  0.00     0.120 C 
ATOM     28  C   UNL     1      10.443  16.711  23.715  1.00  0.00     0.014 C 
ATOM     29  C   UNL     1      11.660  18.017  25.461  1.00  0.00     0.014 C 
ENDROOT
BRANCH   1  30
ATOM     30  C   UNL     1      13.786   8.274  28.458  1.00  0.00     0.048 C 
ATOM     31  O   UNL     1      14.967   8.112  28.051  1.00  0.00    -0.550 OA
ATOM     32  O   UNL     1      13.575   8.524  29.809  1.00  0.00    -0.550 OA
ENDBRANCH   1  30
BRANCH  27  33
ATOM     33  O   UNL     1      12.639  18.339  22.724  1.00  0.00    -0.393 OA
ATOM     34  H   UNL     1      13.092  19.107  23.157  1.00  0.00     0.210 HD
ENDBRANCH  27  33
TORSDOF 2
ENDMDL
MODEL 4
REMARK VINA RESULT:    -7.350     11.277     14.521
REMARK INTER + INTRA:          -7.706
REMARK INTER:                  -7.947
REMARK INTRA:                   0.240
REMARK UNBOUND:                 0.288
REMARK SMILES CC1(C)CC[C@]2(C(=O)[O-])CC[C@@]3(C)C(=CC[C@H]4[C@@]5(C)CC[C@@H](O)C(C)(C)[C@H]5CC[C@@]43C)[C@H]2C1
REMARK SMILES IDX 6 1 5 2 10 3 32 4 4 5 11 6 14 7 33 8 2 9 12 10 15 11 1 12
REMARK SMILES IDX 3 13 13 14 30 15 16 16 17 17 29 18 31 19 18 20 28 21 27 22
REMARK SMILES IDX 20 23 19 24 24 25 21 26 22 27 25 28 26 29 7 30 8 31 9 32
REMARK SMILES IDX 23 33
REMARK H PARENT 23 34
REMARK Flexibility Score: inf
ROOT
ATOM      1  C   UNL     1      12.536  15.022  23.818  1.00  0.00     0.017 C 
ATOM      2  C   UNL     1      12.398  16.569  23.745  1.00  0.00     0.014 C 
ATOM      3  C   UNL     1      11.103  14.402  23.998  1.00  0.00     0.014 C 
ATOM      4  C   UNL     1      13.445  14.667  25.040  1.00  0.00     0.028 C 
ATOM      5  C   UNL     1      13.755  17.280  23.634  1.00  0.00     0.007 C 
ATOM      6  C   UNL     1      10.978  13.346  25.123  1.00  0.00     0.013 C 
ATOM      7  C   UNL     1      13.497  13.144  25.273  1.00  0.00    -0.064 C 
ATOM      8  C   UNL     1      14.821  15.395  24.984  1.00  0.00     0.015 C 
ATOM      9  C   UNL     1      14.712  16.936  24.802  1.00  0.00    -0.035 C 
ATOM     10  C   UNL     1      12.181  12.349  25.222  1.00  0.00    -0.006 C 
ATOM     11  C   UNL     1      14.632  12.530  25.703  1.00  0.00    -0.027 C 
ATOM     12  C   UNL     1      16.113  17.491  24.467  1.00  0.00     0.011 C 
ATOM     13  C   UNL     1      14.239  17.612  26.113  1.00  0.00     0.011 C 
ATOM     14  C   UNL     1      12.196  11.520  23.891  1.00  0.00     0.017 C 
ATOM     15  C   UNL     1      12.082  11.424  26.541  1.00  0.00    -0.020 C 
ATOM     16  C   UNL     1      14.642  11.295  26.575  1.00  0.00     0.032 C 
ATOM     17  C   UNL     1      13.330  10.469  26.570  1.00  0.00     0.006 C 
ATOM     18  C   UNL     1      10.812  10.538  26.529  1.00  0.00     0.008 C 
ATOM     19  C   UNL     1      12.041  12.349  27.806  1.00  0.00     0.012 C 
ATOM     20  C   UNL     1      13.355   9.185  27.541  1.00  0.00    -0.025 C 
ATOM     21  C   UNL     1      10.761   9.598  27.727  1.00  0.00     0.005 C 
ATOM     22  C   UNL     1      11.906   8.551  27.731  1.00  0.00     0.003 C 
ATOM     23  C   UNL     1      13.944   9.478  28.957  1.00  0.00     0.010 C 
ATOM     24  C   UNL     1      14.307   8.129  26.837  1.00  0.00     0.012 C 
ATOM     25  C   UNL     1      11.756   7.523  28.960  1.00  0.00    -0.006 C 
ATOM     26  C   UNL     1      14.070   8.237  29.875  1.00  0.00     0.033 C 
ATOM     27  C   UNL     1      13.151   7.054  29.483  1.00  0.00     0.120 C 
ATOM     28  C   UNL     1      10.952   8.107  30.164  1.00  0.00     0.014 C 
ATOM     29  C   UNL     1      10.980   6.277  28.464  1.00  0.00     0.014 C 
ENDROOT
BRANCH   1  30
ATOM     30  C   UNL     1      13.123  14.534  22.493  1.00  0.00     0.048 C 
ATOM     31  O   UNL     1      14.270  14.019  22.428  1.00  0.00    -0.550 OA
ATOM     32  O   UNL     1      12.364  14.617  21.331  1.00  0.00    -0.550 OA
ENDBRANCH   1  30
BRANCH  27  33
ATOM     33  O   UNL     1      13.040   6.118  30.533  1.00  0.00    -0.393 OA
ATOM     34  H   UNL     1      12.218   5.578  30.406  1.00  0.00     0.210 HD
ENDBRANCH  27  33
TORSDOF 2
ENDMDL
MODEL 5
REMARK VINA RESULT:    -7.280      1.614      2.367
REMARK INTER + INTRA:          -7.630
REMARK INTER:                  -7.889
REMARK INTRA:                   0.259
REMARK UNBOUND:                 0.288
REMARK SMILES CC1(C)CC[C@]2(C(=O)[O-])CC[C@@]3(C)C(=CC[C@H]4[C@@]5(C)CC[C@@H](O)C(C)(C)[C@H]5CC[C@@]43C)[C@H]2C1
REMARK SMILES IDX 6 1 5 2 10 3 32 4 4 5 11 6 14 7 33 8 2 9 12 10 15 11 1 12
REMARK SMILES IDX 3 13 13 14 30 15 16 16 17 17 29 18 31 19 18 20 28 21 27 22
REMARK SMILES IDX 20 23 19 24 24 25 21 26 22 27 25 28 26 29 7 30 8 31 9 32
REMARK SMILES IDX 23 33
REMARK H PARENT 23 34
REMARK Flexibility Score: inf
ROOT
ATOM      1  C   UNL     1       8.738   9.183  38.370  1.00  0.00     0.017 C 
ATOM      2  C   UNL     1      10.027   9.811  37.771  1.00  0.00     0.014 C 
ATOM      3  C   UNL     1       8.889   7.619  38.352  1.00  0.00     0.014 C 
ATOM      4  C   UNL     1       7.521   9.627  37.493  1.00  0.00     0.028 C 
ATOM      5  C   UNL     1       9.955  11.342  37.682  1.00  0.00     0.007 C 
ATOM      6  C   UNL     1       7.680   6.846  37.773  1.00  0.00     0.013 C 
ATOM      7  C   UNL     1       6.227   8.913  37.930  1.00  0.00    -0.064 C 
ATOM      8  C   UNL     1       7.430  11.176  37.349  1.00  0.00     0.015 C 
ATOM      9  C   UNL     1       8.746  11.841  36.853  1.00  0.00    -0.035 C 
ATOM     10  C   UNL     1       6.281   7.401  38.204  1.00  0.00    -0.006 C 
ATOM     11  C   UNL     1       5.023   9.543  37.896  1.00  0.00    -0.027 C 
ATOM     12  C   UNL     1       8.623  13.369  37.037  1.00  0.00     0.011 C 
ATOM     13  C   UNL     1       8.967  11.565  35.345  1.00  0.00     0.011 C 
ATOM     14  C   UNL     1       6.175   7.210  39.757  1.00  0.00     0.017 C 
ATOM     15  C   UNL     1       5.081   6.684  37.397  1.00  0.00    -0.020 C 
ATOM     16  C   UNL     1       3.711   8.839  37.632  1.00  0.00     0.032 C 
ATOM     17  C   UNL     1       3.720   7.308  37.877  1.00  0.00     0.006 C 
ATOM     18  C   UNL     1       5.026   5.162  37.677  1.00  0.00     0.008 C 
ATOM     19  C   UNL     1       5.300   6.907  35.861  1.00  0.00     0.012 C 
ATOM     20  C   UNL     1       2.324   6.578  37.546  1.00  0.00    -0.025 C 
ATOM     21  C   UNL     1       3.839   4.498  36.989  1.00  0.00     0.005 C 
ATOM     22  C   UNL     1       2.469   4.993  37.523  1.00  0.00     0.003 C 
ATOM     23  C   UNL     1       1.686   7.025  36.193  1.00  0.00     0.010 C 
ATOM     24  C   UNL     1       1.329   7.002  38.706  1.00  0.00     0.012 C 
ATOM     25  C   UNL     1       1.250   4.196  36.835  1.00  0.00    -0.006 C 
ATOM     26  C   UNL     1       0.295   6.412  35.899  1.00  0.00     0.033 C 
ATOM     27  C   UNL     1      -0.007   5.107  36.677  1.00  0.00     0.120 C 
ATOM     28  C   UNL     1       1.606   3.603  35.436  1.00  0.00     0.014 C 
ATOM     29  C   UNL     1       0.873   3.000  37.746  1.00  0.00     0.014 C 
ENDROOT
BRANCH   1  30
ATOM     30  C   UNL     1       8.611   9.650  39.821  1.00  0.00     0.048 C 
ATOM     31  O   UNL     1       7.808  10.561  40.155  1.00  0.00    -0.550 OA
ATOM     32  O   UNL     1       9.367   9.033  40.812  1.00  0.00    -0.550 OA
ENDBRANCH   1  30
BRANCH  27  33
ATOM     33  O   UNL     1      -1.102   4.414  36.116  1.00  0.00    -0.393 OA
ATOM     34  H   UNL     1      -0.854   4.086  35.214  1.00  0.00     0.210 HD
ENDBRANCH  27  33
TORSDOF 2
ENDMDL
MODEL 6
REMARK VINA RESULT:    -7.209      2.116      2.965
REMARK INTER + INTRA:          -7.553
REMARK INTER:                  -7.814
REMARK INTRA:                   0.261
REMARK UNBOUND:                 0.288
REMARK SMILES CC1(C)CC[C@]2(C(=O)[O-])CC[C@@]3(C)C(=CC[C@H]4[C@@]5(C)CC[C@@H](O)C(C)(C)[C@H]5CC[C@@]43C)[C@H]2C1
REMARK SMILES IDX 6 1 5 2 10 3 32 4 4 5 11 6 14 7 33 8 2 9 12 10 15 11 1 12
REMARK SMILES IDX 3 13 13 14 30 15 16 16 17 17 29 18 31 19 18 20 28 21 27 22
REMARK SMILES IDX 20 23 19 24 24 25 21 26 22 27 25 28 26 29 7 30 8 31 9 32
REMARK SMILES IDX 23 33
REMARK H PARENT 23 34
REMARK Flexibility Score: inf
ROOT
ATOM      1  C   UNL     1       8.671   7.833  36.741  1.00  0.00     0.017 C 
ATOM      2  C   UNL     1       9.526   9.116  36.941  1.00  0.00     0.014 C 
ATOM      3  C   UNL     1       8.166   7.797  35.254  1.00  0.00     0.014 C 
ATOM      4  C   UNL     1       7.461   7.890  37.731  1.00  0.00     0.028 C 
ATOM      5  C   UNL     1      10.017   9.281  38.387  1.00  0.00     0.007 C 
ATOM      6  C   UNL     1       6.656   7.508  35.076  1.00  0.00     0.013 C 
ATOM      7  C   UNL     1       6.478   6.729  37.478  1.00  0.00    -0.064 C 
ATOM      8  C   UNL     1       7.913   8.091  39.207  1.00  0.00     0.015 C 
ATOM      9  C   UNL     1       8.860   9.308  39.417  1.00  0.00    -0.035 C 
ATOM     10  C   UNL     1       6.085   6.403  36.027  1.00  0.00    -0.006 C 
ATOM     11  C   UNL     1       5.820   6.122  38.501  1.00  0.00    -0.027 C 
ATOM     12  C   UNL     1       9.464   9.222  40.835  1.00  0.00     0.011 C 
ATOM     13  C   UNL     1       8.074  10.638  39.319  1.00  0.00     0.011 C 
ATOM     14  C   UNL     1       6.800   5.061  35.647  1.00  0.00     0.017 C 
ATOM     15  C   UNL     1       4.476   6.311  35.935  1.00  0.00    -0.020 C 
ATOM     16  C   UNL     1       4.437   5.524  38.374  1.00  0.00     0.032 C 
ATOM     17  C   UNL     1       3.988   5.194  36.928  1.00  0.00     0.006 C 
ATOM     18  C   UNL     1       4.002   5.917  34.514  1.00  0.00     0.008 C 
ATOM     19  C   UNL     1       3.866   7.707  36.301  1.00  0.00     0.012 C 
ATOM     20  C   UNL     1       2.495   4.600  36.819  1.00  0.00    -0.025 C 
ATOM     21  C   UNL     1       2.491   5.739  34.446  1.00  0.00     0.005 C 
ATOM     22  C   UNL     1       1.975   4.562  35.315  1.00  0.00     0.003 C 
ATOM     23  C   UNL     1       1.445   5.376  37.675  1.00  0.00     0.010 C 
ATOM     24  C   UNL     1       2.577   3.122  37.389  1.00  0.00     0.012 C 
ATOM     25  C   UNL     1       0.388   4.354  35.136  1.00  0.00    -0.006 C 
ATOM     26  C   UNL     1       0.023   4.764  37.666  1.00  0.00     0.033 C 
ATOM     27  C   UNL     1      -0.270   3.842  36.456  1.00  0.00     0.120 C 
ATOM     28  C   UNL     1      -0.361   5.646  34.683  1.00  0.00     0.014 C 
ATOM     29  C   UNL     1       0.155   3.291  34.034  1.00  0.00     0.014 C 
ENDROOT
BRANCH   1  30
ATOM     30  C   UNL     1       9.569   6.619  36.987  1.00  0.00     0.048 C 
ATOM     31  O   UNL     1       9.522   5.971  38.066  1.00  0.00    -0.550 OA
ATOM     32  O   UNL     1      10.433   6.188  35.987  1.00  0.00    -0.550 OA
ENDBRANCH   1  30
BRANCH  27  33
ATOM     33  O   UNL     1      -1.655   3.611  36.308  1.00  0.00    -0.393 OA
ATOM     34  H   UNL     1      -2.121   4.478  36.188  1.00  0.00     0.210 HD
ENDBRANCH  27  33
TORSDOF 2
ENDMDL
MODEL 7
REMARK VINA RESULT:    -6.969     13.624     17.558
REMARK INTER + INTRA:          -7.291
REMARK INTER:                  -7.596
REMARK INTRA:                   0.305
REMARK UNBOUND:                 0.288
REMARK SMILES CC1(C)CC[C@]2(C(=O)[O-])CC[C@@]3(C)C(=CC[C@H]4[C@@]5(C)CC[C@@H](O)C(C)(C)[C@H]5CC[C@@]43C)[C@H]2C1
REMARK SMILES IDX 6 1 5 2 10 3 32 4 4 5 11 6 14 7 33 8 2 9 12 10 15 11 1 12
REMARK SMILES IDX 3 13 13 14 30 15 16 16 17 17 29 18 31 19 18 20 28 21 27 22
REMARK SMILES IDX 20 23 19 24 24 25 21 26 22 27 25 28 26 29 7 30 8 31 9 32
REMARK SMILES IDX 23 33
REMARK H PARENT 23 34
REMARK Flexibility Score: inf
ROOT
ATOM      1  C   UNL     1      12.697  11.656  24.203  1.00  0.00     0.017 C 
ATOM      2  C   UNL     1      13.800  10.636  24.601  1.00  0.00     0.014 C 
ATOM      3  C   UNL     1      12.983  12.157  22.741  1.00  0.00     0.014 C 
ATOM      4  C   UNL     1      12.746  12.852  25.212  1.00  0.00     0.028 C 
ATOM      5  C   UNL     1      13.649  10.132  26.044  1.00  0.00     0.007 C 
ATOM      6  C   UNL     1      12.934  13.691  22.547  1.00  0.00     0.013 C 
ATOM      7  C   UNL     1      11.787  13.982  24.785  1.00  0.00    -0.064 C 
ATOM      8  C   UNL     1      12.629  12.381  26.692  1.00  0.00     0.015 C 
ATOM      9  C   UNL     1      13.654  11.279  27.086  1.00  0.00    -0.035 C 
ATOM     10  C   UNL     1      11.770  14.410  23.308  1.00  0.00    -0.006 C 
ATOM     11  C   UNL     1      11.109  14.720  25.703  1.00  0.00    -0.027 C 
ATOM     12  C   UNL     1      13.247  10.697  28.457  1.00  0.00     0.011 C 
ATOM     13  C   UNL     1      15.075  11.877  27.231  1.00  0.00     0.011 C 
ATOM     14  C   UNL     1      10.428  13.883  22.692  1.00  0.00     0.017 C 
ATOM     15  C   UNL     1      11.912  16.017  23.233  1.00  0.00    -0.020 C 
ATOM     16  C   UNL     1      10.732  16.171  25.504  1.00  0.00     0.032 C 
ATOM     17  C   UNL     1      10.718  16.656  24.032  1.00  0.00     0.006 C 
ATOM     18  C   UNL     1      11.833  16.534  21.775  1.00  0.00     0.008 C 
ATOM     19  C   UNL     1      13.294  16.433  23.843  1.00  0.00     0.012 C 
ATOM     20  C   UNL     1      10.356  18.214  23.854  1.00  0.00    -0.025 C 
ATOM     21  C   UNL     1      11.874  18.056  21.708  1.00  0.00     0.005 C 
ATOM     22  C   UNL     1      10.647  18.730  22.375  1.00  0.00     0.003 C 
ATOM     23  C   UNL     1      11.109  19.153  24.849  1.00  0.00     0.010 C 
ATOM     24  C   UNL     1       8.805  18.336  24.163  1.00  0.00     0.012 C 
ATOM     25  C   UNL     1      10.687  20.330  22.195  1.00  0.00    -0.006 C 
ATOM     26  C   UNL     1      10.704  20.645  24.765  1.00  0.00     0.033 C 
ATOM     27  C   UNL     1      10.050  21.056  23.422  1.00  0.00     0.120 C 
ATOM     28  C   UNL     1      12.126  20.895  21.983  1.00  0.00     0.014 C 
ATOM     29  C   UNL     1       9.868  20.700  20.933  1.00  0.00     0.014 C 
ENDROOT
BRANCH   1  30
ATOM     30  C   UNL     1      11.349  10.933  24.222  1.00  0.00     0.048 C 
ATOM     31  O   UNL     1      10.641  10.883  25.262  1.00  0.00    -0.550 OA
ATOM     32  O   UNL     1      10.866  10.347  23.057  1.00  0.00    -0.550 OA
ENDBRANCH   1  30
BRANCH  27  33
ATOM     33  O   UNL     1      10.036  22.459  23.264  1.00  0.00    -0.393 OA
ATOM     34  H   UNL     1      10.553  22.876  23.999  1.00  0.00     0.210 HD
ENDBRANCH  27  33
TORSDOF 2
ENDMDL
MODEL 8
REMARK VINA RESULT:    -6.953      4.729      6.498
REMARK INTER + INTRA:          -7.274
REMARK INTER:                  -7.514
REMARK INTRA:                   0.240
REMARK UNBOUND:                 0.288
REMARK SMILES CC1(C)CC[C@]2(C(=O)[O-])CC[C@@]3(C)C(=CC[C@H]4[C@@]5(C)CC[C@@H](O)C(C)(C)[C@H]5CC[C@@]43C)[C@H]2C1
REMARK SMILES IDX 6 1 5 2 10 3 32 4 4 5 11 6 14 7 33 8 2 9 12 10 15 11 1 12
REMARK SMILES IDX 3 13 13 14 30 15 16 16 17 17 29 18 31 19 18 20 28 21 27 22
REMARK SMILES IDX 20 23 19 24 24 25 21 26 22 27 25 28 26 29 7 30 8 31 9 32
REMARK SMILES IDX 23 33
REMARK H PARENT 23 34
REMARK Flexibility Score: inf
ROOT
ATOM      1  C   UNL     1       1.440  13.771  36.116  1.00  0.00     0.017 C 
ATOM      2  C   UNL     1       0.468  14.835  35.533  1.00  0.00     0.014 C 
ATOM      3  C   UNL     1       2.331  13.216  34.947  1.00  0.00     0.014 C 
ATOM      4  C   UNL     1       0.588  12.622  36.750  1.00  0.00     0.028 C 
ATOM      5  C   UNL     1      -0.498  15.396  36.588  1.00  0.00     0.007 C 
ATOM      6  C   UNL     1       2.435  11.673  34.871  1.00  0.00     0.013 C 
ATOM      7  C   UNL     1       1.481  11.451  37.206  1.00  0.00    -0.064 C 
ATOM      8  C   UNL     1      -0.430  13.153  37.803  1.00  0.00     0.015 C 
ATOM      9  C   UNL     1      -1.344  14.296  37.276  1.00  0.00    -0.035 C 
ATOM     10  C   UNL     1       2.586  10.959  36.256  1.00  0.00    -0.006 C 
ATOM     11  C   UNL     1       1.196  10.736  38.327  1.00  0.00    -0.027 C 
ATOM     12  C   UNL     1      -2.084  14.926  38.476  1.00  0.00     0.011 C 
ATOM     13  C   UNL     1      -2.412  13.741  36.303  1.00  0.00     0.011 C 
ATOM     14  C   UNL     1       3.955  11.426  36.862  1.00  0.00     0.017 C 
ATOM     15  C   UNL     1       2.472   9.355  36.115  1.00  0.00    -0.020 C 
ATOM     16  C   UNL     1       1.522   9.269  38.494  1.00  0.00     0.032 C 
ATOM     17  C   UNL     1       2.619   8.721  37.546  1.00  0.00     0.006 C 
ATOM     18  C   UNL     1       3.598   8.773  35.224  1.00  0.00     0.008 C 
ATOM     19  C   UNL     1       1.087   9.001  35.473  1.00  0.00     0.012 C 
ATOM     20  C   UNL     1       2.913   7.147  37.716  1.00  0.00    -0.025 C 
ATOM     21  C   UNL     1       3.547   7.252  35.163  1.00  0.00     0.005 C 
ATOM     22  C   UNL     1       3.814   6.576  36.534  1.00  0.00     0.003 C 
ATOM     23  C   UNL     1       1.624   6.272  37.808  1.00  0.00     0.010 C 
ATOM     24  C   UNL     1       3.689   7.000  39.092  1.00  0.00     0.012 C 
ATOM     25  C   UNL     1       3.845   4.972  36.400  1.00  0.00    -0.006 C 
ATOM     26  C   UNL     1       1.879   4.768  38.072  1.00  0.00     0.033 C 
ATOM     27  C   UNL     1       3.300   4.283  37.691  1.00  0.00     0.120 C 
ATOM     28  C   UNL     1       3.037   4.434  35.179  1.00  0.00     0.014 C 
ATOM     29  C   UNL     1       5.315   4.527  36.196  1.00  0.00     0.014 C 
ENDROOT
BRANCH   1  30
ATOM     30  C   UNL     1       2.342  14.461  37.140  1.00  0.00     0.048 C 
ATOM     31  O   UNL     1       2.292  14.173  38.365  1.00  0.00    -0.550 OA
ATOM     32  O   UNL     1       3.274  15.401  36.715  1.00  0.00    -0.550 OA
ENDBRANCH   1  30
BRANCH  27  33
ATOM     33  O   UNL     1       3.360   2.875  37.611  1.00  0.00    -0.393 OA
ATOM     34  H   UNL     1       2.885   2.573  36.795  1.00  0.00     0.210 HD
ENDBRANCH  27  33
TORSDOF 2
ENDMDL
MODEL 9
REMARK VINA RESULT:    -6.897     12.317     15.513
REMARK INTER + INTRA:          -7.213
REMARK INTER:                  -7.579
REMARK INTRA:                   0.366
REMARK UNBOUND:                 0.288
REMARK SMILES CC1(C)CC[C@]2(C(=O)[O-])CC[C@@]3(C)C(=CC[C@H]4[C@@]5(C)CC[C@@H](O)C(C)(C)[C@H]5CC[C@@]43C)[C@H]2C1
REMARK SMILES IDX 6 1 5 2 10 3 32 4 4 5 11 6 14 7 33 8 2 9 12 10 15 11 1 12
REMARK SMILES IDX 3 13 13 14 30 15 16 16 17 17 29 18 31 19 18 20 28 21 27 22
REMARK SMILES IDX 20 23 19 24 24 25 21 26 22 27 25 28 26 29 7 30 8 31 9 32
REMARK SMILES IDX 23 33
REMARK H PARENT 23 34
REMARK Flexibility Score: inf
ROOT
ATOM      1  C   UNL     1      12.747  15.617  22.556  1.00  0.00     0.017 C 
ATOM      2  C   UNL     1      12.108  16.343  21.339  1.00  0.00     0.014 C 
ATOM      3  C   UNL     1      13.736  14.520  22.019  1.00  0.00     0.014 C 
ATOM      4  C   UNL     1      11.599  14.959  23.392  1.00  0.00     0.028 C 
ATOM      5  C   UNL     1      11.071  17.397  21.755  1.00  0.00     0.007 C 
ATOM      6  C   UNL     1      13.579  13.120  22.660  1.00  0.00     0.013 C 
ATOM      7  C   UNL     1      12.167  14.084  24.527  1.00  0.00    -0.064 C 
ATOM      8  C   UNL     1      10.506  15.988  23.807  1.00  0.00     0.015 C 
ATOM      9  C   UNL     1       9.928  16.808  22.619  1.00  0.00    -0.035 C 
ATOM     10  C   UNL     1      13.331  13.131  24.206  1.00  0.00    -0.006 C 
ATOM     11  C   UNL     1      11.549  13.999  25.735  1.00  0.00    -0.027 C 
ATOM     12  C   UNL     1       9.092  17.975  23.187  1.00  0.00     0.011 C 
ATOM     13  C   UNL     1       8.987  15.932  21.754  1.00  0.00     0.011 C 
ATOM     14  C   UNL     1      14.617  13.736  24.868  1.00  0.00     0.017 C 
ATOM     15  C   UNL     1      12.966  11.660  24.762  1.00  0.00    -0.020 C 
ATOM     16  C   UNL     1      11.573  12.765  26.608  1.00  0.00     0.032 C 
ATOM     17  C   UNL     1      12.719  11.765  26.311  1.00  0.00     0.006 C 
ATOM     18  C   UNL     1      14.123  10.656  24.537  1.00  0.00     0.008 C 
ATOM     19  C   UNL     1      11.691  11.138  24.014  1.00  0.00     0.012 C 
ATOM     20  C   UNL     1      12.694  10.441  27.226  1.00  0.00    -0.025 C 
ATOM     21  C   UNL     1      13.819   9.291  25.141  1.00  0.00     0.005 C 
ATOM     22  C   UNL     1      13.691   9.323  26.687  1.00  0.00     0.003 C 
ATOM     23  C   UNL     1      11.277   9.798  27.364  1.00  0.00     0.010 C 
ATOM     24  C   UNL     1      13.150  10.906  28.672  1.00  0.00     0.012 C 
ATOM     25  C   UNL     1      13.465   7.846  27.287  1.00  0.00    -0.006 C 
ATOM     26  C   UNL     1      11.208   8.582  28.319  1.00  0.00     0.033 C 
ATOM     27  C   UNL     1      12.568   7.882  28.564  1.00  0.00     0.120 C 
ATOM     28  C   UNL     1      12.827   6.852  26.267  1.00  0.00     0.014 C 
ATOM     29  C   UNL     1      14.845   7.261  27.680  1.00  0.00     0.014 C 
ENDROOT
BRANCH   1  30
ATOM     30  C   UNL     1      13.540  16.645  23.362  1.00  0.00     0.048 C 
ATOM     31  O   UNL     1      14.764  16.852  23.148  1.00  0.00    -0.550 OA
ATOM     32  O   UNL     1      12.896  17.406  24.332  1.00  0.00    -0.550 OA
ENDBRANCH   1  30
BRANCH  27  33
ATOM     33  O   UNL     1      12.394   6.601  29.131  1.00  0.00    -0.393 OA
ATOM     34  H   UNL     1      11.627   6.150  28.693  1.00  0.00     0.210 HD
ENDBRANCH  27  33
TORSDOF 2
ENDMDL
