MODEL 1
REMARK VINA RESULT:    -0.193      0.000      0.000
REMARK INTER + INTRA:          -0.300
REMARK INTER:                  -0.204
REMARK INTRA:                  -0.096
REMARK UNBOUND:                -0.096
REMARK SMILES C=C(C)[C@H]1CC=C(C)C(=O)C1
REMARK SMILES IDX 8 1 7 2 6 3 5 4 4 5 11 6 9 7 10 8 2 9 1 10 3 11
REMARK H PARENT
REMARK Flexibility Score: inf
ROOT
ATOM      1  C   UNL     1     134.411 138.150 138.312  1.00  0.00     0.048 C 
ATOM      2  C   UNL     1     135.714 138.319 139.046  1.00  0.00    -0.012 C 
ATOM      3  C   UNL     1     135.722 138.766 140.313  1.00  0.00    -0.019 C 
ATOM      4  C   UNL     1     137.003 139.027 141.060  1.00  0.00     0.036 C 
ATOM      5  C   UNL     1     138.126 138.085 140.586  1.00  0.00     0.025 C 
ATOM      6  C   UNL     1     138.308 138.193 139.061  1.00  0.00     0.089 C 
ATOM      7  C   UNL     1     136.991 138.013 138.356  1.00  0.00     0.158 C 
ATOM      8  O   UNL     1     136.986 137.640 137.151  1.00  0.00    -0.295 OA
ENDROOT
BRANCH   5   9
ATOM      9  C   UNL     1     139.430 138.358 141.322  1.00  0.00    -0.077 C 
ATOM     10  C   UNL     1     139.988 139.579 141.275  1.00  0.00     0.008 C 
ATOM     11  C   UNL     1     140.123 137.281 142.120  1.00  0.00     0.039 C 
ENDBRANCH   5   9
TORSDOF 1
ENDMDL
MODEL 2
REMARK VINA RESULT:    -0.169      1.075      1.075
REMARK INTER + INTRA:          -0.276
REMARK INTER:                  -0.179
REMARK INTRA:                  -0.096
REMARK UNBOUND:                -0.096
REMARK SMILES C=C(C)[C@H]1CC=C(C)C(=O)C1
REMARK SMILES IDX 8 1 7 2 6 3 5 4 4 5 11 6 9 7 10 8 2 9 1 10 3 11
REMARK H PARENT
REMARK Flexibility Score: inf
ROOT
ATOM      1  C   UNL     1     134.303 139.479 137.833  1.00  0.00     0.048 C 
ATOM      2  C   UNL     1     135.511 139.462 138.730  1.00  0.00    -0.012 C 
ATOM      3  C   UNL     1     135.373 139.667 140.051  1.00  0.00    -0.019 C 
ATOM      4  C   UNL     1     136.559 139.738 140.976  1.00  0.00     0.036 C 
ATOM      5  C   UNL     1     137.718 138.860 140.465  1.00  0.00     0.025 C 
ATOM      6  C   UNL     1     138.082 139.242 139.019  1.00  0.00     0.089 C 
ATOM      7  C   UNL     1     136.856 139.243 138.146  1.00  0.00     0.158 C 
ATOM      8  O   UNL     1     136.990 139.100 136.900  1.00  0.00    -0.295 OA
ENDROOT
BRANCH   5   9
ATOM      9  C   UNL     1     138.928 138.944 141.385  1.00  0.00    -0.077 C 
ATOM     10  C   UNL     1     139.533 140.124 141.595  1.00  0.00     0.008 C 
ATOM     11  C   UNL     1     139.473 137.722 142.081  1.00  0.00     0.039 C 
ENDBRANCH   5   9
TORSDOF 1
ENDMDL
MODEL 3
REMARK VINA RESULT:    -0.152      1.511      1.727
REMARK INTER + INTRA:          -0.257
REMARK INTER:                  -0.159
REMARK INTRA:                  -0.098
REMARK UNBOUND:                -0.096
REMARK SMILES C=C(C)[C@H]1CC=C(C)C(=O)C1
REMARK SMILES IDX 8 1 7 2 6 3 5 4 4 5 11 6 9 7 10 8 2 9 1 10 3 11
REMARK H PARENT
REMARK Flexibility Score: inf
ROOT
ATOM      1  C   UNL     1     133.611 138.557 139.001  1.00  0.00     0.048 C 
ATOM      2  C   UNL     1     135.050 138.698 139.415  1.00  0.00    -0.012 C 
ATOM      3  C   UNL     1     135.584 139.918 139.596  1.00  0.00    -0.019 C 
ATOM      4  C   UNL     1     137.039 140.112 139.931  1.00  0.00     0.036 C 
ATOM      5  C   UNL     1     137.587 138.921 140.742  1.00  0.00     0.025 C 
ATOM      6  C   UNL     1     137.332 137.601 139.993  1.00  0.00     0.089 C 
ATOM      7  C   UNL     1     135.884 137.485 139.599  1.00  0.00     0.158 C 
ATOM      8  O   UNL     1     135.397 136.343 139.382  1.00  0.00    -0.295 OA
ENDROOT
BRANCH   5   9
ATOM      9  C   UNL     1     139.063 139.101 141.066  1.00  0.00    -0.077 C 
ATOM     10  C   UNL     1     139.990 138.388 140.406  1.00  0.00     0.008 C 
ATOM     11  C   UNL     1     139.523 140.076 142.122  1.00  0.00     0.039 C 
ENDBRANCH   5   9
TORSDOF 1
ENDMDL
MODEL 4
REMARK VINA RESULT:    -0.140      2.017      2.266
REMARK INTER + INTRA:          -0.245
REMARK INTER:                  -0.150
REMARK INTRA:                  -0.095
REMARK UNBOUND:                -0.096
REMARK SMILES C=C(C)[C@H]1CC=C(C)C(=O)C1
REMARK SMILES IDX 8 1 7 2 6 3 5 4 4 5 11 6 9 7 10 8 2 9 1 10 3 11
REMARK H PARENT
REMARK Flexibility Score: inf
ROOT
ATOM      1  C   UNL     1     134.803 135.196 138.251  1.00  0.00     0.048 C 
ATOM      2  C   UNL     1     135.887 135.893 139.027  1.00  0.00    -0.012 C 
ATOM      3  C   UNL     1     135.574 136.867 139.898  1.00  0.00    -0.019 C 
ATOM      4  C   UNL     1     136.629 137.647 140.638  1.00  0.00     0.036 C 
ATOM      5  C   UNL     1     137.885 136.789 140.885  1.00  0.00     0.025 C 
ATOM      6  C   UNL     1     138.409 136.212 139.558  1.00  0.00     0.089 C 
ATOM      7  C   UNL     1     137.305 135.516 138.809  1.00  0.00     0.158 C 
ATOM      8  O   UNL     1     137.602 134.636 137.956  1.00  0.00    -0.295 OA
ENDROOT
BRANCH   5   9
ATOM      9  C   UNL     1     138.964 137.578 141.614  1.00  0.00    -0.077 C 
ATOM     10  C   UNL     1     140.119 136.984 141.954  1.00  0.00     0.008 C 
ATOM     11  C   UNL     1     138.771 139.032 141.968  1.00  0.00     0.039 C 
ENDBRANCH   5   9
TORSDOF 1
ENDMDL
MODEL 5
REMARK VINA RESULT:    -0.128     21.787     23.257
REMARK INTER + INTRA:          -0.232
REMARK INTER:                  -0.136
REMARK INTRA:                  -0.096
REMARK UNBOUND:                -0.096
REMARK SMILES C=C(C)[C@H]1CC=C(C)C(=O)C1
REMARK SMILES IDX 8 1 7 2 6 3 5 4 4 5 11 6 9 7 10 8 2 9 1 10 3 11
REMARK H PARENT
REMARK Flexibility Score: inf
ROOT
ATOM      1  C   UNL     1     139.016 121.152 128.517  1.00  0.00     0.048 C 
ATOM      2  C   UNL     1     139.041 121.032 127.018  1.00  0.00    -0.012 C 
ATOM      3  C   UNL     1     139.875 120.161 126.425  1.00  0.00    -0.019 C 
ATOM      4  C   UNL     1     139.994 120.063 124.927  1.00  0.00     0.036 C 
ATOM      5  C   UNL     1     138.664 120.424 124.237  1.00  0.00     0.025 C 
ATOM      6  C   UNL     1     138.184 121.813 124.694  1.00  0.00     0.089 C 
ATOM      7  C   UNL     1     138.161 121.899 126.197  1.00  0.00     0.158 C 
ATOM      8  O   UNL     1     137.415 122.750 126.751  1.00  0.00    -0.295 OA
ENDROOT
BRANCH   5   9
ATOM      9  C   UNL     1     138.784 120.347 122.722  1.00  0.00    -0.077 C 
ATOM     10  C   UNL     1     137.748 120.704 121.945  1.00  0.00     0.008 C 
ATOM     11  C   UNL     1     140.054 119.879 122.056  1.00  0.00     0.039 C 
ENDBRANCH   5   9
TORSDOF 1
ENDMDL
MODEL 6
REMARK VINA RESULT:    -0.125     21.295     22.538
REMARK INTER + INTRA:          -0.229
REMARK INTER:                  -0.133
REMARK INTRA:                  -0.096
REMARK UNBOUND:                -0.096
REMARK SMILES C=C(C)[C@H]1CC=C(C)C(=O)C1
REMARK SMILES IDX 8 1 7 2 6 3 5 4 4 5 11 6 9 7 10 8 2 9 1 10 3 11
REMARK H PARENT
REMARK Flexibility Score: inf
ROOT
ATOM      1  C   UNL     1     139.110 119.875 122.019  1.00  0.00     0.048 C 
ATOM      2  C   UNL     1     139.238 120.594 123.334  1.00  0.00    -0.012 C 
ATOM      3  C   UNL     1     139.125 119.915 124.488  1.00  0.00    -0.019 C 
ATOM      4  C   UNL     1     139.166 120.603 125.827  1.00  0.00     0.036 C 
ATOM      5  C   UNL     1     140.047 121.866 125.778  1.00  0.00     0.025 C 
ATOM      6  C   UNL     1     139.574 122.805 124.654  1.00  0.00     0.089 C 
ATOM      7  C   UNL     1     139.463 122.060 123.351  1.00  0.00     0.158 C 
ATOM      8  O   UNL     1     139.520 122.704 122.269  1.00  0.00    -0.295 OA
ENDROOT
BRANCH   5   9
ATOM      9  C   UNL     1     140.075 122.578 127.123  1.00  0.00    -0.077 C 
ATOM     10  C   UNL     1     140.068 121.867 128.262  1.00  0.00     0.008 C 
ATOM     11  C   UNL     1     140.117 124.084 127.215  1.00  0.00     0.039 C 
ENDBRANCH   5   9
TORSDOF 1
ENDMDL
MODEL 7
REMARK VINA RESULT:    -0.120     20.700     22.486
REMARK INTER + INTRA:          -0.223
REMARK INTER:                  -0.125
REMARK INTRA:                  -0.098
REMARK UNBOUND:                -0.096
REMARK SMILES C=C(C)[C@H]1CC=C(C)C(=O)C1
REMARK SMILES IDX 8 1 7 2 6 3 5 4 4 5 11 6 9 7 10 8 2 9 1 10 3 11
REMARK H PARENT
REMARK Flexibility Score: inf
ROOT
ATOM      1  C   UNL     1     124.932 121.817 137.406  1.00  0.00     0.048 C 
ATOM      2  C   UNL     1     123.825 121.859 138.423  1.00  0.00    -0.012 C 
ATOM      3  C   UNL     1     122.714 121.126 138.242  1.00  0.00    -0.019 C 
ATOM      4  C   UNL     1     121.546 121.196 139.191  1.00  0.00     0.036 C 
ATOM      5  C   UNL     1     122.012 121.519 140.624  1.00  0.00     0.025 C 
ATOM      6  C   UNL     1     122.852 122.809 140.636  1.00  0.00     0.089 C 
ATOM      7  C   UNL     1     123.954 122.734 139.614  1.00  0.00     0.158 C 
ATOM      8  O   UNL     1     124.975 123.459 139.759  1.00  0.00    -0.295 OA
ENDROOT
BRANCH   5   9
ATOM      9  C   UNL     1     120.834 121.613 141.584  1.00  0.00    -0.077 C 
ATOM     10  C   UNL     1     120.480 122.800 142.102  1.00  0.00     0.008 C 
ATOM     11  C   UNL     1     120.038 120.392 141.973  1.00  0.00     0.039 C 
ENDBRANCH   5   9
TORSDOF 1
ENDMDL
MODEL 8
REMARK VINA RESULT:    -0.107      2.006      2.857
REMARK INTER + INTRA:          -0.210
REMARK INTER:                  -0.112
REMARK INTRA:                  -0.098
REMARK UNBOUND:                -0.096
REMARK SMILES C=C(C)[C@H]1CC=C(C)C(=O)C1
REMARK SMILES IDX 8 1 7 2 6 3 5 4 4 5 11 6 9 7 10 8 2 9 1 10 3 11
REMARK H PARENT
REMARK Flexibility Score: inf
ROOT
ATOM      1  C   UNL     1     136.165 135.996 136.191  1.00  0.00     0.048 C 
ATOM      2  C   UNL     1     136.931 136.275 137.456  1.00  0.00    -0.012 C 
ATOM      3  C   UNL     1     138.241 136.569 137.400  1.00  0.00    -0.019 C 
ATOM      4  C   UNL     1     139.067 136.777 138.642  1.00  0.00     0.036 C 
ATOM      5  C   UNL     1     138.214 137.352 139.788  1.00  0.00     0.025 C 
ATOM      6  C   UNL     1     136.989 136.455 140.046  1.00  0.00     0.089 C 
ATOM      7  C   UNL     1     136.240 136.200 138.766  1.00  0.00     0.158 C 
ATOM      8  O   UNL     1     135.023 135.877 138.821  1.00  0.00    -0.295 OA
ENDROOT
BRANCH   5   9
ATOM      9  C   UNL     1     139.038 137.544 141.053  1.00  0.00    -0.077 C 
ATOM     10  C   UNL     1     138.899 136.695 142.084  1.00  0.00     0.008 C 
ATOM     11  C   UNL     1     140.025 138.678 141.184  1.00  0.00     0.039 C 
ENDBRANCH   5   9
TORSDOF 1
ENDMDL
MODEL 9
REMARK VINA RESULT:     0.007     11.695     14.625
REMARK INTER + INTRA:          -0.089
REMARK INTER:                   0.000
REMARK INTRA:                  -0.089
REMARK UNBOUND:                -0.096
REMARK SMILES C=C(C)[C@H]1CC=C(C)C(=O)C1
REMARK SMILES IDX 8 1 7 2 6 3 5 4 4 5 11 6 9 7 10 8 2 9 1 10 3 11
REMARK H PARENT
REMARK Flexibility Score: inf
ROOT
ATOM      1  C   UNL     1     127.055 135.985 139.602  1.00  0.00     0.048 C 
ATOM      2  C   UNL     1     125.727 135.378 139.963  1.00  0.00    -0.012 C 
ATOM      3  C   UNL     1     125.303 135.392 141.238  1.00  0.00    -0.019 C 
ATOM      4  C   UNL     1     124.020 134.726 141.661  1.00  0.00     0.036 C 
ATOM      5  C   UNL     1     122.984 134.739 140.521  1.00  0.00     0.025 C 
ATOM      6  C   UNL     1     123.578 134.107 139.250  1.00  0.00     0.089 C 
ATOM      7  C   UNL     1     124.900 134.740 138.910  1.00  0.00     0.158 C 
ATOM      8  O   UNL     1     125.320 134.684 137.723  1.00  0.00    -0.295 OA
ENDROOT
BRANCH   5   9
ATOM      9  C   UNL     1     121.692 134.049 140.935  1.00  0.00    -0.077 C 
ATOM     10  C   UNL     1     120.507 134.545 140.542  1.00  0.00     0.008 C 
ATOM     11  C   UNL     1     121.704 132.801 141.783  1.00  0.00     0.039 C 
ENDBRANCH   5   9
TORSDOF 1
ENDMDL
