MODEL 1
REMARK VINA RESULT:    -4.951      0.000      0.000
REMARK INTER + INTRA:          -5.805
REMARK INTER:                  -5.530
REMARK INTRA:                  -0.275
REMARK UNBOUND:                -0.275
REMARK SMILES O=C([O-])C=Cc1ccccc1
REMARK SMILES IDX 4 1 5 2 2 3 1 4 3 5 6 6 7 7 11 8 8 9 10 10 9 11
REMARK H PARENT
REMARK Flexibility Score: inf
ROOT
ATOM      1  C   UNL     1     -42.180 -25.504  18.926  1.00  0.00     0.025 C 
ATOM      2  C   UNL     1     -41.254 -24.840  19.636  1.00  0.00     0.010 C 
ENDROOT
BRANCH   1   3
ATOM      3  C   UNL     1     -42.966 -24.952  17.805  1.00  0.00     0.064 C 
ATOM      4  O   UNL     1     -44.080 -24.395  17.993  1.00  0.00    -0.545 OA
ATOM      5  O   UNL     1     -42.434 -24.989  16.524  1.00  0.00    -0.545 OA
ENDBRANCH   1   3
BRANCH   2   6
ATOM      6  C   UNL     1     -40.981 -23.391  19.546  1.00  0.00    -0.026 A 
ATOM      7  C   UNL     1     -39.990 -22.931  18.665  1.00  0.00     0.008 A 
ATOM      8  C   UNL     1     -41.622 -22.474  20.399  1.00  0.00     0.008 A 
ATOM      9  C   UNL     1     -39.681 -21.569  18.600  1.00  0.00     0.001 A 
ATOM     10  C   UNL     1     -41.309 -21.112  20.331  1.00  0.00     0.001 A 
ATOM     11  C   UNL     1     -40.344 -20.659  19.428  1.00  0.00     0.000 A 
ENDBRANCH   2   6
TORSDOF 2
ENDMDL
MODEL 2
REMARK VINA RESULT:    -4.921      0.092      1.463
REMARK INTER + INTRA:          -5.771
REMARK INTER:                  -5.494
REMARK INTRA:                  -0.277
REMARK UNBOUND:                -0.275
REMARK SMILES O=C([O-])C=Cc1ccccc1
REMARK SMILES IDX 4 1 5 2 2 3 1 4 3 5 6 6 7 7 11 8 8 9 10 10 9 11
REMARK H PARENT
REMARK Flexibility Score: inf
ROOT
ATOM      1  C   UNL     1     -42.217 -25.492  18.955  1.00  0.00     0.025 C 
ATOM      2  C   UNL     1     -41.266 -24.855  19.658  1.00  0.00     0.010 C 
ENDROOT
BRANCH   1   3
ATOM      3  C   UNL     1     -42.987 -24.921  17.832  1.00  0.00     0.064 C 
ATOM      4  O   UNL     1     -44.124 -24.409  18.007  1.00  0.00    -0.545 OA
ATOM      5  O   UNL     1     -42.415 -24.890  16.569  1.00  0.00    -0.545 OA
ENDBRANCH   1   3
BRANCH   2   6
ATOM      6  C   UNL     1     -40.942 -23.418  19.555  1.00  0.00    -0.026 A 
ATOM      7  C   UNL     1     -41.654 -22.495  20.338  1.00  0.00     0.008 A 
ATOM      8  C   UNL     1     -40.009 -22.946  18.615  1.00  0.00     0.008 A 
ATOM      9  C   UNL     1     -41.399 -21.125  20.220  1.00  0.00     0.001 A 
ATOM     10  C   UNL     1     -39.757 -21.574  18.500  1.00  0.00     0.001 A 
ATOM     11  C   UNL     1     -40.448 -20.665  19.306  1.00  0.00     0.000 A 
ENDBRANCH   2   6
TORSDOF 2
ENDMDL
MODEL 3
REMARK VINA RESULT:    -4.842     10.240     11.346
REMARK INTER + INTRA:          -5.683
REMARK INTER:                  -5.451
REMARK INTRA:                  -0.232
REMARK UNBOUND:                -0.275
REMARK SMILES O=C([O-])C=Cc1ccccc1
REMARK SMILES IDX 4 1 5 2 2 3 1 4 3 5 6 6 7 7 11 8 8 9 10 10 9 11
REMARK H PARENT
REMARK Flexibility Score: inf
ROOT
ATOM      1  C   UNL     1     -50.379 -30.596  22.886  1.00  0.00     0.025 C 
ATOM      2  C   UNL     1     -49.985 -31.665  22.174  1.00  0.00     0.010 C 
ENDROOT
BRANCH   1   3
ATOM      3  C   UNL     1     -49.996 -29.195  22.621  1.00  0.00     0.064 C 
ATOM      4  O   UNL     1     -50.658 -28.470  21.832  1.00  0.00    -0.545 OA
ATOM      5  O   UNL     1     -48.924 -28.646  23.309  1.00  0.00    -0.545 OA
ENDBRANCH   1   3
BRANCH   2   6
ATOM      6  C   UNL     1     -48.959 -31.656  21.112  1.00  0.00    -0.026 A 
ATOM      7  C   UNL     1     -49.349 -31.845  19.777  1.00  0.00     0.008 A 
ATOM      8  C   UNL     1     -47.590 -31.566  21.421  1.00  0.00     0.008 A 
ATOM      9  C   UNL     1     -48.389 -31.890  18.761  1.00  0.00     0.001 A 
ATOM     10  C   UNL     1     -46.633 -31.612  20.402  1.00  0.00     0.001 A 
ATOM     11  C   UNL     1     -47.033 -31.768  19.072  1.00  0.00     0.000 A 
ENDBRANCH   2   6
TORSDOF 2
ENDMDL
MODEL 4
REMARK VINA RESULT:    -4.715      1.932      3.112
REMARK INTER + INTRA:          -5.541
REMARK INTER:                  -5.296
REMARK INTRA:                  -0.245
REMARK UNBOUND:                -0.275
REMARK SMILES O=C([O-])C=Cc1ccccc1
REMARK SMILES IDX 4 1 5 2 2 3 1 4 3 5 6 6 7 7 11 8 8 9 10 10 9 11
REMARK H PARENT
REMARK Flexibility Score: inf
ROOT
ATOM      1  C   UNL     1     -40.816 -23.039  17.637  1.00  0.00     0.025 C 
ATOM      2  C   UNL     1     -40.690 -21.709  17.508  1.00  0.00     0.010 C 
ENDROOT
BRANCH   1   3
ATOM      3  C   UNL     1     -41.412 -23.741  18.791  1.00  0.00     0.064 C 
ATOM      4  O   UNL     1     -40.696 -24.313  19.654  1.00  0.00    -0.545 OA
ATOM      5  O   UNL     1     -42.789 -23.711  18.963  1.00  0.00    -0.545 OA
ENDBRANCH   1   3
BRANCH   2   6
ATOM      6  C   UNL     1     -40.956 -20.716  18.568  1.00  0.00    -0.026 A 
ATOM      7  C   UNL     1     -42.253 -20.201  18.719  1.00  0.00     0.008 A 
ATOM      8  C   UNL     1     -39.915 -20.200  19.362  1.00  0.00     0.008 A 
ATOM      9  C   UNL     1     -42.516 -19.224  19.684  1.00  0.00     0.001 A 
ATOM     10  C   UNL     1     -40.183 -19.222  20.326  1.00  0.00     0.001 A 
ATOM     11  C   UNL     1     -41.484 -18.738  20.490  1.00  0.00     0.000 A 
ENDBRANCH   2   6
TORSDOF 2
ENDMDL
MODEL 5
REMARK VINA RESULT:    -4.703      2.781      4.239
REMARK INTER + INTRA:          -5.528
REMARK INTER:                  -5.265
REMARK INTRA:                  -0.263
REMARK UNBOUND:                -0.275
REMARK SMILES O=C([O-])C=Cc1ccccc1
REMARK SMILES IDX 4 1 5 2 2 3 1 4 3 5 6 6 7 7 11 8 8 9 10 10 9 11
REMARK H PARENT
REMARK Flexibility Score: inf
ROOT
ATOM      1  C   UNL     1     -40.946 -21.268  20.403  1.00  0.00     0.025 C 
ATOM      2  C   UNL     1     -41.364 -22.528  20.199  1.00  0.00     0.010 C 
ENDROOT
BRANCH   1   3
ATOM      3  C   UNL     1     -40.596 -20.294  19.351  1.00  0.00     0.064 C 
ATOM      4  O   UNL     1     -39.439 -20.248  18.855  1.00  0.00    -0.545 OA
ATOM      5  O   UNL     1     -41.582 -19.457  18.849  1.00  0.00    -0.545 OA
ENDBRANCH   1   3
BRANCH   2   6
ATOM      6  C   UNL     1     -41.376 -23.225  18.898  1.00  0.00    -0.026 A 
ATOM      7  C   UNL     1     -40.185 -23.780  18.403  1.00  0.00     0.008 A 
ATOM      8  C   UNL     1     -42.532 -23.256  18.097  1.00  0.00     0.008 A 
ATOM      9  C   UNL     1     -40.163 -24.401  17.150  1.00  0.00     0.001 A 
ATOM     10  C   UNL     1     -42.506 -23.878  16.845  1.00  0.00     0.001 A 
ATOM     11  C   UNL     1     -41.324 -24.455  16.374  1.00  0.00     0.000 A 
ENDBRANCH   2   6
TORSDOF 2
ENDMDL
MODEL 6
REMARK VINA RESULT:    -4.690      2.778      4.434
REMARK INTER + INTRA:          -5.514
REMARK INTER:                  -5.242
REMARK INTRA:                  -0.271
REMARK UNBOUND:                -0.275
REMARK SMILES O=C([O-])C=Cc1ccccc1
REMARK SMILES IDX 4 1 5 2 2 3 1 4 3 5 6 6 7 7 11 8 8 9 10 10 9 11
REMARK H PARENT
REMARK Flexibility Score: inf
ROOT
ATOM      1  C   UNL     1     -40.993 -21.350  20.385  1.00  0.00     0.025 C 
ATOM      2  C   UNL     1     -41.451 -22.585  20.121  1.00  0.00     0.010 C 
ENDROOT
BRANCH   1   3
ATOM      3  C   UNL     1     -40.642 -20.327  19.381  1.00  0.00     0.064 C 
ATOM      4  O   UNL     1     -39.478 -20.244  18.907  1.00  0.00    -0.545 OA
ATOM      5  O   UNL     1     -41.633 -19.483  18.901  1.00  0.00    -0.545 OA
ENDBRANCH   1   3
BRANCH   2   6
ATOM      6  C   UNL     1     -41.515 -23.206  18.783  1.00  0.00    -0.026 A 
ATOM      7  C   UNL     1     -42.749 -23.278  18.116  1.00  0.00     0.008 A 
ATOM      8  C   UNL     1     -40.387 -23.818  18.208  1.00  0.00     0.008 A 
ATOM      9  C   UNL     1     -42.842 -23.906  16.870  1.00  0.00     0.001 A 
ATOM     10  C   UNL     1     -40.484 -24.446  16.961  1.00  0.00     0.001 A 
ATOM     11  C   UNL     1     -41.710 -24.485  16.290  1.00  0.00     0.000 A 
ENDBRANCH   2   6
TORSDOF 2
ENDMDL
MODEL 7
REMARK VINA RESULT:    -4.650      2.582      4.241
REMARK INTER + INTRA:          -5.469
REMARK INTER:                  -5.199
REMARK INTRA:                  -0.270
REMARK UNBOUND:                -0.275
REMARK SMILES O=C([O-])C=Cc1ccccc1
REMARK SMILES IDX 4 1 5 2 2 3 1 4 3 5 6 6 7 7 11 8 8 9 10 10 9 11
REMARK H PARENT
REMARK Flexibility Score: inf
ROOT
ATOM      1  C   UNL     1     -41.777 -22.121  20.372  1.00  0.00     0.025 C 
ATOM      2  C   UNL     1     -42.062 -23.357  19.931  1.00  0.00     0.010 C 
ENDROOT
BRANCH   1   3
ATOM      3  C   UNL     1     -41.554 -20.933  19.525  1.00  0.00     0.064 C 
ATOM      4  O   UNL     1     -42.487 -20.132  19.255  1.00  0.00    -0.545 OA
ATOM      5  O   UNL     1     -40.271 -20.658  19.072  1.00  0.00    -0.545 OA
ENDBRANCH   1   3
BRANCH   2   6
ATOM      6  C   UNL     1     -42.027 -23.793  18.521  1.00  0.00    -0.026 A 
ATOM      7  C   UNL     1     -43.229 -23.899  17.803  1.00  0.00     0.008 A 
ATOM      8  C   UNL     1     -40.826 -24.202  17.914  1.00  0.00     0.008 A 
ATOM      9  C   UNL     1     -43.223 -24.357  16.482  1.00  0.00     0.001 A 
ATOM     10  C   UNL     1     -40.825 -24.660  16.592  1.00  0.00     0.001 A 
ATOM     11  C   UNL     1     -42.022 -24.732  15.875  1.00  0.00     0.000 A 
ENDBRANCH   2   6
TORSDOF 2
ENDMDL
MODEL 8
REMARK VINA RESULT:    -4.632      9.806     11.386
REMARK INTER + INTRA:          -5.448
REMARK INTER:                  -5.201
REMARK INTRA:                  -0.248
REMARK UNBOUND:                -0.275
REMARK SMILES O=C([O-])C=Cc1ccccc1
REMARK SMILES IDX 4 1 5 2 2 3 1 4 3 5 6 6 7 7 11 8 8 9 10 10 9 11
REMARK H PARENT
REMARK Flexibility Score: inf
ROOT
ATOM      1  C   UNL     1     -47.580 -31.745  19.304  1.00  0.00     0.025 C 
ATOM      2  C   UNL     1     -48.900 -31.716  19.548  1.00  0.00     0.010 C 
ENDROOT
BRANCH   1   3
ATOM      3  C   UNL     1     -46.513 -31.523  20.300  1.00  0.00     0.064 C 
ATOM      4  O   UNL     1     -45.890 -32.484  20.823  1.00  0.00    -0.545 OA
ATOM      5  O   UNL     1     -46.145 -30.223  20.617  1.00  0.00    -0.545 OA
ENDBRANCH   1   3
BRANCH   2   6
ATOM      6  C   UNL     1     -49.528 -31.280  20.811  1.00  0.00    -0.026 A 
ATOM      7  C   UNL     1     -49.906 -29.936  20.964  1.00  0.00     0.008 A 
ATOM      8  C   UNL     1     -49.660 -32.159  21.901  1.00  0.00     0.008 A 
ATOM      9  C   UNL     1     -50.456 -29.491  22.170  1.00  0.00     0.001 A 
ATOM     10  C   UNL     1     -50.211 -31.709  23.106  1.00  0.00     0.001 A 
ATOM     11  C   UNL     1     -50.614 -30.378  23.239  1.00  0.00     0.000 A 
ENDBRANCH   2   6
TORSDOF 2
ENDMDL
MODEL 9
REMARK VINA RESULT:    -4.583     10.474     11.634
REMARK INTER + INTRA:          -5.394
REMARK INTER:                  -5.127
REMARK INTRA:                  -0.267
REMARK UNBOUND:                -0.275
REMARK SMILES O=C([O-])C=Cc1ccccc1
REMARK SMILES IDX 4 1 5 2 2 3 1 4 3 5 6 6 7 7 11 8 8 9 10 10 9 11
REMARK H PARENT
REMARK Flexibility Score: inf
ROOT
ATOM      1  C   UNL     1     -49.253 -30.733  19.033  1.00  0.00     0.025 C 
ATOM      2  C   UNL     1     -49.797 -30.315  20.186  1.00  0.00     0.010 C 
ENDROOT
BRANCH   1   3
ATOM      3  C   UNL     1     -48.379 -31.912  18.869  1.00  0.00     0.064 C 
ATOM      4  O   UNL     1     -48.839 -33.025  18.501  1.00  0.00    -0.545 OA
ATOM      5  O   UNL     1     -47.012 -31.772  19.059  1.00  0.00    -0.545 OA
ENDBRANCH   1   3
BRANCH   2   6
ATOM      6  C   UNL     1     -49.479 -30.847  21.526  1.00  0.00    -0.026 A 
ATOM      7  C   UNL     1     -50.365 -31.749  22.136  1.00  0.00     0.008 A 
ATOM      8  C   UNL     1     -48.361 -30.389  22.246  1.00  0.00     0.008 A 
ATOM      9  C   UNL     1     -50.108 -32.227  23.426  1.00  0.00     0.001 A 
ATOM     10  C   UNL     1     -48.109 -30.869  23.536  1.00  0.00     0.001 A 
ATOM     11  C   UNL     1     -48.978 -31.792  24.123  1.00  0.00     0.000 A 
ENDBRANCH   2   6
TORSDOF 2
ENDMDL
