MODEL 1
REMARK VINA RESULT:    -4.813      0.000      0.000
REMARK INTER + INTRA:          -5.664
REMARK INTER:                  -5.516
REMARK INTRA:                  -0.148
REMARK UNBOUND:                -0.148
REMARK SMILES O=C([O-])C=Cc1ccc(O)cc1
REMARK SMILES IDX 6 1 7 2 12 3 8 4 11 5 9 6 5 7 4 8 2 9 1 10 3 11 10 12
REMARK H PARENT 10 13
REMARK Flexibility Score: inf
ROOT
ATOM      1  C   UNL     1      16.041  -7.408  13.378  1.00  0.00    -0.025 A 
ATOM      2  C   UNL     1      15.276  -8.384  12.717  1.00  0.00     0.012 A 
ATOM      3  C   UNL     1      17.388  -7.694  13.685  1.00  0.00     0.012 A 
ATOM      4  C   UNL     1      15.846  -9.606  12.348  1.00  0.00     0.047 A 
ATOM      5  C   UNL     1      17.953  -8.918  13.315  1.00  0.00     0.047 A 
ATOM      6  C   UNL     1      17.187  -9.875  12.645  1.00  0.00     0.115 A 
ENDROOT
BRANCH   1   7
ATOM      7  C   UNL     1      15.389  -6.130  13.757  1.00  0.00     0.010 C 
ATOM      8  C   UNL     1      14.079  -6.009  14.011  1.00  0.00     0.025 C 
BRANCH   8   9
ATOM      9  C   UNL     1      13.476  -4.723  14.395  1.00  0.00     0.064 C 
ATOM     10  O   UNL     1      12.982  -3.978  13.509  1.00  0.00    -0.545 OA
ATOM     11  O   UNL     1      13.445  -4.314  15.724  1.00  0.00    -0.545 OA
ENDBRANCH   8   9
ENDBRANCH   1   7
BRANCH   6  12
ATOM     12  O   UNL     1      17.765 -11.089  12.282  1.00  0.00    -0.508 OA
ATOM     13  H   UNL     1      17.334 -11.697  11.596  1.00  0.00     0.293 HD
ENDBRANCH   6  12
TORSDOF 3
ENDMDL
MODEL 2
REMARK VINA RESULT:    -4.751      0.154      1.406
REMARK INTER + INTRA:          -5.594
REMARK INTER:                  -5.456
REMARK INTRA:                  -0.137
REMARK UNBOUND:                -0.148
REMARK SMILES O=C([O-])C=Cc1ccc(O)cc1
REMARK SMILES IDX 6 1 7 2 12 3 8 4 11 5 9 6 5 7 4 8 2 9 1 10 3 11 10 12
REMARK H PARENT 10 13
REMARK Flexibility Score: inf
ROOT
ATOM      1  C   UNL     1      15.922  -7.531  13.267  1.00  0.00    -0.025 A 
ATOM      2  C   UNL     1      17.278  -7.755  13.561  1.00  0.00     0.012 A 
ATOM      3  C   UNL     1      15.192  -8.547  12.616  1.00  0.00     0.012 A 
ATOM      4  C   UNL     1      17.886  -8.971  13.236  1.00  0.00     0.047 A 
ATOM      5  C   UNL     1      15.804  -9.761  12.292  1.00  0.00     0.047 A 
ATOM      6  C   UNL     1      17.149  -9.979  12.602  1.00  0.00     0.115 A 
ENDROOT
BRANCH   1   7
ATOM      7  C   UNL     1      15.325  -6.220  13.624  1.00  0.00     0.010 C 
ATOM      8  C   UNL     1      14.030  -6.047  13.920  1.00  0.00     0.025 C 
BRANCH   8   9
ATOM      9  C   UNL     1      13.483  -4.729  14.279  1.00  0.00     0.064 C 
ATOM     10  O   UNL     1      13.077  -3.956  13.373  1.00  0.00    -0.545 OA
ATOM     11  O   UNL     1      13.409  -4.322  15.607  1.00  0.00    -0.545 OA
ENDBRANCH   8   9
ENDBRANCH   1   7
BRANCH   6  12
ATOM     12  O   UNL     1      17.744 -11.194  12.273  1.00  0.00    -0.508 OA
ATOM     13  H   UNL     1      18.207 -11.334  11.383  1.00  0.00     0.293 HD
ENDBRANCH   6  12
TORSDOF 3
ENDMDL
MODEL 3
REMARK VINA RESULT:    -4.551      3.791      5.580
REMARK INTER + INTRA:          -5.364
REMARK INTER:                  -5.212
REMARK INTRA:                  -0.152
REMARK UNBOUND:                -0.148
REMARK SMILES O=C([O-])C=Cc1ccc(O)cc1
REMARK SMILES IDX 6 1 7 2 12 3 8 4 11 5 9 6 5 7 4 8 2 9 1 10 3 11 10 12
REMARK H PARENT 10 13
REMARK Flexibility Score: inf
ROOT
ATOM      1  C   UNL     1      14.773 -11.102  12.475  1.00  0.00    -0.025 A 
ATOM      2  C   UNL     1      13.678 -10.237  12.640  1.00  0.00     0.012 A 
ATOM      3  C   UNL     1      14.527 -12.470  12.233  1.00  0.00     0.012 A 
ATOM      4  C   UNL     1      12.369 -10.718  12.541  1.00  0.00     0.047 A 
ATOM      5  C   UNL     1      13.217 -12.947  12.138  1.00  0.00     0.047 A 
ATOM      6  C   UNL     1      12.136 -12.075  12.288  1.00  0.00     0.115 A 
ENDROOT
BRANCH   1   7
ATOM      7  C   UNL     1      16.143 -10.545  12.597  1.00  0.00     0.010 C 
ATOM      8  C   UNL     1      16.416  -9.233  12.606  1.00  0.00     0.025 C 
BRANCH   8   9
ATOM      9  C   UNL     1      17.790  -8.725  12.741  1.00  0.00     0.064 C 
ATOM     10  O   UNL     1      18.542  -9.193  13.635  1.00  0.00    -0.545 OA
ATOM     11  O   UNL     1      18.272  -7.730  11.896  1.00  0.00    -0.545 OA
ENDBRANCH   8   9
ENDBRANCH   1   7
BRANCH   6  12
ATOM     12  O   UNL     1      10.836 -12.565  12.188  1.00  0.00    -0.508 OA
ATOM     13  H   UNL     1      10.293 -12.459  11.339  1.00  0.00     0.293 HD
ENDBRANCH   6  12
TORSDOF 3
ENDMDL
MODEL 4
REMARK VINA RESULT:    -4.517      3.423      4.383
REMARK INTER + INTRA:          -5.325
REMARK INTER:                  -5.185
REMARK INTRA:                  -0.140
REMARK UNBOUND:                -0.148
REMARK SMILES O=C([O-])C=Cc1ccc(O)cc1
REMARK SMILES IDX 6 1 7 2 12 3 8 4 11 5 9 6 5 7 4 8 2 9 1 10 3 11 10 12
REMARK H PARENT 10 13
REMARK Flexibility Score: inf
ROOT
ATOM      1  C   UNL     1      15.748 -10.175  12.430  1.00  0.00    -0.025 A 
ATOM      2  C   UNL     1      14.350 -10.256  12.543  1.00  0.00     0.012 A 
ATOM      3  C   UNL     1      16.496 -11.370  12.382  1.00  0.00     0.012 A 
ATOM      4  C   UNL     1      13.709 -11.498  12.581  1.00  0.00     0.047 A 
ATOM      5  C   UNL     1      15.851 -12.610  12.422  1.00  0.00     0.047 A 
ATOM      6  C   UNL     1      14.459 -12.679  12.519  1.00  0.00     0.115 A 
ENDROOT
BRANCH   1   7
ATOM      7  C   UNL     1      16.382  -8.833  12.403  1.00  0.00     0.010 C 
ATOM      8  C   UNL     1      17.594  -8.572  12.908  1.00  0.00     0.025 C 
BRANCH   8   9
ATOM      9  C   UNL     1      18.189  -7.228  12.849  1.00  0.00     0.064 C 
ATOM     10  O   UNL     1      18.922  -6.914  11.876  1.00  0.00    -0.545 OA
ATOM     11  O   UNL     1      17.957  -6.296  13.855  1.00  0.00    -0.545 OA
ENDBRANCH   8   9
ENDBRANCH   1   7
BRANCH   6  12
ATOM     12  O   UNL     1      13.831 -13.921  12.556  1.00  0.00    -0.508 OA
ATOM     13  H   UNL     1      13.389 -14.267  13.400  1.00  0.00     0.293 HD
ENDBRANCH   6  12
TORSDOF 3
ENDMDL
MODEL 5
REMARK VINA RESULT:    -4.464      2.753      3.473
REMARK INTER + INTRA:          -5.265
REMARK INTER:                  -5.127
REMARK INTRA:                  -0.138
REMARK UNBOUND:                -0.148
REMARK SMILES O=C([O-])C=Cc1ccc(O)cc1
REMARK SMILES IDX 6 1 7 2 12 3 8 4 11 5 9 6 5 7 4 8 2 9 1 10 3 11 10 12
REMARK H PARENT 10 13
REMARK Flexibility Score: inf
ROOT
ATOM      1  C   UNL     1      17.370  -7.313  15.079  1.00  0.00    -0.025 A 
ATOM      2  C   UNL     1      18.153  -8.426  15.429  1.00  0.00     0.012 A 
ATOM      3  C   UNL     1      16.793  -7.267  13.793  1.00  0.00     0.012 A 
ATOM      4  C   UNL     1      18.337  -9.480  14.528  1.00  0.00     0.047 A 
ATOM      5  C   UNL     1      16.981  -8.321  12.895  1.00  0.00     0.047 A 
ATOM      6  C   UNL     1      17.749  -9.430  13.259  1.00  0.00     0.115 A 
ENDROOT
BRANCH   1   7
ATOM      7  C   UNL     1      17.212  -6.217  16.067  1.00  0.00     0.010 C 
ATOM      8  C   UNL     1      16.602  -6.363  17.250  1.00  0.00     0.025 C 
BRANCH   8   9
ATOM      9  C   UNL     1      16.478  -5.249  18.204  1.00  0.00     0.064 C 
ATOM     10  O   UNL     1      17.445  -4.964  18.957  1.00  0.00    -0.545 OA
ATOM     11  O   UNL     1      15.305  -4.507  18.291  1.00  0.00    -0.545 OA
ENDBRANCH   8   9
ENDBRANCH   1   7
BRANCH   6  12
ATOM     12  O   UNL     1      17.925 -10.474  12.353  1.00  0.00    -0.508 OA
ATOM     13  H   UNL     1      17.365 -10.546  11.513  1.00  0.00     0.293 HD
ENDBRANCH   6  12
TORSDOF 3
ENDMDL
MODEL 6
REMARK VINA RESULT:    -4.448      3.541      5.587
REMARK INTER + INTRA:          -5.246
REMARK INTER:                  -5.108
REMARK INTRA:                  -0.137
REMARK UNBOUND:                -0.148
REMARK SMILES O=C([O-])C=Cc1ccc(O)cc1
REMARK SMILES IDX 6 1 7 2 12 3 8 4 11 5 9 6 5 7 4 8 2 9 1 10 3 11 10 12
REMARK H PARENT 10 13
REMARK Flexibility Score: inf
ROOT
ATOM      1  C   UNL     1      16.213 -10.222  12.454  1.00  0.00    -0.025 A 
ATOM      2  C   UNL     1      17.416 -10.256  13.180  1.00  0.00     0.012 A 
ATOM      3  C   UNL     1      15.795  -8.998  11.891  1.00  0.00     0.012 A 
ATOM      4  C   UNL     1      18.196  -9.105  13.322  1.00  0.00     0.047 A 
ATOM      5  C   UNL     1      16.577  -7.849  12.037  1.00  0.00     0.047 A 
ATOM      6  C   UNL     1      17.779  -7.898  12.748  1.00  0.00     0.115 A 
ENDROOT
BRANCH   1   7
ATOM      7  C   UNL     1      15.416 -11.468  12.340  1.00  0.00     0.010 C 
ATOM      8  C   UNL     1      14.097 -11.532  12.567  1.00  0.00     0.025 C 
BRANCH   8   9
ATOM      9  C   UNL     1      13.344 -12.789  12.431  1.00  0.00     0.064 C 
ATOM     10  O   UNL     1      12.215 -12.781  11.876  1.00  0.00    -0.545 OA
ATOM     11  O   UNL     1      13.859 -13.989  12.911  1.00  0.00    -0.545 OA
ENDBRANCH   8   9
ENDBRANCH   1   7
BRANCH   6  12
ATOM     12  O   UNL     1      18.548  -6.745  12.882  1.00  0.00    -0.508 OA
ATOM     13  H   UNL     1      18.842  -6.407  13.791  1.00  0.00     0.293 HD
ENDBRANCH   6  12
TORSDOF 3
ENDMDL
MODEL 7
REMARK VINA RESULT:    -4.343      3.129      5.489
REMARK INTER + INTRA:          -5.125
REMARK INTER:                  -4.976
REMARK INTRA:                  -0.149
REMARK UNBOUND:                -0.148
REMARK SMILES O=C([O-])C=Cc1ccc(O)cc1
REMARK SMILES IDX 6 1 7 2 12 3 8 4 11 5 9 6 5 7 4 8 2 9 1 10 3 11 10 12
REMARK H PARENT 10 13
REMARK Flexibility Score: inf
ROOT
ATOM      1  C   UNL     1      16.130 -10.007  12.621  1.00  0.00    -0.025 A 
ATOM      2  C   UNL     1      15.441  -8.799  12.418  1.00  0.00     0.012 A 
ATOM      3  C   UNL     1      17.490  -9.958  12.994  1.00  0.00     0.012 A 
ATOM      4  C   UNL     1      16.083  -7.572  12.607  1.00  0.00     0.047 A 
ATOM      5  C   UNL     1      18.128  -8.728  13.180  1.00  0.00     0.047 A 
ATOM      6  C   UNL     1      17.429  -7.534  12.990  1.00  0.00     0.115 A 
ENDROOT
BRANCH   1   7
ATOM      7  C   UNL     1      15.408 -11.284  12.399  1.00  0.00     0.010 C 
ATOM      8  C   UNL     1      14.097 -11.446  12.623  1.00  0.00     0.025 C 
BRANCH   8   9
ATOM      9  C   UNL     1      13.419 -12.729  12.378  1.00  0.00     0.064 C 
ATOM     10  O   UNL     1      14.019 -13.807  12.623  1.00  0.00    -0.545 OA
ATOM     11  O   UNL     1      12.122 -12.770  11.876  1.00  0.00    -0.545 OA
ENDBRANCH   8   9
ENDBRANCH   1   7
BRANCH   6  12
ATOM     12  O   UNL     1      18.079  -6.317  13.181  1.00  0.00    -0.508 OA
ATOM     13  H   UNL     1      17.616  -5.533  13.626  1.00  0.00     0.293 HD
ENDBRANCH   6  12
TORSDOF 3
ENDMDL
MODEL 8
REMARK VINA RESULT:    -4.163      2.901      3.797
REMARK INTER + INTRA:          -4.920
REMARK INTER:                  -4.770
REMARK INTRA:                  -0.150
REMARK UNBOUND:                -0.148
REMARK SMILES O=C([O-])C=Cc1ccc(O)cc1
REMARK SMILES IDX 6 1 7 2 12 3 8 4 11 5 9 6 5 7 4 8 2 9 1 10 3 11 10 12
REMARK H PARENT 10 13
REMARK Flexibility Score: inf
ROOT
ATOM      1  C   UNL     1      15.039 -10.406  12.299  1.00  0.00    -0.025 A 
ATOM      2  C   UNL     1      13.711 -10.748  12.607  1.00  0.00     0.012 A 
ATOM      3  C   UNL     1      16.006 -11.431  12.233  1.00  0.00     0.012 A 
ATOM      4  C   UNL     1      13.350 -12.081  12.820  1.00  0.00     0.047 A 
ATOM      5  C   UNL     1      15.640 -12.763  12.448  1.00  0.00     0.047 A 
ATOM      6  C   UNL     1      14.314 -13.093  12.738  1.00  0.00     0.115 A 
ENDROOT
BRANCH   1   7
ATOM      7  C   UNL     1      15.375  -8.976  12.091  1.00  0.00     0.010 C 
ATOM      8  C   UNL     1      14.683  -7.962  12.627  1.00  0.00     0.025 C 
BRANCH   8   9
ATOM      9  C   UNL     1      15.059  -6.558  12.403  1.00  0.00     0.064 C 
ATOM     10  O   UNL     1      14.196  -5.653  12.542  1.00  0.00    -0.545 OA
ATOM     11  O   UNL     1      16.356  -6.212  12.036  1.00  0.00    -0.545 OA
ENDBRANCH   8   9
ENDBRANCH   1   7
BRANCH   6  12
ATOM     12  O   UNL     1      13.965 -14.425  12.948  1.00  0.00    -0.508 OA
ATOM     13  H   UNL     1      14.542 -15.042  13.508  1.00  0.00     0.293 HD
ENDBRANCH   6  12
TORSDOF 3
ENDMDL
