MODEL 1
REMARK VINA RESULT:    -4.122      0.000      0.000
REMARK INTER + INTRA:          -4.242
REMARK INTER:                  -4.242
REMARK INTRA:                   0.000
REMARK UNBOUND:                 0.000
REMARK SMILES Nc1ncnc2nc[nH]c12
REMARK SMILES IDX 8 1 7 2 6 3 5 4 4 5 3 6 2 7 10 8 9 9 1 11
REMARK H PARENT 9 10 1 12 1 13
REMARK Flexibility Score: inf
ROOT
ATOM      1  C   UNL     1     -10.338  27.036  11.612  1.00  0.00     0.199 A 
ATOM      2  N   UNL     1     -11.253  27.807  10.966  1.00  0.00    -0.217 NA
ATOM      3  C   UNL     1     -11.257  28.928  11.708  1.00  0.00     0.182 A 
ATOM      4  N   UNL     1     -12.007  30.035  11.496  1.00  0.00    -0.215 NA
ATOM      5  C   UNL     1     -11.872  31.083  12.365  1.00  0.00     0.226 A 
ATOM      6  N   UNL     1     -10.998  31.004  13.420  1.00  0.00    -0.217 NA
ATOM      7  C   UNL     1     -10.241  29.887  13.636  1.00  0.00     0.152 A 
ATOM      8  C   UNL     1     -10.390  28.829  12.743  1.00  0.00     0.127 A 
ATOM      9  N   UNL     1      -9.792  27.633  12.703  1.00  0.00    -0.340 N 
ATOM     10  H   UNL     1      -9.075  27.239  13.350  1.00  0.00     0.168 HD
ENDROOT
BRANCH   7  11
ATOM     11  N   UNL     1      -9.338  29.827  14.741  1.00  0.00    -0.382 N 
ATOM     12  H   UNL     1      -9.684  29.797  15.725  1.00  0.00     0.158 HD
ATOM     13  H   UNL     1      -8.308  29.811  14.572  1.00  0.00     0.158 HD
ENDBRANCH   7  11
TORSDOF 1
ENDMDL
MODEL 2
REMARK VINA RESULT:    -3.957      2.106      3.890
REMARK INTER + INTRA:          -4.072
REMARK INTER:                  -4.072
REMARK INTRA:                   0.000
REMARK UNBOUND:                 0.000
REMARK SMILES Nc1ncnc2nc[nH]c12
REMARK SMILES IDX 8 1 7 2 6 3 5 4 4 5 3 6 2 7 10 8 9 9 1 11
REMARK H PARENT 9 10 1 12 1 13
REMARK Flexibility Score: inf
ROOT
ATOM      1  C   UNL     1     -10.584  30.312  17.079  1.00  0.00     0.199 A 
ATOM      2  N   UNL     1     -11.254  31.449  16.749  1.00  0.00    -0.217 NA
ATOM      3  C   UNL     1     -11.149  31.464  15.409  1.00  0.00     0.182 A 
ATOM      4  N   UNL     1     -11.652  32.400  14.570  1.00  0.00    -0.215 NA
ATOM      5  C   UNL     1     -11.441  32.242  13.227  1.00  0.00     0.226 A 
ATOM      6  N   UNL     1     -10.737  31.163  12.754  1.00  0.00    -0.217 NA
ATOM      7  C   UNL     1     -10.228  30.219  13.601  1.00  0.00     0.152 A 
ATOM      8  C   UNL     1     -10.452  30.393  14.964  1.00  0.00     0.127 A 
ATOM      9  N   UNL     1     -10.081  29.644  16.010  1.00  0.00    -0.340 N 
ATOM     10  H   UNL     1      -9.535  28.755  16.016  1.00  0.00     0.168 HD
ENDROOT
BRANCH   7  11
ATOM     11  N   UNL     1      -9.499  29.104  13.087  1.00  0.00    -0.382 N 
ATOM     12  H   UNL     1      -9.853  28.548  12.277  1.00  0.00     0.158 HD
ATOM     13  H   UNL     1      -8.590  28.829  13.523  1.00  0.00     0.158 HD
ENDBRANCH   7  11
TORSDOF 1
ENDMDL
MODEL 3
REMARK VINA RESULT:    -3.880      4.278      5.981
REMARK INTER + INTRA:          -3.993
REMARK INTER:                  -3.993
REMARK INTRA:                   0.000
REMARK UNBOUND:                 0.000
REMARK SMILES Nc1ncnc2nc[nH]c12
REMARK SMILES IDX 8 1 7 2 6 3 5 4 4 5 3 6 2 7 10 8 9 9 1 11
REMARK H PARENT 9 10 1 12 1 13
REMARK Flexibility Score: inf
ROOT
ATOM      1  C   UNL     1     -10.311  30.837  15.739  1.00  0.00     0.199 A 
ATOM      2  N   UNL     1     -10.957  31.560  16.693  1.00  0.00    -0.217 NA
ATOM      3  C   UNL     1     -10.942  30.723  17.744  1.00  0.00     0.182 A 
ATOM      4  N   UNL     1     -11.464  30.958  18.971  1.00  0.00    -0.215 NA
ATOM      5  C   UNL     1     -11.350  29.978  19.920  1.00  0.00     0.226 A 
ATOM      6  N   UNL     1     -10.724  28.793  19.625  1.00  0.00    -0.217 NA
ATOM      7  C   UNL     1     -10.198  28.554  18.386  1.00  0.00     0.152 A 
ATOM      8  C   UNL     1     -10.322  29.561  17.433  1.00  0.00     0.127 A 
ATOM      9  N   UNL     1      -9.911  29.610  16.160  1.00  0.00    -0.340 N 
ATOM     10  H   UNL     1      -9.402  28.884  15.610  1.00  0.00     0.168 HD
ENDROOT
BRANCH   7  11
ATOM     11  N   UNL     1      -9.551  27.313  18.102  1.00  0.00    -0.382 N 
ATOM     12  H   UNL     1      -8.949  27.195  17.258  1.00  0.00     0.158 HD
ATOM     13  H   UNL     1      -9.676  26.500  18.745  1.00  0.00     0.158 HD
ENDBRANCH   7  11
TORSDOF 1
ENDMDL
MODEL 4
REMARK VINA RESULT:    -3.868      4.086      5.636
REMARK INTER + INTRA:          -3.982
REMARK INTER:                  -3.982
REMARK INTRA:                   0.000
REMARK UNBOUND:                 0.000
REMARK SMILES Nc1ncnc2nc[nH]c12
REMARK SMILES IDX 8 1 7 2 6 3 5 4 4 5 3 6 2 7 10 8 9 9 1 11
REMARK H PARENT 9 10 1 12 1 13
REMARK Flexibility Score: inf
ROOT
ATOM      1  C   UNL     1      -9.860  28.072  19.010  1.00  0.00     0.199 A 
ATOM      2  N   UNL     1     -10.801  28.892  19.553  1.00  0.00    -0.217 NA
ATOM      3  C   UNL     1     -11.084  29.717  18.530  1.00  0.00     0.182 A 
ATOM      4  N   UNL     1     -11.973  30.738  18.538  1.00  0.00    -0.215 NA
ATOM      5  C   UNL     1     -12.125  31.471  17.393  1.00  0.00     0.226 A 
ATOM      6  N   UNL     1     -11.391  31.172  16.273  1.00  0.00    -0.217 NA
ATOM      7  C   UNL     1     -10.493  30.142  16.263  1.00  0.00     0.152 A 
ATOM      8  C   UNL     1     -10.350  29.406  17.436  1.00  0.00     0.127 A 
ATOM      9  N   UNL     1      -9.563  28.361  17.718  1.00  0.00    -0.340 N 
ATOM     10  H   UNL     1      -8.878  27.874  17.099  1.00  0.00     0.168 HD
ENDROOT
BRANCH   7  11
ATOM     11  N   UNL     1      -9.740  29.849  15.086  1.00  0.00    -0.382 N 
ATOM     12  H   UNL     1     -10.005  29.063  14.452  1.00  0.00     0.158 HD
ATOM     13  H   UNL     1      -8.905  30.427  14.843  1.00  0.00     0.158 HD
ENDBRANCH   7  11
TORSDOF 1
ENDMDL
MODEL 5
REMARK VINA RESULT:    -3.797     12.639     14.353
REMARK INTER + INTRA:          -3.908
REMARK INTER:                  -3.908
REMARK INTRA:                   0.000
REMARK UNBOUND:                 0.000
REMARK SMILES Nc1ncnc2nc[nH]c12
REMARK SMILES IDX 8 1 7 2 6 3 5 4 4 5 3 6 2 7 10 8 9 9 1 11
REMARK H PARENT 9 10 1 12 1 13
REMARK Flexibility Score: inf
ROOT
ATOM      1  C   UNL     1      -9.505  32.380  24.078  1.00  0.00     0.199 A 
ATOM      2  N   UNL     1     -10.383  33.417  24.152  1.00  0.00    -0.217 NA
ATOM      3  C   UNL     1     -10.068  33.974  25.334  1.00  0.00     0.182 A 
ATOM      4  N   UNL     1     -10.651  35.058  25.897  1.00  0.00    -0.215 NA
ATOM      5  C   UNL     1     -10.190  35.480  27.114  1.00  0.00     0.226 A 
ATOM      6  N   UNL     1      -9.165  34.815  27.739  1.00  0.00    -0.217 NA
ATOM      7  C   UNL     1      -8.576  33.720  27.172  1.00  0.00     0.152 A 
ATOM      8  C   UNL     1      -9.056  33.304  25.933  1.00  0.00     0.127 A 
ATOM      9  N   UNL     1      -8.680  32.284  25.152  1.00  0.00    -0.340 N 
ATOM     10  H   UNL     1      -7.932  31.576  25.317  1.00  0.00     0.168 HD
ENDROOT
BRANCH   7  11
ATOM     11  N   UNL     1      -7.510  33.044  27.840  1.00  0.00    -0.382 N 
ATOM     12  H   UNL     1      -6.963  33.507  28.599  1.00  0.00     0.158 HD
ATOM     13  H   UNL     1      -7.264  32.065  27.572  1.00  0.00     0.158 HD
ENDBRANCH   7  11
TORSDOF 1
ENDMDL
MODEL 6
REMARK VINA RESULT:    -3.584     16.227     17.160
REMARK INTER + INTRA:          -3.689
REMARK INTER:                  -3.689
REMARK INTRA:                   0.000
REMARK UNBOUND:                 0.000
REMARK SMILES Nc1ncnc2nc[nH]c12
REMARK SMILES IDX 8 1 7 2 6 3 5 4 4 5 3 6 2 7 10 8 9 9 1 11
REMARK H PARENT 9 10 1 12 1 13
REMARK Flexibility Score: inf
ROOT
ATOM      1  C   UNL     1      -9.151  19.224  24.538  1.00  0.00     0.199 A 
ATOM      2  N   UNL     1      -9.637  18.053  25.031  1.00  0.00    -0.217 NA
ATOM      3  C   UNL     1     -10.406  18.470  26.052  1.00  0.00     0.182 A 
ATOM      4  N   UNL     1     -11.129  17.691  26.889  1.00  0.00    -0.215 NA
ATOM      5  C   UNL     1     -11.855  18.302  27.875  1.00  0.00     0.226 A 
ATOM      6  N   UNL     1     -11.842  19.669  28.003  1.00  0.00    -0.217 NA
ATOM      7  C   UNL     1     -11.111  20.456  27.159  1.00  0.00     0.152 A 
ATOM      8  C   UNL     1     -10.379  19.818  26.162  1.00  0.00     0.127 A 
ATOM      9  N   UNL     1      -9.586  20.322  25.207  1.00  0.00    -0.340 N 
ATOM     10  H   UNL     1      -9.349  21.319  25.013  1.00  0.00     0.168 HD
ENDROOT
BRANCH   7  11
ATOM     11  N   UNL     1     -11.113  21.876  27.311  1.00  0.00    -0.382 N 
ATOM     12  H   UNL     1     -11.167  22.512  26.485  1.00  0.00     0.158 HD
ATOM     13  H   UNL     1     -11.058  22.299  28.265  1.00  0.00     0.158 HD
ENDBRANCH   7  11
TORSDOF 1
ENDMDL
MODEL 7
REMARK VINA RESULT:    -3.549     12.774     14.575
REMARK INTER + INTRA:          -3.652
REMARK INTER:                  -3.652
REMARK INTRA:                   0.000
REMARK UNBOUND:                 0.000
REMARK SMILES Nc1ncnc2nc[nH]c12
REMARK SMILES IDX 8 1 7 2 6 3 5 4 4 5 3 6 2 7 10 8 9 9 1 11
REMARK H PARENT 9 10 1 12 1 13
REMARK Flexibility Score: inf
ROOT
ATOM      1  C   UNL     1      -8.747  34.526  28.125  1.00  0.00     0.199 A 
ATOM      2  N   UNL     1      -9.768  35.284  27.642  1.00  0.00    -0.217 NA
ATOM      3  C   UNL     1     -10.015  34.706  26.454  1.00  0.00     0.182 A 
ATOM      4  N   UNL     1     -10.955  35.080  25.554  1.00  0.00    -0.215 NA
ATOM      5  C   UNL     1     -11.057  34.364  24.392  1.00  0.00     0.226 A 
ATOM      6  N   UNL     1     -10.225  33.299  24.155  1.00  0.00    -0.217 NA
ATOM      7  C   UNL     1      -9.276  32.921  25.063  1.00  0.00     0.152 A 
ATOM      8  C   UNL     1      -9.185  33.660  26.240  1.00  0.00     0.127 A 
ATOM      9  N   UNL     1      -8.367  33.525  27.291  1.00  0.00    -0.340 N 
ATOM     10  H   UNL     1      -7.612  32.821  27.446  1.00  0.00     0.168 HD
ENDROOT
BRANCH   7  11
ATOM     11  N   UNL     1      -8.421  31.809  24.796  1.00  0.00    -0.382 N 
ATOM     12  H   UNL     1      -8.791  30.834  24.761  1.00  0.00     0.158 HD
ATOM     13  H   UNL     1      -7.401  31.963  24.630  1.00  0.00     0.158 HD
ENDBRANCH   7  11
TORSDOF 1
ENDMDL
