MODEL 1
REMARK VINA RESULT:    -5.077      0.000      0.000
REMARK INTER + INTRA:          -5.614
REMARK INTER:                  -5.523
REMARK INTRA:                  -0.092
REMARK UNBOUND:                -0.092
REMARK SMILES C=C(C)[C@H]1CC=C(C)[C@H](O)C1
REMARK SMILES IDX 8 1 7 2 6 3 5 4 4 5 11 6 9 7 10 8 2 10 1 11 3 12
REMARK H PARENT 10 9
REMARK Flexibility Score: inf
ROOT
ATOM      1  C   UNL     1     113.115 122.626 126.788  1.00  0.00     0.042 C 
ATOM      2  C   UNL     1     113.397 122.221 128.209  1.00  0.00    -0.049 C 
ATOM      3  C   UNL     1     113.959 121.017 128.446  1.00  0.00    -0.025 C 
ATOM      4  C   UNL     1     114.214 120.487 129.834  1.00  0.00     0.035 C 
ATOM      5  C   UNL     1     114.376 121.619 130.861  1.00  0.00     0.021 C 
ATOM      6  C   UNL     1     113.202 122.606 130.739  1.00  0.00     0.044 C 
ATOM      7  C   UNL     1     113.127 123.222 129.326  1.00  0.00     0.140 C 
ENDROOT
BRANCH   7   8
ATOM      8  O   UNL     1     113.992 124.325 129.219  1.00  0.00    -0.389 OA
ATOM      9  H   UNL     1     114.263 124.590 130.136  1.00  0.00     0.211 HD
ENDBRANCH   7   8
BRANCH   5  10
ATOM     10  C   UNL     1     114.508 121.075 132.277  1.00  0.00    -0.077 C 
ATOM     11  C   UNL     1     113.676 120.128 132.745  1.00  0.00     0.008 C 
ATOM     12  C   UNL     1     115.587 121.599 133.191  1.00  0.00     0.039 C 
ENDBRANCH   5  10
TORSDOF 2
ENDMDL
MODEL 2
REMARK VINA RESULT:    -5.069     14.283     15.697
REMARK INTER + INTRA:          -5.606
REMARK INTER:                  -5.519
REMARK INTRA:                  -0.087
REMARK UNBOUND:                -0.092
REMARK SMILES C=C(C)[C@H]1CC=C(C)[C@H](O)C1
REMARK SMILES IDX 8 1 7 2 6 3 5 4 4 5 11 6 9 7 10 8 2 10 1 11 3 12
REMARK H PARENT 10 9
REMARK Flexibility Score: inf
ROOT
ATOM      1  C   UNL     1     122.446 119.340 120.337  1.00  0.00     0.042 C 
ATOM      2  C   UNL     1     123.689 120.161 120.120  1.00  0.00    -0.049 C 
ATOM      3  C   UNL     1     123.640 121.207 119.268  1.00  0.00    -0.025 C 
ATOM      4  C   UNL     1     124.846 122.044 118.927  1.00  0.00     0.035 C 
ATOM      5  C   UNL     1     125.898 122.022 120.047  1.00  0.00     0.021 C 
ATOM      6  C   UNL     1     126.201 120.568 120.448  1.00  0.00     0.044 C 
ATOM      7  C   UNL     1     124.931 119.843 120.943  1.00  0.00     0.140 C 
ENDROOT
BRANCH   7   8
ATOM      8  O   UNL     1     124.704 120.113 122.304  1.00  0.00    -0.389 OA
ATOM      9  H   UNL     1     123.912 120.707 122.368  1.00  0.00     0.211 HD
ENDBRANCH   7   8
BRANCH   5  10
ATOM     10  C   UNL     1     127.163 122.768 119.641  1.00  0.00    -0.077 C 
ATOM     11  C   UNL     1     127.212 124.111 119.631  1.00  0.00     0.008 C 
ATOM     12  C   UNL     1     128.396 122.001 119.236  1.00  0.00     0.039 C 
ENDBRANCH   5  10
TORSDOF 2
ENDMDL
MODEL 3
REMARK VINA RESULT:    -4.951     11.098     12.041
REMARK INTER + INTRA:          -5.477
REMARK INTER:                  -5.383
REMARK INTRA:                  -0.094
REMARK UNBOUND:                -0.092
REMARK SMILES C=C(C)[C@H]1CC=C(C)[C@H](O)C1
REMARK SMILES IDX 8 1 7 2 6 3 5 4 4 5 11 6 9 7 10 8 2 10 1 11 3 12
REMARK H PARENT 10 9
REMARK Flexibility Score: inf
ROOT
ATOM      1  C   UNL     1     118.203 128.571 130.866  1.00  0.00     0.042 C 
ATOM      2  C   UNL     1     119.129 129.733 130.632  1.00  0.00    -0.049 C 
ATOM      3  C   UNL     1     118.691 130.982 130.899  1.00  0.00    -0.025 C 
ATOM      4  C   UNL     1     119.513 132.216 130.630  1.00  0.00     0.035 C 
ATOM      5  C   UNL     1     121.020 131.918 130.645  1.00  0.00     0.021 C 
ATOM      6  C   UNL     1     121.323 130.716 129.734  1.00  0.00     0.044 C 
ATOM      7  C   UNL     1     120.561 129.455 130.193  1.00  0.00     0.140 C 
ENDROOT
BRANCH   7   8
ATOM      8  O   UNL     1     121.268 128.791 131.211  1.00  0.00    -0.389 OA
ATOM      9  H   UNL     1     121.353 129.413 131.979  1.00  0.00     0.211 HD
ENDBRANCH   7   8
BRANCH   5  10
ATOM     10  C   UNL     1     121.837 133.142 130.250  1.00  0.00    -0.077 C 
ATOM     11  C   UNL     1     122.910 133.040 129.447  1.00  0.00     0.008 C 
ATOM     12  C   UNL     1     121.451 134.506 130.763  1.00  0.00     0.039 C 
ENDBRANCH   5  10
TORSDOF 2
ENDMDL
MODEL 4
REMARK VINA RESULT:    -4.936     11.414     12.272
REMARK INTER + INTRA:          -5.460
REMARK INTER:                  -5.368
REMARK INTRA:                  -0.092
REMARK UNBOUND:                -0.092
REMARK SMILES C=C(C)[C@H]1CC=C(C)[C@H](O)C1
REMARK SMILES IDX 8 1 7 2 6 3 5 4 4 5 11 6 9 7 10 8 2 10 1 11 3 12
REMARK H PARENT 10 9
REMARK Flexibility Score: inf
ROOT
ATOM      1  C   UNL     1     121.142 135.366 129.728  1.00  0.00     0.042 C 
ATOM      2  C   UNL     1     120.696 133.946 129.945  1.00  0.00    -0.049 C 
ATOM      3  C   UNL     1     119.381 133.653 129.855  1.00  0.00    -0.025 C 
ATOM      4  C   UNL     1     118.825 132.278 130.127  1.00  0.00     0.035 C 
ATOM      5  C   UNL     1     119.870 131.177 129.886  1.00  0.00     0.021 C 
ATOM      6  C   UNL     1     121.170 131.520 130.633  1.00  0.00     0.044 C 
ATOM      7  C   UNL     1     121.752 132.870 130.163  1.00  0.00     0.140 C 
ENDROOT
BRANCH   7   8
ATOM      8  O   UNL     1     122.529 132.699 129.003  1.00  0.00    -0.389 OA
ATOM      9  H   UNL     1     121.980 132.207 128.339  1.00  0.00     0.211 HD
ENDBRANCH   7   8
BRANCH   5  10
ATOM     10  C   UNL     1     119.339 129.806 130.282  1.00  0.00    -0.077 C 
ATOM     11  C   UNL     1     119.802 128.682 129.708  1.00  0.00     0.008 C 
ATOM     12  C   UNL     1     118.268 129.685 131.336  1.00  0.00     0.039 C 
ENDBRANCH   5  10
TORSDOF 2
ENDMDL
MODEL 5
REMARK VINA RESULT:    -4.894      2.127      4.690
REMARK INTER + INTRA:          -5.414
REMARK INTER:                  -5.328
REMARK INTRA:                  -0.086
REMARK UNBOUND:                -0.092
REMARK SMILES C=C(C)[C@H]1CC=C(C)[C@H](O)C1
REMARK SMILES IDX 8 1 7 2 6 3 5 4 4 5 11 6 9 7 10 8 2 10 1 11 3 12
REMARK H PARENT 10 9
REMARK Flexibility Score: inf
ROOT
ATOM      1  C   UNL     1     115.925 120.586 134.479  1.00  0.00     0.042 C 
ATOM      2  C   UNL     1     115.462 120.764 133.059  1.00  0.00    -0.049 C 
ATOM      3  C   UNL     1     116.368 120.681 132.061  1.00  0.00    -0.025 C 
ATOM      4  C   UNL     1     116.019 120.917 130.614  1.00  0.00     0.035 C 
ATOM      5  C   UNL     1     114.538 120.627 130.324  1.00  0.00     0.021 C 
ATOM      6  C   UNL     1     113.653 121.368 131.342  1.00  0.00     0.044 C 
ATOM      7  C   UNL     1     113.972 120.934 132.788  1.00  0.00     0.140 C 
ENDROOT
BRANCH   7   8
ATOM      8  O   UNL     1     113.274 119.759 133.119  1.00  0.00    -0.389 OA
ATOM      9  H   UNL     1     113.941 119.046 133.289  1.00  0.00     0.211 HD
ENDBRANCH   7   8
BRANCH   5  10
ATOM     10  C   UNL     1     114.167 120.986 128.891  1.00  0.00    -0.077 C 
ATOM     11  C   UNL     1     113.975 120.038 127.958  1.00  0.00     0.008 C 
ATOM     12  C   UNL     1     114.011 122.431 128.490  1.00  0.00     0.039 C 
ENDBRANCH   5  10
TORSDOF 2
ENDMDL
MODEL 6
REMARK VINA RESULT:    -4.865      1.435      4.356
REMARK INTER + INTRA:          -5.384
REMARK INTER:                  -5.290
REMARK INTRA:                  -0.094
REMARK UNBOUND:                -0.092
REMARK SMILES C=C(C)[C@H]1CC=C(C)[C@H](O)C1
REMARK SMILES IDX 8 1 7 2 6 3 5 4 4 5 11 6 9 7 10 8 2 10 1 11 3 12
REMARK H PARENT 10 9
REMARK Flexibility Score: inf
ROOT
ATOM      1  C   UNL     1     115.194 121.141 134.381  1.00  0.00     0.042 C 
ATOM      2  C   UNL     1     114.956 121.148 132.895  1.00  0.00    -0.049 C 
ATOM      3  C   UNL     1     114.153 120.205 132.357  1.00  0.00    -0.025 C 
ATOM      4  C   UNL     1     113.910 120.082 130.875  1.00  0.00     0.035 C 
ATOM      5  C   UNL     1     114.108 121.420 130.146  1.00  0.00     0.021 C 
ATOM      6  C   UNL     1     115.463 122.032 130.540  1.00  0.00     0.044 C 
ATOM      7  C   UNL     1     115.551 122.276 132.061  1.00  0.00     0.140 C 
ENDROOT
BRANCH   7   8
ATOM      8  O   UNL     1     114.958 123.506 132.402  1.00  0.00    -0.389 OA
ATOM      9  H   UNL     1     114.607 123.915 131.569  1.00  0.00     0.211 HD
ENDBRANCH   7   8
BRANCH   5  10
ATOM     10  C   UNL     1     113.982 121.258 128.636  1.00  0.00    -0.077 C 
ATOM     11  C   UNL     1     114.126 120.060 128.045  1.00  0.00     0.008 C 
ATOM     12  C   UNL     1     113.694 122.458 127.769  1.00  0.00     0.039 C 
ENDBRANCH   5  10
TORSDOF 2
ENDMDL
MODEL 7
REMARK VINA RESULT:    -4.734      8.719      9.433
REMARK INTER + INTRA:          -5.240
REMARK INTER:                  -5.146
REMARK INTRA:                  -0.094
REMARK UNBOUND:                -0.092
REMARK SMILES C=C(C)[C@H]1CC=C(C)[C@H](O)C1
REMARK SMILES IDX 8 1 7 2 6 3 5 4 4 5 11 6 9 7 10 8 2 10 1 11 3 12
REMARK H PARENT 10 9
REMARK Flexibility Score: inf
ROOT
ATOM      1  C   UNL     1     121.637 131.199 130.001  1.00  0.00     0.042 C 
ATOM      2  C   UNL     1     120.403 130.417 130.359  1.00  0.00    -0.049 C 
ATOM      3  C   UNL     1     120.112 129.299 129.660  1.00  0.00    -0.025 C 
ATOM      4  C   UNL     1     118.863 128.487 129.891  1.00  0.00     0.035 C 
ATOM      5  C   UNL     1     118.325 128.654 131.321  1.00  0.00     0.021 C 
ATOM      6  C   UNL     1     118.209 130.150 131.663  1.00  0.00     0.044 C 
ATOM      7  C   UNL     1     119.575 130.860 131.559  1.00  0.00     0.140 C 
ENDROOT
BRANCH   7   8
ATOM      8  O   UNL     1     120.309 130.701 132.748  1.00  0.00    -0.389 OA
ATOM      9  H   UNL     1     121.263 130.882 132.544  1.00  0.00     0.211 HD
ENDBRANCH   7   8
BRANCH   5  10
ATOM     10  C   UNL     1     116.998 127.931 131.507  1.00  0.00    -0.077 C 
ATOM     11  C   UNL     1     116.378 127.898 132.699  1.00  0.00     0.008 C 
ATOM     12  C   UNL     1     116.350 127.226 130.342  1.00  0.00     0.039 C 
ENDBRANCH   5  10
TORSDOF 2
ENDMDL
MODEL 8
REMARK VINA RESULT:    -4.725     12.599     13.796
REMARK INTER + INTRA:          -5.231
REMARK INTER:                  -5.142
REMARK INTRA:                  -0.089
REMARK UNBOUND:                -0.092
REMARK SMILES C=C(C)[C@H]1CC=C(C)[C@H](O)C1
REMARK SMILES IDX 8 1 7 2 6 3 5 4 4 5 11 6 9 7 10 8 2 10 1 11 3 12
REMARK H PARENT 10 9
REMARK Flexibility Score: inf
ROOT
ATOM      1  C   UNL     1     123.165 132.414 129.743  1.00  0.00     0.042 C 
ATOM      2  C   UNL     1     121.797 133.038 129.796  1.00  0.00    -0.049 C 
ATOM      3  C   UNL     1     121.668 134.352 129.515  1.00  0.00    -0.025 C 
ATOM      4  C   UNL     1     120.355 135.087 129.611  1.00  0.00     0.035 C 
ATOM      5  C   UNL     1     119.154 134.146 129.427  1.00  0.00     0.021 C 
ATOM      6  C   UNL     1     119.296 132.931 130.359  1.00  0.00     0.044 C 
ATOM      7  C   UNL     1     120.593 132.146 130.070  1.00  0.00     0.140 C 
ENDROOT
BRANCH   7   8
ATOM      8  O   UNL     1     120.399 131.241 129.011  1.00  0.00    -0.389 OA
ATOM      9  H   UNL     1     120.491 131.743 128.160  1.00  0.00     0.211 HD
ENDBRANCH   7   8
BRANCH   5  10
ATOM     10  C   UNL     1     117.834 134.874 129.649  1.00  0.00    -0.077 C 
ATOM     11  C   UNL     1     116.789 134.699 128.821  1.00  0.00     0.008 C 
ATOM     12  C   UNL     1     117.678 135.818 130.814  1.00  0.00     0.039 C 
ENDBRANCH   5  10
TORSDOF 2
ENDMDL
MODEL 9
REMARK VINA RESULT:    -4.697      3.374      5.442
REMARK INTER + INTRA:          -5.201
REMARK INTER:                  -5.115
REMARK INTRA:                  -0.086
REMARK UNBOUND:                -0.092
REMARK SMILES C=C(C)[C@H]1CC=C(C)[C@H](O)C1
REMARK SMILES IDX 8 1 7 2 6 3 5 4 4 5 11 6 9 7 10 8 2 10 1 11 3 12
REMARK H PARENT 10 9
REMARK Flexibility Score: inf
ROOT
ATOM      1  C   UNL     1     113.874 120.953 131.868  1.00  0.00     0.042 C 
ATOM      2  C   UNL     1     115.072 120.776 132.762  1.00  0.00    -0.049 C 
ATOM      3  C   UNL     1     116.279 121.194 132.325  1.00  0.00    -0.025 C 
ATOM      4  C   UNL     1     117.550 120.998 133.112  1.00  0.00     0.035 C 
ATOM      5  C   UNL     1     117.281 120.887 134.621  1.00  0.00     0.021 C 
ATOM      6  C   UNL     1     116.180 119.844 134.879  1.00  0.00     0.044 C 
ATOM      7  C   UNL     1     114.866 120.222 134.166  1.00  0.00     0.140 C 
ENDROOT
BRANCH   7   8
ATOM      8  O   UNL     1     114.118 121.122 134.946  1.00  0.00    -0.389 OA
ATOM      9  H   UNL     1     113.165 121.034 134.684  1.00  0.00     0.211 HD
ENDBRANCH   7   8
BRANCH   5  10
ATOM     10  C   UNL     1     118.553 120.565 135.394  1.00  0.00    -0.077 C 
ATOM     11  C   UNL     1     119.185 121.499 136.125  1.00  0.00     0.008 C 
ATOM     12  C   UNL     1     119.134 119.174 135.348  1.00  0.00     0.039 C 
ENDBRANCH   5  10
TORSDOF 2
ENDMDL
