MODEL 1
REMARK VINA RESULT:    -3.421      0.000      0.000
REMARK INTER + INTRA:          -4.613
REMARK INTER:                  -4.421
REMARK INTRA:                  -0.192
REMARK UNBOUND:                -0.192
REMARK SMILES C=CC(=O)CCCCC
REMARK SMILES IDX 6 1 7 2 8 3 9 4 5 5 3 6 4 7 2 8 1 9
REMARK H PARENT
REMARK Flexibility Score: inf
ROOT
ATOM      1  C   UNL     1      -5.504  31.402  47.316  1.00  0.00     0.008 C 
ENDROOT
BRANCH   1   2
ATOM      2  C   UNL     1      -6.456  30.197  47.273  1.00  0.00     0.000 C 
BRANCH   2   3
ATOM      3  C   UNL     1      -7.909  30.602  46.986  1.00  0.00    -0.003 C 
ATOM      4  C   UNL     1      -8.416  29.956  45.699  1.00  0.00     0.004 C 
ENDBRANCH   2   3
ENDBRANCH   1   2
BRANCH   1   5
ATOM      5  C   UNL     1      -6.192  32.681  47.810  1.00  0.00     0.080 C 
BRANCH   5   6
ATOM      6  C   UNL     1      -5.312  33.409  48.783  1.00  0.00     0.155 C 
ATOM      7  O   UNL     1      -4.145  33.736  48.435  1.00  0.00    -0.295 OA
BRANCH   6   8
ATOM      8  C   UNL     1      -5.797  33.694  50.147  1.00  0.00     0.039 C 
ATOM      9  C   UNL     1      -6.868  34.448  50.382  1.00  0.00     0.012 C 
ENDBRANCH   6   8
ENDBRANCH   5   6
ENDBRANCH   1   5
TORSDOF 5
ENDMDL
MODEL 2
REMARK VINA RESULT:    -3.407     17.802     18.857
REMARK INTER + INTRA:          -4.596
REMARK INTER:                  -4.365
REMARK INTRA:                  -0.230
REMARK UNBOUND:                -0.192
REMARK SMILES C=CC(=O)CCCCC
REMARK SMILES IDX 6 1 7 2 8 3 9 4 5 5 3 6 4 7 2 8 1 9
REMARK H PARENT
REMARK Flexibility Score: inf
ROOT
ATOM      1  C   UNL     1     -17.005  19.586  41.685  1.00  0.00     0.008 C 
ENDROOT
BRANCH   1   2
ATOM      2  C   UNL     1     -17.652  18.264  41.246  1.00  0.00     0.000 C 
BRANCH   2   3
ATOM      3  C   UNL     1     -16.649  17.102  41.201  1.00  0.00    -0.003 C 
ATOM      4  C   UNL     1     -16.219  16.802  39.768  1.00  0.00     0.004 C 
ENDBRANCH   2   3
ENDBRANCH   1   2
BRANCH   1   5
ATOM      5  C   UNL     1     -18.010  20.743  41.748  1.00  0.00     0.080 C 
BRANCH   5   6
ATOM      6  C   UNL     1     -19.070  20.463  42.773  1.00  0.00     0.155 C 
ATOM      7  O   UNL     1     -18.731  20.249  43.969  1.00  0.00    -0.295 OA
BRANCH   6   8
ATOM      8  C   UNL     1     -20.488  20.393  42.371  1.00  0.00     0.039 C 
ATOM      9  C   UNL     1     -21.050  21.301  41.575  1.00  0.00     0.012 C 
ENDBRANCH   6   8
ENDBRANCH   5   6
ENDBRANCH   1   5
TORSDOF 5
ENDMDL
MODEL 3
REMARK VINA RESULT:    -3.329     17.833     19.061
REMARK INTER + INTRA:          -4.495
REMARK INTER:                  -4.292
REMARK INTRA:                  -0.202
REMARK UNBOUND:                -0.192
REMARK SMILES C=CC(=O)CCCCC
REMARK SMILES IDX 6 1 7 2 8 3 9 4 5 5 3 6 4 7 2 8 1 9
REMARK H PARENT
REMARK Flexibility Score: inf
ROOT
ATOM      1  C   UNL     1     -20.981  21.272  41.872  1.00  0.00     0.008 C 
ENDROOT
BRANCH   1   2
ATOM      2  C   UNL     1     -21.244  21.694  40.418  1.00  0.00     0.000 C 
BRANCH   2   3
ATOM      3  C   UNL     1     -22.375  22.724  40.298  1.00  0.00    -0.003 C 
ATOM      4  C   UNL     1     -22.699  23.347  41.654  1.00  0.00     0.004 C 
ENDBRANCH   2   3
ENDBRANCH   1   2
BRANCH   1   5
ATOM      5  C   UNL     1     -19.985  20.110  41.980  1.00  0.00     0.080 C 
BRANCH   5   6
ATOM      6  C   UNL     1     -18.611  20.623  42.294  1.00  0.00     0.155 C 
ATOM      7  O   UNL     1     -18.485  21.652  43.013  1.00  0.00    -0.295 OA
BRANCH   6   8
ATOM      8  C   UNL     1     -17.425  19.954  41.727  1.00  0.00     0.039 C 
ATOM      9  C   UNL     1     -17.382  18.642  41.504  1.00  0.00     0.012 C 
ENDBRANCH   6   8
ENDBRANCH   5   6
ENDBRANCH   1   5
TORSDOF 5
ENDMDL
MODEL 4
REMARK VINA RESULT:    -3.328      1.713      4.174
REMARK INTER + INTRA:          -4.494
REMARK INTER:                  -4.023
REMARK INTRA:                  -0.471
REMARK UNBOUND:                -0.192
REMARK SMILES C=CC(=O)CCCCC
REMARK SMILES IDX 6 1 7 2 8 3 9 4 5 5 3 6 4 7 2 8 1 9
REMARK H PARENT
REMARK Flexibility Score: inf
ROOT
ATOM      1  C   UNL     1      -4.051  33.135  48.008  1.00  0.00     0.008 C 
ENDROOT
BRANCH   1   2
ATOM      2  C   UNL     1      -5.064  34.122  48.609  1.00  0.00     0.000 C 
BRANCH   2   3
ATOM      3  C   UNL     1      -5.695  33.602  49.908  1.00  0.00    -0.003 C 
ATOM      4  C   UNL     1      -6.883  34.465  50.326  1.00  0.00     0.004 C 
ENDBRANCH   2   3
ENDBRANCH   1   2
BRANCH   1   5
ATOM      5  C   UNL     1      -4.568  32.466  46.727  1.00  0.00     0.080 C 
BRANCH   5   6
ATOM      6  C   UNL     1      -4.918  31.030  46.989  1.00  0.00     0.155 C 
ATOM      7  O   UNL     1      -4.008  30.156  46.953  1.00  0.00    -0.295 OA
BRANCH   6   8
ATOM      8  C   UNL     1      -6.320  30.645  47.240  1.00  0.00     0.039 C 
ATOM      9  C   UNL     1      -7.330  31.501  47.110  1.00  0.00     0.012 C 
ENDBRANCH   6   8
ENDBRANCH   5   6
ENDBRANCH   1   5
TORSDOF 5
ENDMDL
MODEL 5
REMARK VINA RESULT:    -3.272     18.550     20.274
REMARK INTER + INTRA:          -4.421
REMARK INTER:                  -4.141
REMARK INTRA:                  -0.280
REMARK UNBOUND:                -0.192
REMARK SMILES C=CC(=O)CCCCC
REMARK SMILES IDX 6 1 7 2 8 3 9 4 5 5 3 6 4 7 2 8 1 9
REMARK H PARENT
REMARK Flexibility Score: inf
ROOT
ATOM      1  C   UNL     1     -21.395  22.110  41.324  1.00  0.00     0.008 C 
ENDROOT
BRANCH   1   2
ATOM      2  C   UNL     1     -20.615  20.802  41.530  1.00  0.00     0.000 C 
BRANCH   2   3
ATOM      3  C   UNL     1     -19.095  21.002  41.452  1.00  0.00    -0.003 C 
ATOM      4  C   UNL     1     -18.353  19.702  41.755  1.00  0.00     0.004 C 
ENDBRANCH   2   3
ENDBRANCH   1   2
BRANCH   1   5
ATOM      5  C   UNL     1     -22.264  22.086  40.060  1.00  0.00     0.080 C 
BRANCH   5   6
ATOM      6  C   UNL     1     -21.444  22.431  38.851  1.00  0.00     0.155 C 
ATOM      7  O   UNL     1     -20.492  23.251  38.964  1.00  0.00    -0.295 OA
BRANCH   6   8
ATOM      8  C   UNL     1     -21.782  21.849  37.538  1.00  0.00     0.039 C 
ATOM      9  C   UNL     1     -22.784  20.988  37.375  1.00  0.00     0.012 C 
ENDBRANCH   6   8
ENDBRANCH   5   6
ENDBRANCH   1   5
TORSDOF 5
ENDMDL
MODEL 6
REMARK VINA RESULT:    -3.240      3.881      5.685
REMARK INTER + INTRA:          -4.379
REMARK INTER:                  -3.810
REMARK INTRA:                  -0.569
REMARK UNBOUND:                -0.192
REMARK SMILES C=CC(=O)CCCCC
REMARK SMILES IDX 6 1 7 2 8 3 9 4 5 5 3 6 4 7 2 8 1 9
REMARK H PARENT
REMARK Flexibility Score: inf
ROOT
ATOM      1  C   UNL     1      -5.621  29.593  46.222  1.00  0.00     0.008 C 
ENDROOT
BRANCH   1   2
ATOM      2  C   UNL     1      -6.342  30.349  47.349  1.00  0.00     0.000 C 
BRANCH   2   3
ATOM      3  C   UNL     1      -7.827  30.586  47.045  1.00  0.00    -0.003 C 
ATOM      4  C   UNL     1      -8.005  31.374  45.749  1.00  0.00     0.004 C 
ENDBRANCH   2   3
ENDBRANCH   1   2
BRANCH   1   5
ATOM      5  C   UNL     1      -5.346  28.126  46.576  1.00  0.00     0.080 C 
BRANCH   5   6
ATOM      6  C   UNL     1      -6.417  27.239  46.012  1.00  0.00     0.155 C 
ATOM      7  O   UNL     1      -6.641  26.121  46.551  1.00  0.00    -0.295 OA
BRANCH   6   8
ATOM      8  C   UNL     1      -7.164  27.656  44.810  1.00  0.00     0.039 C 
ATOM      9  C   UNL     1      -8.494  27.699  44.774  1.00  0.00     0.012 C 
ENDBRANCH   6   8
ENDBRANCH   5   6
ENDBRANCH   1   5
TORSDOF 5
ENDMDL
MODEL 7
REMARK VINA RESULT:    -3.221     16.711     18.659
REMARK INTER + INTRA:          -4.355
REMARK INTER:                  -4.165
REMARK INTRA:                  -0.190
REMARK UNBOUND:                -0.192
REMARK SMILES C=CC(=O)CCCCC
REMARK SMILES IDX 6 1 7 2 8 3 9 4 5 5 3 6 4 7 2 8 1 9
REMARK H PARENT
REMARK Flexibility Score: inf
ROOT
ATOM      1  C   UNL     1     -19.384  21.804  41.206  1.00  0.00     0.008 C 
ENDROOT
BRANCH   1   2
ATOM      2  C   UNL     1     -20.647  22.677  41.258  1.00  0.00     0.000 C 
BRANCH   2   3
ATOM      3  C   UNL     1     -21.890  21.950  40.727  1.00  0.00    -0.003 C 
ATOM      4  C   UNL     1     -21.946  22.000  39.202  1.00  0.00     0.004 C 
ENDBRANCH   2   3
ENDBRANCH   1   2
BRANCH   1   5
ATOM      5  C   UNL     1     -19.637  20.370  41.689  1.00  0.00     0.080 C 
BRANCH   5   6
ATOM      6  C   UNL     1     -18.390  19.791  42.291  1.00  0.00     0.155 C 
ATOM      7  O   UNL     1     -17.653  19.046  41.588  1.00  0.00    -0.295 OA
BRANCH   6   8
ATOM      8  C   UNL     1     -18.060  20.055  43.705  1.00  0.00     0.039 C 
ATOM      9  C   UNL     1     -17.439  21.165  44.099  1.00  0.00     0.012 C 
ENDBRANCH   6   8
ENDBRANCH   5   6
ENDBRANCH   1   5
TORSDOF 5
ENDMDL
MODEL 8
REMARK VINA RESULT:    -3.197      2.336      5.296
REMARK INTER + INTRA:          -4.324
REMARK INTER:                  -4.225
REMARK INTRA:                  -0.099
REMARK UNBOUND:                -0.192
REMARK SMILES C=CC(=O)CCCCC
REMARK SMILES IDX 6 1 7 2 8 3 9 4 5 5 3 6 4 7 2 8 1 9
REMARK H PARENT
REMARK Flexibility Score: inf
ROOT
ATOM      1  C   UNL     1      -5.571  31.390  47.303  1.00  0.00     0.008 C 
ENDROOT
BRANCH   1   2
ATOM      2  C   UNL     1      -6.205  32.683  47.838  1.00  0.00     0.000 C 
BRANCH   2   3
ATOM      3  C   UNL     1      -5.253  33.477  48.744  1.00  0.00    -0.003 C 
ATOM      4  C   UNL     1      -5.878  33.726  50.115  1.00  0.00     0.004 C 
ENDBRANCH   2   3
ENDBRANCH   1   2
BRANCH   1   5
ATOM      5  C   UNL     1      -6.541  30.201  47.330  1.00  0.00     0.080 C 
BRANCH   5   6
ATOM      6  C   UNL     1      -5.912  28.997  46.693  1.00  0.00     0.155 C 
ATOM      7  O   UNL     1      -4.678  28.789  46.848  1.00  0.00    -0.295 OA
BRANCH   6   8
ATOM      8  C   UNL     1      -6.727  28.093  45.858  1.00  0.00     0.039 C 
ATOM      9  C   UNL     1      -6.640  26.768  45.944  1.00  0.00     0.012 C 
ENDBRANCH   6   8
ENDBRANCH   5   6
ENDBRANCH   1   5
TORSDOF 5
ENDMDL
MODEL 9
REMARK VINA RESULT:    -3.182     17.508     18.874
REMARK INTER + INTRA:          -4.305
REMARK INTER:                  -4.063
REMARK INTRA:                  -0.242
REMARK UNBOUND:                -0.192
REMARK SMILES C=CC(=O)CCCCC
REMARK SMILES IDX 6 1 7 2 8 3 9 4 5 5 3 6 4 7 2 8 1 9
REMARK H PARENT
REMARK Flexibility Score: inf
ROOT
ATOM      1  C   UNL     1     -20.625  20.564  42.031  1.00  0.00     0.008 C 
ENDROOT
BRANCH   1   2
ATOM      2  C   UNL     1     -19.159  20.105  42.071  1.00  0.00     0.000 C 
BRANCH   2   3
ATOM      3  C   UNL     1     -18.347  20.817  43.162  1.00  0.00    -0.003 C 
ATOM      4  C   UNL     1     -17.772  19.816  44.161  1.00  0.00     0.004 C 
ENDBRANCH   2   3
ENDBRANCH   1   2
BRANCH   1   5
ATOM      5  C   UNL     1     -20.904  21.548  40.887  1.00  0.00     0.080 C 
BRANCH   5   6
ATOM      6  C   UNL     1     -21.027  22.946  41.416  1.00  0.00     0.155 C 
ATOM      7  O   UNL     1     -19.982  23.622  41.625  1.00  0.00    -0.295 OA
BRANCH   6   8
ATOM      8  C   UNL     1     -22.356  23.504  41.730  1.00  0.00     0.039 C 
ATOM      9  C   UNL     1     -23.356  23.506  40.851  1.00  0.00     0.012 C 
ENDBRANCH   6   8
ENDBRANCH   5   6
ENDBRANCH   1   5
TORSDOF 5
ENDMDL
