MODEL 1
REMARK VINA RESULT:    -3.474      0.000      0.000
REMARK INTER + INTRA:         -14.240
REMARK INTER:                  -8.754
REMARK INTRA:                  -5.486
REMARK UNBOUND:                -5.486
REMARK SMILES CCCCCCCCCCCCCCCCCCCCCCCCCCCC(=O)[O-]
REMARK SMILES IDX 15 1 16 2 17 3 18 4 19 5 20 6 21 7 22 8 23 9 24 10 25 11
REMARK SMILES IDX 26 12 27 13 28 14 29 15 30 16 14 17 13 18 12 19 11 20 10 21
REMARK SMILES IDX 9 22 8 23 7 24 6 25 5 26 4 27 3 28 2 29 1 30
REMARK H PARENT
REMARK Flexibility Score: inf
ROOT
ATOM      1  C   UNL     1     115.960  52.125  53.843  1.00  0.00     0.000 C 
ENDROOT
BRANCH   1   2
ATOM      2  C   UNL     1     117.191  52.565  54.651  1.00  0.00     0.000 C 
BRANCH   2   3
ATOM      3  C   UNL     1     118.508  52.050  54.050  1.00  0.00     0.000 C 
BRANCH   3   4
ATOM      4  C   UNL     1     119.570  53.160  54.030  1.00  0.00     0.000 C 
BRANCH   4   5
ATOM      5  C   UNL     1     119.075  54.449  53.352  1.00  0.00     0.000 C 
BRANCH   5   6
ATOM      6  C   UNL     1     119.802  54.822  52.043  1.00  0.00     0.000 C 
BRANCH   6   7
ATOM      7  C   UNL     1     118.975  55.665  51.054  1.00  0.00     0.000 C 
BRANCH   7   8
ATOM      8  C   UNL     1     119.374  55.428  49.589  1.00  0.00     0.000 C 
BRANCH   8   9
ATOM      9  C   UNL     1     118.262  55.897  48.640  1.00  0.00     0.000 C 
BRANCH   9  10
ATOM     10  C   UNL     1     116.953  56.224  49.375  1.00  0.00     0.000 C 
BRANCH  10  11
ATOM     11  C   UNL     1     115.745  56.292  48.429  1.00  0.00     0.000 C 
BRANCH  11  12
ATOM     12  C   UNL     1     114.523  56.887  49.145  1.00  0.00     0.006 C 
BRANCH  12  13
ATOM     13  C   UNL     1     113.484  55.819  49.509  1.00  0.00     0.053 C 
BRANCH  13  14
ATOM     14  C   UNL     1     112.211  55.995  48.739  1.00  0.00     0.041 C 
ATOM     15  O   UNL     1     111.166  56.386  49.322  1.00  0.00    -0.550 OA
ATOM     16  O   UNL     1     112.176  55.712  47.379  1.00  0.00    -0.550 OA
ENDBRANCH  13  14
ENDBRANCH  12  13
ENDBRANCH  11  12
ENDBRANCH  10  11
ENDBRANCH   9  10
ENDBRANCH   8   9
ENDBRANCH   7   8
ENDBRANCH   6   7
ENDBRANCH   5   6
ENDBRANCH   4   5
ENDBRANCH   3   4
ENDBRANCH   2   3
ENDBRANCH   1   2
BRANCH   1  17
ATOM     17  C   UNL     1     115.196  53.313  53.232  1.00  0.00     0.000 C 
BRANCH  17  18
ATOM     18  C   UNL     1     115.824  53.808  51.920  1.00  0.00     0.000 C 
BRANCH  18  19
ATOM     19  C   UNL     1     115.391  52.972  50.706  1.00  0.00     0.000 C 
BRANCH  19  20
ATOM     20  C   UNL     1     116.587  52.681  49.787  1.00  0.00     0.000 C 
BRANCH  20  21
ATOM     21  C   UNL     1     117.782  52.067  50.538  1.00  0.00     0.000 C 
BRANCH  21  22
ATOM     22  C   UNL     1     118.131  50.620  50.136  1.00  0.00    -0.000 C 
BRANCH  22  23
ATOM     23  C   UNL     1     117.759  49.542  51.173  1.00  0.00    -0.000 C 
BRANCH  23  24
ATOM     24  C   UNL     1     116.269  49.493  51.557  1.00  0.00    -0.000 C 
BRANCH  24  25
ATOM     25  C   UNL     1     115.556  48.235  51.031  1.00  0.00    -0.000 C 
BRANCH  25  26
ATOM     26  C   UNL     1     115.120  48.384  49.558  1.00  0.00    -0.000 C 
BRANCH  26  27
ATOM     27  C   UNL     1     114.335  49.676  49.270  1.00  0.00    -0.000 C 
BRANCH  27  28
ATOM     28  C   UNL     1     114.711  50.319  47.925  1.00  0.00    -0.000 C 
BRANCH  28  29
ATOM     29  C   UNL     1     113.516  50.998  47.240  1.00  0.00    -0.003 C 
ATOM     30  C   UNL     1     113.270  52.418  47.751  1.00  0.00     0.004 C 
ENDBRANCH  28  29
ENDBRANCH  27  28
ENDBRANCH  26  27
ENDBRANCH  25  26
ENDBRANCH  24  25
ENDBRANCH  23  24
ENDBRANCH  22  23
ENDBRANCH  21  22
ENDBRANCH  20  21
ENDBRANCH  19  20
ENDBRANCH  18  19
ENDBRANCH  17  18
ENDBRANCH   1  17
TORSDOF 26
ENDMDL
MODEL 2
REMARK VINA RESULT:    -3.309      8.191     10.827
REMARK INTER + INTRA:         -13.825
REMARK INTER:                  -9.214
REMARK INTRA:                  -4.611
REMARK UNBOUND:                -5.486
REMARK SMILES CCCCCCCCCCCCCCCCCCCCCCCCCCCC(=O)[O-]
REMARK SMILES IDX 15 1 16 2 17 3 18 4 19 5 20 6 21 7 22 8 23 9 24 10 25 11
REMARK SMILES IDX 26 12 27 13 28 14 29 15 30 16 14 17 13 18 12 19 11 20 10 21
REMARK SMILES IDX 9 22 8 23 7 24 6 25 5 26 4 27 3 28 2 29 1 30
REMARK H PARENT
REMARK Flexibility Score: inf
ROOT
ATOM      1  C   UNL     1     123.147  56.238  46.073  1.00  0.00     0.000 C 
ENDROOT
BRANCH   1   2
ATOM      2  C   UNL     1     121.867  57.083  46.161  1.00  0.00     0.000 C 
BRANCH   2   3
ATOM      3  C   UNL     1     122.045  58.338  47.031  1.00  0.00     0.000 C 
BRANCH   3   4
ATOM      4  C   UNL     1     120.964  58.404  48.120  1.00  0.00     0.000 C 
BRANCH   4   5
ATOM      5  C   UNL     1     121.537  58.266  49.541  1.00  0.00     0.000 C 
BRANCH   5   6
ATOM      6  C   UNL     1     121.892  56.827  49.969  1.00  0.00     0.000 C 
BRANCH   6   7
ATOM      7  C   UNL     1     123.208  56.685  50.756  1.00  0.00     0.000 C 
BRANCH   7   8
ATOM      8  C   UNL     1     124.406  56.338  49.860  1.00  0.00     0.000 C 
BRANCH   8   9
ATOM      9  C   UNL     1     124.276  54.913  49.303  1.00  0.00     0.000 C 
BRANCH   9  10
ATOM     10  C   UNL     1     125.474  54.504  48.433  1.00  0.00     0.000 C 
BRANCH  10  11
ATOM     11  C   UNL     1     126.046  53.133  48.822  1.00  0.00     0.000 C 
BRANCH  11  12
ATOM     12  C   UNL     1     125.264  52.528  49.998  1.00  0.00     0.006 C 
BRANCH  12  13
ATOM     13  C   UNL     1     126.186  52.057  51.130  1.00  0.00     0.053 C 
BRANCH  13  14
ATOM     14  C   UNL     1     126.728  53.208  51.922  1.00  0.00     0.041 C 
ATOM     15  O   UNL     1     127.912  53.184  52.347  1.00  0.00    -0.550 OA
ATOM     16  O   UNL     1     125.917  54.300  52.204  1.00  0.00    -0.550 OA
ENDBRANCH  13  14
ENDBRANCH  12  13
ENDBRANCH  11  12
ENDBRANCH  10  11
ENDBRANCH   9  10
ENDBRANCH   8   9
ENDBRANCH   7   8
ENDBRANCH   6   7
ENDBRANCH   5   6
ENDBRANCH   4   5
ENDBRANCH   3   4
ENDBRANCH   2   3
ENDBRANCH   1   2
BRANCH   1  17
ATOM     17  C   UNL     1     124.407  57.090  45.836  1.00  0.00     0.000 C 
BRANCH  17  18
ATOM     18  C   UNL     1     124.753  57.230  44.346  1.00  0.00     0.000 C 
BRANCH  18  19
ATOM     19  C   UNL     1     124.557  55.919  43.568  1.00  0.00     0.000 C 
BRANCH  19  20
ATOM     20  C   UNL     1     125.877  55.456  42.935  1.00  0.00     0.000 C 
BRANCH  20  21
ATOM     21  C   UNL     1     126.329  54.073  43.439  1.00  0.00     0.000 C 
BRANCH  21  22
ATOM     22  C   UNL     1     126.107  53.824  44.944  1.00  0.00    -0.000 C 
BRANCH  22  23
ATOM     23  C   UNL     1     126.121  52.344  45.375  1.00  0.00    -0.000 C 
BRANCH  23  24
ATOM     24  C   UNL     1     124.733  51.713  45.587  1.00  0.00    -0.000 C 
BRANCH  24  25
ATOM     25  C   UNL     1     123.592  52.743  45.531  1.00  0.00    -0.000 C 
BRANCH  25  26
ATOM     26  C   UNL     1     122.508  52.358  44.502  1.00  0.00    -0.000 C 
BRANCH  26  27
ATOM     27  C   UNL     1     122.871  52.723  43.052  1.00  0.00    -0.000 C 
BRANCH  27  28
ATOM     28  C   UNL     1     123.698  51.634  42.349  1.00  0.00    -0.000 C 
BRANCH  28  29
ATOM     29  C   UNL     1     122.968  51.023  41.144  1.00  0.00    -0.003 C 
ATOM     30  C   UNL     1     121.621  51.690  40.868  1.00  0.00     0.004 C 
ENDBRANCH  28  29
ENDBRANCH  27  28
ENDBRANCH  26  27
ENDBRANCH  25  26
ENDBRANCH  24  25
ENDBRANCH  23  24
ENDBRANCH  22  23
ENDBRANCH  21  22
ENDBRANCH  20  21
ENDBRANCH  19  20
ENDBRANCH  18  19
ENDBRANCH  17  18
ENDBRANCH   1  17
TORSDOF 26
ENDMDL
MODEL 3
REMARK VINA RESULT:    -3.238      8.406     11.314
REMARK INTER + INTRA:         -13.647
REMARK INTER:                  -8.919
REMARK INTRA:                  -4.728
REMARK UNBOUND:                -5.486
REMARK SMILES CCCCCCCCCCCCCCCCCCCCCCCCCCCC(=O)[O-]
REMARK SMILES IDX 15 1 16 2 17 3 18 4 19 5 20 6 21 7 22 8 23 9 24 10 25 11
REMARK SMILES IDX 26 12 27 13 28 14 29 15 30 16 14 17 13 18 12 19 11 20 10 21
REMARK SMILES IDX 9 22 8 23 7 24 6 25 5 26 4 27 3 28 2 29 1 30
REMARK H PARENT
REMARK Flexibility Score: inf
ROOT
ATOM      1  C   UNL     1     125.050  55.874  47.645  1.00  0.00     0.000 C 
ENDROOT
BRANCH   1   2
ATOM      2  C   UNL     1     124.209  55.495  48.874  1.00  0.00     0.000 C 
BRANCH   2   3
ATOM      3  C   UNL     1     122.947  56.362  49.018  1.00  0.00     0.000 C 
BRANCH   3   4
ATOM      4  C   UNL     1     122.612  56.596  50.498  1.00  0.00     0.000 C 
BRANCH   4   5
ATOM      5  C   UNL     1     123.645  57.486  51.212  1.00  0.00     0.000 C 
BRANCH   5   6
ATOM      6  C   UNL     1     124.295  56.861  52.464  1.00  0.00     0.000 C 
BRANCH   6   7
ATOM      7  C   UNL     1     124.130  55.335  52.593  1.00  0.00     0.000 C 
BRANCH   7   8
ATOM      8  C   UNL     1     125.378  54.560  52.145  1.00  0.00     0.000 C 
BRANCH   8   9
ATOM      9  C   UNL     1     125.181  53.050  52.343  1.00  0.00     0.000 C 
BRANCH   9  10
ATOM     10  C   UNL     1     126.068  52.208  51.413  1.00  0.00     0.000 C 
BRANCH  10  11
ATOM     11  C   UNL     1     126.311  52.885  50.056  1.00  0.00     0.000 C 
BRANCH  11  12
ATOM     12  C   UNL     1     127.652  52.438  49.454  1.00  0.00     0.006 C 
BRANCH  12  13
ATOM     13  C   UNL     1     128.161  51.130  50.074  1.00  0.00     0.053 C 
BRANCH  13  14
ATOM     14  C   UNL     1     128.591  50.149  49.026  1.00  0.00     0.041 C 
ATOM     15  O   UNL     1     128.830  48.953  49.336  1.00  0.00    -0.550 OA
ATOM     16  O   UNL     1     128.744  50.562  47.708  1.00  0.00    -0.550 OA
ENDBRANCH  13  14
ENDBRANCH  12  13
ENDBRANCH  11  12
ENDBRANCH  10  11
ENDBRANCH   9  10
ENDBRANCH   8   9
ENDBRANCH   7   8
ENDBRANCH   6   7
ENDBRANCH   5   6
ENDBRANCH   4   5
ENDBRANCH   3   4
ENDBRANCH   2   3
ENDBRANCH   1   2
BRANCH   1  17
ATOM     17  C   UNL     1     124.230  55.876  46.342  1.00  0.00     0.000 C 
BRANCH  17  18
ATOM     18  C   UNL     1     124.248  57.241  45.637  1.00  0.00     0.000 C 
BRANCH  18  19
ATOM     19  C   UNL     1     124.522  57.124  44.130  1.00  0.00     0.000 C 
BRANCH  19  20
ATOM     20  C   UNL     1     124.596  55.652  43.700  1.00  0.00     0.000 C 
BRANCH  20  21
ATOM     21  C   UNL     1     125.914  55.304  42.982  1.00  0.00     0.000 C 
BRANCH  21  22
ATOM     22  C   UNL     1     126.754  54.204  43.661  1.00  0.00    -0.000 C 
BRANCH  22  23
ATOM     23  C   UNL     1     125.945  53.117  44.395  1.00  0.00    -0.000 C 
BRANCH  23  24
ATOM     24  C   UNL     1     126.473  52.741  45.790  1.00  0.00    -0.000 C 
BRANCH  24  25
ATOM     25  C   UNL     1     125.591  51.703  46.506  1.00  0.00    -0.000 C 
BRANCH  25  26
ATOM     26  C   UNL     1     124.093  52.072  46.448  1.00  0.00    -0.000 C 
BRANCH  26  27
ATOM     27  C   UNL     1     123.439  52.230  47.831  1.00  0.00    -0.000 C 
BRANCH  27  28
ATOM     28  C   UNL     1     122.730  50.953  48.310  1.00  0.00    -0.000 C 
BRANCH  28  29
ATOM     29  C   UNL     1     123.388  50.341  49.555  1.00  0.00    -0.003 C 
ATOM     30  C   UNL     1     124.662  49.562  49.228  1.00  0.00     0.004 C 
ENDBRANCH  28  29
ENDBRANCH  27  28
ENDBRANCH  26  27
ENDBRANCH  25  26
ENDBRANCH  24  25
ENDBRANCH  23  24
ENDBRANCH  22  23
ENDBRANCH  21  22
ENDBRANCH  20  21
ENDBRANCH  19  20
ENDBRANCH  18  19
ENDBRANCH  17  18
ENDBRANCH   1  17
TORSDOF 26
ENDMDL
MODEL 4
REMARK VINA RESULT:    -3.236      7.874     10.483
REMARK INTER + INTRA:         -13.641
REMARK INTER:                  -8.527
REMARK INTRA:                  -5.113
REMARK UNBOUND:                -5.486
REMARK SMILES CCCCCCCCCCCCCCCCCCCCCCCCCCCC(=O)[O-]
REMARK SMILES IDX 15 1 16 2 17 3 18 4 19 5 20 6 21 7 22 8 23 9 24 10 25 11
REMARK SMILES IDX 26 12 27 13 28 14 29 15 30 16 14 17 13 18 12 19 11 20 10 21
REMARK SMILES IDX 9 22 8 23 7 24 6 25 5 26 4 27 3 28 2 29 1 30
REMARK H PARENT
REMARK Flexibility Score: inf
ROOT
ATOM      1  C   UNL     1     122.879  54.953  48.936  1.00  0.00     0.000 C 
ENDROOT
BRANCH   1   2
ATOM      2  C   UNL     1     123.751  54.833  47.677  1.00  0.00     0.000 C 
BRANCH   2   3
ATOM      3  C   UNL     1     124.725  56.011  47.517  1.00  0.00     0.000 C 
BRANCH   3   4
ATOM      4  C   UNL     1     124.613  56.625  46.114  1.00  0.00     0.000 C 
BRANCH   4   5
ATOM      5  C   UNL     1     123.507  55.977  45.263  1.00  0.00     0.000 C 
BRANCH   5   6
ATOM      6  C   UNL     1     123.831  55.839  43.760  1.00  0.00     0.000 C 
BRANCH   6   7
ATOM      7  C   UNL     1     125.330  55.876  43.409  1.00  0.00     0.000 C 
BRANCH   7   8
ATOM      8  C   UNL     1     125.888  54.496  43.027  1.00  0.00     0.000 C 
BRANCH   8   9
ATOM      9  C   UNL     1     126.923  54.023  44.058  1.00  0.00     0.000 C 
BRANCH   9  10
ATOM     10  C   UNL     1     126.278  53.364  45.287  1.00  0.00     0.000 C 
BRANCH  10  11
ATOM     11  C   UNL     1     125.526  52.071  44.938  1.00  0.00     0.000 C 
BRANCH  11  12
ATOM     12  C   UNL     1     124.028  52.211  45.247  1.00  0.00     0.006 C 
BRANCH  12  13
ATOM     13  C   UNL     1     123.160  51.343  44.325  1.00  0.00     0.053 C 
BRANCH  13  14
ATOM     14  C   UNL     1     123.159  51.857  42.918  1.00  0.00     0.041 C 
ATOM     15  O   UNL     1     122.428  52.831  42.598  1.00  0.00    -0.550 OA
ATOM     16  O   UNL     1     123.953  51.247  41.955  1.00  0.00    -0.550 OA
ENDBRANCH  13  14
ENDBRANCH  12  13
ENDBRANCH  11  12
ENDBRANCH  10  11
ENDBRANCH   9  10
ENDBRANCH   8   9
ENDBRANCH   7   8
ENDBRANCH   6   7
ENDBRANCH   5   6
ENDBRANCH   4   5
ENDBRANCH   3   4
ENDBRANCH   2   3
ENDBRANCH   1   2
BRANCH   1  17
ATOM     17  C   UNL     1     122.589  56.415  49.320  1.00  0.00     0.000 C 
BRANCH  17  18
ATOM     18  C   UNL     1     122.459  56.611  50.839  1.00  0.00     0.000 C 
BRANCH  18  19
ATOM     19  C   UNL     1     123.399  57.702  51.375  1.00  0.00     0.000 C 
BRANCH  19  20
ATOM     20  C   UNL     1     124.643  57.081  52.026  1.00  0.00     0.000 C 
BRANCH  20  21
ATOM     21  C   UNL     1     124.405  55.641  52.516  1.00  0.00     0.000 C 
BRANCH  21  22
ATOM     22  C   UNL     1     125.413  54.599  51.991  1.00  0.00    -0.000 C 
BRANCH  22  23
ATOM     23  C   UNL     1     125.070  53.132  52.314  1.00  0.00    -0.000 C 
BRANCH  23  24
ATOM     24  C   UNL     1     123.782  52.604  51.659  1.00  0.00    -0.000 C 
BRANCH  24  25
ATOM     25  C   UNL     1     123.843  51.100  51.341  1.00  0.00    -0.000 C 
BRANCH  25  26
ATOM     26  C   UNL     1     124.905  50.773  50.269  1.00  0.00    -0.000 C 
BRANCH  26  27
ATOM     27  C   UNL     1     124.783  51.625  48.995  1.00  0.00    -0.000 C 
BRANCH  27  28
ATOM     28  C   UNL     1     126.049  52.444  48.697  1.00  0.00    -0.000 C 
BRANCH  28  29
ATOM     29  C   UNL     1     127.332  51.741  49.163  1.00  0.00    -0.003 C 
ATOM     30  C   UNL     1     128.022  50.966  48.041  1.00  0.00     0.004 C 
ENDBRANCH  28  29
ENDBRANCH  27  28
ENDBRANCH  26  27
ENDBRANCH  25  26
ENDBRANCH  24  25
ENDBRANCH  23  24
ENDBRANCH  22  23
ENDBRANCH  21  22
ENDBRANCH  20  21
ENDBRANCH  19  20
ENDBRANCH  18  19
ENDBRANCH  17  18
ENDBRANCH   1  17
TORSDOF 26
ENDMDL
MODEL 5
REMARK VINA RESULT:    -3.226      4.663      7.376
REMARK INTER + INTRA:         -13.615
REMARK INTER:                  -8.572
REMARK INTRA:                  -5.043
REMARK UNBOUND:                -5.486
REMARK SMILES CCCCCCCCCCCCCCCCCCCCCCCCCCCC(=O)[O-]
REMARK SMILES IDX 15 1 16 2 17 3 18 4 19 5 20 6 21 7 22 8 23 9 24 10 25 11
REMARK SMILES IDX 26 12 27 13 28 14 29 15 30 16 14 17 13 18 12 19 11 20 10 21
REMARK SMILES IDX 9 22 8 23 7 24 6 25 5 26 4 27 3 28 2 29 1 30
REMARK H PARENT
REMARK Flexibility Score: inf
ROOT
ATOM      1  C   UNL     1     121.082  55.825  49.718  1.00  0.00     0.000 C 
ENDROOT
BRANCH   1   2
ATOM      2  C   UNL     1     122.300  56.760  49.719  1.00  0.00     0.000 C 
BRANCH   2   3
ATOM      3  C   UNL     1     122.192  57.873  50.774  1.00  0.00     0.000 C 
BRANCH   3   4
ATOM      4  C   UNL     1     123.487  57.977  51.593  1.00  0.00     0.000 C 
BRANCH   4   5
ATOM      5  C   UNL     1     124.557  56.962  51.153  1.00  0.00     0.000 C 
BRANCH   5   6
ATOM      6  C   UNL     1     125.066  56.022  52.266  1.00  0.00     0.000 C 
BRANCH   6   7
ATOM      7  C   UNL     1     124.059  54.952  52.729  1.00  0.00     0.000 C 
BRANCH   7   8
ATOM      8  C   UNL     1     124.435  53.537  52.265  1.00  0.00     0.000 C 
BRANCH   8   9
ATOM      9  C   UNL     1     123.497  53.065  51.144  1.00  0.00     0.000 C 
BRANCH   9  10
ATOM     10  C   UNL     1     124.246  52.735  49.844  1.00  0.00     0.000 C 
BRANCH  10  11
ATOM     11  C   UNL     1     124.057  53.811  48.764  1.00  0.00     0.000 C 
BRANCH  11  12
ATOM     12  C   UNL     1     125.410  54.402  48.340  1.00  0.00     0.006 C 
BRANCH  12  13
ATOM     13  C   UNL     1     125.285  55.852  47.851  1.00  0.00     0.053 C 
BRANCH  13  14
ATOM     14  C   UNL     1     124.609  55.932  46.516  1.00  0.00     0.041 C 
ATOM     15  O   UNL     1     124.935  55.142  45.592  1.00  0.00    -0.550 OA
ATOM     16  O   UNL     1     123.631  56.892  46.289  1.00  0.00    -0.550 OA
ENDBRANCH  13  14
ENDBRANCH  12  13
ENDBRANCH  11  12
ENDBRANCH  10  11
ENDBRANCH   9  10
ENDBRANCH   8   9
ENDBRANCH   7   8
ENDBRANCH   6   7
ENDBRANCH   5   6
ENDBRANCH   4   5
ENDBRANCH   3   4
ENDBRANCH   2   3
ENDBRANCH   1   2
BRANCH   1  17
ATOM     17  C   UNL     1     120.365  55.781  51.079  1.00  0.00     0.000 C 
BRANCH  17  18
ATOM     18  C   UNL     1     120.142  54.347  51.583  1.00  0.00     0.000 C 
BRANCH  18  19
ATOM     19  C   UNL     1     120.478  54.185  53.073  1.00  0.00     0.000 C 
BRANCH  19  20
ATOM     20  C   UNL     1     120.621  52.701  53.444  1.00  0.00     0.000 C 
BRANCH  20  21
ATOM     21  C   UNL     1     119.500  51.827  52.853  1.00  0.00     0.000 C 
BRANCH  21  22
ATOM     22  C   UNL     1     118.404  51.408  53.853  1.00  0.00    -0.000 C 
BRANCH  22  23
ATOM     23  C   UNL     1     117.470  52.543  54.317  1.00  0.00    -0.000 C 
BRANCH  23  24
ATOM     24  C   UNL     1     115.966  52.255  54.161  1.00  0.00    -0.000 C 
BRANCH  24  25
ATOM     25  C   UNL     1     115.269  53.219  53.186  1.00  0.00    -0.000 C 
BRANCH  25  26
ATOM     26  C   UNL     1     116.263  53.880  52.208  1.00  0.00    -0.000 C 
BRANCH  26  27
ATOM     27  C   UNL     1     116.062  53.462  50.741  1.00  0.00    -0.000 C 
BRANCH  27  28
ATOM     28  C   UNL     1     116.765  52.140  50.392  1.00  0.00    -0.000 C 
BRANCH  28  29
ATOM     29  C   UNL     1     115.817  50.934  50.443  1.00  0.00    -0.003 C 
ATOM     30  C   UNL     1     116.338  49.809  51.337  1.00  0.00     0.004 C 
ENDBRANCH  28  29
ENDBRANCH  27  28
ENDBRANCH  26  27
ENDBRANCH  25  26
ENDBRANCH  24  25
ENDBRANCH  23  24
ENDBRANCH  22  23
ENDBRANCH  21  22
ENDBRANCH  20  21
ENDBRANCH  19  20
ENDBRANCH  18  19
ENDBRANCH  17  18
ENDBRANCH   1  17
TORSDOF 26
ENDMDL
MODEL 6
REMARK VINA RESULT:    -3.221      3.982      7.693
REMARK INTER + INTRA:         -13.604
REMARK INTER:                  -9.006
REMARK INTRA:                  -4.598
REMARK UNBOUND:                -5.486
REMARK SMILES CCCCCCCCCCCCCCCCCCCCCCCCCCCC(=O)[O-]
REMARK SMILES IDX 15 1 16 2 17 3 18 4 19 5 20 6 21 7 22 8 23 9 24 10 25 11
REMARK SMILES IDX 26 12 27 13 28 14 29 15 30 16 14 17 13 18 12 19 11 20 10 21
REMARK SMILES IDX 9 22 8 23 7 24 6 25 5 26 4 27 3 28 2 29 1 30
REMARK H PARENT
REMARK Flexibility Score: inf
ROOT
ATOM      1  C   UNL     1     118.946  52.770  54.207  1.00  0.00     0.000 C 
ENDROOT
BRANCH   1   2
ATOM      2  C   UNL     1     117.696  51.948  53.857  1.00  0.00     0.000 C 
BRANCH   2   3
ATOM      3  C   UNL     1     116.437  52.447  54.585  1.00  0.00     0.000 C 
BRANCH   3   4
ATOM      4  C   UNL     1     115.433  53.047  53.590  1.00  0.00     0.000 C 
BRANCH   4   5
ATOM      5  C   UNL     1     115.750  52.685  52.128  1.00  0.00     0.000 C 
BRANCH   5   6
ATOM      6  C   UNL     1     115.549  53.829  51.112  1.00  0.00     0.000 C 
BRANCH   6   7
ATOM      7  C   UNL     1     116.846  54.433  50.544  1.00  0.00     0.000 C 
BRANCH   7   8
ATOM      8  C   UNL     1     117.729  55.077  51.624  1.00  0.00     0.000 C 
BRANCH   8   9
ATOM      9  C   UNL     1     118.561  56.225  51.034  1.00  0.00     0.000 C 
BRANCH   9  10
ATOM     10  C   UNL     1     120.074  55.996  51.179  1.00  0.00     0.000 C 
BRANCH  10  11
ATOM     11  C   UNL     1     120.415  54.571  51.640  1.00  0.00     0.000 C 
BRANCH  11  12
ATOM     12  C   UNL     1     120.838  53.698  50.449  1.00  0.00     0.006 C 
BRANCH  12  13
ATOM     13  C   UNL     1     120.777  52.199  50.774  1.00  0.00     0.053 C 
BRANCH  13  14
ATOM     14  C   UNL     1     119.753  51.491  49.941  1.00  0.00     0.041 C 
ATOM     15  O   UNL     1     120.041  51.096  48.781  1.00  0.00    -0.550 OA
ATOM     16  O   UNL     1     118.473  51.282  50.441  1.00  0.00    -0.550 OA
ENDBRANCH  13  14
ENDBRANCH  12  13
ENDBRANCH  11  12
ENDBRANCH  10  11
ENDBRANCH   9  10
ENDBRANCH   8   9
ENDBRANCH   7   8
ENDBRANCH   6   7
ENDBRANCH   5   6
ENDBRANCH   4   5
ENDBRANCH   3   4
ENDBRANCH   2   3
ENDBRANCH   1   2
BRANCH   1  17
ATOM     17  C   UNL     1     118.639  53.948  55.148  1.00  0.00     0.000 C 
BRANCH  17  18
ATOM     18  C   UNL     1     119.806  54.268  56.095  1.00  0.00     0.000 C 
BRANCH  18  19
ATOM     19  C   UNL     1     120.864  53.154  56.125  1.00  0.00     0.000 C 
BRANCH  19  20
ATOM     20  C   UNL     1     122.262  53.719  55.831  1.00  0.00     0.000 C 
BRANCH  20  21
ATOM     21  C   UNL     1     122.712  53.475  54.379  1.00  0.00     0.000 C 
BRANCH  21  22
ATOM     22  C   UNL     1     122.591  52.017  53.896  1.00  0.00    -0.000 C 
BRANCH  22  23
ATOM     23  C   UNL     1     123.907  51.371  53.419  1.00  0.00    -0.000 C 
BRANCH  23  24
ATOM     24  C   UNL     1     124.360  51.782  52.006  1.00  0.00    -0.000 C 
BRANCH  24  25
ATOM     25  C   UNL     1     125.865  52.091  51.925  1.00  0.00    -0.000 C 
BRANCH  25  26
ATOM     26  C   UNL     1     126.140  53.515  51.399  1.00  0.00    -0.000 C 
BRANCH  26  27
ATOM     27  C   UNL     1     125.337  54.610  52.121  1.00  0.00    -0.000 C 
BRANCH  27  28
ATOM     28  C   UNL     1     124.150  55.129  51.293  1.00  0.00    -0.000 C 
BRANCH  28  29
ATOM     29  C   UNL     1     124.271  56.622  50.956  1.00  0.00    -0.003 C 
ATOM     30  C   UNL     1     125.043  57.407  52.015  1.00  0.00     0.004 C 
ENDBRANCH  28  29
ENDBRANCH  27  28
ENDBRANCH  26  27
ENDBRANCH  25  26
ENDBRANCH  24  25
ENDBRANCH  23  24
ENDBRANCH  22  23
ENDBRANCH  21  22
ENDBRANCH  20  21
ENDBRANCH  19  20
ENDBRANCH  18  19
ENDBRANCH  17  18
ENDBRANCH   1  17
TORSDOF 26
ENDMDL
MODEL 7
REMARK VINA RESULT:    -3.198      8.086     11.083
REMARK INTER + INTRA:         -13.546
REMARK INTER:                  -8.164
REMARK INTRA:                  -5.382
REMARK UNBOUND:                -5.486
REMARK SMILES CCCCCCCCCCCCCCCCCCCCCCCCCCCC(=O)[O-]
REMARK SMILES IDX 15 1 16 2 17 3 18 4 19 5 20 6 21 7 22 8 23 9 24 10 25 11
REMARK SMILES IDX 26 12 27 13 28 14 29 15 30 16 14 17 13 18 12 19 11 20 10 21
REMARK SMILES IDX 9 22 8 23 7 24 6 25 5 26 4 27 3 28 2 29 1 30
REMARK H PARENT
REMARK Flexibility Score: inf
ROOT
ATOM      1  C   UNL     1     124.625  55.530  43.382  1.00  0.00     0.000 C 
ENDROOT
BRANCH   1   2
ATOM      2  C   UNL     1     124.391  56.756  44.278  1.00  0.00     0.000 C 
BRANCH   2   3
ATOM      3  C   UNL     1     123.263  56.538  45.299  1.00  0.00     0.000 C 
BRANCH   3   4
ATOM      4  C   UNL     1     123.773  56.753  46.731  1.00  0.00     0.000 C 
BRANCH   4   5
ATOM      5  C   UNL     1     125.021  55.913  47.055  1.00  0.00     0.000 C 
BRANCH   5   6
ATOM      6  C   UNL     1     124.831  54.857  48.165  1.00  0.00     0.000 C 
BRANCH   6   7
ATOM      7  C   UNL     1     123.462  54.889  48.869  1.00  0.00     0.000 C 
BRANCH   7   8
ATOM      8  C   UNL     1     122.784  53.512  48.919  1.00  0.00     0.000 C 
BRANCH   8   9
ATOM      9  C   UNL     1     122.885  52.805  47.560  1.00  0.00     0.000 C 
BRANCH   9  10
ATOM     10  C   UNL     1     121.806  53.267  46.568  1.00  0.00     0.000 C 
BRANCH  10  11
ATOM     11  C   UNL     1     122.255  53.144  45.105  1.00  0.00     0.000 C 
BRANCH  11  12
ATOM     12  C   UNL     1     122.442  51.670  44.714  1.00  0.00     0.006 C 
BRANCH  12  13
ATOM     13  C   UNL     1     122.109  51.413  43.238  1.00  0.00     0.053 C 
BRANCH  13  14
ATOM     14  C   UNL     1     123.292  50.883  42.485  1.00  0.00     0.041 C 
ATOM     15  O   UNL     1     123.384  51.061  41.242  1.00  0.00    -0.550 OA
ATOM     16  O   UNL     1     124.284  50.179  43.156  1.00  0.00    -0.550 OA
ENDBRANCH  13  14
ENDBRANCH  12  13
ENDBRANCH  11  12
ENDBRANCH  10  11
ENDBRANCH   9  10
ENDBRANCH   8   9
ENDBRANCH   7   8
ENDBRANCH   6   7
ENDBRANCH   5   6
ENDBRANCH   4   5
ENDBRANCH   3   4
ENDBRANCH   2   3
ENDBRANCH   1   2
BRANCH   1  17
ATOM     17  C   UNL     1     126.097  55.372  42.963  1.00  0.00     0.000 C 
BRANCH  17  18
ATOM     18  C   UNL     1     126.779  54.174  43.643  1.00  0.00     0.000 C 
BRANCH  18  19
ATOM     19  C   UNL     1     125.784  53.276  44.394  1.00  0.00     0.000 C 
BRANCH  19  20
ATOM     20  C   UNL     1     126.402  52.743  45.694  1.00  0.00     0.000 C 
BRANCH  20  21
ATOM     21  C   UNL     1     125.898  51.336  46.062  1.00  0.00     0.000 C 
BRANCH  21  22
ATOM     22  C   UNL     1     126.252  50.868  47.488  1.00  0.00    -0.000 C 
BRANCH  22  23
ATOM     23  C   UNL     1     127.455  51.583  48.133  1.00  0.00    -0.000 C 
BRANCH  23  24
ATOM     24  C   UNL     1     127.318  51.859  49.641  1.00  0.00    -0.000 C 
BRANCH  24  25
ATOM     25  C   UNL     1     125.856  52.037  50.087  1.00  0.00    -0.000 C 
BRANCH  25  26
ATOM     26  C   UNL     1     125.653  51.680  51.575  1.00  0.00    -0.000 C 
BRANCH  26  27
ATOM     27  C   UNL     1     125.048  52.821  52.410  1.00  0.00    -0.000 C 
BRANCH  27  28
ATOM     28  C   UNL     1     125.529  54.211  51.965  1.00  0.00    -0.000 C 
BRANCH  28  29
ATOM     29  C   UNL     1     124.587  55.337  52.414  1.00  0.00    -0.003 C 
ATOM     30  C   UNL     1     124.943  56.689  51.797  1.00  0.00     0.004 C 
ENDBRANCH  28  29
ENDBRANCH  27  28
ENDBRANCH  26  27
ENDBRANCH  25  26
ENDBRANCH  24  25
ENDBRANCH  23  24
ENDBRANCH  22  23
ENDBRANCH  21  22
ENDBRANCH  20  21
ENDBRANCH  19  20
ENDBRANCH  18  19
ENDBRANCH  17  18
ENDBRANCH   1  17
TORSDOF 26
ENDMDL
MODEL 8
REMARK VINA RESULT:    -3.198      2.896      5.044
REMARK INTER + INTRA:         -13.545
REMARK INTER:                  -8.069
REMARK INTRA:                  -5.476
REMARK UNBOUND:                -5.486
REMARK SMILES CCCCCCCCCCCCCCCCCCCCCCCCCCCC(=O)[O-]
REMARK SMILES IDX 15 1 16 2 17 3 18 4 19 5 20 6 21 7 22 8 23 9 24 10 25 11
REMARK SMILES IDX 26 12 27 13 28 14 29 15 30 16 14 17 13 18 12 19 11 20 10 21
REMARK SMILES IDX 9 22 8 23 7 24 6 25 5 26 4 27 3 28 2 29 1 30
REMARK H PARENT
REMARK Flexibility Score: inf
ROOT
ATOM      1  C   UNL     1     118.014  53.136  54.677  1.00  0.00     0.000 C 
ENDROOT
BRANCH   1   2
ATOM      2  C   UNL     1     118.606  53.938  55.846  1.00  0.00     0.000 C 
BRANCH   2   3
ATOM      3  C   UNL     1     120.113  54.194  55.686  1.00  0.00     0.000 C 
BRANCH   3   4
ATOM      4  C   UNL     1     120.882  52.870  55.570  1.00  0.00     0.000 C 
BRANCH   4   5
ATOM      5  C   UNL     1     122.363  53.068  55.203  1.00  0.00     0.000 C 
BRANCH   5   6
ATOM      6  C   UNL     1     122.839  52.296  53.954  1.00  0.00     0.000 C 
BRANCH   6   7
ATOM      7  C   UNL     1     123.477  53.164  52.854  1.00  0.00     0.000 C 
BRANCH   7   8
ATOM      8  C   UNL     1     123.404  54.667  53.160  1.00  0.00     0.000 C 
BRANCH   8   9
ATOM      9  C   UNL     1     122.758  55.429  51.994  1.00  0.00     0.000 C 
BRANCH   9  10
ATOM     10  C   UNL     1     121.600  54.654  51.347  1.00  0.00     0.000 C 
BRANCH  10  11
ATOM     11  C   UNL     1     120.287  54.788  52.133  1.00  0.00     0.000 C 
BRANCH  11  12
ATOM     12  C   UNL     1     119.200  55.449  51.271  1.00  0.00     0.006 C 
BRANCH  12  13
ATOM     13  C   UNL     1     119.732  55.893  49.902  1.00  0.00     0.053 C 
BRANCH  13  14
ATOM     14  C   UNL     1     119.450  57.341  49.639  1.00  0.00     0.041 C 
ATOM     15  O   UNL     1     120.300  58.218  49.943  1.00  0.00    -0.550 OA
ATOM     16  O   UNL     1     118.240  57.722  49.073  1.00  0.00    -0.550 OA
ENDBRANCH  13  14
ENDBRANCH  12  13
ENDBRANCH  11  12
ENDBRANCH  10  11
ENDBRANCH   9  10
ENDBRANCH   8   9
ENDBRANCH   7   8
ENDBRANCH   6   7
ENDBRANCH   5   6
ENDBRANCH   4   5
ENDBRANCH   3   4
ENDBRANCH   2   3
ENDBRANCH   1   2
BRANCH   1  17
ATOM     17  C   UNL     1     116.552  52.719  54.922  1.00  0.00     0.000 C 
BRANCH  17  18
ATOM     18  C   UNL     1     115.676  52.874  53.669  1.00  0.00     0.000 C 
BRANCH  18  19
ATOM     19  C   UNL     1     116.421  53.549  52.507  1.00  0.00     0.000 C 
BRANCH  19  20
ATOM     20  C   UNL     1     115.643  53.392  51.193  1.00  0.00     0.000 C 
BRANCH  20  21
ATOM     21  C   UNL     1     116.223  52.294  50.283  1.00  0.00     0.000 C 
BRANCH  21  22
ATOM     22  C   UNL     1     115.458  50.956  50.308  1.00  0.00    -0.000 C 
BRANCH  22  23
ATOM     23  C   UNL     1     115.793  50.029  51.493  1.00  0.00    -0.000 C 
BRANCH  23  24
ATOM     24  C   UNL     1     116.691  48.828  51.148  1.00  0.00    -0.000 C 
BRANCH  24  25
ATOM     25  C   UNL     1     118.188  49.123  51.347  1.00  0.00    -0.000 C 
BRANCH  25  26
ATOM     26  C   UNL     1     118.433  50.206  52.419  1.00  0.00    -0.000 C 
BRANCH  26  27
ATOM     27  C   UNL     1     119.410  51.308  51.976  1.00  0.00    -0.000 C 
BRANCH  27  28
ATOM     28  C   UNL     1     119.785  51.215  50.488  1.00  0.00    -0.000 C 
BRANCH  28  29
ATOM     29  C   UNL     1     121.303  51.169  50.262  1.00  0.00    -0.003 C 
ATOM     30  C   UNL     1     121.992  50.086  51.093  1.00  0.00     0.004 C 
ENDBRANCH  28  29
ENDBRANCH  27  28
ENDBRANCH  26  27
ENDBRANCH  25  26
ENDBRANCH  24  25
ENDBRANCH  23  24
ENDBRANCH  22  23
ENDBRANCH  21  22
ENDBRANCH  20  21
ENDBRANCH  19  20
ENDBRANCH  18  19
ENDBRANCH  17  18
ENDBRANCH   1  17
TORSDOF 26
ENDMDL
MODEL 9
REMARK VINA RESULT:    -3.188      4.840      7.627
REMARK INTER + INTRA:         -13.520
REMARK INTER:                  -9.096
REMARK INTRA:                  -4.424
REMARK UNBOUND:                -5.486
REMARK SMILES CCCCCCCCCCCCCCCCCCCCCCCCCCCC(=O)[O-]
REMARK SMILES IDX 15 1 16 2 17 3 18 4 19 5 20 6 21 7 22 8 23 9 24 10 25 11
REMARK SMILES IDX 26 12 27 13 28 14 29 15 30 16 14 17 13 18 12 19 11 20 10 21
REMARK SMILES IDX 9 22 8 23 7 24 6 25 5 26 4 27 3 28 2 29 1 30
REMARK H PARENT
REMARK Flexibility Score: inf
ROOT
ATOM      1  C   UNL     1     123.105  51.787  54.040  1.00  0.00     0.000 C 
ENDROOT
BRANCH   1   2
ATOM      2  C   UNL     1     123.016  52.690  52.799  1.00  0.00     0.000 C 
BRANCH   2   3
ATOM      3  C   UNL     1     124.014  53.858  52.845  1.00  0.00     0.000 C 
BRANCH   3   4
ATOM      4  C   UNL     1     123.280  55.196  53.014  1.00  0.00     0.000 C 
BRANCH   4   5
ATOM      5  C   UNL     1     124.197  56.413  52.797  1.00  0.00     0.000 C 
BRANCH   5   6
ATOM      6  C   UNL     1     123.951  57.195  51.489  1.00  0.00     0.000 C 
BRANCH   6   7
ATOM      7  C   UNL     1     122.561  56.992  50.858  1.00  0.00     0.000 C 
BRANCH   7   8
ATOM      8  C   UNL     1     122.630  56.440  49.426  1.00  0.00     0.000 C 
BRANCH   8   9
ATOM      9  C   UNL     1     122.677  54.905  49.437  1.00  0.00     0.000 C 
BRANCH   9  10
ATOM     10  C   UNL     1     124.076  54.352  49.124  1.00  0.00     0.000 C 
BRANCH  10  11
ATOM     11  C   UNL     1     124.990  55.395  48.464  1.00  0.00     0.000 C 
BRANCH  11  12
ATOM     12  C   UNL     1     125.045  55.188  46.943  1.00  0.00     0.006 C 
BRANCH  12  13
ATOM     13  C   UNL     1     124.570  56.426  46.170  1.00  0.00     0.053 C 
BRANCH  13  14
ATOM     14  C   UNL     1     124.623  56.211  44.688  1.00  0.00     0.041 C 
ATOM     15  O   UNL     1     125.395  55.345  44.200  1.00  0.00    -0.550 OA
ATOM     16  O   UNL     1     123.830  56.980  43.845  1.00  0.00    -0.550 OA
ENDBRANCH  13  14
ENDBRANCH  12  13
ENDBRANCH  11  12
ENDBRANCH  10  11
ENDBRANCH   9  10
ENDBRANCH   8   9
ENDBRANCH   7   8
ENDBRANCH   6   7
ENDBRANCH   5   6
ENDBRANCH   4   5
ENDBRANCH   3   4
ENDBRANCH   2   3
ENDBRANCH   1   2
BRANCH   1  17
ATOM     17  C   UNL     1     121.862  51.894  54.941  1.00  0.00     0.000 C 
BRANCH  17  18
ATOM     18  C   UNL     1     121.985  53.013  55.987  1.00  0.00     0.000 C 
BRANCH  18  19
ATOM     19  C   UNL     1     121.058  54.202  55.692  1.00  0.00     0.000 C 
BRANCH  19  20
ATOM     20  C   UNL     1     119.602  53.736  55.539  1.00  0.00     0.000 C 
BRANCH  20  21
ATOM     21  C   UNL     1     118.956  54.217  54.228  1.00  0.00     0.000 C 
BRANCH  21  22
ATOM     22  C   UNL     1     119.707  53.810  52.944  1.00  0.00    -0.000 C 
BRANCH  22  23
ATOM     23  C   UNL     1     119.754  54.886  51.842  1.00  0.00    -0.000 C 
BRANCH  23  24
ATOM     24  C   UNL     1     118.682  55.984  51.956  1.00  0.00    -0.000 C 
BRANCH  24  25
ATOM     25  C   UNL     1     117.817  56.112  50.690  1.00  0.00    -0.000 C 
BRANCH  25  26
ATOM     26  C   UNL     1     117.287  54.746  50.205  1.00  0.00    -0.000 C 
BRANCH  26  27
ATOM     27  C   UNL     1     115.754  54.626  50.240  1.00  0.00    -0.000 C 
BRANCH  27  28
ATOM     28  C   UNL     1     115.269  53.333  50.914  1.00  0.00    -0.000 C 
BRANCH  28  29
ATOM     29  C   UNL     1     116.165  52.902  52.084  1.00  0.00    -0.003 C 
ATOM     30  C   UNL     1     115.501  53.109  53.445  1.00  0.00     0.004 C 
ENDBRANCH  28  29
ENDBRANCH  27  28
ENDBRANCH  26  27
ENDBRANCH  25  26
ENDBRANCH  24  25
ENDBRANCH  23  24
ENDBRANCH  22  23
ENDBRANCH  21  22
ENDBRANCH  20  21
ENDBRANCH  19  20
ENDBRANCH  18  19
ENDBRANCH  17  18
ENDBRANCH   1  17
TORSDOF 26
ENDMDL
