MODEL 1
REMARK VINA RESULT:    -3.588      0.000      0.000
REMARK INTER + INTRA:          -5.272
REMARK INTER:                  -4.846
REMARK INTRA:                  -0.426
REMARK UNBOUND:                -0.426
REMARK SMILES CCCCCCC=CC(=O)[O-]
REMARK SMILES IDX 5 1 6 2 7 3 8 4 9 5 10 6 11 7 4 8 3 9 2 10 1 11
REMARK H PARENT
REMARK Flexibility Score: inf
ROOT
ATOM      1  C   UNL     1     -17.067 -22.956   5.528  1.00  0.00     0.004 C 
ENDROOT
BRANCH   1   2
ATOM      2  C   UNL     1     -17.804 -22.392   4.303  1.00  0.00     0.027 C 
BRANCH   2   3
ATOM      3  C   UNL     1     -16.895 -21.533   3.473  1.00  0.00    -0.025 C 
ATOM      4  C   UNL     1     -16.274 -22.015   2.392  1.00  0.00     0.020 C 
BRANCH   4   5
ATOM      5  C   UNL     1     -15.393 -21.180   1.560  1.00  0.00     0.064 C 
ATOM      6  O   UNL     1     -14.777 -21.699   0.593  1.00  0.00    -0.545 OA
ATOM      7  O   UNL     1     -15.229 -19.826   1.827  1.00  0.00    -0.545 OA
ENDBRANCH   4   5
ENDBRANCH   2   3
ENDBRANCH   1   2
BRANCH   1   8
ATOM      8  C   UNL     1     -17.257 -22.089   6.783  1.00  0.00     0.000 C 
BRANCH   8   9
ATOM      9  C   UNL     1     -15.971 -21.362   7.204  1.00  0.00    -0.000 C 
BRANCH   9  10
ATOM     10  C   UNL     1     -16.276 -19.934   7.671  1.00  0.00    -0.003 C 
ATOM     11  C   UNL     1     -16.136 -18.937   6.525  1.00  0.00     0.004 C 
ENDBRANCH   9  10
ENDBRANCH   8   9
ENDBRANCH   1   8
TORSDOF 6
ENDMDL
MODEL 2
REMARK VINA RESULT:    -3.477      3.084      5.131
REMARK INTER + INTRA:          -5.123
REMARK INTER:                  -4.753
REMARK INTRA:                  -0.370
REMARK UNBOUND:                -0.426
REMARK SMILES CCCCCCC=CC(=O)[O-]
REMARK SMILES IDX 5 1 6 2 7 3 8 4 9 5 10 6 11 7 4 8 3 9 2 10 1 11
REMARK H PARENT
REMARK Flexibility Score: inf
ROOT
ATOM      1  C   UNL     1     -17.689 -22.150   3.858  1.00  0.00     0.004 C 
ENDROOT
BRANCH   1   2
ATOM      2  C   UNL     1     -17.144 -22.951   5.051  1.00  0.00     0.027 C 
BRANCH   2   3
ATOM      3  C   UNL     1     -17.177 -22.136   6.311  1.00  0.00    -0.025 C 
ATOM      4  C   UNL     1     -16.378 -21.078   6.480  1.00  0.00     0.020 C 
BRANCH   4   5
ATOM      5  C   UNL     1     -16.412 -20.262   7.704  1.00  0.00     0.064 C 
ATOM      6  O   UNL     1     -15.420 -19.546   8.001  1.00  0.00    -0.545 OA
ATOM      7  O   UNL     1     -17.523 -20.269   8.539  1.00  0.00    -0.545 OA
ENDBRANCH   4   5
ENDBRANCH   2   3
ENDBRANCH   1   2
BRANCH   1   8
ATOM      8  C   UNL     1     -16.591 -21.764   2.854  1.00  0.00     0.000 C 
BRANCH   8   9
ATOM      9  C   UNL     1     -16.281 -20.260   2.862  1.00  0.00    -0.000 C 
BRANCH   9  10
ATOM     10  C   UNL     1     -15.270 -19.903   1.767  1.00  0.00    -0.003 C 
ATOM     11  C   UNL     1     -14.698 -21.157   1.112  1.00  0.00     0.004 C 
ENDBRANCH   9  10
ENDBRANCH   8   9
ENDBRANCH   1   8
TORSDOF 6
ENDMDL
MODEL 3
REMARK VINA RESULT:    -3.477      3.160      4.937
REMARK INTER + INTRA:          -5.122
REMARK INTER:                  -4.553
REMARK INTRA:                  -0.569
REMARK UNBOUND:                -0.426
REMARK SMILES CCCCCCC=CC(=O)[O-]
REMARK SMILES IDX 5 1 6 2 7 3 8 4 9 5 10 6 11 7 4 8 3 9 2 10 1 11
REMARK H PARENT
REMARK Flexibility Score: inf
ROOT
ATOM      1  C   UNL     1     -16.830 -23.462   6.129  1.00  0.00     0.004 C 
ENDROOT
BRANCH   1   2
ATOM      2  C   UNL     1     -17.215 -22.096   6.717  1.00  0.00     0.027 C 
BRANCH   2   3
ATOM      3  C   UNL     1     -16.019 -21.402   7.302  1.00  0.00    -0.025 C 
ATOM      4  C   UNL     1     -16.018 -20.085   7.531  1.00  0.00     0.020 C 
BRANCH   4   5
ATOM      5  C   UNL     1     -14.859 -19.395   8.117  1.00  0.00     0.064 C 
ATOM      6  O   UNL     1     -14.194 -19.959   9.025  1.00  0.00    -0.545 OA
ATOM      7  O   UNL     1     -14.487 -18.127   7.686  1.00  0.00    -0.545 OA
ENDBRANCH   4   5
ENDBRANCH   2   3
ENDBRANCH   1   2
BRANCH   1   8
ATOM      8  C   UNL     1     -17.237 -23.606   4.653  1.00  0.00     0.000 C 
BRANCH   8   9
ATOM      9  C   UNL     1     -17.815 -22.309   4.068  1.00  0.00    -0.000 C 
BRANCH   9  10
ATOM     10  C   UNL     1     -16.834 -21.669   3.079  1.00  0.00    -0.003 C 
ATOM     11  C   UNL     1     -16.590 -20.201   3.416  1.00  0.00     0.004 C 
ENDBRANCH   9  10
ENDBRANCH   8   9
ENDBRANCH   1   8
TORSDOF 6
ENDMDL
MODEL 4
REMARK VINA RESULT:    -3.359      2.715      4.701
REMARK INTER + INTRA:          -4.963
REMARK INTER:                  -4.286
REMARK INTRA:                  -0.678
REMARK UNBOUND:                -0.426
REMARK SMILES CCCCCCC=CC(=O)[O-]
REMARK SMILES IDX 5 1 6 2 7 3 8 4 9 5 10 6 11 7 4 8 3 9 2 10 1 11
REMARK H PARENT
REMARK Flexibility Score: inf
ROOT
ATOM      1  C   UNL     1     -16.560 -23.767   6.104  1.00  0.00     0.004 C 
ENDROOT
BRANCH   1   2
ATOM      2  C   UNL     1     -17.293 -23.342   7.386  1.00  0.00     0.027 C 
BRANCH   2   3
ATOM      3  C   UNL     1     -17.043 -21.894   7.698  1.00  0.00    -0.025 C 
ATOM      4  C   UNL     1     -16.099 -21.195   7.060  1.00  0.00     0.020 C 
BRANCH   4   5
ATOM      5  C   UNL     1     -15.855 -19.773   7.345  1.00  0.00     0.064 C 
ATOM      6  O   UNL     1     -15.285 -19.443   8.418  1.00  0.00    -0.545 OA
ATOM      7  O   UNL     1     -16.244 -18.785   6.447  1.00  0.00    -0.545 OA
ENDBRANCH   4   5
ENDBRANCH   2   3
ENDBRANCH   1   2
BRANCH   1   8
ATOM      8  C   UNL     1     -17.505 -24.389   5.063  1.00  0.00     0.000 C 
BRANCH   8   9
ATOM      9  C   UNL     1     -17.507 -23.626   3.731  1.00  0.00    -0.000 C 
BRANCH   9  10
ATOM     10  C   UNL     1     -17.995 -22.185   3.925  1.00  0.00    -0.003 C 
ATOM     11  C   UNL     1     -16.944 -21.179   3.467  1.00  0.00     0.004 C 
ENDBRANCH   9  10
ENDBRANCH   8   9
ENDBRANCH   1   8
TORSDOF 6
ENDMDL
MODEL 5
REMARK VINA RESULT:    -3.342      1.176      1.779
REMARK INTER + INTRA:          -4.940
REMARK INTER:                  -4.621
REMARK INTRA:                  -0.319
REMARK UNBOUND:                -0.426
REMARK SMILES CCCCCCC=CC(=O)[O-]
REMARK SMILES IDX 5 1 6 2 7 3 8 4 9 5 10 6 11 7 4 8 3 9 2 10 1 11
REMARK H PARENT
REMARK Flexibility Score: inf
ROOT
ATOM      1  C   UNL     1     -17.641 -22.129   3.965  1.00  0.00     0.004 C 
ENDROOT
BRANCH   1   2
ATOM      2  C   UNL     1     -17.264 -23.266   3.002  1.00  0.00     0.027 C 
BRANCH   2   3
ATOM      3  C   UNL     1     -16.175 -22.840   2.061  1.00  0.00    -0.025 C 
ATOM      4  C   UNL     1     -15.785 -21.564   1.975  1.00  0.00     0.020 C 
BRANCH   4   5
ATOM      5  C   UNL     1     -14.709 -21.136   1.069  1.00  0.00     0.064 C 
ATOM      6  O   UNL     1     -14.373 -21.878   0.109  1.00  0.00    -0.545 OA
ATOM      7  O   UNL     1     -14.055 -19.924   1.256  1.00  0.00    -0.545 OA
ENDBRANCH   4   5
ENDBRANCH   2   3
ENDBRANCH   1   2
BRANCH   1   8
ATOM      8  C   UNL     1     -17.272 -22.442   5.424  1.00  0.00     0.000 C 
BRANCH   8   9
ATOM      9  C   UNL     1     -16.622 -21.250   6.141  1.00  0.00    -0.000 C 
BRANCH   9  10
ATOM     10  C   UNL     1     -16.469 -21.530   7.641  1.00  0.00    -0.003 C 
ATOM     11  C   UNL     1     -17.800 -21.938   8.265  1.00  0.00     0.004 C 
ENDBRANCH   9  10
ENDBRANCH   8   9
ENDBRANCH   1   8
TORSDOF 6
ENDMDL
MODEL 6
REMARK VINA RESULT:    -3.264      1.749      2.663
REMARK INTER + INTRA:          -4.836
REMARK INTER:                  -4.110
REMARK INTRA:                  -0.725
REMARK UNBOUND:                -0.426
REMARK SMILES CCCCCCC=CC(=O)[O-]
REMARK SMILES IDX 5 1 6 2 7 3 8 4 9 5 10 6 11 7 4 8 3 9 2 10 1 11
REMARK H PARENT
REMARK Flexibility Score: inf
ROOT
ATOM      1  C   UNL     1     -16.965 -22.541   8.134  1.00  0.00     0.004 C 
ENDROOT
BRANCH   1   2
ATOM      2  C   UNL     1     -17.165 -23.716   7.165  1.00  0.00     0.027 C 
BRANCH   2   3
ATOM      3  C   UNL     1     -16.805 -23.326   5.760  1.00  0.00    -0.025 C 
ATOM      4  C   UNL     1     -17.475 -22.372   5.106  1.00  0.00     0.020 C 
BRANCH   4   5
ATOM      5  C   UNL     1     -17.124 -21.969   3.736  1.00  0.00     0.064 C 
ATOM      6  O   UNL     1     -16.865 -20.762   3.490  1.00  0.00    -0.545 OA
ATOM      7  O   UNL     1     -17.073 -22.902   2.707  1.00  0.00    -0.545 OA
ENDBRANCH   4   5
ENDBRANCH   2   3
ENDBRANCH   1   2
BRANCH   1   8
ATOM      8  C   UNL     1     -15.481 -22.256   8.419  1.00  0.00     0.000 C 
BRANCH   8   9
ATOM      9  C   UNL     1     -15.062 -20.833   8.021  1.00  0.00    -0.000 C 
BRANCH   9  10
ATOM     10  C   UNL     1     -16.290 -19.938   7.813  1.00  0.00    -0.003 C 
ATOM     11  C   UNL     1     -16.132 -19.064   6.573  1.00  0.00     0.004 C 
ENDBRANCH   9  10
ENDBRANCH   8   9
ENDBRANCH   1   8
TORSDOF 6
ENDMDL
MODEL 7
REMARK VINA RESULT:    -2.994      3.241      5.628
REMARK INTER + INTRA:          -4.470
REMARK INTER:                  -4.146
REMARK INTRA:                  -0.323
REMARK UNBOUND:                -0.426
REMARK SMILES CCCCCCC=CC(=O)[O-]
REMARK SMILES IDX 5 1 6 2 7 3 8 4 9 5 10 6 11 7 4 8 3 9 2 10 1 11
REMARK H PARENT
REMARK Flexibility Score: inf
ROOT
ATOM      1  C   UNL     1     -17.871 -23.673   3.805  1.00  0.00     0.004 C 
ENDROOT
BRANCH   1   2
ATOM      2  C   UNL     1     -17.624 -22.228   4.268  1.00  0.00     0.027 C 
BRANCH   2   3
ATOM      3  C   UNL     1     -17.179 -22.187   5.701  1.00  0.00    -0.025 C 
ATOM      4  C   UNL     1     -16.534 -21.129   6.202  1.00  0.00     0.020 C 
BRANCH   4   5
ATOM      5  C   UNL     1     -16.105 -21.069   7.608  1.00  0.00     0.064 C 
ATOM      6  O   UNL     1     -16.263 -22.075   8.349  1.00  0.00    -0.545 OA
ATOM      7  O   UNL     1     -15.530 -19.918   8.133  1.00  0.00    -0.545 OA
ENDBRANCH   4   5
ENDBRANCH   2   3
ENDBRANCH   1   2
BRANCH   1   8
ATOM      8  C   UNL     1     -17.211 -23.980   2.450  1.00  0.00     0.000 C 
BRANCH   8   9
ATOM      9  C   UNL     1     -16.160 -22.934   2.051  1.00  0.00    -0.000 C 
BRANCH   9  10
ATOM     10  C   UNL     1     -15.726 -23.122   0.593  1.00  0.00    -0.003 C 
ATOM     11  C   UNL     1     -16.497 -24.260  -0.071  1.00  0.00     0.004 C 
ENDBRANCH   9  10
ENDBRANCH   8   9
ENDBRANCH   1   8
TORSDOF 6
ENDMDL
MODEL 8
REMARK VINA RESULT:    -2.961      3.672      6.113
REMARK INTER + INTRA:          -4.426
REMARK INTER:                  -4.124
REMARK INTRA:                  -0.302
REMARK UNBOUND:                -0.426
REMARK SMILES CCCCCCC=CC(=O)[O-]
REMARK SMILES IDX 5 1 6 2 7 3 8 4 9 5 10 6 11 7 4 8 3 9 2 10 1 11
REMARK H PARENT
REMARK Flexibility Score: inf
ROOT
ATOM      1  C   UNL     1     -16.666 -22.771   2.682  1.00  0.00     0.004 C 
ENDROOT
BRANCH   1   2
ATOM      2  C   UNL     1     -17.277 -21.760   3.664  1.00  0.00     0.027 C 
BRANCH   2   3
ATOM      3  C   UNL     1     -17.482 -22.376   5.018  1.00  0.00    -0.025 C 
ATOM      4  C   UNL     1     -16.963 -21.827   6.121  1.00  0.00     0.020 C 
BRANCH   4   5
ATOM      5  C   UNL     1     -17.170 -22.412   7.455  1.00  0.00     0.064 C 
ATOM      6  O   UNL     1     -17.834 -21.778   8.315  1.00  0.00    -0.545 OA
ATOM      7  O   UNL     1     -16.640 -23.656   7.781  1.00  0.00    -0.545 OA
ENDBRANCH   4   5
ENDBRANCH   2   3
ENDBRANCH   1   2
BRANCH   1   8
ATOM      8  C   UNL     1     -17.409 -24.118   2.683  1.00  0.00     0.000 C 
BRANCH   8   9
ATOM      9  C   UNL     1     -17.283 -24.866   1.348  1.00  0.00    -0.000 C 
BRANCH   9  10
ATOM     10  C   UNL     1     -16.179 -24.255   0.478  1.00  0.00    -0.003 C 
ATOM     11  C   UNL     1     -16.620 -24.145  -0.978  1.00  0.00     0.004 C 
ENDBRANCH   9  10
ENDBRANCH   8   9
ENDBRANCH   1   8
TORSDOF 6
ENDMDL
MODEL 9
REMARK VINA RESULT:    -2.860      2.015      2.858
REMARK INTER + INTRA:          -4.289
REMARK INTER:                  -3.903
REMARK INTRA:                  -0.386
REMARK UNBOUND:                -0.426
REMARK SMILES CCCCCCC=CC(=O)[O-]
REMARK SMILES IDX 5 1 6 2 7 3 8 4 9 5 10 6 11 7 4 8 3 9 2 10 1 11
REMARK H PARENT
REMARK Flexibility Score: inf
ROOT
ATOM      1  C   UNL     1     -17.978 -23.805   3.890  1.00  0.00     0.004 C 
ENDROOT
BRANCH   1   2
ATOM      2  C   UNL     1     -16.617 -24.264   3.344  1.00  0.00     0.027 C 
BRANCH   2   3
ATOM      3  C   UNL     1     -16.605 -24.256   1.843  1.00  0.00    -0.025 C 
ATOM      4  C   UNL     1     -15.744 -23.499   1.155  1.00  0.00     0.020 C 
BRANCH   4   5
ATOM      5  C   UNL     1     -15.712 -23.495  -0.316  1.00  0.00     0.064 C 
ATOM      6  O   UNL     1     -16.699 -23.935  -0.961  1.00  0.00    -0.545 OA
ATOM      7  O   UNL     1     -14.606 -23.012  -1.006  1.00  0.00    -0.545 OA
ENDBRANCH   4   5
ENDBRANCH   2   3
ENDBRANCH   1   2
BRANCH   1   8
ATOM      8  C   UNL     1     -18.130 -22.275   3.888  1.00  0.00     0.000 C 
BRANCH   8   9
ATOM      9  C   UNL     1     -16.958 -21.561   4.576  1.00  0.00    -0.000 C 
BRANCH   9  10
ATOM     10  C   UNL     1     -16.951 -21.844   6.083  1.00  0.00    -0.003 C 
ATOM     11  C   UNL     1     -16.291 -20.706   6.856  1.00  0.00     0.004 C 
ENDBRANCH   9  10
ENDBRANCH   8   9
ENDBRANCH   1   8
TORSDOF 6
ENDMDL
