MODEL 1
REMARK VINA RESULT:    -0.543      0.000      0.000
REMARK INTER + INTRA:          -0.831
REMARK INTER:                  -0.575
REMARK INTRA:                  -0.257
REMARK UNBOUND:                -0.257
REMARK SMILES CC(C)[C@@H]1CC[C@@H](C)[C@H]2C=C[C@H](C)C[C@@H]21
REMARK SMILES IDX 8 1 7 2 6 3 5 4 4 5 15 6 9 7 10 8 11 9 12 10 14 11 13 12
REMARK SMILES IDX 2 13 1 14 3 15
REMARK H PARENT
REMARK Flexibility Score: inf
ROOT
ATOM      1  C   UNL     1       0.219  10.186  11.526  1.00  0.00     0.008 C 
ATOM      2  C   UNL     1       0.969  10.339  12.863  1.00  0.00    -0.007 C 
ATOM      3  C   UNL     1       0.766  11.751  13.480  1.00  0.00     0.004 C 
ATOM      4  C   UNL     1       2.013  12.665  13.408  1.00  0.00     0.004 C 
ATOM      5  C   UNL     1       2.752  12.517  12.054  1.00  0.00    -0.005 C 
ATOM      6  C   UNL     1       3.230  11.024  11.833  1.00  0.00    -0.000 C 
ATOM      7  C   UNL     1       2.473  10.020  12.745  1.00  0.00     0.018 C 
ATOM      8  C   UNL     1       2.771   8.602  12.335  1.00  0.00    -0.027 C 
ATOM      9  C   UNL     1       3.997   8.257  11.908  1.00  0.00    -0.028 C 
ATOM     10  C   UNL     1       5.083   9.277  11.605  1.00  0.00     0.008 C 
ATOM     11  C   UNL     1       4.737  10.726  12.042  1.00  0.00     0.012 C 
ATOM     12  C   UNL     1       6.408   8.829  12.227  1.00  0.00     0.012 C 
ENDROOT
BRANCH   5  13
ATOM     13  C   UNL     1       3.855  13.603  11.800  1.00  0.00    -0.014 C 
ATOM     14  C   UNL     1       3.317  14.715  10.875  1.00  0.00     0.007 C 
ATOM     15  C   UNL     1       4.375  14.269  13.088  1.00  0.00     0.007 C 
ENDBRANCH   5  13
TORSDOF 1
ENDMDL
MODEL 2
REMARK VINA RESULT:     0.552      1.235      4.376
REMARK INTER + INTRA:           0.327
REMARK INTER:                   0.154
REMARK INTRA:                   0.173
REMARK UNBOUND:                -0.257
REMARK SMILES CC(C)[C@@H]1CC[C@@H](C)[C@H]2C=C[C@H](C)C[C@@H]21
REMARK SMILES IDX 8 1 7 2 6 3 5 4 4 5 15 6 9 7 10 8 11 9 12 10 14 11 13 12
REMARK SMILES IDX 2 13 1 14 3 15
REMARK H PARENT
REMARK Flexibility Score: inf
ROOT
ATOM      1  C   UNL     1      -0.112  12.248  12.913  1.00  0.00     0.008 C 
ATOM      2  C   UNL     1       0.410  12.141  11.467  1.00  0.00    -0.007 C 
ATOM      3  C   UNL     1       0.546  10.661  11.012  1.00  0.00     0.004 C 
ATOM      4  C   UNL     1       2.006  10.159  10.899  1.00  0.00     0.004 C 
ATOM      5  C   UNL     1       2.884  10.689  12.062  1.00  0.00    -0.005 C 
ATOM      6  C   UNL     1       2.913  12.272  12.069  1.00  0.00    -0.000 C 
ATOM      7  C   UNL     1       1.742  12.889  11.256  1.00  0.00     0.018 C 
ATOM      8  C   UNL     1       1.657  14.374  11.490  1.00  0.00    -0.027 C 
ATOM      9  C   UNL     1       2.773  15.108  11.634  1.00  0.00    -0.028 C 
ATOM     10  C   UNL     1       4.154  14.490  11.787  1.00  0.00     0.008 C 
ATOM     11  C   UNL     1       4.198  12.957  11.539  1.00  0.00     0.012 C 
ATOM     12  C   UNL     1       5.153  15.212  10.880  1.00  0.00     0.012 C 
ENDROOT
BRANCH   5  13
ATOM     13  C   UNL     1       4.292  10.006  12.169  1.00  0.00    -0.014 C 
ATOM     14  C   UNL     1       4.144   8.514  12.527  1.00  0.00     0.007 C 
ATOM     15  C   UNL     1       5.125  10.103  10.877  1.00  0.00     0.007 C 
ENDBRANCH   5  13
TORSDOF 1
ENDMDL
MODEL 3
REMARK VINA RESULT:     1.155      1.177      3.725
REMARK INTER + INTRA:           0.965
REMARK INTER:                   0.288
REMARK INTRA:                   0.677
REMARK UNBOUND:                -0.257
REMARK SMILES CC(C)[C@@H]1CC[C@@H](C)[C@H]2C=C[C@H](C)C[C@@H]21
REMARK SMILES IDX 8 1 7 2 6 3 5 4 4 5 15 6 9 7 10 8 11 9 12 10 14 11 13 12
REMARK SMILES IDX 2 13 1 14 3 15
REMARK H PARENT
REMARK Flexibility Score: inf
ROOT
ATOM      1  C   UNL     1       4.001  14.247  12.987  1.00  0.00     0.008 C 
ATOM      2  C   UNL     1       3.697  13.859  11.527  1.00  0.00    -0.007 C 
ATOM      3  C   UNL     1       2.344  14.451  11.043  1.00  0.00     0.004 C 
ATOM      4  C   UNL     1       1.209  13.410  10.887  1.00  0.00     0.004 C 
ATOM      5  C   UNL     1       1.225  12.370  12.036  1.00  0.00    -0.005 C 
ATOM      6  C   UNL     1       2.602  11.589  12.070  1.00  0.00    -0.000 C 
ATOM      7  C   UNL     1       3.724  12.334  11.296  1.00  0.00     0.018 C 
ATOM      8  C   UNL     1       5.063  11.696  11.556  1.00  0.00    -0.027 C 
ATOM      9  C   UNL     1       5.172  10.364  11.686  1.00  0.00    -0.028 C 
ATOM     10  C   UNL     1       3.966   9.443  11.795  1.00  0.00     0.008 C 
ATOM     11  C   UNL     1       2.606  10.140  11.520  1.00  0.00     0.012 C 
ATOM     12  C   UNL     1       4.148   8.233  10.875  1.00  0.00     0.012 C 
ENDROOT
BRANCH   5  13
ATOM     13  C   UNL     1      -0.049  11.457  12.098  1.00  0.00    -0.014 C 
ATOM     14  C   UNL     1      -0.101  10.518  10.876  1.00  0.00     0.007 C 
ATOM     15  C   UNL     1      -0.125  10.588  13.367  1.00  0.00     0.007 C 
ENDBRANCH   5  13
TORSDOF 1
ENDMDL
MODEL 4
REMARK VINA RESULT:     1.858      1.501      2.111
REMARK INTER + INTRA:           1.710
REMARK INTER:                   1.825
REMARK INTRA:                  -0.115
REMARK UNBOUND:                -0.257
REMARK SMILES CC(C)[C@@H]1CC[C@@H](C)[C@H]2C=C[C@H](C)C[C@@H]21
REMARK SMILES IDX 8 1 7 2 6 3 5 4 4 5 15 6 9 7 10 8 11 9 12 10 14 11 13 12
REMARK SMILES IDX 2 13 1 14 3 15
REMARK H PARENT
REMARK Flexibility Score: inf
ROOT
ATOM      1  C   UNL     1       0.855  12.004  14.908  1.00  0.00     0.008 C 
ATOM      2  C   UNL     1       2.391  12.098  14.978  1.00  0.00    -0.007 C 
ATOM      3  C   UNL     1       2.878  13.574  15.001  1.00  0.00     0.004 C 
ATOM      4  C   UNL     1       3.545  14.047  13.687  1.00  0.00     0.004 C 
ATOM      5  C   UNL     1       2.802  13.502  12.440  1.00  0.00    -0.005 C 
ATOM      6  C   UNL     1       2.792  11.919  12.438  1.00  0.00    -0.000 C 
ATOM      7  C   UNL     1       3.089  11.324  13.841  1.00  0.00     0.018 C 
ATOM      8  C   UNL     1       2.827   9.841  13.856  1.00  0.00    -0.027 C 
ATOM      9  C   UNL     1       3.114   9.086  12.783  1.00  0.00    -0.028 C 
ATOM     10  C   UNL     1       3.507   9.677  11.437  1.00  0.00     0.008 C 
ATOM     11  C   UNL     1       3.767  11.207  11.466  1.00  0.00     0.012 C 
ATOM     12  C   UNL     1       4.721   8.934  10.875  1.00  0.00     0.012 C 
ENDROOT
BRANCH   5  13
ATOM     13  C   UNL     1       3.248  14.157  11.086  1.00  0.00    -0.014 C 
ATOM     14  C   UNL     1       2.530  15.505  10.875  1.00  0.00     0.007 C 
ATOM     15  C   UNL     1       4.765  14.409  10.993  1.00  0.00     0.007 C 
ENDBRANCH   5  13
TORSDOF 1
ENDMDL
MODEL 5
REMARK VINA RESULT:     2.163      2.523      6.726
REMARK INTER + INTRA:           2.032
REMARK INTER:                   1.391
REMARK INTRA:                   0.641
REMARK UNBOUND:                -0.257
REMARK SMILES CC(C)[C@@H]1CC[C@@H](C)[C@H]2C=C[C@H](C)C[C@@H]21
REMARK SMILES IDX 8 1 7 2 6 3 5 4 4 5 15 6 9 7 10 8 11 9 12 10 14 11 13 12
REMARK SMILES IDX 2 13 1 14 3 15
REMARK H PARENT
REMARK Flexibility Score: inf
ROOT
ATOM      1  C   UNL     1       8.313   6.750  11.508  1.00  0.00     0.008 C 
ATOM      2  C   UNL     1       7.676   7.119  12.862  1.00  0.00    -0.007 C 
ATOM      3  C   UNL     1       7.463   5.867  13.758  1.00  0.00     0.004 C 
ATOM      4  C   UNL     1       5.986   5.430  13.905  1.00  0.00     0.004 C 
ATOM      5  C   UNL     1       5.217   5.555  12.565  1.00  0.00    -0.005 C 
ATOM      6  C   UNL     1       5.232   7.050  12.043  1.00  0.00    -0.000 C 
ATOM      7  C   UNL     1       6.352   7.896  12.708  1.00  0.00     0.018 C 
ATOM      8  C   UNL     1       6.497   9.225  12.015  1.00  0.00    -0.027 C 
ATOM      9  C   UNL     1       5.417   9.873  11.549  1.00  0.00    -0.028 C 
ATOM     10  C   UNL     1       4.035   9.240  11.489  1.00  0.00     0.008 C 
ATOM     11  C   UNL     1       3.929   7.871  12.215  1.00  0.00     0.012 C 
ATOM     12  C   UNL     1       2.988  10.219  12.028  1.00  0.00     0.012 C 
ENDROOT
BRANCH   5  13
ATOM     13  C   UNL     1       3.803   4.876  12.567  1.00  0.00    -0.014 C 
ATOM     14  C   UNL     1       2.864   5.584  13.565  1.00  0.00     0.007 C 
ATOM     15  C   UNL     1       3.116   4.875  11.189  1.00  0.00     0.007 C 
ENDBRANCH   5  13
TORSDOF 1
ENDMDL
MODEL 6
REMARK VINA RESULT:     2.445      1.855      5.243
REMARK INTER + INTRA:           2.331
REMARK INTER:                   2.596
REMARK INTRA:                  -0.265
REMARK UNBOUND:                -0.257
REMARK SMILES CC(C)[C@@H]1CC[C@@H](C)[C@H]2C=C[C@H](C)C[C@@H]21
REMARK SMILES IDX 8 1 7 2 6 3 5 4 4 5 15 6 9 7 10 8 11 9 12 10 14 11 13 12
REMARK SMILES IDX 2 13 1 14 3 15
REMARK H PARENT
REMARK Flexibility Score: inf
ROOT
ATOM      1  C   UNL     1       3.002   7.067  14.664  1.00  0.00     0.008 C 
ATOM      2  C   UNL     1       3.048   6.965  13.128  1.00  0.00    -0.007 C 
ATOM      3  C   UNL     1       3.991   5.824  12.654  1.00  0.00     0.004 C 
ATOM      4  C   UNL     1       5.318   6.310  12.025  1.00  0.00     0.004 C 
ATOM      5  C   UNL     1       5.905   7.521  12.795  1.00  0.00    -0.005 C 
ATOM      6  C   UNL     1       4.891   8.737  12.791  1.00  0.00    -0.000 C 
ATOM      7  C   UNL     1       3.441   8.295  12.452  1.00  0.00     0.018 C 
ATOM      8  C   UNL     1       2.471   9.421  12.700  1.00  0.00    -0.027 C 
ATOM      9  C   UNL     1       2.816  10.691  12.434  1.00  0.00    -0.028 C 
ATOM     10  C   UNL     1       4.236  11.105  12.081  1.00  0.00     0.008 C 
ATOM     11  C   UNL     1       5.204   9.915  11.835  1.00  0.00     0.012 C 
ATOM     12  C   UNL     1       4.222  12.047  10.875  1.00  0.00     0.012 C 
ENDROOT
BRANCH   5  13
ATOM     13  C   UNL     1       7.375   7.892  12.390  1.00  0.00    -0.014 C 
ATOM     14  C   UNL     1       8.201   8.267  13.636  1.00  0.00     0.007 C 
ATOM     15  C   UNL     1       8.116   6.761  11.653  1.00  0.00     0.007 C 
ENDBRANCH   5  13
TORSDOF 1
ENDMDL
