MODEL 1
REMARK VINA RESULT:    -2.511      0.000      0.000
REMARK INTER + INTRA:          -3.385
REMARK INTER:                  -3.832
REMARK INTRA:                   0.448
REMARK UNBOUND:                 0.448
REMARK SMILES CC1=CCC[C@H](C)C(=O)C[C@@H](C(C)C)C(=O)C1
REMARK SMILES IDX 8 1 9 2 6 3 7 4 5 5 4 6 3 7 2 8 1 9 10 11 11 12 15 13 16 14
REMARK SMILES IDX 17 15 12 17 13 18 14 19
REMARK H PARENT
REMARK Flexibility Score: 70.00
ROOT
ATOM      1  C   UNL     1      -2.306 -13.129  -7.961  1.00  0.00     0.136 C 
ATOM      2  O   UNL     1      -1.997 -13.354  -9.124  1.00  0.00    -0.299 OA
ENDROOT
BRANCH   1   3
ATOM      3  C   UNL     1      -3.149 -11.912  -7.627  1.00  0.00     0.053 C 
ATOM      4  C   UNL     1      -2.267 -10.674  -7.403  1.00  0.00     0.016 C 
BRANCH   3   5
ATOM      5  C   UNL     1      -4.189 -11.655  -8.746  1.00  0.00     0.015 C 
BRANCH   5   6
ATOM      6  C   UNL     1      -5.488 -12.453  -8.531  1.00  0.00     0.028 C 
BRANCH   6   7
ATOM      7  C   UNL     1      -5.369 -13.846  -9.090  1.00  0.00    -0.028 C 
ATOM      8  C   UNL     1      -5.367 -14.977  -8.348  1.00  0.00    -0.070 CG0
ATOM      9  C   UNL     1      -5.177 -16.291  -9.062  1.00  0.00     0.039 C 
ATOM     10  G   UNL     1      -5.553 -14.982  -6.838  1.00  0.00     0.000 G0
ENDBRANCH   6   7
ENDBRANCH   5   6
ENDBRANCH   3   5
ENDBRANCH   1   3
BRANCH   1  11
ATOM     11  C   UNL     1      -1.861 -14.093  -6.887  1.00  0.00     0.087 C 
BRANCH  11  12
ATOM     12  C   UNL     1      -2.874 -15.246  -6.684  1.00  0.00     0.066 C 
BRANCH  12  13
ATOM     13  C   UNL     1      -4.207 -14.767  -6.116  1.00  0.00     0.140 C 
ATOM     14  O   UNL     1      -4.196 -14.119  -5.078  1.00  0.00    -0.299 OA
BRANCH  13  15
ATOM     15  C   UNL     1      -5.523 -14.978  -6.825  1.00  0.00     0.106 CG0
ATOM     16  G   UNL     1      -5.371 -15.003  -8.338  1.00  0.00     0.000 G0
ENDBRANCH  13  15
ENDBRANCH  12  13
BRANCH  12  17
ATOM     17  C   UNL     1      -2.257 -16.469  -5.933  1.00  0.00    -0.006 C 
ATOM     18  C   UNL     1      -1.429 -16.119  -4.683  1.00  0.00     0.008 C 
ATOM     19  C   UNL     1      -3.323 -17.518  -5.585  1.00  0.00     0.008 C 
ENDBRANCH  12  17
ENDBRANCH  11  12
ENDBRANCH   1  11
TORSDOF 1
ENDMDL
MODEL 2
REMARK VINA RESULT:    -2.097      1.726      4.128
REMARK INTER + INTRA:          -2.753
REMARK INTER:                  -4.574
REMARK INTRA:                   1.820
REMARK UNBOUND:                 0.448
REMARK SMILES CC1=CCC[C@H](C)C(=O)C[C@@H](C(C)C)C(=O)C1
REMARK SMILES IDX 8 1 9 2 6 3 7 4 5 5 4 6 3 7 2 8 1 9 10 11 11 12 15 13 16 14
REMARK SMILES IDX 17 15 12 17 13 18 14 19
REMARK H PARENT
REMARK Flexibility Score: 70.00
ROOT
ATOM      1  C   UNL     1      -3.002 -12.934  -6.790  1.00  0.00     0.136 C 
ATOM      2  O   UNL     1      -2.374 -11.900  -6.604  1.00  0.00    -0.299 OA
ENDROOT
BRANCH   1   3
ATOM      3  C   UNL     1      -2.342 -14.098  -7.509  1.00  0.00     0.053 C 
ATOM      4  C   UNL     1      -1.808 -13.666  -8.883  1.00  0.00     0.016 C 
BRANCH   3   5
ATOM      5  C   UNL     1      -1.210 -14.695  -6.637  1.00  0.00     0.015 C 
BRANCH   5   6
ATOM      6  C   UNL     1      -1.739 -15.288  -5.318  1.00  0.00     0.028 C 
BRANCH   6   7
ATOM      7  C   UNL     1      -2.184 -16.714  -5.504  1.00  0.00    -0.028 C 
ATOM      8  C   UNL     1      -3.472 -17.111  -5.623  1.00  0.00    -0.070 CG0
ATOM      9  C   UNL     1      -3.749 -18.588  -5.741  1.00  0.00     0.039 C 
ATOM     10  G   UNL     1      -4.643 -16.140  -5.649  1.00  0.00     0.000 G0
ENDBRANCH   6   7
ENDBRANCH   5   6
ENDBRANCH   3   5
ENDBRANCH   1   3
BRANCH   1  11
ATOM     11  C   UNL     1      -4.416 -13.036  -6.268  1.00  0.00     0.087 C 
BRANCH  11  12
ATOM     12  C   UNL     1      -5.279 -14.009  -7.110  1.00  0.00     0.066 C 
BRANCH  12  13
ATOM     13  C   UNL     1      -4.824 -15.459  -6.985  1.00  0.00     0.140 C 
ATOM     14  O   UNL     1      -4.506 -16.058  -8.003  1.00  0.00    -0.299 OA
BRANCH  13  15
ATOM     15  C   UNL     1      -4.664 -16.156  -5.655  1.00  0.00     0.106 CG0
ATOM     16  G   UNL     1      -3.465 -17.091  -5.630  1.00  0.00     0.000 G0
ENDBRANCH  13  15
ENDBRANCH  12  13
BRANCH  12  17
ATOM     17  C   UNL     1      -5.478 -13.521  -8.580  1.00  0.00    -0.006 C 
ATOM     18  C   UNL     1      -6.912 -13.649  -9.123  1.00  0.00     0.008 C 
ATOM     19  C   UNL     1      -4.965 -12.086  -8.775  1.00  0.00     0.008 C 
ENDBRANCH  12  17
ENDBRANCH  11  12
ENDBRANCH   1  11
TORSDOF 1
ENDMDL
MODEL 3
REMARK VINA RESULT:    -2.031      1.963      2.852
REMARK INTER + INTRA:          -2.652
REMARK INTER:                  -3.016
REMARK INTRA:                   0.364
REMARK UNBOUND:                 0.448
REMARK SMILES CC1=CCC[C@H](C)C(=O)C[C@@H](C(C)C)C(=O)C1
REMARK SMILES IDX 8 1 9 2 6 3 7 4 5 5 4 6 3 7 2 8 1 9 10 11 11 12 15 13 16 14
REMARK SMILES IDX 17 15 12 17 13 18 14 19
REMARK H PARENT
REMARK Flexibility Score: 70.00
ROOT
ATOM      1  C   UNL     1      -4.135 -13.087  -7.070  1.00  0.00     0.136 C 
ATOM      2  O   UNL     1      -5.235 -12.809  -6.610  1.00  0.00    -0.299 OA
ENDROOT
BRANCH   1   3
ATOM      3  C   UNL     1      -3.982 -13.340  -8.559  1.00  0.00     0.053 C 
ATOM      4  C   UNL     1      -2.665 -12.753  -9.087  1.00  0.00     0.016 C 
BRANCH   3   5
ATOM      5  C   UNL     1      -4.071 -14.858  -8.858  1.00  0.00     0.015 C 
BRANCH   5   6
ATOM      6  C   UNL     1      -5.039 -15.585  -7.907  1.00  0.00     0.028 C 
BRANCH   6   7
ATOM      7  C   UNL     1      -4.436 -16.866  -7.394  1.00  0.00    -0.028 C 
ATOM      8  C   UNL     1      -4.184 -17.133  -6.091  1.00  0.00    -0.070 CG0
ATOM      9  C   UNL     1      -3.517 -18.442  -5.753  1.00  0.00     0.039 C 
ATOM     10  G   UNL     1      -4.545 -16.180  -4.962  1.00  0.00     0.000 G0
ENDBRANCH   6   7
ENDBRANCH   5   6
ENDBRANCH   3   5
ENDBRANCH   1   3
BRANCH   1  11
ATOM     11  C   UNL     1      -2.945 -13.142  -6.140  1.00  0.00     0.087 C 
BRANCH  11  12
ATOM     12  C   UNL     1      -2.570 -14.596  -5.760  1.00  0.00     0.066 C 
BRANCH  12  13
ATOM     13  C   UNL     1      -3.471 -15.171  -4.671  1.00  0.00     0.140 C 
ATOM     14  O   UNL     1      -3.370 -14.722  -3.537  1.00  0.00    -0.299 OA
BRANCH  13  15
ATOM     15  C   UNL     1      -4.540 -16.201  -4.950  1.00  0.00     0.106 CG0
ATOM     16  G   UNL     1      -4.165 -17.131  -6.094  1.00  0.00     0.000 G0
ENDBRANCH  13  15
ENDBRANCH  12  13
BRANCH  12  17
ATOM     17  C   UNL     1      -1.042 -14.776  -5.493  1.00  0.00    -0.006 C 
ATOM     18  C   UNL     1      -0.625 -16.172  -4.998  1.00  0.00     0.008 C 
ATOM     19  C   UNL     1      -0.203 -14.375  -6.716  1.00  0.00     0.008 C 
ENDBRANCH  12  17
ENDBRANCH  11  12
ENDBRANCH   1  11
TORSDOF 1
ENDMDL
MODEL 4
REMARK VINA RESULT:    -1.952      1.536      2.464
REMARK INTER + INTRA:          -2.531
REMARK INTER:                  -3.201
REMARK INTRA:                   0.670
REMARK UNBOUND:                 0.448
REMARK SMILES CC1=CCC[C@H](C)C(=O)C[C@@H](C(C)C)C(=O)C1
REMARK SMILES IDX 8 1 9 2 6 3 7 4 5 5 4 6 3 7 2 8 1 9 10 11 11 12 15 13 16 14
REMARK SMILES IDX 17 15 12 17 13 18 14 19
REMARK H PARENT
REMARK Flexibility Score: 70.00
ROOT
ATOM      1  C   UNL     1      -1.756 -14.014  -6.950  1.00  0.00     0.136 C 
ATOM      2  O   UNL     1      -0.611 -14.392  -6.741  1.00  0.00    -0.299 OA
ENDROOT
BRANCH   1   3
ATOM      3  C   UNL     1      -2.098 -13.335  -8.265  1.00  0.00     0.053 C 
ATOM      4  C   UNL     1      -3.060 -14.196  -9.097  1.00  0.00     0.016 C 
BRANCH   3   5
ATOM      5  C   UNL     1      -2.696 -11.930  -8.004  1.00  0.00     0.015 C 
BRANCH   5   6
ATOM      6  C   UNL     1      -4.163 -11.826  -8.458  1.00  0.00     0.028 C 
BRANCH   6   7
ATOM      7  C   UNL     1      -5.090 -11.702  -7.278  1.00  0.00    -0.028 C 
ATOM      8  C   UNL     1      -5.828 -12.714  -6.766  1.00  0.00    -0.070 CG0
ATOM      9  C   UNL     1      -6.754 -12.403  -5.618  1.00  0.00     0.039 C 
ATOM     10  G   UNL     1      -5.762 -14.140  -7.291  1.00  0.00     0.000 G0
ENDBRANCH   6   7
ENDBRANCH   5   6
ENDBRANCH   3   5
ENDBRANCH   1   3
BRANCH   1  11
ATOM     11  C   UNL     1      -2.812 -14.263  -5.899  1.00  0.00     0.087 C 
BRANCH  11  12
ATOM     12  C   UNL     1      -3.716 -15.470  -6.257  1.00  0.00     0.066 C 
BRANCH  12  13
ATOM     13  C   UNL     1      -5.198 -15.109  -6.283  1.00  0.00     0.140 C 
ATOM     14  O   UNL     1      -5.921 -15.563  -5.407  1.00  0.00    -0.299 OA
BRANCH  13  15
ATOM     15  C   UNL     1      -5.790 -14.147  -7.285  1.00  0.00     0.106 CG0
ATOM     16  G   UNL     1      -5.830 -12.718  -6.766  1.00  0.00     0.000 G0
ENDBRANCH  13  15
ENDBRANCH  12  13
BRANCH  12  17
ATOM     17  C   UNL     1      -3.378 -16.746  -5.422  1.00  0.00    -0.006 C 
ATOM     18  C   UNL     1      -3.814 -18.078  -6.058  1.00  0.00     0.008 C 
ATOM     19  C   UNL     1      -1.889 -16.800  -5.048  1.00  0.00     0.008 C 
ENDBRANCH  12  17
ENDBRANCH  11  12
ENDBRANCH   1  11
TORSDOF 1
ENDMDL
MODEL 5
REMARK VINA RESULT:    -1.789      2.087      3.124
REMARK INTER + INTRA:          -2.283
REMARK INTER:                  -4.032
REMARK INTRA:                   1.749
REMARK UNBOUND:                 0.448
REMARK SMILES CC1=CCC[C@H](C)C(=O)C[C@@H](C(C)C)C(=O)C1
REMARK SMILES IDX 8 1 9 2 6 3 7 4 5 5 4 6 3 7 2 8 1 9 10 11 11 12 15 13 16 14
REMARK SMILES IDX 17 15 12 17 13 18 14 19
REMARK H PARENT
REMARK Flexibility Score: 70.00
ROOT
ATOM      1  C   UNL     1      -5.603 -14.549  -7.075  1.00  0.00     0.136 C 
ATOM      2  O   UNL     1      -6.373 -14.482  -6.126  1.00  0.00    -0.299 OA
ENDROOT
BRANCH   1   3
ATOM      3  C   UNL     1      -5.638 -13.479  -8.152  1.00  0.00     0.053 C 
ATOM      4  C   UNL     1      -5.649 -12.073  -7.533  1.00  0.00     0.016 C 
BRANCH   3   5
ATOM      5  C   UNL     1      -4.440 -13.650  -9.119  1.00  0.00     0.015 C 
BRANCH   5   6
ATOM      6  C   UNL     1      -3.256 -12.738  -8.749  1.00  0.00     0.028 C 
BRANCH   6   7
ATOM      7  C   UNL     1      -2.108 -13.537  -8.193  1.00  0.00    -0.028 C 
ATOM      8  C   UNL     1      -1.961 -13.873  -6.891  1.00  0.00    -0.070 CG0
ATOM      9  C   UNL     1      -0.718 -14.625  -6.490  1.00  0.00     0.039 C 
ATOM     10  G   UNL     1      -2.990 -13.533  -5.823  1.00  0.00     0.000 G0
ENDBRANCH   6   7
ENDBRANCH   5   6
ENDBRANCH   3   5
ENDBRANCH   1   3
BRANCH   1  11
ATOM     11  C   UNL     1      -4.610 -15.686  -7.133  1.00  0.00     0.087 C 
BRANCH  11  12
ATOM     12  C   UNL     1      -3.999 -15.995  -5.744  1.00  0.00     0.066 C 
BRANCH  12  13
ATOM     13  C   UNL     1      -3.451 -14.752  -5.050  1.00  0.00     0.140 C 
ATOM     14  O   UNL     1      -3.330 -14.772  -3.833  1.00  0.00    -0.299 OA
BRANCH  13  15
ATOM     15  C   UNL     1      -2.969 -13.537  -5.806  1.00  0.00     0.106 CG0
ATOM     16  G   UNL     1      -1.961 -13.888  -6.889  1.00  0.00     0.000 G0
ENDBRANCH  13  15
ENDBRANCH  12  13
BRANCH  12  17
ATOM     17  C   UNL     1      -3.010 -17.204  -5.774  1.00  0.00    -0.006 C 
ATOM     18  C   UNL     1      -1.756 -17.046  -4.897  1.00  0.00     0.008 C 
ATOM     19  C   UNL     1      -3.721 -18.526  -5.447  1.00  0.00     0.008 C 
ENDBRANCH  12  17
ENDBRANCH  11  12
ENDBRANCH   1  11
TORSDOF 1
ENDMDL
MODEL 6
REMARK VINA RESULT:    -1.770      1.534      3.639
REMARK INTER + INTRA:          -2.254
REMARK INTER:                  -3.168
REMARK INTRA:                   0.914
REMARK UNBOUND:                 0.448
REMARK SMILES CC1=CCC[C@H](C)C(=O)C[C@@H](C(C)C)C(=O)C1
REMARK SMILES IDX 8 1 9 2 6 3 7 4 5 5 4 6 3 7 2 8 1 9 10 11 11 12 15 13 16 14
REMARK SMILES IDX 17 15 12 17 13 18 14 19
REMARK H PARENT
REMARK Flexibility Score: 70.00
ROOT
ATOM      1  C   UNL     1      -4.414 -15.111  -5.806  1.00  0.00     0.136 C 
ATOM      2  O   UNL     1      -5.607 -14.836  -5.796  1.00  0.00    -0.299 OA
ENDROOT
BRANCH   1   3
ATOM      3  C   UNL     1      -3.919 -16.287  -6.629  1.00  0.00     0.053 C 
ATOM      4  C   UNL     1      -3.760 -17.542  -5.758  1.00  0.00     0.016 C 
BRANCH   3   5
ATOM      5  C   UNL     1      -4.878 -16.554  -7.816  1.00  0.00     0.015 C 
BRANCH   5   6
ATOM      6  C   UNL     1      -4.466 -15.784  -9.084  1.00  0.00     0.028 C 
BRANCH   6   7
ATOM      7  C   UNL     1      -5.104 -14.421  -9.124  1.00  0.00    -0.028 C 
ATOM      8  C   UNL     1      -4.476 -13.266  -8.807  1.00  0.00    -0.070 CG0
ATOM      9  C   UNL     1      -5.280 -11.991  -8.840  1.00  0.00     0.039 C 
ATOM     10  G   UNL     1      -3.004 -13.196  -8.426  1.00  0.00     0.000 G0
ENDBRANCH   6   7
ENDBRANCH   5   6
ENDBRANCH   3   5
ENDBRANCH   1   3
BRANCH   1  11
ATOM     11  C   UNL     1      -3.458 -14.247  -5.019  1.00  0.00     0.087 C 
BRANCH  11  12
ATOM     12  C   UNL     1      -2.306 -13.702  -5.899  1.00  0.00     0.066 C 
BRANCH  12  13
ATOM     13  C   UNL     1      -2.796 -12.759  -6.993  1.00  0.00     0.140 C 
ATOM     14  O   UNL     1      -2.951 -11.577  -6.715  1.00  0.00    -0.299 OA
BRANCH  13  15
ATOM     15  C   UNL     1      -3.009 -13.200  -8.422  1.00  0.00     0.106 CG0
ATOM     16  G   UNL     1      -4.483 -13.271  -8.794  1.00  0.00     0.000 G0
ENDBRANCH  13  15
ENDBRANCH  12  13
BRANCH  12  17
ATOM     17  C   UNL     1      -1.345 -14.826  -6.401  1.00  0.00    -0.006 C 
ATOM     18  C   UNL     1      -0.097 -14.332  -7.155  1.00  0.00     0.008 C 
ATOM     19  C   UNL     1      -0.935 -15.771  -5.261  1.00  0.00     0.008 C 
ENDBRANCH  12  17
ENDBRANCH  11  12
ENDBRANCH   1  11
TORSDOF 1
ENDMDL
MODEL 7
REMARK VINA RESULT:    -1.442      1.710      2.602
REMARK INTER + INTRA:          -1.753
REMARK INTER:                  -3.195
REMARK INTRA:                   1.442
REMARK UNBOUND:                 0.448
REMARK SMILES CC1=CCC[C@H](C)C(=O)C[C@@H](C(C)C)C(=O)C1
REMARK SMILES IDX 8 1 9 2 6 3 7 4 5 5 4 6 3 7 2 8 1 9 10 11 11 12 15 13 16 14
REMARK SMILES IDX 17 15 12 17 13 18 14 19
REMARK H PARENT
REMARK Flexibility Score: 70.00
ROOT
ATOM      1  C   UNL     1      -3.365 -11.802  -7.423  1.00  0.00     0.136 C 
ATOM      2  O   UNL     1      -2.525 -11.215  -8.093  1.00  0.00    -0.299 OA
ENDROOT
BRANCH   1   3
ATOM      3  C   UNL     1      -4.839 -11.506  -7.634  1.00  0.00     0.053 C 
ATOM      4  C   UNL     1      -5.241 -11.718  -9.101  1.00  0.00     0.016 C 
BRANCH   3   5
ATOM      5  C   UNL     1      -5.703 -12.380  -6.691  1.00  0.00     0.015 C 
BRANCH   5   6
ATOM      6  C   UNL     1      -5.866 -13.818  -7.214  1.00  0.00     0.028 C 
BRANCH   6   7
ATOM      7  C   UNL     1      -5.604 -14.825  -6.127  1.00  0.00    -0.028 C 
ATOM      8  C   UNL     1      -4.747 -15.868  -6.230  1.00  0.00    -0.070 CG0
ATOM      9  C   UNL     1      -4.649 -16.821  -5.066  1.00  0.00     0.039 C 
ATOM     10  G   UNL     1      -3.883 -16.115  -7.457  1.00  0.00     0.000 G0
ENDBRANCH   6   7
ENDBRANCH   5   6
ENDBRANCH   3   5
ENDBRANCH   1   3
BRANCH   1  11
ATOM     11  C   UNL     1      -2.909 -12.836  -6.420  1.00  0.00     0.087 C 
BRANCH  11  12
ATOM     12  C   UNL     1      -2.218 -14.043  -7.102  1.00  0.00     0.066 C 
BRANCH  12  13
ATOM     13  C   UNL     1      -3.178 -14.866  -7.956  1.00  0.00     0.140 C 
ATOM     14  O   UNL     1      -3.343 -14.538  -9.123  1.00  0.00    -0.299 OA
BRANCH  13  15
ATOM     15  C   UNL     1      -3.859 -16.115  -7.451  1.00  0.00     0.106 CG0
ATOM     16  G   UNL     1      -4.723 -15.852  -6.227  1.00  0.00     0.000 G0
ENDBRANCH  13  15
ENDBRANCH  12  13
BRANCH  12  17
ATOM     17  C   UNL     1      -1.356 -14.885  -6.109  1.00  0.00    -0.006 C 
ATOM     18  C   UNL     1       0.132 -14.496  -6.043  1.00  0.00     0.008 C 
ATOM     19  C   UNL     1      -1.963 -14.895  -4.698  1.00  0.00     0.008 C 
ENDBRANCH  12  17
ENDBRANCH  11  12
ENDBRANCH   1  11
TORSDOF 1
ENDMDL
MODEL 8
REMARK VINA RESULT:    -1.315      1.888      4.640
REMARK INTER + INTRA:          -1.559
REMARK INTER:                  -3.670
REMARK INTRA:                   2.111
REMARK UNBOUND:                 0.448
REMARK SMILES CC1=CCC[C@H](C)C(=O)C[C@@H](C(C)C)C(=O)C1
REMARK SMILES IDX 8 1 9 2 6 3 7 4 5 5 4 6 3 7 2 8 1 9 10 11 11 12 15 13 16 14
REMARK SMILES IDX 17 15 12 17 13 18 14 19
REMARK H PARENT
REMARK Flexibility Score: 70.00
ROOT
ATOM      1  C   UNL     1      -4.376 -15.852  -5.913  1.00  0.00     0.136 C 
ATOM      2  O   UNL     1      -4.144 -17.024  -6.181  1.00  0.00    -0.299 OA
ENDROOT
BRANCH   1   3
ATOM      3  C   UNL     1      -3.359 -15.043  -5.129  1.00  0.00     0.053 C 
ATOM      4  C   UNL     1      -3.613 -15.153  -3.617  1.00  0.00     0.016 C 
BRANCH   3   5
ATOM      5  C   UNL     1      -1.922 -15.498  -5.483  1.00  0.00     0.015 C 
BRANCH   5   6
ATOM      6  C   UNL     1      -1.314 -14.674  -6.633  1.00  0.00     0.028 C 
BRANCH   6   7
ATOM      7  C   UNL     1      -1.855 -13.268  -6.638  1.00  0.00    -0.028 C 
ATOM      8  C   UNL     1      -2.649 -12.751  -7.604  1.00  0.00    -0.070 CG0
ATOM      9  C   UNL     1      -3.051 -11.302  -7.488  1.00  0.00     0.039 C 
ATOM     10  G   UNL     1      -3.153 -13.560  -8.789  1.00  0.00     0.000 G0
ENDBRANCH   6   7
ENDBRANCH   5   6
ENDBRANCH   3   5
ENDBRANCH   1   3
BRANCH   1  11
ATOM     11  C   UNL     1      -5.665 -15.232  -6.399  1.00  0.00     0.087 C 
BRANCH  11  12
ATOM     12  C   UNL     1      -5.432 -14.263  -7.586  1.00  0.00     0.066 C 
BRANCH  12  13
ATOM     13  C   UNL     1      -4.181 -14.604  -8.389  1.00  0.00     0.140 C 
ATOM     14  O   UNL     1      -4.040 -15.754  -8.783  1.00  0.00    -0.299 OA
BRANCH  13  15
ATOM     15  C   UNL     1      -3.160 -13.569  -8.795  1.00  0.00     0.106 CG0
ATOM     16  G   UNL     1      -2.674 -12.739  -7.616  1.00  0.00     0.000 G0
ENDBRANCH  13  15
ENDBRANCH  12  13
BRANCH  12  17
ATOM     17  C   UNL     1      -5.542 -12.762  -7.171  1.00  0.00    -0.006 C 
ATOM     18  C   UNL     1      -6.231 -11.848  -8.200  1.00  0.00     0.008 C 
ATOM     19  C   UNL     1      -6.204 -12.602  -5.794  1.00  0.00     0.008 C 
ENDBRANCH  12  17
ENDBRANCH  11  12
ENDBRANCH   1  11
TORSDOF 1
ENDMDL
MODEL 9
REMARK VINA RESULT:    -1.051      1.915      4.597
REMARK INTER + INTRA:          -1.156
REMARK INTER:                  -1.611
REMARK INTRA:                   0.455
REMARK UNBOUND:                 0.448
REMARK SMILES CC1=CCC[C@H](C)C(=O)C[C@@H](C(C)C)C(=O)C1
REMARK SMILES IDX 8 1 9 2 6 3 7 4 5 5 4 6 3 7 2 8 1 9 10 11 11 12 15 13 16 14
REMARK SMILES IDX 17 15 12 17 13 18 14 19
REMARK H PARENT
REMARK Flexibility Score: 70.00
ROOT
ATOM      1  C   UNL     1      -4.717 -15.310  -5.663  1.00  0.00     0.136 C 
ATOM      2  O   UNL     1      -5.094 -16.391  -5.231  1.00  0.00    -0.299 OA
ENDROOT
BRANCH   1   3
ATOM      3  C   UNL     1      -3.343 -14.786  -5.287  1.00  0.00     0.053 C 
ATOM      4  C   UNL     1      -2.995 -15.142  -3.833  1.00  0.00     0.016 C 
BRANCH   3   5
ATOM      5  C   UNL     1      -2.272 -15.335  -6.263  1.00  0.00     0.015 C 
BRANCH   5   6
ATOM      6  C   UNL     1      -1.932 -14.333  -7.381  1.00  0.00     0.028 C 
BRANCH   6   7
ATOM      7  C   UNL     1      -1.974 -12.916  -6.872  1.00  0.00    -0.028 C 
ATOM      8  C   UNL     1      -2.675 -11.911  -7.446  1.00  0.00    -0.070 CG0
ATOM      9  C   UNL     1      -2.559 -10.534  -6.844  1.00  0.00     0.039 C 
ATOM     10  G   UNL     1      -3.572 -12.109  -8.659  1.00  0.00     0.000 G0
ENDBRANCH   6   7
ENDBRANCH   5   6
ENDBRANCH   3   5
ENDBRANCH   1   3
BRANCH   1  11
ATOM     11  C   UNL     1      -5.624 -14.535  -6.590  1.00  0.00     0.087 C 
BRANCH  11  12
ATOM     12  C   UNL     1      -4.963 -14.274  -7.967  1.00  0.00     0.066 C 
BRANCH  12  13
ATOM     13  C   UNL     1      -4.878 -12.789  -8.307  1.00  0.00     0.140 C 
ATOM     14  O   UNL     1      -5.896 -12.117  -8.228  1.00  0.00    -0.299 OA
BRANCH  13  15
ATOM     15  C   UNL     1      -3.579 -12.100  -8.649  1.00  0.00     0.106 CG0
ATOM     16  G   UNL     1      -2.686 -11.906  -7.432  1.00  0.00     0.000 G0
ENDBRANCH  13  15
ENDBRANCH  12  13
BRANCH  12  17
ATOM     17  C   UNL     1      -5.561 -15.163  -9.103  1.00  0.00    -0.006 C 
ATOM     18  C   UNL     1      -5.065 -16.619  -9.124  1.00  0.00     0.008 C 
ATOM     19  C   UNL     1      -7.097 -15.127  -9.101  1.00  0.00     0.008 C 
ENDBRANCH  12  17
ENDBRANCH  11  12
ENDBRANCH   1  11
TORSDOF 1
ENDMDL
