MODEL 1
REMARK VINA RESULT:    12.618      0.000      0.000
REMARK INTER + INTRA:          15.162
REMARK INTER:                  15.200
REMARK INTRA:                  -0.038
REMARK UNBOUND:                -0.038
REMARK SMILES Oc1cc(O)c2c(c1)O[C@@H](c1ccc(O)c(O)c1)[C@H](O)C2
REMARK SMILES IDX 21 1 19 2 10 3 9 4 7 5 8 6 2 7 3 8 4 9 6 10 20 11 11 13
REMARK SMILES IDX 18 14 12 15 16 16 13 17 14 18 17 19 15 21 5 23 1 25
REMARK H PARENT 20 12 17 20 15 22 5 24 1 26
REMARK Flexibility Score: inf
ROOT
ATOM      1  C   UNL     1      37.373  29.237  31.908  1.00  0.00     0.079 C 
ATOM      2  C   UNL     1      37.417  30.484  32.809  1.00  0.00     0.164 C 
ATOM      3  C   UNL     1      38.785  31.179  32.667  1.00  0.00     0.232 C 
ATOM      4  O   UNL     1      39.036  31.495  31.296  1.00  0.00    -0.482 OA
ATOM      5  C   UNL     1      38.641  30.656  30.247  1.00  0.00     0.131 A 
ATOM      6  C   UNL     1      39.064  30.940  28.946  1.00  0.00     0.093 A 
ATOM      7  C   UNL     1      38.681  30.114  27.883  1.00  0.00     0.122 A 
ATOM      8  C   UNL     1      37.873  28.999  28.127  1.00  0.00     0.092 A 
ATOM      9  C   UNL     1      37.439  28.706  29.427  1.00  0.00     0.126 A 
ATOM     10  C   UNL     1      37.806  29.548  30.494  1.00  0.00     0.039 A 
ENDROOT
BRANCH   2  11
ATOM     11  O   UNL     1      37.213  30.110  34.148  1.00  0.00    -0.389 OA
ATOM     12  H   UNL     1      38.072  30.267  34.621  1.00  0.00     0.211 HD
ENDBRANCH   2  11
BRANCH   3  13
ATOM     13  C   UNL     1      38.844  32.440  33.496  1.00  0.00    -0.001 A 
ATOM     14  C   UNL     1      38.775  33.699  32.877  1.00  0.00     0.057 A 
ATOM     15  C   UNL     1      39.014  32.370  34.889  1.00  0.00     0.012 A 
ATOM     16  C   UNL     1      38.856  34.874  33.641  1.00  0.00     0.157 A 
ATOM     17  C   UNL     1      39.094  33.539  35.651  1.00  0.00     0.050 A 
ATOM     18  C   UNL     1      39.013  34.792  35.031  1.00  0.00     0.157 A 
BRANCH  16  19
ATOM     19  O   UNL     1      38.781  36.122  33.026  1.00  0.00    -0.504 OA
ATOM     20  H   UNL     1      39.612  36.602  32.698  1.00  0.00     0.293 HD
ENDBRANCH  16  19
BRANCH  18  21
ATOM     21  O   UNL     1      39.092  35.960  35.787  1.00  0.00    -0.504 OA
ATOM     22  H   UNL     1      38.333  36.631  35.806  1.00  0.00     0.293 HD
ENDBRANCH  18  21
ENDBRANCH   3  13
BRANCH   9  23
ATOM     23  O   UNL     1      36.645  27.583  29.662  1.00  0.00    -0.507 OA
ATOM     24  H   UNL     1      35.767  27.650  30.165  1.00  0.00     0.293 HD
ENDBRANCH   9  23
BRANCH   7  25
ATOM     25  O   UNL     1      39.098  30.389  26.583  1.00  0.00    -0.508 OA
ATOM     26  H   UNL     1      38.543  30.116  25.780  1.00  0.00     0.293 HD
ENDBRANCH   7  25
TORSDOF 6
ENDMDL
MODEL 2
REMARK VINA RESULT:    12.700      1.624      7.161
REMARK INTER + INTRA:          15.261
REMARK INTER:                  15.609
REMARK INTRA:                  -0.348
REMARK UNBOUND:                -0.038
REMARK SMILES Oc1cc(O)c2c(c1)O[C@@H](c1ccc(O)c(O)c1)[C@H](O)C2
REMARK SMILES IDX 21 1 19 2 10 3 9 4 7 5 8 6 2 7 3 8 4 9 6 10 20 11 11 13
REMARK SMILES IDX 18 14 12 15 16 16 13 17 14 18 17 19 15 21 5 23 1 25
REMARK H PARENT 20 12 17 20 15 22 5 24 1 26
REMARK Flexibility Score: inf
ROOT
ATOM      1  C   UNL     1      39.105  33.550  30.609  1.00  0.00     0.079 C 
ATOM      2  C   UNL     1      38.548  32.303  29.898  1.00  0.00     0.164 C 
ATOM      3  C   UNL     1      38.868  31.047  30.730  1.00  0.00     0.232 C 
ATOM      4  O   UNL     1      38.351  31.188  32.055  1.00  0.00    -0.482 OA
ATOM      5  C   UNL     1      38.350  32.412  32.734  1.00  0.00     0.131 A 
ATOM      6  C   UNL     1      37.986  32.447  34.083  1.00  0.00     0.093 A 
ATOM      7  C   UNL     1      37.980  33.661  34.780  1.00  0.00     0.122 A 
ATOM      8  C   UNL     1      38.342  34.841  34.124  1.00  0.00     0.092 A 
ATOM      9  C   UNL     1      38.704  34.819  32.770  1.00  0.00     0.126 A 
ATOM     10  C   UNL     1      38.690  33.603  32.061  1.00  0.00     0.039 A 
ENDROOT
BRANCH   2  11
ATOM     11  O   UNL     1      39.125  32.186  28.623  1.00  0.00    -0.389 OA
ATOM     12  H   UNL     1      38.387  32.286  27.967  1.00  0.00     0.211 HD
ENDBRANCH   2  11
BRANCH   3  13
ATOM     13  C   UNL     1      38.287  29.807  30.090  1.00  0.00    -0.001 A 
ATOM     14  C   UNL     1      36.908  29.549  30.168  1.00  0.00     0.057 A 
ATOM     15  C   UNL     1      39.123  28.877  29.449  1.00  0.00     0.012 A 
ATOM     16  C   UNL     1      36.369  28.386  29.598  1.00  0.00     0.157 A 
ATOM     17  C   UNL     1      38.586  27.719  28.881  1.00  0.00     0.050 A 
ATOM     18  C   UNL     1      37.210  27.471  28.951  1.00  0.00     0.157 A 
BRANCH  16  19
ATOM     19  O   UNL     1      35.000  28.134  29.671  1.00  0.00    -0.504 OA
ATOM     20  H   UNL     1      34.430  28.513  30.418  1.00  0.00     0.293 HD
ENDBRANCH  16  19
BRANCH  18  21
ATOM     21  O   UNL     1      36.670  26.318  28.384  1.00  0.00    -0.504 OA
ATOM     22  H   UNL     1      36.692  25.429  28.871  1.00  0.00     0.293 HD
ENDBRANCH  18  21
ENDBRANCH   3  13
BRANCH   9  23
ATOM     23  O   UNL     1      39.077  36.000  32.128  1.00  0.00    -0.507 OA
ATOM     24  H   UNL     1      39.233  36.032  31.126  1.00  0.00     0.293 HD
ENDBRANCH   9  23
BRANCH   7  25
ATOM     25  O   UNL     1      37.619  33.705  36.125  1.00  0.00    -0.508 OA
ATOM     26  H   UNL     1      37.644  34.571  36.652  1.00  0.00     0.293 HD
ENDBRANCH   7  25
TORSDOF 6
ENDMDL
MODEL 3
REMARK VINA RESULT:    14.108      1.586      7.312
REMARK INTER + INTRA:          16.957
REMARK INTER:                  16.740
REMARK INTRA:                   0.217
REMARK UNBOUND:                -0.038
REMARK SMILES Oc1cc(O)c2c(c1)O[C@@H](c1ccc(O)c(O)c1)[C@H](O)C2
REMARK SMILES IDX 21 1 19 2 10 3 9 4 7 5 8 6 2 7 3 8 4 9 6 10 20 11 11 13
REMARK SMILES IDX 18 14 12 15 16 16 13 17 14 18 17 19 15 21 5 23 1 25
REMARK H PARENT 20 12 17 20 15 22 5 24 1 26
REMARK Flexibility Score: inf
ROOT
ATOM      1  C   UNL     1      38.848  33.249  31.272  1.00  0.00     0.079 C 
ATOM      2  C   UNL     1      38.459  32.421  30.034  1.00  0.00     0.164 C 
ATOM      3  C   UNL     1      38.846  30.947  30.255  1.00  0.00     0.232 C 
ATOM      4  O   UNL     1      38.237  30.451  31.448  1.00  0.00    -0.482 OA
ATOM      5  C   UNL     1      38.077  31.240  32.594  1.00  0.00     0.131 A 
ATOM      6  C   UNL     1      37.628  30.648  33.777  1.00  0.00     0.093 A 
ATOM      7  C   UNL     1      37.463  31.419  34.933  1.00  0.00     0.122 A 
ATOM      8  C   UNL     1      37.749  32.787  34.903  1.00  0.00     0.092 A 
ATOM      9  C   UNL     1      38.195  33.394  33.720  1.00  0.00     0.126 A 
ATOM     10  C   UNL     1      38.342  32.624  32.551  1.00  0.00     0.039 A 
ENDROOT
BRANCH   2  11
ATOM     11  O   UNL     1      39.122  32.921  28.901  1.00  0.00    -0.389 OA
ATOM     12  H   UNL     1      40.095  32.833  29.079  1.00  0.00     0.211 HD
ENDBRANCH   2  11
BRANCH   3  13
ATOM     13  C   UNL     1      38.427  30.092  29.081  1.00  0.00    -0.001 A 
ATOM     14  C   UNL     1      37.624  28.957  29.281  1.00  0.00     0.057 A 
ATOM     15  C   UNL     1      38.872  30.397  27.783  1.00  0.00     0.012 A 
ATOM     16  C   UNL     1      37.255  28.147  28.197  1.00  0.00     0.157 A 
ATOM     17  C   UNL     1      38.505  29.590  26.703  1.00  0.00     0.050 A 
ATOM     18  C   UNL     1      37.695  28.466  26.906  1.00  0.00     0.157 A 
BRANCH  16  19
ATOM     19  O   UNL     1      36.454  27.024  28.396  1.00  0.00    -0.504 OA
ATOM     20  H   UNL     1      35.911  26.904  29.243  1.00  0.00     0.293 HD
ENDBRANCH  16  19
BRANCH  18  21
ATOM     21  O   UNL     1      37.325  27.659  25.831  1.00  0.00    -0.504 OA
ATOM     22  H   UNL     1      36.402  27.246  25.772  1.00  0.00     0.293 HD
ENDBRANCH  18  21
ENDBRANCH   3  13
BRANCH   9  23
ATOM     23  O   UNL     1      38.492  34.757  33.703  1.00  0.00    -0.507 OA
ATOM     24  H   UNL     1      39.094  35.177  34.402  1.00  0.00     0.293 HD
ENDBRANCH   9  23
BRANCH   7  25
ATOM     25  O   UNL     1      37.016  30.837  36.117  1.00  0.00    -0.508 OA
ATOM     26  H   UNL     1      36.197  30.240  36.138  1.00  0.00     0.293 HD
ENDBRANCH   7  25
TORSDOF 6
ENDMDL
MODEL 4
REMARK VINA RESULT:    15.511     21.485     25.478
REMARK INTER + INTRA:          18.647
REMARK INTER:                  18.407
REMARK INTRA:                   0.240
REMARK UNBOUND:                -0.038
REMARK SMILES Oc1cc(O)c2c(c1)O[C@@H](c1ccc(O)c(O)c1)[C@H](O)C2
REMARK SMILES IDX 21 1 19 2 10 3 9 4 7 5 8 6 2 7 3 8 4 9 6 10 20 11 11 13
REMARK SMILES IDX 18 14 12 15 16 16 13 17 14 18 17 19 15 21 5 23 1 25
REMARK H PARENT 20 12 17 20 15 22 5 24 1 26
REMARK Flexibility Score: inf
ROOT
ATOM      1  C   UNL     1      19.520  17.621  24.160  1.00  0.00     0.079 C 
ATOM      2  C   UNL     1      19.678  17.034  22.745  1.00  0.00     0.164 C 
ATOM      3  C   UNL     1      19.258  18.085  21.699  1.00  0.00     0.232 C 
ATOM      4  O   UNL     1      20.016  19.283  21.873  1.00  0.00    -0.482 OA
ATOM      5  C   UNL     1      20.386  19.762  23.136  1.00  0.00     0.131 A 
ATOM      6  C   UNL     1      20.979  21.022  23.245  1.00  0.00     0.093 A 
ATOM      7  C   UNL     1      21.355  21.519  24.498  1.00  0.00     0.122 A 
ATOM      8  C   UNL     1      21.133  20.751  25.645  1.00  0.00     0.092 A 
ATOM      9  C   UNL     1      20.544  19.483  25.548  1.00  0.00     0.126 A 
ATOM     10  C   UNL     1      20.184  18.972  24.286  1.00  0.00     0.039 A 
ENDROOT
BRANCH   2  11
ATOM     11  O   UNL     1      18.875  15.889  22.614  1.00  0.00    -0.389 OA
ATOM     12  H   UNL     1      18.348  16.004  21.781  1.00  0.00     0.211 HD
ENDBRANCH   2  11
BRANCH   3  13
ATOM     13  C   UNL     1      19.452  17.563  20.294  1.00  0.00    -0.001 A 
ATOM     14  C   UNL     1      20.175  18.314  19.353  1.00  0.00     0.057 A 
ATOM     15  C   UNL     1      18.876  16.343  19.901  1.00  0.00     0.012 A 
ATOM     16  C   UNL     1      20.336  17.845  18.040  1.00  0.00     0.157 A 
ATOM     17  C   UNL     1      19.035  15.875  18.594  1.00  0.00     0.050 A 
ATOM     18  C   UNL     1      19.766  16.622  17.662  1.00  0.00     0.157 A 
BRANCH  16  19
ATOM     19  O   UNL     1      21.058  18.588  17.109  1.00  0.00    -0.504 OA
ATOM     20  H   UNL     1      21.228  19.579  17.238  1.00  0.00     0.293 HD
ENDBRANCH  16  19
BRANCH  18  21
ATOM     21  O   UNL     1      19.929  16.158  16.357  1.00  0.00    -0.504 OA
ATOM     22  H   UNL     1      19.183  16.229  15.674  1.00  0.00     0.293 HD
ENDBRANCH  18  21
ENDBRANCH   3  13
BRANCH   9  23
ATOM     23  O   UNL     1      20.314  18.730  26.699  1.00  0.00    -0.507 OA
ATOM     24  H   UNL     1      21.078  18.351  27.247  1.00  0.00     0.293 HD
ENDBRANCH   9  23
BRANCH   7  25
ATOM     25  O   UNL     1      21.947  22.774  24.616  1.00  0.00    -0.508 OA
ATOM     26  H   UNL     1      22.368  23.082  25.486  1.00  0.00     0.293 HD
ENDBRANCH   7  25
TORSDOF 6
ENDMDL
