MODEL 1
REMARK VINA RESULT:    -4.941      0.000      0.000
REMARK INTER + INTRA:         -17.370
REMARK INTER:                 -13.029
REMARK INTRA:                  -4.341
REMARK UNBOUND:                -4.341
REMARK SMILES CCCCCCCCCCCCCCCCCCCCCCCCCCCCCC(=O)[O-]
REMARK SMILES IDX 16 1 17 2 18 3 19 4 20 5 21 6 22 7 23 8 24 9 25 10 26 11
REMARK SMILES IDX 27 12 28 13 29 14 30 15 31 16 32 17 15 18 14 19 13 20 12 21
REMARK SMILES IDX 11 22 10 23 9 24 8 25 7 26 6 27 5 28 4 29 3 30 2 31 1 32
REMARK H PARENT
REMARK Flexibility Score: inf
ROOT
ATOM      1  C   UNL     1      -5.144   9.372  -7.198  1.00  0.00     0.000 C 
ENDROOT
BRANCH   1   2
ATOM      2  C   UNL     1      -4.662   9.123  -5.758  1.00  0.00     0.000 C 
BRANCH   2   3
ATOM      3  C   UNL     1      -3.961  10.350  -5.152  1.00  0.00     0.000 C 
BRANCH   3   4
ATOM      4  C   UNL     1      -2.679   9.985  -4.388  1.00  0.00     0.000 C 
BRANCH   4   5
ATOM      5  C   UNL     1      -1.799  11.223  -4.172  1.00  0.00     0.000 C 
BRANCH   5   6
ATOM      6  C   UNL     1      -2.392  12.454  -4.875  1.00  0.00     0.000 C 
BRANCH   6   7
ATOM      7  C   UNL     1      -1.316  13.358  -5.496  1.00  0.00     0.000 C 
BRANCH   7   8
ATOM      8  C   UNL     1      -1.707  13.863  -6.897  1.00  0.00     0.000 C 
BRANCH   8   9
ATOM      9  C   UNL     1      -1.111  13.000  -8.020  1.00  0.00     0.000 C 
BRANCH   9  10
ATOM     10  C   UNL     1      -2.164  12.121  -8.717  1.00  0.00     0.000 C 
BRANCH  10  11
ATOM     11  C   UNL     1      -1.876  10.619  -8.557  1.00  0.00     0.000 C 
BRANCH  11  12
ATOM     12  C   UNL     1      -0.732  10.340  -7.572  1.00  0.00     0.000 C 
BRANCH  12  13
ATOM     13  C   UNL     1       0.508   9.813  -8.306  1.00  0.00     0.006 C 
BRANCH  13  14
ATOM     14  C   UNL     1       1.520  10.934  -8.553  1.00  0.00     0.053 C 
BRANCH  14  15
ATOM     15  C   UNL     1       2.917  10.427  -8.383  1.00  0.00     0.041 C 
ATOM     16  O   UNL     1       3.441   9.705  -9.272  1.00  0.00    -0.550 OA
ATOM     17  O   UNL     1       3.662  10.801  -7.272  1.00  0.00    -0.550 OA
ENDBRANCH  14  15
ENDBRANCH  13  14
ENDBRANCH  12  13
ENDBRANCH  11  12
ENDBRANCH  10  11
ENDBRANCH   9  10
ENDBRANCH   8   9
ENDBRANCH   7   8
ENDBRANCH   6   7
ENDBRANCH   5   6
ENDBRANCH   4   5
ENDBRANCH   3   4
ENDBRANCH   2   3
ENDBRANCH   1   2
BRANCH   1  18
ATOM     18  C   UNL     1      -6.651   9.677  -7.281  1.00  0.00     0.000 C 
BRANCH  18  19
ATOM     19  C   UNL     1      -7.034  10.872  -8.179  1.00  0.00     0.000 C 
BRANCH  19  20
ATOM     20  C   UNL     1      -5.965  11.973  -8.295  1.00  0.00     0.000 C 
BRANCH  20  21
ATOM     21  C   UNL     1      -5.689  12.388  -9.747  1.00  0.00     0.000 C 
BRANCH  21  22
ATOM     22  C   UNL     1      -5.872  11.197 -10.700  1.00  0.00     0.000 C 
BRANCH  22  23
ATOM     23  C   UNL     1      -4.546  10.490 -11.033  1.00  0.00     0.000 C 
BRANCH  23  24
ATOM     24  C   UNL     1      -4.552   8.963 -10.819  1.00  0.00    -0.000 C 
BRANCH  24  25
ATOM     25  C   UNL     1      -5.949   8.322 -10.727  1.00  0.00    -0.000 C 
BRANCH  25  26
ATOM     26  C   UNL     1      -5.919   6.915 -10.114  1.00  0.00    -0.000 C 
BRANCH  26  27
ATOM     27  C   UNL     1      -6.589   5.896 -11.047  1.00  0.00    -0.000 C 
BRANCH  27  28
ATOM     28  C   UNL     1      -5.658   5.423 -12.174  1.00  0.00    -0.000 C 
BRANCH  28  29
ATOM     29  C   UNL     1      -6.326   4.398 -13.104  1.00  0.00    -0.000 C 
BRANCH  29  30
ATOM     30  C   UNL     1      -5.814   4.544 -14.542  1.00  0.00    -0.000 C 
BRANCH  30  31
ATOM     31  C   UNL     1      -5.250   3.217 -15.061  1.00  0.00    -0.003 C 
ATOM     32  C   UNL     1      -6.254   2.083 -14.879  1.00  0.00     0.004 C 
ENDBRANCH  30  31
ENDBRANCH  29  30
ENDBRANCH  28  29
ENDBRANCH  27  28
ENDBRANCH  26  27
ENDBRANCH  25  26
ENDBRANCH  24  25
ENDBRANCH  23  24
ENDBRANCH  22  23
ENDBRANCH  21  22
ENDBRANCH  20  21
ENDBRANCH  19  20
ENDBRANCH  18  19
ENDBRANCH   1  18
TORSDOF 28
ENDMDL
MODEL 2
REMARK VINA RESULT:    -4.817      2.126      4.150
REMARK INTER + INTRA:         -17.042
REMARK INTER:                 -11.803
REMARK INTRA:                  -5.239
REMARK UNBOUND:                -4.341
REMARK SMILES CCCCCCCCCCCCCCCCCCCCCCCCCCCCCC(=O)[O-]
REMARK SMILES IDX 16 1 17 2 18 3 19 4 20 5 21 6 22 7 23 8 24 9 25 10 26 11
REMARK SMILES IDX 27 12 28 13 29 14 30 15 31 16 32 17 15 18 14 19 13 20 12 21
REMARK SMILES IDX 11 22 10 23 9 24 8 25 7 26 6 27 5 28 4 29 3 30 2 31 1 32
REMARK H PARENT
REMARK Flexibility Score: inf
ROOT
ATOM      1  C   UNL     1      -2.725   9.338  -4.934  1.00  0.00     0.000 C 
ENDROOT
BRANCH   1   2
ATOM      2  C   UNL     1      -2.427  10.547  -4.031  1.00  0.00     0.000 C 
BRANCH   2   3
ATOM      3  C   UNL     1      -2.822  11.882  -4.685  1.00  0.00     0.000 C 
BRANCH   3   4
ATOM      4  C   UNL     1      -1.972  13.062  -4.189  1.00  0.00     0.000 C 
BRANCH   4   5
ATOM      5  C   UNL     1      -1.375  13.841  -5.367  1.00  0.00     0.000 C 
BRANCH   5   6
ATOM      6  C   UNL     1      -2.100  13.503  -6.679  1.00  0.00     0.000 C 
BRANCH   6   7
ATOM      7  C   UNL     1      -1.134  13.095  -7.803  1.00  0.00     0.000 C 
BRANCH   7   8
ATOM      8  C   UNL     1      -1.816  12.240  -8.885  1.00  0.00     0.000 C 
BRANCH   8   9
ATOM      9  C   UNL     1      -1.433  10.755  -8.789  1.00  0.00     0.000 C 
BRANCH   9  10
ATOM     10  C   UNL     1      -0.662  10.423  -7.500  1.00  0.00     0.000 C 
BRANCH  10  11
ATOM     11  C   UNL     1       0.586   9.564  -7.765  1.00  0.00     0.000 C 
BRANCH  11  12
ATOM     12  C   UNL     1       1.677  10.330  -8.527  1.00  0.00     0.000 C 
BRANCH  12  13
ATOM     13  C   UNL     1       1.981  11.672  -7.850  1.00  0.00     0.006 C 
BRANCH  13  14
ATOM     14  C   UNL     1       2.649  11.463  -6.489  1.00  0.00     0.053 C 
BRANCH  14  15
ATOM     15  C   UNL     1       1.958  12.270  -5.435  1.00  0.00     0.041 C 
ATOM     16  O   UNL     1       1.253  11.699  -4.562  1.00  0.00    -0.550 OA
ATOM     17  O   UNL     1       2.141  13.645  -5.381  1.00  0.00    -0.550 OA
ENDBRANCH  14  15
ENDBRANCH  13  14
ENDBRANCH  12  13
ENDBRANCH  11  12
ENDBRANCH  10  11
ENDBRANCH   9  10
ENDBRANCH   8   9
ENDBRANCH   7   8
ENDBRANCH   6   7
ENDBRANCH   5   6
ENDBRANCH   4   5
ENDBRANCH   3   4
ENDBRANCH   2   3
ENDBRANCH   1   2
BRANCH   1  18
ATOM     18  C   UNL     1      -3.177   8.096  -4.144  1.00  0.00     0.000 C 
BRANCH  18  19
ATOM     19  C   UNL     1      -4.508   7.469  -4.606  1.00  0.00     0.000 C 
BRANCH  19  20
ATOM     20  C   UNL     1      -5.645   8.469  -4.879  1.00  0.00     0.000 C 
BRANCH  20  21
ATOM     21  C   UNL     1      -5.997   8.584  -6.369  1.00  0.00     0.000 C 
BRANCH  21  22
ATOM     22  C   UNL     1      -6.321  10.038  -6.743  1.00  0.00     0.000 C 
BRANCH  22  23
ATOM     23  C   UNL     1      -5.106  10.793  -7.310  1.00  0.00     0.000 C 
BRANCH  23  24
ATOM     24  C   UNL     1      -5.371  12.265  -7.684  1.00  0.00    -0.000 C 
BRANCH  24  25
ATOM     25  C   UNL     1      -5.433  12.553  -9.195  1.00  0.00    -0.000 C 
BRANCH  25  26
ATOM     26  C   UNL     1      -6.491  11.709  -9.920  1.00  0.00    -0.000 C 
BRANCH  26  27
ATOM     27  C   UNL     1      -5.893  11.026 -11.158  1.00  0.00    -0.000 C 
BRANCH  27  28
ATOM     28  C   UNL     1      -4.429  10.605 -10.953  1.00  0.00    -0.000 C 
BRANCH  28  29
ATOM     29  C   UNL     1      -4.232   9.083 -11.036  1.00  0.00    -0.000 C 
BRANCH  29  30
ATOM     30  C   UNL     1      -4.982   8.370  -9.904  1.00  0.00    -0.000 C 
BRANCH  30  31
ATOM     31  C   UNL     1      -5.073   6.864 -10.170  1.00  0.00    -0.003 C 
ATOM     32  C   UNL     1      -5.216   6.576 -11.661  1.00  0.00     0.004 C 
ENDBRANCH  30  31
ENDBRANCH  29  30
ENDBRANCH  28  29
ENDBRANCH  27  28
ENDBRANCH  26  27
ENDBRANCH  25  26
ENDBRANCH  24  25
ENDBRANCH  23  24
ENDBRANCH  22  23
ENDBRANCH  21  22
ENDBRANCH  20  21
ENDBRANCH  19  20
ENDBRANCH  18  19
ENDBRANCH   1  18
TORSDOF 28
ENDMDL
MODEL 3
REMARK VINA RESULT:    -4.681      3.181      8.481
REMARK INTER + INTRA:         -16.684
REMARK INTER:                 -12.616
REMARK INTRA:                  -4.069
REMARK UNBOUND:                -4.341
REMARK SMILES CCCCCCCCCCCCCCCCCCCCCCCCCCCCCC(=O)[O-]
REMARK SMILES IDX 16 1 17 2 18 3 19 4 20 5 21 6 22 7 23 8 24 9 25 10 26 11
REMARK SMILES IDX 27 12 28 13 29 14 30 15 31 16 32 17 15 18 14 19 13 20 12 21
REMARK SMILES IDX 11 22 10 23 9 24 8 25 7 26 6 27 5 28 4 29 3 30 2 31 1 32
REMARK H PARENT
REMARK Flexibility Score: inf
ROOT
ATOM      1  C   UNL     1      -5.271  11.612  -6.031  1.00  0.00     0.000 C 
ENDROOT
BRANCH   1   2
ATOM      2  C   UNL     1      -6.754  11.684  -6.435  1.00  0.00     0.000 C 
BRANCH   2   3
ATOM      3  C   UNL     1      -6.954  12.299  -7.830  1.00  0.00     0.000 C 
BRANCH   3   4
ATOM      4  C   UNL     1      -5.712  13.049  -8.334  1.00  0.00     0.000 C 
BRANCH   4   5
ATOM      5  C   UNL     1      -5.283  12.534  -9.713  1.00  0.00     0.000 C 
BRANCH   5   6
ATOM      6  C   UNL     1      -6.269  11.483 -10.244  1.00  0.00     0.000 C 
BRANCH   6   7
ATOM      7  C   UNL     1      -5.564  10.287 -10.903  1.00  0.00     0.000 C 
BRANCH   7   8
ATOM      8  C   UNL     1      -4.426   9.721 -10.034  1.00  0.00     0.000 C 
BRANCH   8   9
ATOM      9  C   UNL     1      -3.999   8.311 -10.470  1.00  0.00     0.000 C 
BRANCH   9  10
ATOM     10  C   UNL     1      -5.053   7.617 -11.351  1.00  0.00     0.000 C 
BRANCH  10  11
ATOM     11  C   UNL     1      -6.023   6.748 -10.535  1.00  0.00     0.000 C 
BRANCH  11  12
ATOM     12  C   UNL     1      -6.355   5.421 -11.234  1.00  0.00     0.000 C 
BRANCH  12  13
ATOM     13  C   UNL     1      -5.649   5.324 -12.592  1.00  0.00     0.006 C 
BRANCH  13  14
ATOM     14  C   UNL     1      -6.351   4.319 -13.508  1.00  0.00     0.053 C 
BRANCH  14  15
ATOM     15  C   UNL     1      -5.440   3.890 -14.614  1.00  0.00     0.041 C 
ATOM     16  O   UNL     1      -4.608   4.702 -15.098  1.00  0.00    -0.550 OA
ATOM     17  O   UNL     1      -5.467   2.579 -15.068  1.00  0.00    -0.550 OA
ENDBRANCH  14  15
ENDBRANCH  13  14
ENDBRANCH  12  13
ENDBRANCH  11  12
ENDBRANCH  10  11
ENDBRANCH   9  10
ENDBRANCH   8   9
ENDBRANCH   7   8
ENDBRANCH   6   7
ENDBRANCH   5   6
ENDBRANCH   4   5
ENDBRANCH   3   4
ENDBRANCH   2   3
ENDBRANCH   1   2
BRANCH   1  18
ATOM     18  C   UNL     1      -4.618  10.263  -6.385  1.00  0.00     0.000 C 
BRANCH  18  19
ATOM     19  C   UNL     1      -3.630   9.713  -5.335  1.00  0.00     0.000 C 
BRANCH  19  20
ATOM     20  C   UNL     1      -2.250  10.391  -5.315  1.00  0.00     0.000 C 
BRANCH  20  21
ATOM     21  C   UNL     1      -1.941  11.080  -3.978  1.00  0.00     0.000 C 
BRANCH  21  22
ATOM     22  C   UNL     1      -2.330  12.565  -4.027  1.00  0.00     0.000 C 
BRANCH  22  23
ATOM     23  C   UNL     1      -1.125  13.490  -4.272  1.00  0.00     0.000 C 
BRANCH  23  24
ATOM     24  C   UNL     1      -1.202  14.331  -5.562  1.00  0.00    -0.000 C 
BRANCH  24  25
ATOM     25  C   UNL     1      -0.904  13.561  -6.861  1.00  0.00    -0.000 C 
BRANCH  25  26
ATOM     26  C   UNL     1      -2.178  13.114  -7.593  1.00  0.00    -0.000 C 
BRANCH  26  27
ATOM     27  C   UNL     1      -1.877  11.965  -8.566  1.00  0.00    -0.000 C 
BRANCH  27  28
ATOM     28  C   UNL     1      -0.384  11.601  -8.608  1.00  0.00    -0.000 C 
BRANCH  28  29
ATOM     29  C   UNL     1      -0.131  10.108  -8.346  1.00  0.00    -0.000 C 
BRANCH  29  30
ATOM     30  C   UNL     1       1.357   9.840  -8.089  1.00  0.00    -0.000 C 
BRANCH  30  31
ATOM     31  C   UNL     1       2.123  11.151  -7.882  1.00  0.00    -0.003 C 
ATOM     32  C   UNL     1       2.060  11.600  -6.426  1.00  0.00     0.004 C 
ENDBRANCH  30  31
ENDBRANCH  29  30
ENDBRANCH  28  29
ENDBRANCH  27  28
ENDBRANCH  26  27
ENDBRANCH  25  26
ENDBRANCH  24  25
ENDBRANCH  23  24
ENDBRANCH  22  23
ENDBRANCH  21  22
ENDBRANCH  20  21
ENDBRANCH  19  20
ENDBRANCH  18  19
ENDBRANCH   1  18
TORSDOF 28
ENDMDL
MODEL 4
REMARK VINA RESULT:    -4.607      3.109      8.194
REMARK INTER + INTRA:         -16.488
REMARK INTER:                 -11.098
REMARK INTRA:                  -5.390
REMARK UNBOUND:                -4.341
REMARK SMILES CCCCCCCCCCCCCCCCCCCCCCCCCCCCCC(=O)[O-]
REMARK SMILES IDX 16 1 17 2 18 3 19 4 20 5 21 6 22 7 23 8 24 9 25 10 26 11
REMARK SMILES IDX 27 12 28 13 29 14 30 15 31 16 32 17 15 18 14 19 13 20 12 21
REMARK SMILES IDX 11 22 10 23 9 24 8 25 7 26 6 27 5 28 4 29 3 30 2 31 1 32
REMARK H PARENT
REMARK Flexibility Score: inf
ROOT
ATOM      1  C   UNL     1      -6.734  13.012  -7.613  1.00  0.00     0.000 C 
ENDROOT
BRANCH   1   2
ATOM      2  C   UNL     1      -5.253  13.020  -8.030  1.00  0.00     0.000 C 
BRANCH   2   3
ATOM      3  C   UNL     1      -5.038  12.470  -9.449  1.00  0.00     0.000 C 
BRANCH   3   4
ATOM      4  C   UNL     1      -6.326  11.910 -10.073  1.00  0.00     0.000 C 
BRANCH   4   5
ATOM      5  C   UNL     1      -6.013  10.753 -11.029  1.00  0.00     0.000 C 
BRANCH   5   6
ATOM      6  C   UNL     1      -4.505  10.463 -11.074  1.00  0.00     0.000 C 
BRANCH   6   7
ATOM      7  C   UNL     1      -4.166   9.021 -10.664  1.00  0.00     0.000 C 
BRANCH   7   8
ATOM      8  C   UNL     1      -5.224   8.008 -11.137  1.00  0.00     0.000 C 
BRANCH   8   9
ATOM      9  C   UNL     1      -6.210   7.624 -10.023  1.00  0.00     0.000 C 
BRANCH   9  10
ATOM     10  C   UNL     1      -5.636   7.862  -8.614  1.00  0.00     0.000 C 
BRANCH  10  11
ATOM     11  C   UNL     1      -6.416   8.933  -7.835  1.00  0.00     0.000 C 
BRANCH  11  12
ATOM     12  C   UNL     1      -6.219   8.817  -6.316  1.00  0.00     0.000 C 
BRANCH  12  13
ATOM     13  C   UNL     1      -4.901   8.106  -5.987  1.00  0.00     0.006 C 
BRANCH  13  14
ATOM     14  C   UNL     1      -4.780   7.838  -4.485  1.00  0.00     0.053 C 
BRANCH  14  15
ATOM     15  C   UNL     1      -3.718   6.819  -4.217  1.00  0.00     0.041 C 
ATOM     16  O   UNL     1      -4.019   5.600  -4.124  1.00  0.00    -0.550 OA
ATOM     17  O   UNL     1      -2.388   7.209  -4.131  1.00  0.00    -0.550 OA
ENDBRANCH  14  15
ENDBRANCH  13  14
ENDBRANCH  12  13
ENDBRANCH  11  12
ENDBRANCH  10  11
ENDBRANCH   9  10
ENDBRANCH   8   9
ENDBRANCH   7   8
ENDBRANCH   6   7
ENDBRANCH   5   6
ENDBRANCH   4   5
ENDBRANCH   3   4
ENDBRANCH   2   3
ENDBRANCH   1   2
BRANCH   1  18
ATOM     18  C   UNL     1      -6.989  12.213  -6.322  1.00  0.00     0.000 C 
BRANCH  18  19
ATOM     19  C   UNL     1      -6.231  12.715  -5.075  1.00  0.00     0.000 C 
BRANCH  19  20
ATOM     20  C   UNL     1      -5.306  11.681  -4.410  1.00  0.00     0.000 C 
BRANCH  20  21
ATOM     21  C   UNL     1      -3.840  12.134  -4.362  1.00  0.00     0.000 C 
BRANCH  21  22
ATOM     22  C   UNL     1      -2.933  11.124  -5.080  1.00  0.00     0.000 C 
BRANCH  22  23
ATOM     23  C   UNL     1      -2.569  11.560  -6.510  1.00  0.00     0.000 C 
BRANCH  23  24
ATOM     24  C   UNL     1      -2.539  10.421  -7.550  1.00  0.00    -0.000 C 
BRANCH  24  25
ATOM     25  C   UNL     1      -1.507  10.595  -8.678  1.00  0.00    -0.000 C 
BRANCH  25  26
ATOM     26  C   UNL     1      -0.284  11.417  -8.245  1.00  0.00    -0.000 C 
BRANCH  26  27
ATOM     27  C   UNL     1       0.678  10.568  -7.403  1.00  0.00    -0.000 C 
BRANCH  27  28
ATOM     28  C   UNL     1       2.066  11.213  -7.259  1.00  0.00    -0.000 C 
BRANCH  28  29
ATOM     29  C   UNL     1       2.165  12.138  -6.036  1.00  0.00    -0.000 C 
BRANCH  29  30
ATOM     30  C   UNL     1       1.023  11.870  -5.049  1.00  0.00    -0.000 C 
BRANCH  30  31
ATOM     31  C   UNL     1       0.468  13.181  -4.482  1.00  0.00    -0.003 C 
ATOM     32  C   UNL     1      -0.130  14.048  -5.586  1.00  0.00     0.004 C 
ENDBRANCH  30  31
ENDBRANCH  29  30
ENDBRANCH  28  29
ENDBRANCH  27  28
ENDBRANCH  26  27
ENDBRANCH  25  26
ENDBRANCH  24  25
ENDBRANCH  23  24
ENDBRANCH  22  23
ENDBRANCH  21  22
ENDBRANCH  20  21
ENDBRANCH  19  20
ENDBRANCH  18  19
ENDBRANCH   1  18
TORSDOF 28
ENDMDL
MODEL 5
REMARK VINA RESULT:    -4.605      2.659      4.748
REMARK INTER + INTRA:         -16.483
REMARK INTER:                 -11.554
REMARK INTRA:                  -4.929
REMARK UNBOUND:                -4.341
REMARK SMILES CCCCCCCCCCCCCCCCCCCCCCCCCCCCCC(=O)[O-]
REMARK SMILES IDX 16 1 17 2 18 3 19 4 20 5 21 6 22 7 23 8 24 9 25 10 26 11
REMARK SMILES IDX 27 12 28 13 29 14 30 15 31 16 32 17 15 18 14 19 13 20 12 21
REMARK SMILES IDX 11 22 10 23 9 24 8 25 7 26 6 27 5 28 4 29 3 30 2 31 1 32
REMARK H PARENT
REMARK Flexibility Score: inf
ROOT
ATOM      1  C   UNL     1      -5.529  12.587  -7.642  1.00  0.00     0.000 C 
ENDROOT
BRANCH   1   2
ATOM      2  C   UNL     1      -6.614  12.532  -6.554  1.00  0.00     0.000 C 
BRANCH   2   3
ATOM      3  C   UNL     1      -6.024  12.543  -5.134  1.00  0.00     0.000 C 
BRANCH   3   4
ATOM      4  C   UNL     1      -5.872  11.133  -4.541  1.00  0.00     0.000 C 
BRANCH   4   5
ATOM      5  C   UNL     1      -4.450  10.912  -4.011  1.00  0.00     0.000 C 
BRANCH   5   6
ATOM      6  C   UNL     1      -3.601  12.183  -4.157  1.00  0.00     0.000 C 
BRANCH   6   7
ATOM      7  C   UNL     1      -2.427  12.004  -5.133  1.00  0.00     0.000 C 
BRANCH   7   8
ATOM      8  C   UNL     1      -2.281  10.550  -5.619  1.00  0.00     0.000 C 
BRANCH   8   9
ATOM      9  C   UNL     1      -2.913  10.327  -7.002  1.00  0.00     0.000 C 
BRANCH   9  10
ATOM     10  C   UNL     1      -2.508  11.406  -8.021  1.00  0.00     0.000 C 
BRANCH  10  11
ATOM     11  C   UNL     1      -1.270  11.008  -8.840  1.00  0.00     0.000 C 
BRANCH  11  12
ATOM     12  C   UNL     1      -0.001  11.746  -8.388  1.00  0.00     0.000 C 
BRANCH  12  13
ATOM     13  C   UNL     1       0.963  10.792  -7.673  1.00  0.00     0.006 C 
BRANCH  13  14
ATOM     14  C   UNL     1       1.574   9.788  -8.654  1.00  0.00     0.053 C 
BRANCH  14  15
ATOM     15  C   UNL     1       3.051   9.995  -8.765  1.00  0.00     0.041 C 
ATOM     16  O   UNL     1       3.661   9.646  -9.810  1.00  0.00    -0.550 OA
ATOM     17  O   UNL     1       3.743  10.629  -7.742  1.00  0.00    -0.550 OA
ENDBRANCH  14  15
ENDBRANCH  13  14
ENDBRANCH  12  13
ENDBRANCH  11  12
ENDBRANCH  10  11
ENDBRANCH   9  10
ENDBRANCH   8   9
ENDBRANCH   7   8
ENDBRANCH   6   7
ENDBRANCH   5   6
ENDBRANCH   4   5
ENDBRANCH   3   4
ENDBRANCH   2   3
ENDBRANCH   1   2
BRANCH   1  18
ATOM     18  C   UNL     1      -6.108  12.772  -9.057  1.00  0.00     0.000 C 
BRANCH  18  19
ATOM     19  C   UNL     1      -6.898  11.568  -9.610  1.00  0.00     0.000 C 
BRANCH  19  20
ATOM     20  C   UNL     1      -6.307  10.920 -10.874  1.00  0.00     0.000 C 
BRANCH  20  21
ATOM     21  C   UNL     1      -4.791  11.130 -11.001  1.00  0.00     0.000 C 
BRANCH  21  22
ATOM     22  C   UNL     1      -4.051   9.784 -10.991  1.00  0.00     0.000 C 
BRANCH  22  23
ATOM     23  C   UNL     1      -4.997   8.584 -10.810  1.00  0.00     0.000 C 
BRANCH  23  24
ATOM     24  C   UNL     1      -4.970   7.939  -9.410  1.00  0.00    -0.000 C 
BRANCH  24  25
ATOM     25  C   UNL     1      -6.267   8.093  -8.595  1.00  0.00    -0.000 C 
BRANCH  25  26
ATOM     26  C   UNL     1      -6.015   8.581  -7.161  1.00  0.00    -0.000 C 
BRANCH  26  27
ATOM     27  C   UNL     1      -5.246   7.528  -6.351  1.00  0.00    -0.000 C 
BRANCH  27  28
ATOM     28  C   UNL     1      -5.745   7.414  -4.902  1.00  0.00    -0.000 C 
BRANCH  28  29
ATOM     29  C   UNL     1      -4.603   7.479  -3.875  1.00  0.00    -0.000 C 
BRANCH  29  30
ATOM     30  C   UNL     1      -3.744   6.210  -3.927  1.00  0.00    -0.000 C 
BRANCH  30  31
ATOM     31  C   UNL     1      -2.305   6.539  -4.338  1.00  0.00    -0.003 C 
ATOM     32  C   UNL     1      -1.520   5.270  -4.656  1.00  0.00     0.004 C 
ENDBRANCH  30  31
ENDBRANCH  29  30
ENDBRANCH  28  29
ENDBRANCH  27  28
ENDBRANCH  26  27
ENDBRANCH  25  26
ENDBRANCH  24  25
ENDBRANCH  23  24
ENDBRANCH  22  23
ENDBRANCH  21  22
ENDBRANCH  20  21
ENDBRANCH  19  20
ENDBRANCH  18  19
ENDBRANCH   1  18
TORSDOF 28
ENDMDL
MODEL 6
REMARK VINA RESULT:    -4.539     12.376     15.816
REMARK INTER + INTRA:         -16.309
REMARK INTER:                 -13.273
REMARK INTRA:                  -3.036
REMARK UNBOUND:                -4.341
REMARK SMILES CCCCCCCCCCCCCCCCCCCCCCCCCCCCCC(=O)[O-]
REMARK SMILES IDX 16 1 17 2 18 3 19 4 20 5 21 6 22 7 23 8 24 9 25 10 26 11
REMARK SMILES IDX 27 12 28 13 29 14 30 15 31 16 32 17 15 18 14 19 13 20 12 21
REMARK SMILES IDX 11 22 10 23 9 24 8 25 7 26 6 27 5 28 4 29 3 30 2 31 1 32
REMARK H PARENT
REMARK Flexibility Score: inf
ROOT
ATOM      1  C   UNL     1       2.739   4.670 -22.091  1.00  0.00     0.000 C 
ENDROOT
BRANCH   1   2
ATOM      2  C   UNL     1       3.625   5.923 -21.988  1.00  0.00     0.000 C 
BRANCH   2   3
ATOM      3  C   UNL     1       3.484   6.846 -23.209  1.00  0.00     0.000 C 
BRANCH   3   4
ATOM      4  C   UNL     1       4.814   7.064 -23.947  1.00  0.00     0.000 C 
BRANCH   4   5
ATOM      5  C   UNL     1       5.162   8.556 -24.021  1.00  0.00     0.000 C 
BRANCH   5   6
ATOM      6  C   UNL     1       6.675   8.779 -23.886  1.00  0.00     0.000 C 
BRANCH   6   7
ATOM      7  C   UNL     1       7.030   9.783 -22.777  1.00  0.00     0.000 C 
BRANCH   7   8
ATOM      8  C   UNL     1       6.634  11.226 -23.137  1.00  0.00     0.000 C 
BRANCH   8   9
ATOM      9  C   UNL     1       6.738  12.181 -21.938  1.00  0.00     0.000 C 
BRANCH   9  10
ATOM     10  C   UNL     1       7.139  11.461 -20.638  1.00  0.00     0.000 C 
BRANCH  10  11
ATOM     11  C   UNL     1       7.843  12.395 -19.641  1.00  0.00     0.000 C 
BRANCH  11  12
ATOM     12  C   UNL     1       9.102  11.764 -19.030  1.00  0.00     0.000 C 
BRANCH  12  13
ATOM     13  C   UNL     1       9.775  10.809 -20.025  1.00  0.00     0.006 C 
BRANCH  13  14
ATOM     14  C   UNL     1      11.066  10.228 -19.443  1.00  0.00     0.053 C 
BRANCH  14  15
ATOM     15  C   UNL     1      11.892   9.601 -20.522  1.00  0.00     0.041 C 
ATOM     16  O   UNL     1      12.600   8.591 -20.270  1.00  0.00    -0.550 OA
ATOM     17  O   UNL     1      11.833  10.095 -21.818  1.00  0.00    -0.550 OA
ENDBRANCH  14  15
ENDBRANCH  13  14
ENDBRANCH  12  13
ENDBRANCH  11  12
ENDBRANCH  10  11
ENDBRANCH   9  10
ENDBRANCH   8   9
ENDBRANCH   7   8
ENDBRANCH   6   7
ENDBRANCH   5   6
ENDBRANCH   4   5
ENDBRANCH   3   4
ENDBRANCH   2   3
ENDBRANCH   1   2
BRANCH   1  18
ATOM     18  C   UNL     1       3.434   3.399 -21.567  1.00  0.00     0.000 C 
BRANCH  18  19
ATOM     19  C   UNL     1       2.552   2.134 -21.526  1.00  0.00     0.000 C 
BRANCH  19  20
ATOM     20  C   UNL     1       1.924   1.817 -20.158  1.00  0.00     0.000 C 
BRANCH  20  21
ATOM     21  C   UNL     1       0.406   1.599 -20.232  1.00  0.00     0.000 C 
BRANCH  21  22
ATOM     22  C   UNL     1      -0.009   1.119 -21.631  1.00  0.00     0.000 C 
BRANCH  22  23
ATOM     23  C   UNL     1      -1.102   1.998 -22.264  1.00  0.00     0.000 C 
BRANCH  23  24
ATOM     24  C   UNL     1      -0.629   2.882 -23.436  1.00  0.00    -0.000 C 
BRANCH  24  25
ATOM     25  C   UNL     1      -0.790   4.397 -23.217  1.00  0.00    -0.000 C 
BRANCH  25  26
ATOM     26  C   UNL     1      -2.173   4.915 -23.637  1.00  0.00    -0.000 C 
BRANCH  26  27
ATOM     27  C   UNL     1      -3.136   4.937 -22.441  1.00  0.00    -0.000 C 
BRANCH  27  28
ATOM     28  C   UNL     1      -3.034   6.234 -21.622  1.00  0.00    -0.000 C 
BRANCH  28  29
ATOM     29  C   UNL     1      -3.080   5.983 -20.107  1.00  0.00    -0.000 C 
BRANCH  29  30
ATOM     30  C   UNL     1      -1.701   6.194 -19.472  1.00  0.00    -0.000 C 
BRANCH  30  31
ATOM     31  C   UNL     1      -0.760   5.030 -19.804  1.00  0.00    -0.003 C 
ATOM     32  C   UNL     1       0.595   5.207 -19.126  1.00  0.00     0.004 C 
ENDBRANCH  30  31
ENDBRANCH  29  30
ENDBRANCH  28  29
ENDBRANCH  27  28
ENDBRANCH  26  27
ENDBRANCH  25  26
ENDBRANCH  24  25
ENDBRANCH  23  24
ENDBRANCH  22  23
ENDBRANCH  21  22
ENDBRANCH  20  21
ENDBRANCH  19  20
ENDBRANCH  18  19
ENDBRANCH   1  18
TORSDOF 28
ENDMDL
MODEL 7
REMARK VINA RESULT:    -4.516      3.241      8.156
REMARK INTER + INTRA:         -16.249
REMARK INTER:                 -11.855
REMARK INTRA:                  -4.394
REMARK UNBOUND:                -4.341
REMARK SMILES CCCCCCCCCCCCCCCCCCCCCCCCCCCCCC(=O)[O-]
REMARK SMILES IDX 16 1 17 2 18 3 19 4 20 5 21 6 22 7 23 8 24 9 25 10 26 11
REMARK SMILES IDX 27 12 28 13 29 14 30 15 31 16 32 17 15 18 14 19 13 20 12 21
REMARK SMILES IDX 11 22 10 23 9 24 8 25 7 26 6 27 5 28 4 29 3 30 2 31 1 32
REMARK H PARENT
REMARK Flexibility Score: inf
ROOT
ATOM      1  C   UNL     1      -2.609   9.714  -9.495  1.00  0.00     0.000 C 
ENDROOT
BRANCH   1   2
ATOM      2  C   UNL     1      -3.745   9.754 -10.531  1.00  0.00     0.000 C 
BRANCH   2   3
ATOM      3  C   UNL     1      -4.220  11.185 -10.829  1.00  0.00     0.000 C 
BRANCH   3   4
ATOM      4  C   UNL     1      -5.705  11.251 -11.217  1.00  0.00     0.000 C 
BRANCH   4   5
ATOM      5  C   UNL     1      -6.585  11.464  -9.979  1.00  0.00     0.000 C 
BRANCH   5   6
ATOM      6  C   UNL     1      -6.392  12.873  -9.398  1.00  0.00     0.000 C 
BRANCH   6   7
ATOM      7  C   UNL     1      -5.688  12.860  -8.031  1.00  0.00     0.000 C 
BRANCH   7   8
ATOM      8  C   UNL     1      -6.665  12.623  -6.866  1.00  0.00     0.000 C 
BRANCH   8   9
ATOM      9  C   UNL     1      -5.989  11.953  -5.659  1.00  0.00     0.000 C 
BRANCH   9  10
ATOM     10  C   UNL     1      -6.468  10.507  -5.438  1.00  0.00     0.000 C 
BRANCH  10  11
ATOM     11  C   UNL     1      -5.777   9.508  -6.379  1.00  0.00     0.000 C 
BRANCH  11  12
ATOM     12  C   UNL     1      -6.597   9.227  -7.646  1.00  0.00     0.000 C 
BRANCH  12  13
ATOM     13  C   UNL     1      -5.935   8.138  -8.499  1.00  0.00     0.006 C 
BRANCH  13  14
ATOM     14  C   UNL     1      -6.798   7.788  -9.714  1.00  0.00     0.053 C 
BRANCH  14  15
ATOM     15  C   UNL     1      -6.155   6.705 -10.521  1.00  0.00     0.041 C 
ATOM     16  O   UNL     1      -6.865   5.897 -11.174  1.00  0.00    -0.550 OA
ATOM     17  O   UNL     1      -4.771   6.627 -10.600  1.00  0.00    -0.550 OA
ENDBRANCH  14  15
ENDBRANCH  13  14
ENDBRANCH  12  13
ENDBRANCH  11  12
ENDBRANCH  10  11
ENDBRANCH   9  10
ENDBRANCH   8   9
ENDBRANCH   7   8
ENDBRANCH   6   7
ENDBRANCH   5   6
ENDBRANCH   4   5
ENDBRANCH   3   4
ENDBRANCH   2   3
ENDBRANCH   1   2
BRANCH   1  18
ATOM     18  C   UNL     1      -2.467  11.031  -8.710  1.00  0.00     0.000 C 
BRANCH  18  19
ATOM     19  C   UNL     1      -2.543  10.895  -7.175  1.00  0.00     0.000 C 
BRANCH  19  20
ATOM     20  C   UNL     1      -2.519  12.223  -6.397  1.00  0.00     0.000 C 
BRANCH  20  21
ATOM     21  C   UNL     1      -1.632  13.288  -7.058  1.00  0.00     0.000 C 
BRANCH  21  22
ATOM     22  C   UNL     1      -0.717  13.955  -6.021  1.00  0.00     0.000 C 
BRANCH  22  23
ATOM     23  C   UNL     1      -0.544  13.111  -4.746  1.00  0.00     0.000 C 
BRANCH  23  24
ATOM     24  C   UNL     1       0.713  12.218  -4.723  1.00  0.00    -0.000 C 
BRANCH  24  25
ATOM     25  C   UNL     1       1.851  12.668  -5.656  1.00  0.00    -0.000 C 
BRANCH  25  26
ATOM     26  C   UNL     1       2.259  11.583  -6.663  1.00  0.00    -0.000 C 
BRANCH  26  27
ATOM     27  C   UNL     1       1.088  11.225  -7.589  1.00  0.00    -0.000 C 
BRANCH  27  28
ATOM     28  C   UNL     1       1.397  10.024  -8.497  1.00  0.00    -0.000 C 
BRANCH  28  29
ATOM     29  C   UNL     1       2.886   9.928  -8.867  1.00  0.00    -0.000 C 
BRANCH  29  30
ATOM     30  C   UNL     1       3.082   9.117 -10.153  1.00  0.00    -0.000 C 
BRANCH  30  31
ATOM     31  C   UNL     1       4.280   9.639 -10.954  1.00  0.00    -0.003 C 
ATOM     32  C   UNL     1       4.768  10.975 -10.405  1.00  0.00     0.004 C 
ENDBRANCH  30  31
ENDBRANCH  29  30
ENDBRANCH  28  29
ENDBRANCH  27  28
ENDBRANCH  26  27
ENDBRANCH  25  26
ENDBRANCH  24  25
ENDBRANCH  23  24
ENDBRANCH  22  23
ENDBRANCH  21  22
ENDBRANCH  20  21
ENDBRANCH  19  20
ENDBRANCH  18  19
ENDBRANCH   1  18
TORSDOF 28
ENDMDL
MODEL 8
REMARK VINA RESULT:    -4.406      3.628      8.119
REMARK INTER + INTRA:         -15.958
REMARK INTER:                 -11.643
REMARK INTRA:                  -4.315
REMARK UNBOUND:                -4.341
REMARK SMILES CCCCCCCCCCCCCCCCCCCCCCCCCCCCCC(=O)[O-]
REMARK SMILES IDX 16 1 17 2 18 3 19 4 20 5 21 6 22 7 23 8 24 9 25 10 26 11
REMARK SMILES IDX 27 12 28 13 29 14 30 15 31 16 32 17 15 18 14 19 13 20 12 21
REMARK SMILES IDX 11 22 10 23 9 24 8 25 7 26 6 27 5 28 4 29 3 30 2 31 1 32
REMARK H PARENT
REMARK Flexibility Score: inf
ROOT
ATOM      1  C   UNL     1      -3.377   9.301 -10.208  1.00  0.00     0.000 C 
ENDROOT
BRANCH   1   2
ATOM      2  C   UNL     1      -4.685   9.420 -11.009  1.00  0.00     0.000 C 
BRANCH   2   3
ATOM      3  C   UNL     1      -5.242  10.852 -11.018  1.00  0.00     0.000 C 
BRANCH   3   4
ATOM      4  C   UNL     1      -6.712  10.922 -10.576  1.00  0.00     0.000 C 
BRANCH   4   5
ATOM      5  C   UNL     1      -6.821  11.308  -9.095  1.00  0.00     0.000 C 
BRANCH   5   6
ATOM      6  C   UNL     1      -6.036  12.595  -8.799  1.00  0.00     0.000 C 
BRANCH   6   7
ATOM      7  C   UNL     1      -6.614  13.383  -7.613  1.00  0.00     0.000 C 
BRANCH   7   8
ATOM      8  C   UNL     1      -6.902  12.488  -6.394  1.00  0.00     0.000 C 
BRANCH   8   9
ATOM      9  C   UNL     1      -5.646  12.223  -5.549  1.00  0.00     0.000 C 
BRANCH   9  10
ATOM     10  C   UNL     1      -5.939  11.371  -4.302  1.00  0.00     0.000 C 
BRANCH  10  11
ATOM     11  C   UNL     1      -6.043   9.871  -4.624  1.00  0.00     0.000 C 
BRANCH  11  12
ATOM     12  C   UNL     1      -4.690   9.152  -4.530  1.00  0.00     0.000 C 
BRANCH  12  13
ATOM     13  C   UNL     1      -4.849   7.762  -3.902  1.00  0.00     0.006 C 
BRANCH  13  14
ATOM     14  C   UNL     1      -4.561   6.660  -4.924  1.00  0.00     0.053 C 
BRANCH  14  15
ATOM     15  C   UNL     1      -3.291   5.947  -4.583  1.00  0.00     0.041 C 
ATOM     16  O   UNL     1      -3.113   4.757  -4.956  1.00  0.00    -0.550 OA
ATOM     17  O   UNL     1      -2.279   6.615  -3.907  1.00  0.00    -0.550 OA
ENDBRANCH  14  15
ENDBRANCH  13  14
ENDBRANCH  12  13
ENDBRANCH  11  12
ENDBRANCH  10  11
ENDBRANCH   9  10
ENDBRANCH   8   9
ENDBRANCH   7   8
ENDBRANCH   6   7
ENDBRANCH   5   6
ENDBRANCH   4   5
ENDBRANCH   3   4
ENDBRANCH   2   3
ENDBRANCH   1   2
BRANCH   1  18
ATOM     18  C   UNL     1      -3.165  10.472  -9.230  1.00  0.00     0.000 C 
BRANCH  18  19
ATOM     19  C   UNL     1      -3.023  10.074  -7.746  1.00  0.00     0.000 C 
BRANCH  19  20
ATOM     20  C   UNL     1      -2.516  11.189  -6.815  1.00  0.00     0.000 C 
BRANCH  20  21
ATOM     21  C   UNL     1      -2.354  12.539  -7.529  1.00  0.00     0.000 C 
BRANCH  21  22
ATOM     22  C   UNL     1      -1.787  13.598  -6.572  1.00  0.00     0.000 C 
BRANCH  22  23
ATOM     23  C   UNL     1      -1.877  13.178  -5.095  1.00  0.00     0.000 C 
BRANCH  23  24
ATOM     24  C   UNL     1      -0.673  13.594  -4.225  1.00  0.00    -0.000 C 
BRANCH  24  25
ATOM     25  C   UNL     1       0.337  14.530  -4.914  1.00  0.00    -0.000 C 
BRANCH  25  26
ATOM     26  C   UNL     1       1.781  14.015  -4.826  1.00  0.00    -0.000 C 
BRANCH  26  27
ATOM     27  C   UNL     1       1.813  12.483  -4.744  1.00  0.00    -0.000 C 
BRANCH  27  28
ATOM     28  C   UNL     1       2.204  11.826  -6.077  1.00  0.00    -0.000 C 
BRANCH  28  29
ATOM     29  C   UNL     1       0.983  11.394  -6.905  1.00  0.00    -0.000 C 
BRANCH  29  30
ATOM     30  C   UNL     1       1.346  11.256  -8.389  1.00  0.00    -0.000 C 
BRANCH  30  31
ATOM     31  C   UNL     1       1.890   9.856  -8.693  1.00  0.00    -0.003 C 
ATOM     32  C   UNL     1       3.327   9.922  -9.200  1.00  0.00     0.004 C 
ENDBRANCH  30  31
ENDBRANCH  29  30
ENDBRANCH  28  29
ENDBRANCH  27  28
ENDBRANCH  26  27
ENDBRANCH  25  26
ENDBRANCH  24  25
ENDBRANCH  23  24
ENDBRANCH  22  23
ENDBRANCH  21  22
ENDBRANCH  20  21
ENDBRANCH  19  20
ENDBRANCH  18  19
ENDBRANCH   1  18
TORSDOF 28
ENDMDL
MODEL 9
REMARK VINA RESULT:    -4.376      2.828      5.085
REMARK INTER + INTRA:         -15.880
REMARK INTER:                 -10.878
REMARK INTRA:                  -5.002
REMARK UNBOUND:                -4.341
REMARK SMILES CCCCCCCCCCCCCCCCCCCCCCCCCCCCCC(=O)[O-]
REMARK SMILES IDX 16 1 17 2 18 3 19 4 20 5 21 6 22 7 23 8 24 9 25 10 26 11
REMARK SMILES IDX 27 12 28 13 29 14 30 15 31 16 32 17 15 18 14 19 13 20 12 21
REMARK SMILES IDX 11 22 10 23 9 24 8 25 7 26 6 27 5 28 4 29 3 30 2 31 1 32
REMARK H PARENT
REMARK Flexibility Score: inf
ROOT
ATOM      1  C   UNL     1      -4.978  12.519  -7.852  1.00  0.00     0.000 C 
ENDROOT
BRANCH   1   2
ATOM      2  C   UNL     1      -6.291  12.187  -7.123  1.00  0.00     0.000 C 
BRANCH   2   3
ATOM      3  C   UNL     1      -6.275  12.633  -5.651  1.00  0.00     0.000 C 
BRANCH   3   4
ATOM      4  C   UNL     1      -6.492  11.467  -4.674  1.00  0.00     0.000 C 
BRANCH   4   5
ATOM      5  C   UNL     1      -5.215  11.177  -3.875  1.00  0.00     0.000 C 
BRANCH   5   6
ATOM      6  C   UNL     1      -4.057  12.075  -4.335  1.00  0.00     0.000 C 
BRANCH   6   7
ATOM      7  C   UNL     1      -2.738  11.304  -4.501  1.00  0.00     0.000 C 
BRANCH   7   8
ATOM      8  C   UNL     1      -2.912  10.003  -5.305  1.00  0.00     0.000 C 
BRANCH   8   9
ATOM      9  C   UNL     1      -1.849   9.845  -6.404  1.00  0.00     0.000 C 
BRANCH   9  10
ATOM     10  C   UNL     1      -2.218  10.590  -7.699  1.00  0.00     0.000 C 
BRANCH  10  11
ATOM     11  C   UNL     1      -1.094  10.543  -8.746  1.00  0.00     0.000 C 
BRANCH  11  12
ATOM     12  C   UNL     1       0.284  10.280  -8.121  1.00  0.00     0.000 C 
BRANCH  12  13
ATOM     13  C   UNL     1       1.013  11.597  -7.827  1.00  0.00     0.006 C 
BRANCH  13  14
ATOM     14  C   UNL     1       1.019  11.901  -6.327  1.00  0.00     0.053 C 
BRANCH  14  15
ATOM     15  C   UNL     1       0.444  13.257  -6.064  1.00  0.00     0.041 C 
ATOM     16  O   UNL     1       1.123  14.124  -5.453  1.00  0.00    -0.550 OA
ATOM     17  O   UNL     1      -0.816  13.583  -6.546  1.00  0.00    -0.550 OA
ENDBRANCH  14  15
ENDBRANCH  13  14
ENDBRANCH  12  13
ENDBRANCH  11  12
ENDBRANCH  10  11
ENDBRANCH   9  10
ENDBRANCH   8   9
ENDBRANCH   7   8
ENDBRANCH   6   7
ENDBRANCH   5   6
ENDBRANCH   4   5
ENDBRANCH   3   4
ENDBRANCH   2   3
ENDBRANCH   1   2
BRANCH   1  18
ATOM     18  C   UNL     1      -5.199  12.977  -9.306  1.00  0.00     0.000 C 
BRANCH  18  19
ATOM     19  C   UNL     1      -6.293  12.213 -10.079  1.00  0.00     0.000 C 
BRANCH  19  20
ATOM     20  C   UNL     1      -5.778  11.164 -11.080  1.00  0.00     0.000 C 
BRANCH  20  21
ATOM     21  C   UNL     1      -4.322  10.754 -10.820  1.00  0.00     0.000 C 
BRANCH  21  22
ATOM     22  C   UNL     1      -4.080   9.297 -11.244  1.00  0.00     0.000 C 
BRANCH  22  23
ATOM     23  C   UNL     1      -5.269   8.376 -10.918  1.00  0.00     0.000 C 
BRANCH  23  24
ATOM     24  C   UNL     1      -4.916   7.134 -10.075  1.00  0.00    -0.000 C 
BRANCH  24  25
ATOM     25  C   UNL     1      -5.499   7.125  -8.650  1.00  0.00    -0.000 C 
BRANCH  25  26
ATOM     26  C   UNL     1      -5.828   8.533  -8.133  1.00  0.00    -0.000 C 
BRANCH  26  27
ATOM     27  C   UNL     1      -5.589   8.631  -6.620  1.00  0.00    -0.000 C 
BRANCH  27  28
ATOM     28  C   UNL     1      -5.855   7.304  -5.891  1.00  0.00    -0.000 C 
BRANCH  28  29
ATOM     29  C   UNL     1      -5.095   7.197  -4.559  1.00  0.00    -0.000 C 
BRANCH  29  30
ATOM     30  C   UNL     1      -3.893   6.254  -4.688  1.00  0.00    -0.000 C 
BRANCH  30  31
ATOM     31  C   UNL     1      -2.661   6.838  -3.987  1.00  0.00    -0.003 C 
ATOM     32  C   UNL     1      -1.456   5.913  -4.131  1.00  0.00     0.004 C 
ENDBRANCH  30  31
ENDBRANCH  29  30
ENDBRANCH  28  29
ENDBRANCH  27  28
ENDBRANCH  26  27
ENDBRANCH  25  26
ENDBRANCH  24  25
ENDBRANCH  23  24
ENDBRANCH  22  23
ENDBRANCH  21  22
ENDBRANCH  20  21
ENDBRANCH  19  20
ENDBRANCH  18  19
ENDBRANCH   1  18
TORSDOF 28
ENDMDL
