MODEL 1
REMARK VINA RESULT:    -5.156      0.000      0.000
REMARK INTER + INTRA:          -8.698
REMARK INTER:                  -7.869
REMARK INTRA:                  -0.830
REMARK UNBOUND:                -0.830
REMARK SMILES O=C([O-])CCCCCCCCC(=O)[O-]
REMARK SMILES IDX 7 1 6 2 5 3 4 4 2 5 1 6 3 7 8 8 9 9 10 10 11 11 12 12 13 13
REMARK SMILES IDX 14 14
REMARK H PARENT
REMARK Flexibility Score: inf
ROOT
ATOM      1  C   UNL     1       7.354  54.807  22.025  1.00  0.00     0.000 C 
ENDROOT
BRANCH   1   2
ATOM      2  C   UNL     1       7.864  56.093  21.357  1.00  0.00     0.000 C 
BRANCH   2   3
ATOM      3  C   UNL     1       7.018  56.506  20.140  1.00  0.00     0.006 C 
BRANCH   3   4
ATOM      4  C   UNL     1       7.804  56.404  18.827  1.00  0.00     0.053 C 
BRANCH   4   5
ATOM      5  C   UNL     1       7.288  55.300  17.957  1.00  0.00     0.041 C 
ATOM      6  O   UNL     1       7.168  54.133  18.417  1.00  0.00    -0.550 OA
ATOM      7  O   UNL     1       6.973  55.551  16.628  1.00  0.00    -0.550 OA
ENDBRANCH   4   5
ENDBRANCH   3   4
ENDBRANCH   2   3
ENDBRANCH   1   2
BRANCH   1   8
ATOM      8  C   UNL     1       8.303  53.617  21.818  1.00  0.00     0.000 C 
BRANCH   8   9
ATOM      9  C   UNL     1       9.573  54.051  21.076  1.00  0.00     0.000 C 
BRANCH   9  10
ATOM     10  C   UNL     1      10.824  53.790  21.928  1.00  0.00     0.006 C 
BRANCH  10  11
ATOM     11  C   UNL     1      10.477  53.494  23.392  1.00  0.00     0.053 C 
BRANCH  11  12
ATOM     12  C   UNL     1      10.694  54.689  24.268  1.00  0.00     0.041 C 
ATOM     13  O   UNL     1      10.146  55.788  23.988  1.00  0.00    -0.550 OA
ATOM     14  O   UNL     1      11.473  54.582  25.414  1.00  0.00    -0.550 OA
ENDBRANCH  11  12
ENDBRANCH  10  11
ENDBRANCH   9  10
ENDBRANCH   8   9
ENDBRANCH   1   8
TORSDOF 9
ENDMDL
MODEL 2
REMARK VINA RESULT:    -5.045      1.751      5.698
REMARK INTER + INTRA:          -8.529
REMARK INTER:                  -7.917
REMARK INTRA:                  -0.613
REMARK UNBOUND:                -0.830
REMARK SMILES O=C([O-])CCCCCCCCC(=O)[O-]
REMARK SMILES IDX 7 1 6 2 5 3 4 4 2 5 1 6 3 7 8 8 9 9 10 10 11 11 12 12 13 13
REMARK SMILES IDX 14 14
REMARK H PARENT
REMARK Flexibility Score: inf
ROOT
ATOM      1  C   UNL     1       7.189  54.271  23.061  1.00  0.00     0.000 C 
ENDROOT
BRANCH   1   2
ATOM      2  C   UNL     1       8.384  53.810  23.909  1.00  0.00     0.000 C 
BRANCH   2   3
ATOM      3  C   UNL     1       9.611  54.726  23.753  1.00  0.00     0.006 C 
BRANCH   3   4
ATOM      4  C   UNL     1      10.891  53.935  23.457  1.00  0.00     0.053 C 
BRANCH   4   5
ATOM      5  C   UNL     1      10.688  52.943  22.354  1.00  0.00     0.041 C 
ATOM      6  O   UNL     1      10.520  53.336  21.170  1.00  0.00    -0.550 OA
ATOM      7  O   UNL     1      10.648  51.585  22.640  1.00  0.00    -0.550 OA
ENDBRANCH   4   5
ENDBRANCH   3   4
ENDBRANCH   2   3
ENDBRANCH   1   2
BRANCH   1   8
ATOM      8  C   UNL     1       7.617  55.071  21.822  1.00  0.00     0.000 C 
BRANCH   8   9
ATOM      9  C   UNL     1       6.469  55.953  21.315  1.00  0.00     0.000 C 
BRANCH   9  10
ATOM     10  C   UNL     1       6.886  56.730  20.057  1.00  0.00     0.006 C 
BRANCH  10  11
ATOM     11  C   UNL     1       7.974  56.001  19.259  1.00  0.00     0.053 C 
BRANCH  11  12
ATOM     12  C   UNL     1       7.397  55.214  18.122  1.00  0.00     0.041 C 
ATOM     13  O   UNL     1       7.117  53.996  18.272  1.00  0.00    -0.550 OA
ATOM     14  O   UNL     1       7.135  55.835  16.907  1.00  0.00    -0.550 OA
ENDBRANCH  11  12
ENDBRANCH  10  11
ENDBRANCH   9  10
ENDBRANCH   8   9
ENDBRANCH   1   8
TORSDOF 9
ENDMDL
MODEL 3
REMARK VINA RESULT:    -5.013      1.839      2.294
REMARK INTER + INTRA:          -8.481
REMARK INTER:                  -7.798
REMARK INTRA:                  -0.683
REMARK UNBOUND:                -0.830
REMARK SMILES O=C([O-])CCCCCCCCC(=O)[O-]
REMARK SMILES IDX 7 1 6 2 5 3 4 4 2 5 1 6 3 7 8 8 9 9 10 10 11 11 12 12 13 13
REMARK SMILES IDX 14 14
REMARK H PARENT
REMARK Flexibility Score: inf
ROOT
ATOM      1  C   UNL     1       7.297  54.746  21.779  1.00  0.00     0.000 C 
ENDROOT
BRANCH   1   2
ATOM      2  C   UNL     1       6.326  55.822  21.269  1.00  0.00     0.000 C 
BRANCH   2   3
ATOM      3  C   UNL     1       6.942  56.701  20.165  1.00  0.00     0.006 C 
BRANCH   3   4
ATOM      4  C   UNL     1       7.998  55.948  19.346  1.00  0.00     0.053 C 
BRANCH   4   5
ATOM      5  C   UNL     1       7.389  55.233  18.180  1.00  0.00     0.041 C 
ATOM      6  O   UNL     1       7.123  54.005  18.257  1.00  0.00    -0.550 OA
ATOM      7  O   UNL     1       7.148  55.916  16.995  1.00  0.00    -0.550 OA
ENDBRANCH   4   5
ENDBRANCH   3   4
ENDBRANCH   2   3
ENDBRANCH   1   2
BRANCH   1   8
ATOM      8  C   UNL     1       7.028  54.351  23.239  1.00  0.00     0.000 C 
BRANCH   8   9
ATOM      9  C   UNL     1       8.315  53.879  23.926  1.00  0.00     0.000 C 
BRANCH   9  10
ATOM     10  C   UNL     1       9.528  54.684  23.436  1.00  0.00     0.006 C 
BRANCH  10  11
ATOM     11  C   UNL     1      10.789  53.819  23.316  1.00  0.00     0.053 C 
BRANCH  11  12
ATOM     12  C   UNL     1      10.624  52.735  22.295  1.00  0.00     0.041 C 
ATOM     13  O   UNL     1      10.707  51.526  22.636  1.00  0.00    -0.550 OA
ATOM     14  O   UNL     1      10.347  53.060  20.973  1.00  0.00    -0.550 OA
ENDBRANCH  11  12
ENDBRANCH  10  11
ENDBRANCH   9  10
ENDBRANCH   8   9
ENDBRANCH   1   8
TORSDOF 9
ENDMDL
MODEL 4
REMARK VINA RESULT:    -4.889      0.991      6.222
REMARK INTER + INTRA:          -8.290
REMARK INTER:                  -7.615
REMARK INTRA:                  -0.675
REMARK UNBOUND:                -0.830
REMARK SMILES O=C([O-])CCCCCCCCC(=O)[O-]
REMARK SMILES IDX 7 1 6 2 5 3 4 4 2 5 1 6 3 7 8 8 9 9 10 10 11 11 12 12 13 13
REMARK SMILES IDX 14 14
REMARK H PARENT
REMARK Flexibility Score: inf
ROOT
ATOM      1  C   UNL     1       9.136  54.755  21.452  1.00  0.00     0.000 C 
ENDROOT
BRANCH   1   2
ATOM      2  C   UNL     1       9.431  53.255  21.601  1.00  0.00     0.000 C 
BRANCH   2   3
ATOM      3  C   UNL     1      10.229  52.931  22.877  1.00  0.00     0.006 C 
BRANCH   3   4
ATOM      4  C   UNL     1      11.008  54.146  23.396  1.00  0.00     0.053 C 
BRANCH   4   5
ATOM      5  C   UNL     1      10.599  54.513  24.789  1.00  0.00     0.041 C 
ATOM      6  O   UNL     1      11.466  54.626  25.696  1.00  0.00    -0.550 OA
ATOM      7  O   UNL     1       9.256  54.695  25.093  1.00  0.00    -0.550 OA
ENDBRANCH   4   5
ENDBRANCH   3   4
ENDBRANCH   2   3
ENDBRANCH   1   2
BRANCH   1   8
ATOM      8  C   UNL     1       7.705  55.121  21.873  1.00  0.00     0.000 C 
BRANCH   8   9
ATOM      9  C   UNL     1       7.068  56.089  20.869  1.00  0.00     0.000 C 
BRANCH   9  10
ATOM     10  C   UNL     1       8.044  56.424  19.731  1.00  0.00     0.006 C 
BRANCH  10  11
ATOM     11  C   UNL     1       7.381  56.333  18.351  1.00  0.00     0.053 C 
BRANCH  11  12
ATOM     12  C   UNL     1       7.387  54.931  17.822  1.00  0.00     0.041 C 
ATOM     13  O   UNL     1       6.515  54.564  16.991  1.00  0.00    -0.550 OA
ATOM     14  O   UNL     1       8.376  54.040  18.222  1.00  0.00    -0.550 OA
ENDBRANCH  11  12
ENDBRANCH  10  11
ENDBRANCH   9  10
ENDBRANCH   8   9
ENDBRANCH   1   8
TORSDOF 9
ENDMDL
MODEL 5
REMARK VINA RESULT:    -4.842      1.211      1.945
REMARK INTER + INTRA:          -8.219
REMARK INTER:                  -7.509
REMARK INTRA:                  -0.710
REMARK UNBOUND:                -0.830
REMARK SMILES O=C([O-])CCCCCCCCC(=O)[O-]
REMARK SMILES IDX 7 1 6 2 5 3 4 4 2 5 1 6 3 7 8 8 9 9 10 10 11 11 12 12 13 13
REMARK SMILES IDX 14 14
REMARK H PARENT
REMARK Flexibility Score: inf
ROOT
ATOM      1  C   UNL     1       6.674  55.158  22.016  1.00  0.00     0.000 C 
ENDROOT
BRANCH   1   2
ATOM      2  C   UNL     1       7.092  56.431  21.265  1.00  0.00     0.000 C 
BRANCH   2   3
ATOM      3  C   UNL     1       8.160  56.163  20.190  1.00  0.00     0.006 C 
BRANCH   3   4
ATOM      4  C   UNL     1       7.654  56.486  18.778  1.00  0.00     0.053 C 
BRANCH   4   5
ATOM      5  C   UNL     1       7.324  55.244  18.010  1.00  0.00     0.041 C 
ATOM      6  O   UNL     1       7.286  55.268  16.751  1.00  0.00    -0.550 OA
ATOM      7  O   UNL     1       7.022  54.069  18.686  1.00  0.00    -0.550 OA
ENDBRANCH   4   5
ENDBRANCH   3   4
ENDBRANCH   2   3
ENDBRANCH   1   2
BRANCH   1   8
ATOM      8  C   UNL     1       7.837  54.171  22.198  1.00  0.00     0.000 C 
BRANCH   8   9
ATOM      9  C   UNL     1       7.852  53.597  23.621  1.00  0.00     0.000 C 
BRANCH   9  10
ATOM     10  C   UNL     1       8.513  54.577  24.602  1.00  0.00     0.006 C 
BRANCH  10  11
ATOM     11  C   UNL     1       9.715  55.299  23.979  1.00  0.00     0.053 C 
BRANCH  11  12
ATOM     12  C   UNL     1      10.962  54.474  24.056  1.00  0.00     0.041 C 
ATOM     13  O   UNL     1      11.692  54.523  25.080  1.00  0.00    -0.550 OA
ATOM     14  O   UNL     1      11.301  53.625  23.009  1.00  0.00    -0.550 OA
ENDBRANCH  11  12
ENDBRANCH  10  11
ENDBRANCH   9  10
ENDBRANCH   8   9
ENDBRANCH   1   8
TORSDOF 9
ENDMDL
MODEL 6
REMARK VINA RESULT:    -4.351      3.480      4.197
REMARK INTER + INTRA:          -7.469
REMARK INTER:                  -7.030
REMARK INTRA:                  -0.440
REMARK UNBOUND:                -0.830
REMARK SMILES O=C([O-])CCCCCCCCC(=O)[O-]
REMARK SMILES IDX 7 1 6 2 5 3 4 4 2 5 1 6 3 7 8 8 9 9 10 10 11 11 12 12 13 13
REMARK SMILES IDX 14 14
REMARK H PARENT
REMARK Flexibility Score: inf
ROOT
ATOM      1  C   UNL     1       6.692  56.535  21.365  1.00  0.00     0.000 C 
ENDROOT
BRANCH   1   2
ATOM      2  C   UNL     1       5.174  56.767  21.310  1.00  0.00     0.000 C 
BRANCH   2   3
ATOM      3  C   UNL     1       4.801  58.087  20.611  1.00  0.00     0.006 C 
BRANCH   3   4
ATOM      4  C   UNL     1       3.348  58.495  20.882  1.00  0.00     0.053 C 
BRANCH   4   5
ATOM      5  C   UNL     1       2.938  59.670  20.050  1.00  0.00     0.041 C 
ATOM      6  O   UNL     1       2.968  60.833  20.534  1.00  0.00    -0.550 OA
ATOM      7  O   UNL     1       2.489  59.478  18.749  1.00  0.00    -0.550 OA
ENDBRANCH   4   5
ENDBRANCH   3   4
ENDBRANCH   2   3
ENDBRANCH   1   2
BRANCH   1   8
ATOM      8  C   UNL     1       7.339  56.529  19.972  1.00  0.00     0.000 C 
BRANCH   8   9
ATOM      9  C   UNL     1       8.021  55.185  19.688  1.00  0.00     0.000 C 
BRANCH   9  10
ATOM     10  C   UNL     1       8.199  54.375  20.982  1.00  0.00     0.006 C 
BRANCH  10  11
ATOM     11  C   UNL     1       9.674  54.087  21.287  1.00  0.00     0.053 C 
BRANCH  11  12
ATOM     12  C   UNL     1      10.019  54.397  22.711  1.00  0.00     0.041 C 
ATOM     13  O   UNL     1      10.770  53.626  23.364  1.00  0.00    -0.550 OA
ATOM     14  O   UNL     1       9.538  55.557  23.307  1.00  0.00    -0.550 OA
ENDBRANCH  11  12
ENDBRANCH  10  11
ENDBRANCH   9  10
ENDBRANCH   8   9
ENDBRANCH   1   8
TORSDOF 9
ENDMDL
MODEL 7
REMARK VINA RESULT:    -4.327      2.190      5.585
REMARK INTER + INTRA:          -7.434
REMARK INTER:                  -6.981
REMARK INTRA:                  -0.453
REMARK UNBOUND:                -0.830
REMARK SMILES O=C([O-])CCCCCCCCC(=O)[O-]
REMARK SMILES IDX 7 1 6 2 5 3 4 4 2 5 1 6 3 7 8 8 9 9 10 10 11 11 12 12 13 13
REMARK SMILES IDX 14 14
REMARK H PARENT
REMARK Flexibility Score: inf
ROOT
ATOM      1  C   UNL     1       8.595  53.575  21.788  1.00  0.00     0.000 C 
ENDROOT
BRANCH   1   2
ATOM      2  C   UNL     1       9.639  52.851  22.652  1.00  0.00     0.000 C 
BRANCH   2   3
ATOM      3  C   UNL     1      10.987  53.593  22.700  1.00  0.00     0.006 C 
BRANCH   3   4
ATOM      4  C   UNL     1      11.201  54.319  24.034  1.00  0.00     0.053 C 
BRANCH   4   5
ATOM      5  C   UNL     1      10.015  55.154  24.407  1.00  0.00     0.041 C 
ATOM      6  O   UNL     1       9.297  54.833  25.391  1.00  0.00    -0.550 OA
ATOM      7  O   UNL     1       9.682  56.268  23.647  1.00  0.00    -0.550 OA
ENDBRANCH   4   5
ENDBRANCH   3   4
ENDBRANCH   2   3
ENDBRANCH   1   2
BRANCH   1   8
ATOM      8  C   UNL     1       9.156  54.009  20.425  1.00  0.00     0.000 C 
BRANCH   8   9
ATOM      9  C   UNL     1       8.190  54.967  19.715  1.00  0.00     0.000 C 
BRANCH   9  10
ATOM     10  C   UNL     1       8.051  56.284  20.493  1.00  0.00     0.006 C 
BRANCH  10  11
ATOM     11  C   UNL     1       6.752  57.025  20.151  1.00  0.00     0.053 C 
BRANCH  11  12
ATOM     12  C   UNL     1       5.694  56.803  21.187  1.00  0.00     0.041 C 
ATOM     13  O   UNL     1       4.722  57.598  21.281  1.00  0.00    -0.550 OA
ATOM     14  O   UNL     1       5.763  55.698  22.028  1.00  0.00    -0.550 OA
ENDBRANCH  11  12
ENDBRANCH  10  11
ENDBRANCH   9  10
ENDBRANCH   8   9
ENDBRANCH   1   8
TORSDOF 9
ENDMDL
MODEL 8
REMARK VINA RESULT:    -4.297      3.744      6.825
REMARK INTER + INTRA:          -7.388
REMARK INTER:                  -7.075
REMARK INTRA:                  -0.313
REMARK UNBOUND:                -0.830
REMARK SMILES O=C([O-])CCCCCCCCC(=O)[O-]
REMARK SMILES IDX 7 1 6 2 5 3 4 4 2 5 1 6 3 7 8 8 9 9 10 10 11 11 12 12 13 13
REMARK SMILES IDX 14 14
REMARK H PARENT
REMARK Flexibility Score: inf
ROOT
ATOM      1  C   UNL     1       7.069  55.744  19.759  1.00  0.00     0.000 C 
ENDROOT
BRANCH   1   2
ATOM      2  C   UNL     1       8.137  54.646  19.886  1.00  0.00     0.000 C 
BRANCH   2   3
ATOM      3  C   UNL     1       8.924  54.733  21.205  1.00  0.00     0.006 C 
BRANCH   3   4
ATOM      4  C   UNL     1      10.025  53.669  21.295  1.00  0.00     0.053 C 
BRANCH   4   5
ATOM      5  C   UNL     1       9.896  52.841  22.536  1.00  0.00     0.041 C 
ATOM      6  O   UNL     1       9.172  53.234  23.488  1.00  0.00    -0.550 OA
ATOM      7  O   UNL     1      10.605  51.652  22.654  1.00  0.00    -0.550 OA
ENDBRANCH   4   5
ENDBRANCH   3   4
ENDBRANCH   2   3
ENDBRANCH   1   2
BRANCH   1   8
ATOM      8  C   UNL     1       6.962  56.612  21.022  1.00  0.00     0.000 C 
BRANCH   8   9
ATOM      9  C   UNL     1       5.508  56.705  21.502  1.00  0.00     0.000 C 
BRANCH   9  10
ATOM     10  C   UNL     1       4.730  57.758  20.698  1.00  0.00     0.006 C 
BRANCH  10  11
ATOM     11  C   UNL     1       3.766  58.563  21.578  1.00  0.00     0.053 C 
BRANCH  11  12
ATOM     12  C   UNL     1       2.511  58.924  20.843  1.00  0.00     0.041 C 
ATOM     13  O   UNL     1       2.560  59.254  19.629  1.00  0.00    -0.550 OA
ATOM     14  O   UNL     1       1.283  58.863  21.490  1.00  0.00    -0.550 OA
ENDBRANCH  11  12
ENDBRANCH  10  11
ENDBRANCH   9  10
ENDBRANCH   8   9
ENDBRANCH   1   8
TORSDOF 9
ENDMDL
MODEL 9
REMARK VINA RESULT:    -4.203      3.455      4.006
REMARK INTER + INTRA:          -7.244
REMARK INTER:                  -6.855
REMARK INTRA:                  -0.390
REMARK UNBOUND:                -0.830
REMARK SMILES O=C([O-])CCCCCCCCC(=O)[O-]
REMARK SMILES IDX 7 1 6 2 5 3 4 4 2 5 1 6 3 7 8 8 9 9 10 10 11 11 12 12 13 13
REMARK SMILES IDX 14 14
REMARK H PARENT
REMARK Flexibility Score: inf
ROOT
ATOM      1  C   UNL     1       7.033  56.895  20.157  1.00  0.00     0.000 C 
ENDROOT
BRANCH   1   2
ATOM      2  C   UNL     1       5.941  56.273  21.041  1.00  0.00     0.000 C 
BRANCH   2   3
ATOM      3  C   UNL     1       4.994  57.327  21.643  1.00  0.00     0.006 C 
BRANCH   3   4
ATOM      4  C   UNL     1       4.307  58.173  20.564  1.00  0.00     0.053 C 
BRANCH   4   5
ATOM      5  C   UNL     1       3.135  58.926  21.113  1.00  0.00     0.041 C 
ATOM      6  O   UNL     1       2.126  59.143  20.392  1.00  0.00    -0.550 OA
ATOM      7  O   UNL     1       3.172  59.419  22.411  1.00  0.00    -0.550 OA
ENDBRANCH   4   5
ENDBRANCH   3   4
ENDBRANCH   2   3
ENDBRANCH   1   2
BRANCH   1   8
ATOM      8  C   UNL     1       8.348  56.101  20.196  1.00  0.00     0.000 C 
BRANCH   8   9
ATOM      9  C   UNL     1       8.118  54.686  20.742  1.00  0.00     0.000 C 
BRANCH   9  10
ATOM     10  C   UNL     1       9.439  54.054  21.206  1.00  0.00     0.006 C 
BRANCH  10  11
ATOM     11  C   UNL     1       9.258  53.186  22.458  1.00  0.00     0.053 C 
BRANCH  11  12
ATOM     12  C   UNL     1       9.255  54.009  23.710  1.00  0.00     0.041 C 
ATOM     13  O   UNL     1       8.302  53.917  24.526  1.00  0.00    -0.550 OA
ATOM     14  O   UNL     1      10.323  54.852  23.991  1.00  0.00    -0.550 OA
ENDBRANCH  11  12
ENDBRANCH  10  11
ENDBRANCH   9  10
ENDBRANCH   8   9
ENDBRANCH   1   8
TORSDOF 9
ENDMDL
