MODEL 1
REMARK VINA RESULT:    -7.384      0.000      0.000
REMARK INTER + INTRA:         -11.374
REMARK INTER:                  -9.975
REMARK INTRA:                  -1.400
REMARK UNBOUND:                -1.400
REMARK SMILES CC[C@@H](CC[C@@H](C)[C@@H]1CC[C@@H]2[C@H]3CC(=O)C4=CC(=O)CC[C@]4(C)[C@H]3CC[C@]21C)C(C)C
REMARK SMILES IDX 4 1 3 2 2 3 1 4 29 5 30 6 31 7 5 8 6 9 7 10 8 11 9 12 27 13
REMARK SMILES IDX 10 14 11 15 26 16 28 17 12 18 25 19 24 20 13 21 22 22 14 23
REMARK SMILES IDX 16 24 21 25 23 26 15 27 17 28 20 29 18 30 19 31
REMARK H PARENT
REMARK Flexibility Score: inf
ROOT
ATOM      1  C   UNL     1      49.057  22.559  20.623  1.00  0.00     0.004 C 
ENDROOT
BRANCH   1   2
ATOM      2  C   UNL     1      47.919  21.520  20.853  1.00  0.00    -0.009 C 
BRANCH   2   3
ATOM      3  C   UNL     1      48.262  20.136  20.226  1.00  0.00     0.000 C 
ATOM      4  C   UNL     1      48.110  18.917  21.147  1.00  0.00     0.004 C 
ENDBRANCH   2   3
BRANCH   2   5
ATOM      5  C   UNL     1      46.490  22.074  20.521  1.00  0.00    -0.014 C 
ATOM      6  C   UNL     1      46.211  22.298  19.027  1.00  0.00     0.007 C 
ATOM      7  C   UNL     1      45.379  21.201  21.132  1.00  0.00     0.007 C 
ENDBRANCH   2   5
ENDBRANCH   1   2
BRANCH   1   8
ATOM      8  C   UNL     1      49.571  23.232  21.913  1.00  0.00     0.004 C 
BRANCH   8   9
ATOM      9  C   UNL     1      50.057  24.699  21.692  1.00  0.00    -0.011 C 
ATOM     10  C   UNL     1      51.487  24.718  21.132  1.00  0.00     0.008 C 
BRANCH   9  11
ATOM     11  C   UNL     1      49.102  25.639  20.874  1.00  0.00    -0.002 C 
ATOM     12  C   UNL     1      49.842  26.657  19.969  1.00  0.00     0.005 C 
ATOM     13  C   UNL     1      47.970  26.454  21.579  1.00  0.00    -0.026 C 
ATOM     14  C   UNL     1      48.941  27.895  19.866  1.00  0.00     0.005 C 
ATOM     15  C   UNL     1      47.609  27.444  20.452  1.00  0.00    -0.001 C 
ATOM     16  C   UNL     1      46.692  25.630  21.948  1.00  0.00     0.007 C 
ATOM     17  C   UNL     1      48.498  27.184  22.848  1.00  0.00     0.012 C 
ATOM     18  C   UNL     1      46.605  28.530  20.908  1.00  0.00     0.004 C 
ATOM     19  C   UNL     1      45.359  26.322  21.553  1.00  0.00     0.005 C 
ATOM     20  C   UNL     1      45.388  27.879  21.687  1.00  0.00     0.003 C 
ATOM     21  C   UNL     1      46.185  29.416  19.725  1.00  0.00     0.085 C 
ATOM     22  C   UNL     1      43.965  28.551  21.452  1.00  0.00    -0.000 C 
ATOM     23  C   UNL     1      45.203  30.438  20.189  1.00  0.00     0.159 C 
ATOM     24  C   UNL     1      44.120  30.040  21.117  1.00  0.00     0.005 C 
ATOM     25  C   UNL     1      43.121  28.387  22.762  1.00  0.00     0.020 C 
ATOM     26  C   UNL     1      43.198  27.884  20.277  1.00  0.00     0.017 C 
ATOM     27  O   UNL     1      45.288  31.621  19.761  1.00  0.00    -0.295 OA
ATOM     28  C   UNL     1      43.223  30.958  21.533  1.00  0.00     0.055 C 
ATOM     29  C   UNL     1      41.807  29.173  22.732  1.00  0.00     0.081 C 
ATOM     30  C   UNL     1      42.070  30.598  22.370  1.00  0.00     0.156 C 
ATOM     31  O   UNL     1      41.273  31.497  22.751  1.00  0.00    -0.295 OA
ENDBRANCH   9  11
ENDBRANCH   8   9
ENDBRANCH   1   8
TORSDOF 6
ENDMDL
MODEL 2
REMARK VINA RESULT:    -7.203      2.376      3.323
REMARK INTER + INTRA:         -11.129
REMARK INTER:                  -9.581
REMARK INTRA:                  -1.548
REMARK UNBOUND:                -1.400
REMARK SMILES CC[C@@H](CC[C@@H](C)[C@@H]1CC[C@@H]2[C@H]3CC(=O)C4=CC(=O)CC[C@]4(C)[C@H]3CC[C@]21C)C(C)C
REMARK SMILES IDX 4 1 3 2 2 3 1 4 29 5 30 6 31 7 5 8 6 9 7 10 8 11 9 12 27 13
REMARK SMILES IDX 10 14 11 15 26 16 28 17 12 18 25 19 24 20 13 21 22 22 14 23
REMARK SMILES IDX 16 24 21 25 23 26 15 27 17 28 20 29 18 30 19 31
REMARK H PARENT
REMARK Flexibility Score: inf
ROOT
ATOM      1  C   UNL     1      49.572  23.379  21.879  1.00  0.00     0.004 C 
ENDROOT
BRANCH   1   2
ATOM      2  C   UNL     1      49.360  22.431  20.660  1.00  0.00    -0.009 C 
BRANCH   2   3
ATOM      3  C   UNL     1      49.673  23.145  19.311  1.00  0.00     0.000 C 
ATOM      4  C   UNL     1      51.093  22.958  18.756  1.00  0.00     0.004 C 
ENDBRANCH   2   3
BRANCH   2   5
ATOM      5  C   UNL     1      48.005  21.645  20.708  1.00  0.00    -0.014 C 
ATOM      6  C   UNL     1      46.997  22.018  19.610  1.00  0.00     0.007 C 
ATOM      7  C   UNL     1      48.226  20.121  20.713  1.00  0.00     0.007 C 
ENDBRANCH   2   5
ENDBRANCH   1   2
BRANCH   1   8
ATOM      8  C   UNL     1      50.327  24.683  21.544  1.00  0.00     0.004 C 
BRANCH   8   9
ATOM      9  C   UNL     1      49.588  25.967  22.038  1.00  0.00    -0.011 C 
ATOM     10  C   UNL     1      50.539  27.172  22.038  1.00  0.00     0.008 C 
BRANCH   9  11
ATOM     11  C   UNL     1      48.225  26.304  21.339  1.00  0.00    -0.002 C 
ATOM     12  C   UNL     1      48.170  27.721  20.712  1.00  0.00     0.005 C 
ATOM     13  C   UNL     1      46.865  26.129  22.090  1.00  0.00    -0.026 C 
ATOM     14  C   UNL     1      46.706  28.178  20.773  1.00  0.00     0.005 C 
ATOM     15  C   UNL     1      45.933  26.919  21.148  1.00  0.00    -0.001 C 
ATOM     16  C   UNL     1      46.346  24.656  22.185  1.00  0.00     0.007 C 
ATOM     17  C   UNL     1      46.916  26.751  23.516  1.00  0.00     0.012 C 
ATOM     18  C   UNL     1      44.503  27.082  21.718  1.00  0.00     0.004 C 
ATOM     19  C   UNL     1      44.845  24.490  21.820  1.00  0.00     0.005 C 
ATOM     20  C   UNL     1      43.949  25.696  22.253  1.00  0.00     0.003 C 
ATOM     21  C   UNL     1      43.583  27.767  20.697  1.00  0.00     0.085 C 
ATOM     22  C   UNL     1      42.397  25.429  22.034  1.00  0.00    -0.000 C 
ATOM     23  C   UNL     1      42.209  27.891  21.266  1.00  0.00     0.159 C 
ATOM     24  C   UNL     1      41.621  26.752  22.005  1.00  0.00     0.005 C 
ATOM     25  C   UNL     1      41.880  24.536  23.213  1.00  0.00     0.020 C 
ATOM     26  C   UNL     1      42.121  24.696  20.692  1.00  0.00     0.017 C 
ATOM     27  O   UNL     1      41.554  28.954  21.082  1.00  0.00    -0.295 OA
ATOM     28  C   UNL     1      40.376  26.855  22.514  1.00  0.00     0.055 C 
ATOM     29  C   UNL     1      40.357  24.380  23.224  1.00  0.00     0.081 C 
ATOM     30  C   UNL     1      39.703  25.722  23.166  1.00  0.00     0.156 C 
ATOM     31  O   UNL     1      38.547  25.876  23.644  1.00  0.00    -0.295 OA
ENDBRANCH   9  11
ENDBRANCH   8   9
ENDBRANCH   1   8
TORSDOF 6
ENDMDL
MODEL 3
REMARK VINA RESULT:    -7.144      4.377      6.599
REMARK INTER + INTRA:         -11.049
REMARK INTER:                  -9.499
REMARK INTRA:                  -1.550
REMARK UNBOUND:                -1.400
REMARK SMILES CC[C@@H](CC[C@@H](C)[C@@H]1CC[C@@H]2[C@H]3CC(=O)C4=CC(=O)CC[C@]4(C)[C@H]3CC[C@]21C)C(C)C
REMARK SMILES IDX 4 1 3 2 2 3 1 4 29 5 30 6 31 7 5 8 6 9 7 10 8 11 9 12 27 13
REMARK SMILES IDX 10 14 11 15 26 16 28 17 12 18 25 19 24 20 13 21 22 22 14 23
REMARK SMILES IDX 16 24 21 25 23 26 15 27 17 28 20 29 18 30 19 31
REMARK H PARENT
REMARK Flexibility Score: inf
ROOT
ATOM      1  C   UNL     1      49.531  23.138  21.789  1.00  0.00     0.004 C 
ENDROOT
BRANCH   1   2
ATOM      2  C   UNL     1      48.207  22.411  21.407  1.00  0.00    -0.009 C 
BRANCH   2   3
ATOM      3  C   UNL     1      48.432  21.345  20.294  1.00  0.00     0.000 C 
ATOM      4  C   UNL     1      48.091  19.894  20.664  1.00  0.00     0.004 C 
ENDBRANCH   2   3
BRANCH   2   5
ATOM      5  C   UNL     1      47.003  23.388  21.172  1.00  0.00    -0.014 C 
ATOM      6  C   UNL     1      45.647  22.703  20.944  1.00  0.00     0.007 C 
ATOM      7  C   UNL     1      46.877  24.426  22.301  1.00  0.00     0.007 C 
ENDBRANCH   2   5
ENDBRANCH   1   2
BRANCH   1   8
ATOM      8  C   UNL     1      50.478  23.396  20.598  1.00  0.00     0.004 C 
BRANCH   8   9
ATOM      9  C   UNL     1      50.854  24.902  20.424  1.00  0.00    -0.011 C 
ATOM     10  C   UNL     1      50.593  25.362  18.982  1.00  0.00     0.008 C 
BRANCH   9  11
ATOM     11  C   UNL     1      50.248  25.902  21.470  1.00  0.00    -0.002 C 
ATOM     12  C   UNL     1      49.080  26.761  20.920  1.00  0.00     0.005 C 
ATOM     13  C   UNL     1      51.159  26.896  22.262  1.00  0.00    -0.026 C 
ATOM     14  C   UNL     1      49.114  28.094  21.680  1.00  0.00     0.005 C 
ATOM     15  C   UNL     1      50.088  27.851  22.826  1.00  0.00    -0.001 C 
ATOM     16  C   UNL     1      51.945  26.264  23.458  1.00  0.00     0.007 C 
ATOM     17  C   UNL     1      52.156  27.630  21.319  1.00  0.00     0.012 C 
ATOM     18  C   UNL     1      50.698  29.082  23.539  1.00  0.00     0.004 C 
ATOM     19  C   UNL     1      51.872  27.094  24.769  1.00  0.00     0.005 C 
ATOM     20  C   UNL     1      51.844  28.640  24.542  1.00  0.00     0.003 C 
ATOM     21  C   UNL     1      49.600  29.938  24.187  1.00  0.00     0.085 C 
ATOM     22  C   UNL     1      51.951  29.470  25.895  1.00  0.00    -0.000 C 
ATOM     23  C   UNL     1      50.219  31.103  24.883  1.00  0.00     0.159 C 
ATOM     24  C   UNL     1      51.445  30.903  25.689  1.00  0.00     0.005 C 
ATOM     25  C   UNL     1      53.453  29.496  26.339  1.00  0.00     0.020 C 
ATOM     26  C   UNL     1      51.104  28.834  27.032  1.00  0.00     0.017 C 
ATOM     27  O   UNL     1      49.673  32.238  24.802  1.00  0.00    -0.295 OA
ATOM     28  C   UNL     1      52.005  31.952  26.328  1.00  0.00     0.055 C 
ATOM     29  C   UNL     1      53.715  30.438  27.517  1.00  0.00     0.081 C 
ATOM     30  C   UNL     1      53.160  31.794  27.224  1.00  0.00     0.156 C 
ATOM     31  O   UNL     1      53.659  32.808  27.780  1.00  0.00    -0.295 OA
ENDBRANCH   9  11
ENDBRANCH   8   9
ENDBRANCH   1   8
TORSDOF 6
ENDMDL
MODEL 4
REMARK VINA RESULT:    -6.843      4.307      6.989
REMARK INTER + INTRA:         -10.642
REMARK INTER:                  -8.988
REMARK INTRA:                  -1.654
REMARK UNBOUND:                -1.400
REMARK SMILES CC[C@@H](CC[C@@H](C)[C@@H]1CC[C@@H]2[C@H]3CC(=O)C4=CC(=O)CC[C@]4(C)[C@H]3CC[C@]21C)C(C)C
REMARK SMILES IDX 4 1 3 2 2 3 1 4 29 5 30 6 31 7 5 8 6 9 7 10 8 11 9 12 27 13
REMARK SMILES IDX 10 14 11 15 26 16 28 17 12 18 25 19 24 20 13 21 22 22 14 23
REMARK SMILES IDX 16 24 21 25 23 26 15 27 17 28 20 29 18 30 19 31
REMARK H PARENT
REMARK Flexibility Score: inf
ROOT
ATOM      1  C   UNL     1      46.604  24.778  21.223  1.00  0.00     0.004 C 
ENDROOT
BRANCH   1   2
ATOM      2  C   UNL     1      45.364  23.895  20.890  1.00  0.00    -0.009 C 
BRANCH   2   3
ATOM      3  C   UNL     1      44.116  24.311  21.724  1.00  0.00     0.000 C 
ATOM      4  C   UNL     1      42.895  24.794  20.927  1.00  0.00     0.004 C 
ENDBRANCH   2   3
BRANCH   2   5
ATOM      5  C   UNL     1      45.677  22.359  20.867  1.00  0.00    -0.014 C 
ATOM      6  C   UNL     1      44.448  21.444  20.973  1.00  0.00     0.007 C 
ATOM      7  C   UNL     1      46.515  21.963  19.638  1.00  0.00     0.007 C 
ENDBRANCH   2   5
ENDBRANCH   1   2
BRANCH   1   8
ATOM      8  C   UNL     1      47.554  24.164  22.273  1.00  0.00     0.004 C 
BRANCH   8   9
ATOM      9  C   UNL     1      49.012  23.971  21.747  1.00  0.00    -0.011 C 
ATOM     10  C   UNL     1      49.490  22.533  21.993  1.00  0.00     0.008 C 
BRANCH   9  11
ATOM     11  C   UNL     1      49.293  24.431  20.274  1.00  0.00    -0.002 C 
ATOM     12  C   UNL     1      49.945  23.340  19.385  1.00  0.00     0.005 C 
ATOM     13  C   UNL     1      50.088  25.743  19.973  1.00  0.00    -0.026 C 
ATOM     14  C   UNL     1      50.808  24.071  18.348  1.00  0.00     0.005 C 
ATOM     15  C   UNL     1      50.398  25.533  18.477  1.00  0.00    -0.001 C 
ATOM     16  C   UNL     1      49.267  27.066  20.131  1.00  0.00     0.007 C 
ATOM     17  C   UNL     1      51.384  25.834  20.829  1.00  0.00     0.012 C 
ATOM     18  C   UNL     1      51.349  26.612  17.905  1.00  0.00     0.004 C 
ATOM     19  C   UNL     1      49.438  28.060  18.950  1.00  0.00     0.005 C 
ATOM     20  C   UNL     1      50.871  28.063  18.325  1.00  0.00     0.003 C 
ATOM     21  C   UNL     1      51.533  26.431  16.390  1.00  0.00     0.085 C 
ATOM     22  C   UNL     1      51.075  29.211  17.242  1.00  0.00    -0.000 C 
ATOM     23  C   UNL     1      52.436  27.496  15.865  1.00  0.00     0.159 C 
ATOM     24  C   UNL     1      52.270  28.889  16.335  1.00  0.00     0.005 C 
ATOM     25  C   UNL     1      51.329  30.560  17.997  1.00  0.00     0.020 C 
ATOM     26  C   UNL     1      49.827  29.374  16.331  1.00  0.00     0.017 C 
ATOM     27  O   UNL     1      53.308  27.201  15.002  1.00  0.00    -0.295 OA
ATOM     28  C   UNL     1      53.078  29.859  15.857  1.00  0.00     0.055 C 
ATOM     29  C   UNL     1      51.744  31.701  17.064  1.00  0.00     0.081 C 
ATOM     30  C   UNL     1      52.893  31.274  16.210  1.00  0.00     0.156 C 
ATOM     31  O   UNL     1      53.688  32.138  15.753  1.00  0.00    -0.295 OA
ENDBRANCH   9  11
ENDBRANCH   8   9
ENDBRANCH   1   8
TORSDOF 6
ENDMDL
MODEL 5
REMARK VINA RESULT:    -6.570      2.614      5.802
REMARK INTER + INTRA:         -10.274
REMARK INTER:                  -8.548
REMARK INTRA:                  -1.726
REMARK UNBOUND:                -1.400
REMARK SMILES CC[C@@H](CC[C@@H](C)[C@@H]1CC[C@@H]2[C@H]3CC(=O)C4=CC(=O)CC[C@]4(C)[C@H]3CC[C@]21C)C(C)C
REMARK SMILES IDX 4 1 3 2 2 3 1 4 29 5 30 6 31 7 5 8 6 9 7 10 8 11 9 12 27 13
REMARK SMILES IDX 10 14 11 15 26 16 28 17 12 18 25 19 24 20 13 21 22 22 14 23
REMARK SMILES IDX 16 24 21 25 23 26 15 27 17 28 20 29 18 30 19 31
REMARK H PARENT
REMARK Flexibility Score: inf
ROOT
ATOM      1  C   UNL     1      44.914  23.557  20.686  1.00  0.00     0.004 C 
ENDROOT
BRANCH   1   2
ATOM      2  C   UNL     1      46.186  23.717  21.571  1.00  0.00    -0.009 C 
BRANCH   2   3
ATOM      3  C   UNL     1      46.370  25.184  22.061  1.00  0.00     0.000 C 
ATOM      4  C   UNL     1      45.685  25.548  23.387  1.00  0.00     0.004 C 
ENDBRANCH   2   3
BRANCH   2   5
ATOM      5  C   UNL     1      47.464  23.047  20.956  1.00  0.00    -0.014 C 
ATOM      6  C   UNL     1      48.749  23.221  21.779  1.00  0.00     0.007 C 
ATOM      7  C   UNL     1      47.239  21.555  20.652  1.00  0.00     0.007 C 
ENDBRANCH   2   5
ENDBRANCH   1   2
BRANCH   1   8
ATOM      8  C   UNL     1      43.928  22.479  21.184  1.00  0.00     0.004 C 
BRANCH   8   9
ATOM      9  C   UNL     1      42.497  23.037  21.470  1.00  0.00    -0.011 C 
ATOM     10  C   UNL     1      41.563  21.914  21.943  1.00  0.00     0.008 C 
BRANCH   9  11
ATOM     11  C   UNL     1      42.408  24.296  22.400  1.00  0.00    -0.002 C 
ATOM     12  C   UNL     1      41.662  24.043  23.736  1.00  0.00     0.005 C 
ATOM     13  C   UNL     1      41.858  25.659  21.868  1.00  0.00    -0.026 C 
ATOM     14  C   UNL     1      41.009  25.372  24.139  1.00  0.00     0.005 C 
ATOM     15  C   UNL     1      41.635  26.399  23.203  1.00  0.00    -0.001 C 
ATOM     16  C   UNL     1      42.863  26.486  21.001  1.00  0.00     0.007 C 
ATOM     17  C   UNL     1      40.530  25.469  21.079  1.00  0.00     0.012 C 
ATOM     18  C   UNL     1      40.915  27.757  23.022  1.00  0.00     0.004 C 
ATOM     19  C   UNL     1      42.945  27.988  21.388  1.00  0.00     0.005 C 
ATOM     20  C   UNL     1      41.584  28.598  21.857  1.00  0.00     0.003 C 
ATOM     21  C   UNL     1      40.824  28.510  24.358  1.00  0.00     0.085 C 
ATOM     22  C   UNL     1      41.650  30.172  22.075  1.00  0.00    -0.000 C 
ATOM     23  C   UNL     1      40.145  29.821  24.149  1.00  0.00     0.159 C 
ATOM     24  C   UNL     1      40.493  30.641  22.967  1.00  0.00     0.005 C 
ATOM     25  C   UNL     1      41.555  30.868  20.674  1.00  0.00     0.020 C 
ATOM     26  C   UNL     1      42.975  30.605  22.761  1.00  0.00     0.017 C 
ATOM     27  O   UNL     1      39.307  30.230  24.998  1.00  0.00    -0.295 OA
ATOM     28  C   UNL     1      39.889  31.833  22.777  1.00  0.00     0.055 C 
ATOM     29  C   UNL     1      41.401  32.388  20.768  1.00  0.00     0.081 C 
ATOM     30  C   UNL     1      40.268  32.734  21.679  1.00  0.00     0.156 C 
ATOM     31  O   UNL     1      39.659  33.827  21.532  1.00  0.00    -0.295 OA
ENDBRANCH   9  11
ENDBRANCH   8   9
ENDBRANCH   1   8
TORSDOF 6
ENDMDL
MODEL 6
REMARK VINA RESULT:    -6.484      3.135      5.976
REMARK INTER + INTRA:         -10.158
REMARK INTER:                  -8.704
REMARK INTRA:                  -1.454
REMARK UNBOUND:                -1.400
REMARK SMILES CC[C@@H](CC[C@@H](C)[C@@H]1CC[C@@H]2[C@H]3CC(=O)C4=CC(=O)CC[C@]4(C)[C@H]3CC[C@]21C)C(C)C
REMARK SMILES IDX 4 1 3 2 2 3 1 4 29 5 30 6 31 7 5 8 6 9 7 10 8 11 9 12 27 13
REMARK SMILES IDX 10 14 11 15 26 16 28 17 12 18 25 19 24 20 13 21 22 22 14 23
REMARK SMILES IDX 16 24 21 25 23 26 15 27 17 28 20 29 18 30 19 31
REMARK H PARENT
REMARK Flexibility Score: inf
ROOT
ATOM      1  C   UNL     1      46.151  22.315  19.786  1.00  0.00     0.004 C 
ENDROOT
BRANCH   1   2
ATOM      2  C   UNL     1      47.552  21.657  19.967  1.00  0.00    -0.009 C 
BRANCH   2   3
ATOM      3  C   UNL     1      47.468  20.332  20.782  1.00  0.00     0.000 C 
ATOM      4  C   UNL     1      48.377  19.186  20.311  1.00  0.00     0.004 C 
ENDBRANCH   2   3
BRANCH   2   5
ATOM      5  C   UNL     1      48.661  22.664  20.430  1.00  0.00    -0.014 C 
ATOM      6  C   UNL     1      49.173  22.453  21.863  1.00  0.00     0.007 C 
ATOM      7  C   UNL     1      49.850  22.696  19.453  1.00  0.00     0.007 C 
ENDBRANCH   2   5
ENDBRANCH   1   2
BRANCH   1   8
ATOM      8  C   UNL     1      45.511  22.813  21.100  1.00  0.00     0.004 C 
BRANCH   8   9
ATOM      9  C   UNL     1      45.391  24.368  21.176  1.00  0.00    -0.011 C 
ATOM     10  C   UNL     1      43.917  24.799  21.156  1.00  0.00     0.008 C 
BRANCH   9  11
ATOM     11  C   UNL     1      46.187  25.078  22.326  1.00  0.00    -0.002 C 
ATOM     12  C   UNL     1      45.299  25.568  23.500  1.00  0.00     0.005 C 
ATOM     13  C   UNL     1      47.166  26.259  22.025  1.00  0.00    -0.026 C 
ATOM     14  C   UNL     1      45.987  26.805  24.091  1.00  0.00     0.005 C 
ATOM     15  C   UNL     1      47.370  26.810  23.451  1.00  0.00    -0.001 C 
ATOM     16  C   UNL     1      48.558  25.834  21.449  1.00  0.00     0.007 C 
ATOM     17  C   UNL     1      46.516  27.312  21.080  1.00  0.00     0.012 C 
ATOM     18  C   UNL     1      48.181  28.128  23.472  1.00  0.00     0.004 C 
ATOM     19  C   UNL     1      49.764  26.531  22.137  1.00  0.00     0.005 C 
ATOM     20  C   UNL     1      49.482  28.004  22.575  1.00  0.00     0.003 C 
ATOM     21  C   UNL     1      48.461  28.574  24.916  1.00  0.00     0.085 C 
ATOM     22  C   UNL     1      50.778  28.754  23.111  1.00  0.00    -0.000 C 
ATOM     23  C   UNL     1      49.261  29.833  24.905  1.00  0.00     0.159 C 
ATOM     24  C   UNL     1      50.386  29.973  23.954  1.00  0.00     0.005 C 
ATOM     25  C   UNL     1      51.627  29.213  21.876  1.00  0.00     0.020 C 
ATOM     26  C   UNL     1      51.653  27.830  24.003  1.00  0.00     0.017 C 
ATOM     27  O   UNL     1      48.988  30.749  25.728  1.00  0.00    -0.295 OA
ATOM     28  C   UNL     1      51.119  31.107  23.946  1.00  0.00     0.055 C 
ATOM     29  C   UNL     1      52.796  30.125  22.257  1.00  0.00     0.081 C 
ATOM     30  C   UNL     1      52.308  31.261  23.096  1.00  0.00     0.156 C 
ATOM     31  O   UNL     1      52.946  32.348  23.109  1.00  0.00    -0.295 OA
ENDBRANCH   9  11
ENDBRANCH   8   9
ENDBRANCH   1   8
TORSDOF 6
ENDMDL
MODEL 7
REMARK VINA RESULT:    -6.464      2.322      4.109
REMARK INTER + INTRA:         -10.130
REMARK INTER:                  -8.412
REMARK INTRA:                  -1.718
REMARK UNBOUND:                -1.400
REMARK SMILES CC[C@@H](CC[C@@H](C)[C@@H]1CC[C@@H]2[C@H]3CC(=O)C4=CC(=O)CC[C@]4(C)[C@H]3CC[C@]21C)C(C)C
REMARK SMILES IDX 4 1 3 2 2 3 1 4 29 5 30 6 31 7 5 8 6 9 7 10 8 11 9 12 27 13
REMARK SMILES IDX 10 14 11 15 26 16 28 17 12 18 25 19 24 20 13 21 22 22 14 23
REMARK SMILES IDX 16 24 21 25 23 26 15 27 17 28 20 29 18 30 19 31
REMARK H PARENT
REMARK Flexibility Score: inf
ROOT
ATOM      1  C   UNL     1      50.641  25.995  19.780  1.00  0.00     0.004 C 
ENDROOT
BRANCH   1   2
ATOM      2  C   UNL     1      50.835  25.262  21.141  1.00  0.00    -0.009 C 
BRANCH   2   3
ATOM      3  C   UNL     1      52.121  25.739  21.878  1.00  0.00     0.000 C 
ATOM      4  C   UNL     1      51.913  26.408  23.245  1.00  0.00     0.004 C 
ENDBRANCH   2   3
BRANCH   2   5
ATOM      5  C   UNL     1      50.649  23.708  21.047  1.00  0.00    -0.014 C 
ATOM      6  C   UNL     1      49.477  23.142  21.863  1.00  0.00     0.007 C 
ATOM      7  C   UNL     1      50.543  23.231  19.587  1.00  0.00     0.007 C 
ENDBRANCH   2   5
ENDBRANCH   1   2
BRANCH   1   8
ATOM      8  C   UNL     1      51.120  27.462  19.777  1.00  0.00     0.004 C 
BRANCH   8   9
ATOM      9  C   UNL     1      50.104  28.443  20.441  1.00  0.00    -0.011 C 
ATOM     10  C   UNL     1      50.583  29.896  20.301  1.00  0.00     0.008 C 
BRANCH   9  11
ATOM     11  C   UNL     1      48.600  28.286  20.021  1.00  0.00    -0.002 C 
ATOM     12  C   UNL     1      48.040  29.488  19.216  1.00  0.00     0.005 C 
ATOM     13  C   UNL     1      47.497  27.940  21.074  1.00  0.00    -0.026 C 
ATOM     14  C   UNL     1      46.541  29.575  19.533  1.00  0.00     0.005 C 
ATOM     15  C   UNL     1      46.232  28.269  20.255  1.00  0.00    -0.001 C 
ATOM     16  C   UNL     1      47.439  26.436  21.501  1.00  0.00     0.007 C 
ATOM     17  C   UNL     1      47.619  28.834  22.342  1.00  0.00     0.012 C 
ATOM     18  C   UNL     1      44.936  28.189  21.099  1.00  0.00     0.004 C 
ATOM     19  C   UNL     1      46.006  25.838  21.509  1.00  0.00     0.005 C 
ATOM     20  C   UNL     1      44.897  26.849  21.945  1.00  0.00     0.003 C 
ATOM     21  C   UNL     1      43.697  28.405  20.217  1.00  0.00     0.085 C 
ATOM     22  C   UNL     1      43.469  26.171  22.119  1.00  0.00    -0.000 C 
ATOM     23  C   UNL     1      42.465  28.302  21.052  1.00  0.00     0.159 C 
ATOM     24  C   UNL     1      42.359  27.229  22.066  1.00  0.00     0.005 C 
ATOM     25  C   UNL     1      43.438  25.438  23.504  1.00  0.00     0.020 C 
ATOM     26  C   UNL     1      43.181  25.134  20.998  1.00  0.00     0.017 C 
ATOM     27  O   UNL     1      41.516  29.111  20.861  1.00  0.00    -0.295 OA
ATOM     28  C   UNL     1      41.244  27.125  22.818  1.00  0.00     0.055 C 
ATOM     29  C   UNL     1      42.046  24.920  23.877  1.00  0.00     0.081 C 
ATOM     30  C   UNL     1      41.042  26.020  23.766  1.00  0.00     0.156 C 
ATOM     31  O   UNL     1      39.991  25.980  24.461  1.00  0.00    -0.295 OA
ENDBRANCH   9  11
ENDBRANCH   8   9
ENDBRANCH   1   8
TORSDOF 6
ENDMDL
MODEL 8
REMARK VINA RESULT:    -6.384      1.911      2.449
REMARK INTER + INTRA:         -10.022
REMARK INTER:                  -9.143
REMARK INTRA:                  -0.880
REMARK UNBOUND:                -1.400
REMARK SMILES CC[C@@H](CC[C@@H](C)[C@@H]1CC[C@@H]2[C@H]3CC(=O)C4=CC(=O)CC[C@]4(C)[C@H]3CC[C@]21C)C(C)C
REMARK SMILES IDX 4 1 3 2 2 3 1 4 29 5 30 6 31 7 5 8 6 9 7 10 8 11 9 12 27 13
REMARK SMILES IDX 10 14 11 15 26 16 28 17 12 18 25 19 24 20 13 21 22 22 14 23
REMARK SMILES IDX 16 24 21 25 23 26 15 27 17 28 20 29 18 30 19 31
REMARK H PARENT
REMARK Flexibility Score: inf
ROOT
ATOM      1  C   UNL     1      48.951  22.258  20.098  1.00  0.00     0.004 C 
ENDROOT
BRANCH   1   2
ATOM      2  C   UNL     1      47.772  21.436  20.699  1.00  0.00    -0.009 C 
BRANCH   2   3
ATOM      3  C   UNL     1      47.874  19.925  20.334  1.00  0.00     0.000 C 
ATOM      4  C   UNL     1      47.914  18.943  21.514  1.00  0.00     0.004 C 
ENDBRANCH   2   3
BRANCH   2   5
ATOM      5  C   UNL     1      46.367  22.093  20.464  1.00  0.00    -0.014 C 
ATOM      6  C   UNL     1      45.170  21.145  20.634  1.00  0.00     0.007 C 
ATOM      7  C   UNL     1      46.166  23.345  21.336  1.00  0.00     0.007 C 
ENDBRANCH   2   5
ENDBRANCH   1   2
BRANCH   1   8
ATOM      8  C   UNL     1      49.567  23.286  21.070  1.00  0.00     0.004 C 
BRANCH   8   9
ATOM      9  C   UNL     1      50.557  24.275  20.376  1.00  0.00    -0.011 C 
ATOM     10  C   UNL     1      51.410  23.542  19.330  1.00  0.00     0.008 C 
BRANCH   9  11
ATOM     11  C   UNL     1      49.939  25.596  19.797  1.00  0.00    -0.002 C 
ATOM     12  C   UNL     1      50.889  26.376  18.852  1.00  0.00     0.005 C 
ATOM     13  C   UNL     1      49.308  26.674  20.737  1.00  0.00    -0.026 C 
ATOM     14  C   UNL     1      50.528  27.861  18.988  1.00  0.00     0.005 C 
ATOM     15  C   UNL     1      49.213  27.862  19.758  1.00  0.00    -0.001 C 
ATOM     16  C   UNL     1      47.872  26.340  21.258  1.00  0.00     0.007 C 
ATOM     17  C   UNL     1      50.236  26.989  21.946  1.00  0.00     0.012 C 
ATOM     18  C   UNL     1      48.771  29.174  20.449  1.00  0.00     0.004 C 
ATOM     19  C   UNL     1      46.868  27.519  21.142  1.00  0.00     0.005 C 
ATOM     20  C   UNL     1      47.509  28.925  21.376  1.00  0.00     0.003 C 
ATOM     21  C   UNL     1      48.574  30.296  19.418  1.00  0.00     0.085 C 
ATOM     22  C   UNL     1      46.436  30.098  21.431  1.00  0.00    -0.000 C 
ATOM     23  C   UNL     1      48.129  31.540  20.111  1.00  0.00     0.159 C 
ATOM     24  C   UNL     1      47.107  31.454  21.177  1.00  0.00     0.005 C 
ATOM     25  C   UNL     1      45.772  30.091  22.850  1.00  0.00     0.020 C 
ATOM     26  C   UNL     1      45.327  29.916  20.359  1.00  0.00     0.017 C 
ATOM     27  O   UNL     1      48.606  32.652  19.756  1.00  0.00    -0.295 OA
ATOM     28  C   UNL     1      46.693  32.577  21.801  1.00  0.00     0.055 C 
ATOM     29  C   UNL     1      44.869  31.303  23.096  1.00  0.00     0.081 C 
ATOM     30  C   UNL     1      45.609  32.565  22.794  1.00  0.00     0.156 C 
ATOM     31  O   UNL     1      45.275  33.638  23.364  1.00  0.00    -0.295 OA
ENDBRANCH   9  11
ENDBRANCH   8   9
ENDBRANCH   1   8
TORSDOF 6
ENDMDL
MODEL 9
REMARK VINA RESULT:    -6.324      3.190      4.714
REMARK INTER + INTRA:          -9.942
REMARK INTER:                  -8.668
REMARK INTRA:                  -1.274
REMARK UNBOUND:                -1.400
REMARK SMILES CC[C@@H](CC[C@@H](C)[C@@H]1CC[C@@H]2[C@H]3CC(=O)C4=CC(=O)CC[C@]4(C)[C@H]3CC[C@]21C)C(C)C
REMARK SMILES IDX 4 1 3 2 2 3 1 4 29 5 30 6 31 7 5 8 6 9 7 10 8 11 9 12 27 13
REMARK SMILES IDX 10 14 11 15 26 16 28 17 12 18 25 19 24 20 13 21 22 22 14 23
REMARK SMILES IDX 16 24 21 25 23 26 15 27 17 28 20 29 18 30 19 31
REMARK H PARENT
REMARK Flexibility Score: inf
ROOT
ATOM      1  C   UNL     1      48.359  23.950  21.845  1.00  0.00     0.004 C 
ENDROOT
BRANCH   1   2
ATOM      2  C   UNL     1      49.193  22.841  21.137  1.00  0.00    -0.009 C 
BRANCH   2   3
ATOM      3  C   UNL     1      50.450  23.425  20.427  1.00  0.00     0.000 C 
ATOM      4  C   UNL     1      50.841  22.774  19.093  1.00  0.00     0.004 C 
ENDBRANCH   2   3
BRANCH   2   5
ATOM      5  C   UNL     1      48.325  21.862  20.272  1.00  0.00    -0.014 C 
ATOM      6  C   UNL     1      48.405  20.384  20.686  1.00  0.00     0.007 C 
ATOM      7  C   UNL     1      46.852  22.304  20.210  1.00  0.00     0.007 C 
ENDBRANCH   2   5
ENDBRANCH   1   2
BRANCH   1   8
ATOM      8  C   UNL     1      48.616  25.375  21.310  1.00  0.00     0.004 C 
BRANCH   8   9
ATOM      9  C   UNL     1      48.085  26.495  22.260  1.00  0.00    -0.011 C 
ATOM     10  C   UNL     1      49.071  27.671  22.314  1.00  0.00     0.008 C 
BRANCH   9  11
ATOM     11  C   UNL     1      46.614  26.982  22.016  1.00  0.00    -0.002 C 
ATOM     12  C   UNL     1      46.375  28.472  22.375  1.00  0.00     0.005 C 
ATOM     13  C   UNL     1      45.395  26.209  22.616  1.00  0.00    -0.026 C 
ATOM     14  C   UNL     1      44.910  28.592  22.815  1.00  0.00     0.005 C 
ATOM     15  C   UNL     1      44.285  27.260  22.418  1.00  0.00    -0.001 C 
ATOM     16  C   UNL     1      44.993  24.907  21.847  1.00  0.00     0.007 C 
ATOM     17  C   UNL     1      45.617  25.872  24.120  1.00  0.00     0.012 C 
ATOM     18  C   UNL     1      42.948  26.853  23.083  1.00  0.00     0.004 C 
ATOM     19  C   UNL     1      43.469  24.778  21.578  1.00  0.00     0.005 C 
ATOM     20  C   UNL     1      42.571  25.357  22.719  1.00  0.00     0.003 C 
ATOM     21  C   UNL     1      41.843  27.870  22.758  1.00  0.00     0.085 C 
ATOM     22  C   UNL     1      41.024  25.054  22.507  1.00  0.00    -0.000 C 
ATOM     23  C   UNL     1      40.564  27.440  23.394  1.00  0.00     0.159 C 
ATOM     24  C   UNL     1      40.168  26.015  23.343  1.00  0.00     0.005 C 
ATOM     25  C   UNL     1      40.747  23.577  22.948  1.00  0.00     0.020 C 
ATOM     26  C   UNL     1      40.600  25.221  21.022  1.00  0.00     0.017 C 
ATOM     27  O   UNL     1      39.821  28.302  23.939  1.00  0.00    -0.295 OA
ATOM     28  C   UNL     1      39.008  25.622  23.908  1.00  0.00     0.055 C 
ATOM     29  C   UNL     1      39.256  23.231  22.985  1.00  0.00     0.081 C 
ATOM     30  C   UNL     1      38.514  24.241  23.799  1.00  0.00     0.156 C 
ATOM     31  O   UNL     1      37.435  23.919  24.364  1.00  0.00    -0.295 OA
ENDBRANCH   9  11
ENDBRANCH   8   9
ENDBRANCH   1   8
TORSDOF 6
ENDMDL
