MODEL 1
REMARK VINA RESULT:    -3.236      0.000      0.000
REMARK INTER + INTRA:          -3.649
REMARK INTER:                  -3.614
REMARK INTRA:                  -0.035
REMARK UNBOUND:                -0.035
REMARK SMILES CCCC(=O)[O-]
REMARK SMILES IDX 3 1 4 2 5 3 6 4 2 5 1 6
REMARK H PARENT
REMARK Flexibility Score: inf
ROOT
ATOM      1  C   UNL     1      -8.936  -4.859  -2.999  1.00  0.00     0.052 C 
ENDROOT
BRANCH   1   2
ATOM      2  C   UNL     1      -7.803  -4.043  -3.542  1.00  0.00     0.041 C 
ATOM      3  O   UNL     1      -7.832  -3.631  -4.731  1.00  0.00    -0.550 OA
ATOM      4  O   UNL     1      -6.730  -3.711  -2.724  1.00  0.00    -0.550 OA
ENDBRANCH   1   2
BRANCH   1   5
ATOM      5  C   UNL     1      -8.791  -6.344  -3.357  1.00  0.00     0.003 C 
ATOM      6  C   UNL     1      -9.555  -6.713  -4.628  1.00  0.00     0.004 C 
ENDBRANCH   1   5
TORSDOF 2
ENDMDL
MODEL 2
REMARK VINA RESULT:    -3.165      1.746      2.420
REMARK INTER + INTRA:          -3.569
REMARK INTER:                  -3.507
REMARK INTRA:                  -0.062
REMARK UNBOUND:                -0.035
REMARK SMILES CCCC(=O)[O-]
REMARK SMILES IDX 3 1 4 2 5 3 6 4 2 5 1 6
REMARK H PARENT
REMARK Flexibility Score: inf
ROOT
ATOM      1  C   UNL     1      -8.918  -3.181  -3.069  1.00  0.00     0.052 C 
ENDROOT
BRANCH   1   2
ATOM      2  C   UNL     1      -8.151  -2.869  -1.820  1.00  0.00     0.041 C 
ATOM      3  O   UNL     1      -8.758  -2.687  -0.733  1.00  0.00    -0.550 OA
ATOM      4  O   UNL     1      -6.763  -2.812  -1.852  1.00  0.00    -0.550 OA
ENDBRANCH   1   2
BRANCH   1   5
ATOM      5  C   UNL     1      -8.295  -4.350  -3.842  1.00  0.00     0.003 C 
ATOM      6  C   UNL     1      -8.573  -5.699  -3.182  1.00  0.00     0.004 C 
ENDBRANCH   1   5
TORSDOF 2
ENDMDL
MODEL 3
REMARK VINA RESULT:    -3.072      1.806      3.155
REMARK INTER + INTRA:          -3.466
REMARK INTER:                  -3.408
REMARK INTRA:                  -0.058
REMARK UNBOUND:                -0.035
REMARK SMILES CCCC(=O)[O-]
REMARK SMILES IDX 3 1 4 2 5 3 6 4 2 5 1 6
REMARK H PARENT
REMARK Flexibility Score: inf
ROOT
ATOM      1  C   UNL     1      -8.969  -3.977  -2.555  1.00  0.00     0.052 C 
ENDROOT
BRANCH   1   2
ATOM      2  C   UNL     1      -7.757  -3.870  -3.429  1.00  0.00     0.041 C 
ATOM      3  O   UNL     1      -6.605  -3.953  -2.929  1.00  0.00    -0.550 OA
ATOM      4  O   UNL     1      -7.901  -3.711  -4.802  1.00  0.00    -0.550 OA
ENDBRANCH   1   2
BRANCH   1   5
ATOM      5  C   UNL     1      -9.088  -2.783  -1.599  1.00  0.00     0.003 C 
ATOM      6  C   UNL     1      -9.614  -1.529  -2.296  1.00  0.00     0.004 C 
ENDBRANCH   1   5
TORSDOF 2
ENDMDL
MODEL 4
REMARK VINA RESULT:    -3.060      1.700      2.164
REMARK INTER + INTRA:          -3.452
REMARK INTER:                  -3.446
REMARK INTRA:                  -0.006
REMARK UNBOUND:                -0.035
REMARK SMILES CCCC(=O)[O-]
REMARK SMILES IDX 3 1 4 2 5 3 6 4 2 5 1 6
REMARK H PARENT
REMARK Flexibility Score: inf
ROOT
ATOM      1  C   UNL     1      -8.765  -3.874  -2.868  1.00  0.00     0.052 C 
ENDROOT
BRANCH   1   2
ATOM      2  C   UNL     1      -8.097  -3.048  -1.812  1.00  0.00     0.041 C 
ATOM      3  O   UNL     1      -6.888  -2.721  -1.934  1.00  0.00    -0.550 OA
ATOM      4  O   UNL     1      -8.821  -2.610  -0.710  1.00  0.00    -0.550 OA
ENDBRANCH   1   2
BRANCH   1   5
ATOM      5  C   UNL     1      -8.041  -5.208  -3.090  1.00  0.00     0.003 C 
ATOM      6  C   UNL     1      -9.006  -6.348  -3.410  1.00  0.00     0.004 C 
ENDBRANCH   1   5
TORSDOF 2
ENDMDL
MODEL 5
REMARK VINA RESULT:    -2.875      1.842      3.036
REMARK INTER + INTRA:          -3.245
REMARK INTER:                  -3.213
REMARK INTRA:                  -0.033
REMARK UNBOUND:                -0.035
REMARK SMILES CCCC(=O)[O-]
REMARK SMILES IDX 3 1 4 2 5 3 6 4 2 5 1 6
REMARK H PARENT
REMARK Flexibility Score: inf
ROOT
ATOM      1  C   UNL     1      -8.521  -5.163  -3.237  1.00  0.00     0.052 C 
ENDROOT
BRANCH   1   2
ATOM      2  C   UNL     1      -8.986  -5.038  -4.656  1.00  0.00     0.041 C 
ATOM      3  O   UNL     1      -9.317  -3.915  -5.118  1.00  0.00    -0.550 OA
ATOM      4  O   UNL     1      -9.022  -6.158  -5.477  1.00  0.00    -0.550 OA
ENDBRANCH   1   2
BRANCH   1   5
ATOM      5  C   UNL     1      -7.500  -4.076  -2.876  1.00  0.00     0.003 C 
ATOM      6  C   UNL     1      -8.083  -3.018  -1.941  1.00  0.00     0.004 C 
ENDBRANCH   1   5
TORSDOF 2
ENDMDL
MODEL 6
REMARK VINA RESULT:    -2.739      8.478      9.115
REMARK INTER + INTRA:          -3.094
REMARK INTER:                  -3.071
REMARK INTRA:                  -0.022
REMARK UNBOUND:                -0.035
REMARK SMILES CCCC(=O)[O-]
REMARK SMILES IDX 3 1 4 2 5 3 6 4 2 5 1 6
REMARK H PARENT
REMARK Flexibility Score: inf
ROOT
ATOM      1  C   UNL     1      -9.924  -9.024   5.159  1.00  0.00     0.052 C 
ENDROOT
BRANCH   1   2
ATOM      2  C   UNL     1      -9.047  -7.809   5.165  1.00  0.00     0.041 C 
ATOM      3  O   UNL     1      -7.869  -7.876   4.727  1.00  0.00    -0.550 OA
ATOM      4  O   UNL     1      -9.543  -6.595   5.625  1.00  0.00    -0.550 OA
ENDBRANCH   1   2
BRANCH   1   5
ATOM      5  C   UNL     1      -9.587  -9.962   3.993  1.00  0.00     0.003 C 
ATOM      6  C   UNL     1     -10.122  -9.447   2.658  1.00  0.00     0.004 C 
ENDBRANCH   1   5
TORSDOF 2
ENDMDL
MODEL 7
REMARK VINA RESULT:    -2.590     19.008     19.869
REMARK INTER + INTRA:          -2.927
REMARK INTER:                  -2.866
REMARK INTRA:                  -0.062
REMARK UNBOUND:                -0.035
REMARK SMILES CCCC(=O)[O-]
REMARK SMILES IDX 3 1 4 2 5 3 6 4 2 5 1 6
REMARK H PARENT
REMARK Flexibility Score: inf
ROOT
ATOM      1  C   UNL     1       1.516   8.919   8.246  1.00  0.00     0.052 C 
ENDROOT
BRANCH   1   2
ATOM      2  C   UNL     1       2.261   8.341   7.082  1.00  0.00     0.041 C 
ATOM      3  O   UNL     1       3.352   7.740   7.264  1.00  0.00    -0.550 OA
ATOM      4  O   UNL     1       1.733   8.436   5.801  1.00  0.00    -0.550 OA
ENDBRANCH   1   2
BRANCH   1   5
ATOM      5  C   UNL     1       0.018   8.594   8.181  1.00  0.00     0.003 C 
ATOM      6  C   UNL     1      -0.278   7.141   8.549  1.00  0.00     0.004 C 
ENDBRANCH   1   5
TORSDOF 2
ENDMDL
MODEL 8
REMARK VINA RESULT:    -2.559     14.217     15.196
REMARK INTER + INTRA:          -2.893
REMARK INTER:                  -2.857
REMARK INTRA:                  -0.037
REMARK UNBOUND:                -0.035
REMARK SMILES CCCC(=O)[O-]
REMARK SMILES IDX 3 1 4 2 5 3 6 4 2 5 1 6
REMARK H PARENT
REMARK Flexibility Score: inf
ROOT
ATOM      1  C   UNL     1      -3.772   2.107   9.407  1.00  0.00     0.052 C 
ENDROOT
BRANCH   1   2
ATOM      2  C   UNL     1      -2.363   1.894   8.944  1.00  0.00     0.041 C 
ATOM      3  O   UNL     1      -1.406   2.433   9.559  1.00  0.00    -0.550 OA
ATOM      4  O   UNL     1      -2.106   1.073   7.853  1.00  0.00    -0.550 OA
ENDBRANCH   1   2
BRANCH   1   5
ATOM      5  C   UNL     1      -4.416   0.801   9.891  1.00  0.00     0.003 C 
ATOM      6  C   UNL     1      -5.575   0.359   9.000  1.00  0.00     0.004 C 
ENDBRANCH   1   5
TORSDOF 2
ENDMDL
MODEL 9
REMARK VINA RESULT:    -2.426     20.683     21.380
REMARK INTER + INTRA:          -2.745
REMARK INTER:                  -2.719
REMARK INTRA:                  -0.025
REMARK UNBOUND:                -0.035
REMARK SMILES CCCC(=O)[O-]
REMARK SMILES IDX 3 1 4 2 5 3 6 4 2 5 1 6
REMARK H PARENT
REMARK Flexibility Score: inf
ROOT
ATOM      1  C   UNL     1       3.326   7.850   7.822  1.00  0.00     0.052 C 
ENDROOT
BRANCH   1   2
ATOM      2  C   UNL     1       4.449   8.765   8.205  1.00  0.00     0.041 C 
ATOM      3  O   UNL     1       4.378   9.996   7.951  1.00  0.00    -0.550 OA
ATOM      4  O   UNL     1       5.559   8.263   8.872  1.00  0.00    -0.550 OA
ENDBRANCH   1   2
BRANCH   1   5
ATOM      5  C   UNL     1       2.210   8.598   7.082  1.00  0.00     0.003 C 
ATOM      6  C   UNL     1       0.827   8.294   7.655  1.00  0.00     0.004 C 
ENDBRANCH   1   5
TORSDOF 2
ENDMDL
