MODEL 1
REMARK VINA RESULT:    -2.747      0.000      0.000
REMARK INTER + INTRA:          -3.259
REMARK INTER:                  -3.229
REMARK INTRA:                  -0.030
REMARK UNBOUND:                -0.030
REMARK SMILES O=C([O-])CCC(=O)[O-]
REMARK SMILES IDX 4 1 2 2 1 3 3 4 5 5 6 6 7 7 8 8
REMARK H PARENT
REMARK Flexibility Score: inf
ROOT
ATOM      1  C   UNL     1     -37.106 -24.712  33.379  1.00  0.00     0.059 C 
ENDROOT
BRANCH   1   2
ATOM      2  C   UNL     1     -37.180 -26.207  33.317  1.00  0.00     0.042 C 
ATOM      3  O   UNL     1     -38.293 -26.790  33.394  1.00  0.00    -0.550 OA
ATOM      4  O   UNL     1     -36.015 -26.956  33.217  1.00  0.00    -0.550 OA
ENDBRANCH   1   2
BRANCH   1   5
ATOM      5  C   UNL     1     -35.817 -24.237  34.056  1.00  0.00     0.059 C 
BRANCH   5   6
ATOM      6  C   UNL     1     -36.030 -22.963  34.814  1.00  0.00     0.042 C 
ATOM      7  O   UNL     1     -36.430 -21.929  34.217  1.00  0.00    -0.550 OA
ATOM      8  O   UNL     1     -35.748 -22.906  36.174  1.00  0.00    -0.550 OA
ENDBRANCH   5   6
ENDBRANCH   1   5
TORSDOF 3
ENDMDL
MODEL 2
REMARK VINA RESULT:    -2.738      0.165      4.224
REMARK INTER + INTRA:          -3.248
REMARK INTER:                  -3.216
REMARK INTRA:                  -0.032
REMARK UNBOUND:                -0.030
REMARK SMILES O=C([O-])CCC(=O)[O-]
REMARK SMILES IDX 4 1 2 2 1 3 3 4 5 5 6 6 7 7 8 8
REMARK H PARENT
REMARK Flexibility Score: inf
ROOT
ATOM      1  C   UNL     1     -35.809 -24.225  33.980  1.00  0.00     0.059 C 
ENDROOT
BRANCH   1   2
ATOM      2  C   UNL     1     -36.036 -22.976  34.776  1.00  0.00     0.042 C 
ATOM      3  O   UNL     1     -36.476 -21.938  34.214  1.00  0.00    -0.550 OA
ATOM      4  O   UNL     1     -35.723 -22.947  36.128  1.00  0.00    -0.550 OA
ENDBRANCH   1   2
BRANCH   1   5
ATOM      5  C   UNL     1     -37.126 -24.813  33.464  1.00  0.00     0.059 C 
BRANCH   5   6
ATOM      6  C   UNL     1     -37.029 -26.295  33.271  1.00  0.00     0.042 C 
ATOM      7  O   UNL     1     -35.906 -26.841  33.105  1.00  0.00    -0.550 OA
ATOM      8  O   UNL     1     -38.182 -27.070  33.236  1.00  0.00    -0.550 OA
ENDBRANCH   5   6
ENDBRANCH   1   5
TORSDOF 3
ENDMDL
MODEL 3
REMARK VINA RESULT:    -2.596      7.795      8.642
REMARK INTER + INTRA:          -3.081
REMARK INTER:                  -2.962
REMARK INTRA:                  -0.119
REMARK UNBOUND:                -0.030
REMARK SMILES O=C([O-])CCC(=O)[O-]
REMARK SMILES IDX 4 1 2 2 1 3 3 4 5 5 6 6 7 7 8 8
REMARK H PARENT
REMARK Flexibility Score: inf
ROOT
ATOM      1  C   UNL     1     -39.514 -20.431  28.719  1.00  0.00     0.059 C 
ENDROOT
BRANCH   1   2
ATOM      2  C   UNL     1     -38.590 -21.550  28.347  1.00  0.00     0.042 C 
ATOM      3  O   UNL     1     -37.407 -21.305  27.994  1.00  0.00    -0.550 OA
ATOM      4  O   UNL     1     -39.050 -22.861  28.351  1.00  0.00    -0.550 OA
ENDBRANCH   1   2
BRANCH   1   5
ATOM      5  C   UNL     1     -40.410 -20.024  27.544  1.00  0.00     0.059 C 
BRANCH   5   6
ATOM      6  C   UNL     1     -39.791 -18.928  26.734  1.00  0.00     0.042 C 
ATOM      7  O   UNL     1     -40.123 -17.729  26.930  1.00  0.00    -0.550 OA
ATOM      8  O   UNL     1     -38.874 -19.233  25.735  1.00  0.00    -0.550 OA
ENDBRANCH   5   6
ENDBRANCH   1   5
TORSDOF 3
ENDMDL
MODEL 4
REMARK VINA RESULT:    -2.583      7.595      8.661
REMARK INTER + INTRA:          -3.066
REMARK INTER:                  -2.953
REMARK INTRA:                  -0.113
REMARK UNBOUND:                -0.030
REMARK SMILES O=C([O-])CCC(=O)[O-]
REMARK SMILES IDX 4 1 2 2 1 3 3 4 5 5 6 6 7 7 8 8
REMARK H PARENT
REMARK Flexibility Score: inf
ROOT
ATOM      1  C   UNL     1     -40.534 -20.656  27.911  1.00  0.00     0.059 C 
ENDROOT
BRANCH   1   2
ATOM      2  C   UNL     1     -40.499 -19.435  27.043  1.00  0.00     0.042 C 
ATOM      3  O   UNL     1     -41.417 -19.225  26.208  1.00  0.00    -0.550 OA
ATOM      4  O   UNL     1     -39.431 -18.552  27.129  1.00  0.00    -0.550 OA
ENDBRANCH   1   2
BRANCH   1   5
ATOM      5  C   UNL     1     -39.346 -20.696  28.877  1.00  0.00     0.059 C 
BRANCH   5   6
ATOM      6  C   UNL     1     -38.268 -21.612  28.387  1.00  0.00     0.042 C 
ATOM      7  O   UNL     1     -37.250 -21.144  27.811  1.00  0.00    -0.550 OA
ATOM      8  O   UNL     1     -38.405 -22.988  28.530  1.00  0.00    -0.550 OA
ENDBRANCH   5   6
ENDBRANCH   1   5
TORSDOF 3
ENDMDL
MODEL 5
REMARK VINA RESULT:    -2.568     11.328     12.254
REMARK INTER + INTRA:          -3.048
REMARK INTER:                  -2.932
REMARK INTRA:                  -0.116
REMARK UNBOUND:                -0.030
REMARK SMILES O=C([O-])CCC(=O)[O-]
REMARK SMILES IDX 4 1 2 2 1 3 3 4 5 5 6 6 7 7 8 8
REMARK H PARENT
REMARK Flexibility Score: inf
ROOT
ATOM      1  C   UNL     1     -45.415 -21.502  27.136  1.00  0.00     0.059 C 
ENDROOT
BRANCH   1   2
ATOM      2  C   UNL     1     -45.044 -22.370  28.299  1.00  0.00     0.042 C 
ATOM      3  O   UNL     1     -43.871 -22.351  28.755  1.00  0.00    -0.550 OA
ATOM      4  O   UNL     1     -45.985 -23.229  28.852  1.00  0.00    -0.550 OA
ENDBRANCH   1   2
BRANCH   1   5
ATOM      5  C   UNL     1     -46.933 -21.441  26.937  1.00  0.00     0.059 C 
BRANCH   5   6
ATOM      6  C   UNL     1     -47.533 -20.262  27.638  1.00  0.00     0.042 C 
ATOM      7  O   UNL     1     -48.328 -20.432  28.599  1.00  0.00    -0.550 OA
ATOM      8  O   UNL     1     -47.245 -18.973  27.203  1.00  0.00    -0.550 OA
ENDBRANCH   5   6
ENDBRANCH   1   5
TORSDOF 3
ENDMDL
MODEL 6
REMARK VINA RESULT:    -2.556     12.130     13.243
REMARK INTER + INTRA:          -3.033
REMARK INTER:                  -2.912
REMARK INTRA:                  -0.121
REMARK UNBOUND:                -0.030
REMARK SMILES O=C([O-])CCC(=O)[O-]
REMARK SMILES IDX 4 1 2 2 1 3 3 4 5 5 6 6 7 7 8 8
REMARK H PARENT
REMARK Flexibility Score: inf
ROOT
ATOM      1  C   UNL     1     -47.674 -19.998  27.713  1.00  0.00     0.059 C 
ENDROOT
BRANCH   1   2
ATOM      2  C   UNL     1     -47.068 -19.015  26.759  1.00  0.00     0.042 C 
ATOM      3  O   UNL     1     -46.666 -19.395  25.628  1.00  0.00    -0.550 OA
ATOM      4  O   UNL     1     -46.911 -17.688  27.135  1.00  0.00    -0.550 OA
ENDBRANCH   1   2
BRANCH   1   5
ATOM      5  C   UNL     1     -47.349 -21.443  27.318  1.00  0.00     0.059 C 
BRANCH   5   6
ATOM      6  C   UNL     1     -46.189 -21.979  28.099  1.00  0.00     0.042 C 
ATOM      7  O   UNL     1     -46.385 -22.663  29.137  1.00  0.00    -0.550 OA
ATOM      8  O   UNL     1     -44.889 -21.689  27.701  1.00  0.00    -0.550 OA
ENDBRANCH   5   6
ENDBRANCH   1   5
TORSDOF 3
ENDMDL
MODEL 7
REMARK VINA RESULT:    -2.544     12.079     12.881
REMARK INTER + INTRA:          -3.020
REMARK INTER:                  -2.896
REMARK INTRA:                  -0.123
REMARK UNBOUND:                -0.030
REMARK SMILES O=C([O-])CCC(=O)[O-]
REMARK SMILES IDX 4 1 2 2 1 3 3 4 5 5 6 6 7 7 8 8
REMARK H PARENT
REMARK Flexibility Score: inf
ROOT
ATOM      1  C   UNL     1     -47.302 -21.473  27.290  1.00  0.00     0.059 C 
ENDROOT
BRANCH   1   2
ATOM      2  C   UNL     1     -46.160 -21.998  28.105  1.00  0.00     0.042 C 
ATOM      3  O   UNL     1     -46.381 -22.662  29.151  1.00  0.00    -0.550 OA
ATOM      4  O   UNL     1     -44.852 -21.719  27.730  1.00  0.00    -0.550 OA
ENDBRANCH   1   2
BRANCH   1   5
ATOM      5  C   UNL     1     -47.658 -20.034  27.680  1.00  0.00     0.059 C 
BRANCH   5   6
ATOM      6  C   UNL     1     -46.980 -19.039  26.789  1.00  0.00     0.042 C 
ATOM      7  O   UNL     1     -46.936 -17.824  27.113  1.00  0.00    -0.550 OA
ATOM      8  O   UNL     1     -46.431 -19.449  25.579  1.00  0.00    -0.550 OA
ENDBRANCH   5   6
ENDBRANCH   1   5
TORSDOF 3
ENDMDL
MODEL 8
REMARK VINA RESULT:    -2.503      7.421      8.442
REMARK INTER + INTRA:          -2.972
REMARK INTER:                  -2.857
REMARK INTRA:                  -0.115
REMARK UNBOUND:                -0.030
REMARK SMILES O=C([O-])CCC(=O)[O-]
REMARK SMILES IDX 4 1 2 2 1 3 3 4 5 5 6 6 7 7 8 8
REMARK H PARENT
REMARK Flexibility Score: inf
ROOT
ATOM      1  C   UNL     1     -39.497 -19.896  27.923  1.00  0.00     0.059 C 
ENDROOT
BRANCH   1   2
ATOM      2  C   UNL     1     -38.389 -20.665  27.272  1.00  0.00     0.042 C 
ATOM      3  O   UNL     1     -38.301 -20.710  26.017  1.00  0.00    -0.550 OA
ATOM      4  O   UNL     1     -37.479 -21.367  28.051  1.00  0.00    -0.550 OA
ENDBRANCH   1   2
BRANCH   1   5
ATOM      5  C   UNL     1     -40.126 -20.680  29.079  1.00  0.00     0.059 C 
BRANCH   5   6
ATOM      6  C   UNL     1     -41.216 -21.588  28.599  1.00  0.00     0.042 C 
ATOM      7  O   UNL     1     -41.558 -22.587  29.284  1.00  0.00    -0.550 OA
ATOM      8  O   UNL     1     -41.829 -21.352  27.373  1.00  0.00    -0.550 OA
ENDBRANCH   5   6
ENDBRANCH   1   5
TORSDOF 3
ENDMDL
MODEL 9
REMARK VINA RESULT:    -2.490      7.905      8.660
REMARK INTER + INTRA:          -2.956
REMARK INTER:                  -2.864
REMARK INTRA:                  -0.092
REMARK UNBOUND:                -0.030
REMARK SMILES O=C([O-])CCC(=O)[O-]
REMARK SMILES IDX 4 1 2 2 1 3 3 4 5 5 6 6 7 7 8 8
REMARK H PARENT
REMARK Flexibility Score: inf
ROOT
ATOM      1  C   UNL     1     -40.069 -20.359  28.882  1.00  0.00     0.059 C 
ENDROOT
BRANCH   1   2
ATOM      2  C   UNL     1     -40.670 -21.707  28.629  1.00  0.00     0.042 C 
ATOM      3  O   UNL     1     -40.206 -22.448  27.724  1.00  0.00    -0.550 OA
ATOM      4  O   UNL     1     -41.770 -22.127  29.366  1.00  0.00    -0.550 OA
ENDBRANCH   1   2
BRANCH   1   5
ATOM      5  C   UNL     1     -38.930 -20.056  27.903  1.00  0.00     0.059 C 
BRANCH   5   6
ATOM      6  C   UNL     1     -39.384 -19.161  26.791  1.00  0.00     0.042 C 
ATOM      7  O   UNL     1     -39.973 -18.078  27.048  1.00  0.00    -0.550 OA
ATOM      8  O   UNL     1     -39.191 -19.542  25.468  1.00  0.00    -0.550 OA
ENDBRANCH   5   6
ENDBRANCH   1   5
TORSDOF 3
ENDMDL
