MODEL 1
REMARK VINA RESULT:    -3.522      0.000      0.000
REMARK INTER + INTRA:          -4.531
REMARK INTER:                  -4.242
REMARK INTRA:                  -0.289
REMARK UNBOUND:                -0.289
REMARK SMILES NC(=O)C[C@H]([NH3+])C(=O)[O-]
REMARK SMILES IDX 4 1 5 2 6 3 7 7 8 8 9 9 2 10 3 11 1 12
REMARK H PARENT 6 4 6 5 6 6 1 13 1 14
REMARK Flexibility Score: inf
ROOT
ATOM      1  C   UNL     1     118.539 130.222 144.360  1.00  0.00     0.171 C 
ENDROOT
BRANCH   1   2
ATOM      2  C   UNL     1     117.522 130.647 143.281  1.00  0.00     0.237 C 
BRANCH   2   3
ATOM      3  N   UNL     1     118.162 131.520 142.288  1.00  0.00    -0.350 N 
ATOM      4  H   UNL     1     119.021 131.067 141.897  1.00  0.00     0.345 HD
ATOM      5  H   UNL     1     118.423 132.430 142.731  1.00  0.00     0.345 HD
ATOM      6  H   UNL     1     117.493 131.716 141.507  1.00  0.00     0.345 HD
ENDBRANCH   2   3
BRANCH   2   7
ATOM      7  C   UNL     1     116.335 131.342 143.898  1.00  0.00     0.100 C 
ATOM      8  O   UNL     1     116.442 131.925 145.010  1.00  0.00    -0.544 OA
ATOM      9  O   UNL     1     115.108 131.327 143.248  1.00  0.00    -0.544 OA
ENDBRANCH   2   7
ENDBRANCH   1   2
BRANCH   1  10
ATOM     10  C   UNL     1     119.837 129.774 143.751  1.00  0.00     0.223 C 
ATOM     11  O   UNL     1     120.785 130.596 143.625  1.00  0.00    -0.275 OA
ATOM     12  N   UNL     1     119.993 128.438 143.275  1.00  0.00    -0.369 N 
ATOM     13  H   UNL     1     120.892 128.135 142.838  1.00  0.00     0.159 HD
ATOM     14  H   UNL     1     119.211 127.749 143.352  1.00  0.00     0.159 HD
ENDBRANCH   1  10
TORSDOF 4
ENDMDL
MODEL 2
REMARK VINA RESULT:    -3.324      1.843      1.930
REMARK INTER + INTRA:          -4.292
REMARK INTER:                  -4.050
REMARK INTRA:                  -0.242
REMARK UNBOUND:                -0.289
REMARK SMILES NC(=O)C[C@H]([NH3+])C(=O)[O-]
REMARK SMILES IDX 4 1 5 2 6 3 7 7 8 8 9 9 2 10 3 11 1 12
REMARK H PARENT 6 4 6 5 6 6 1 13 1 14
REMARK Flexibility Score: inf
ROOT
ATOM      1  C   UNL     1     118.952 130.264 143.262  1.00  0.00     0.171 C 
ENDROOT
BRANCH   1   2
ATOM      2  C   UNL     1     117.853 130.910 144.130  1.00  0.00     0.237 C 
BRANCH   2   3
ATOM      3  N   UNL     1     117.339 129.945 145.110  1.00  0.00    -0.350 N 
ATOM      4  H   UNL     1     118.104 129.315 145.445  1.00  0.00     0.345 HD
ATOM      5  H   UNL     1     116.582 129.368 144.676  1.00  0.00     0.345 HD
ATOM      6  H   UNL     1     116.932 130.455 145.929  1.00  0.00     0.345 HD
ENDBRANCH   2   3
BRANCH   2   7
ATOM      7  C   UNL     1     116.727 131.437 143.277  1.00  0.00     0.100 C 
ATOM      8  O   UNL     1     116.971 132.125 142.250  1.00  0.00    -0.544 OA
ATOM      9  O   UNL     1     115.409 131.178 143.631  1.00  0.00    -0.544 OA
ENDBRANCH   2   7
ENDBRANCH   1   2
BRANCH   1  10
ATOM     10  C   UNL     1     120.207 130.019 144.051  1.00  0.00     0.223 C 
ATOM     11  O   UNL     1     120.158 129.328 145.104  1.00  0.00    -0.275 OA
ATOM     12  N   UNL     1     121.446 130.595 143.641  1.00  0.00    -0.369 N 
ATOM     13  H   UNL     1     122.313 130.435 144.201  1.00  0.00     0.159 HD
ATOM     14  H   UNL     1     121.501 131.187 142.782  1.00  0.00     0.159 HD
ENDBRANCH   1  10
TORSDOF 4
ENDMDL
MODEL 3
REMARK VINA RESULT:    -3.164     18.388     19.364
REMARK INTER + INTRA:          -4.100
REMARK INTER:                  -3.837
REMARK INTRA:                  -0.263
REMARK UNBOUND:                -0.289
REMARK SMILES NC(=O)C[C@H]([NH3+])C(=O)[O-]
REMARK SMILES IDX 4 1 5 2 6 3 7 7 8 8 9 9 2 10 3 11 1 12
REMARK H PARENT 6 4 6 5 6 6 1 13 1 14
REMARK Flexibility Score: inf
ROOT
ATOM      1  C   UNL     1     125.441 112.086 142.633  1.00  0.00     0.171 C 
ENDROOT
BRANCH   1   2
ATOM      2  C   UNL     1     124.995 113.178 143.627  1.00  0.00     0.237 C 
BRANCH   2   3
ATOM      3  N   UNL     1     125.667 113.000 144.921  1.00  0.00    -0.350 N 
ATOM      4  H   UNL     1     126.706 113.031 144.805  1.00  0.00     0.345 HD
ATOM      5  H   UNL     1     125.394 112.081 145.339  1.00  0.00     0.345 HD
ATOM      6  H   UNL     1     125.372 113.758 145.579  1.00  0.00     0.345 HD
ENDBRANCH   2   3
BRANCH   2   7
ATOM      7  C   UNL     1     123.499 113.166 143.810  1.00  0.00     0.100 C 
ATOM      8  O   UNL     1     122.752 112.641 142.941  1.00  0.00    -0.544 OA
ATOM      9  O   UNL     1     122.933 113.753 144.934  1.00  0.00    -0.544 OA
ENDBRANCH   2   7
ENDBRANCH   1   2
BRANCH   1  10
ATOM     10  C   UNL     1     126.876 112.263 142.224  1.00  0.00     0.223 C 
ATOM     11  O   UNL     1     127.797 111.876 142.993  1.00  0.00    -0.275 OA
ATOM     12  N   UNL     1     127.205 112.901 140.991  1.00  0.00    -0.369 N 
ATOM     13  H   UNL     1     128.204 113.036 140.718  1.00  0.00     0.159 HD
ATOM     14  H   UNL     1     126.455 113.246 140.351  1.00  0.00     0.159 HD
ENDBRANCH   1  10
TORSDOF 4
ENDMDL
MODEL 4
REMARK VINA RESULT:    -3.151      1.673      4.066
REMARK INTER + INTRA:          -4.084
REMARK INTER:                  -3.815
REMARK INTRA:                  -0.270
REMARK UNBOUND:                -0.289
REMARK SMILES NC(=O)C[C@H]([NH3+])C(=O)[O-]
REMARK SMILES IDX 4 1 5 2 6 3 7 7 8 8 9 9 2 10 3 11 1 12
REMARK H PARENT 6 4 6 5 6 6 1 13 1 14
REMARK Flexibility Score: inf
ROOT
ATOM      1  C   UNL     1     118.213 131.288 142.743  1.00  0.00     0.171 C 
ENDROOT
BRANCH   1   2
ATOM      2  C   UNL     1     118.575 130.128 143.692  1.00  0.00     0.237 C 
BRANCH   2   3
ATOM      3  N   UNL     1     117.883 130.281 144.978  1.00  0.00    -0.350 N 
ATOM      4  H   UNL     1     118.146 129.509 145.634  1.00  0.00     0.345 HD
ATOM      5  H   UNL     1     116.848 130.268 144.828  1.00  0.00     0.345 HD
ATOM      6  H   UNL     1     118.140 131.199 145.410  1.00  0.00     0.345 HD
ENDBRANCH   2   3
BRANCH   2   7
ATOM      7  C   UNL     1     120.065 130.048 143.908  1.00  0.00     0.100 C 
ATOM      8  O   UNL     1     120.532 129.565 144.974  1.00  0.00    -0.544 OA
ATOM      9  O   UNL     1     120.933 130.526 142.935  1.00  0.00    -0.544 OA
ENDBRANCH   2   7
ENDBRANCH   1   2
BRANCH   1  10
ATOM     10  C   UNL     1     116.739 131.333 142.463  1.00  0.00     0.223 C 
ATOM     11  O   UNL     1     115.970 131.940 143.256  1.00  0.00    -0.275 OA
ATOM     12  N   UNL     1     116.195 130.662 141.327  1.00  0.00    -0.369 N 
ATOM     13  H   UNL     1     115.167 130.683 141.144  1.00  0.00     0.159 HD
ATOM     14  H   UNL     1     116.815 130.138 140.669  1.00  0.00     0.159 HD
ENDBRANCH   1  10
TORSDOF 4
ENDMDL
MODEL 5
REMARK VINA RESULT:    -3.035     21.524     21.920
REMARK INTER + INTRA:          -3.945
REMARK INTER:                  -3.684
REMARK INTRA:                  -0.260
REMARK UNBOUND:                -0.289
REMARK SMILES NC(=O)C[C@H]([NH3+])C(=O)[O-]
REMARK SMILES IDX 4 1 5 2 6 3 7 7 8 8 9 9 2 10 3 11 1 12
REMARK H PARENT 6 4 6 5 6 6 1 13 1 14
REMARK Flexibility Score: inf
ROOT
ATOM      1  C   UNL     1     130.403 113.367 140.232  1.00  0.00     0.171 C 
ENDROOT
BRANCH   1   2
ATOM      2  C   UNL     1     131.022 113.434 138.821  1.00  0.00     0.237 C 
BRANCH   2   3
ATOM      3  N   UNL     1     131.797 114.670 138.658  1.00  0.00    -0.350 N 
ATOM      4  H   UNL     1     131.283 115.351 138.052  1.00  0.00     0.345 HD
ATOM      5  H   UNL     1     132.724 114.454 138.223  1.00  0.00     0.345 HD
ATOM      6  H   UNL     1     131.968 115.106 139.594  1.00  0.00     0.345 HD
ENDBRANCH   2   3
BRANCH   2   7
ATOM      7  C   UNL     1     129.958 113.340 137.757  1.00  0.00     0.100 C 
ATOM      8  O   UNL     1     130.236 113.582 136.552  1.00  0.00    -0.544 OA
ATOM      9  O   UNL     1     128.657 113.003 138.105  1.00  0.00    -0.544 OA
ENDBRANCH   2   7
ENDBRANCH   1   2
BRANCH   1  10
ATOM     10  C   UNL     1     131.459 113.365 141.300  1.00  0.00     0.223 C 
ATOM     11  O   UNL     1     132.061 114.435 141.586  1.00  0.00    -0.275 OA
ATOM     12  N   UNL     1     131.816 112.154 141.965  1.00  0.00    -0.369 N 
ATOM     13  H   UNL     1     132.561 112.154 142.697  1.00  0.00     0.159 HD
ATOM     14  H   UNL     1     131.341 111.254 141.727  1.00  0.00     0.159 HD
ENDBRANCH   1  10
TORSDOF 4
ENDMDL
MODEL 6
REMARK VINA RESULT:    -3.011      1.981      3.984
REMARK INTER + INTRA:          -3.915
REMARK INTER:                  -3.524
REMARK INTRA:                  -0.391
REMARK UNBOUND:                -0.289
REMARK SMILES NC(=O)C[C@H]([NH3+])C(=O)[O-]
REMARK SMILES IDX 4 1 5 2 6 3 7 7 8 8 9 9 2 10 3 11 1 12
REMARK H PARENT 6 4 6 5 6 6 1 13 1 14
REMARK Flexibility Score: inf
ROOT
ATOM      1  C   UNL     1     116.249 131.988 143.809  1.00  0.00     0.171 C 
ENDROOT
BRANCH   1   2
ATOM      2  C   UNL     1     117.350 131.485 142.853  1.00  0.00     0.237 C 
BRANCH   2   3
ATOM      3  N   UNL     1     116.762 130.700 141.761  1.00  0.00    -0.350 N 
ATOM      4  H   UNL     1     116.859 131.204 140.849  1.00  0.00     0.345 HD
ATOM      5  H   UNL     1     115.748 130.529 141.953  1.00  0.00     0.345 HD
ATOM      6  H   UNL     1     117.242 129.773 141.693  1.00  0.00     0.345 HD
ENDBRANCH   2   3
BRANCH   2   7
ATOM      7  C   UNL     1     118.376 130.664 143.592  1.00  0.00     0.100 C 
ATOM      8  O   UNL     1     119.577 130.648 143.211  1.00  0.00    -0.544 OA
ATOM      9  O   UNL     1     117.996 129.903 144.690  1.00  0.00    -0.544 OA
ENDBRANCH   2   7
ENDBRANCH   1   2
BRANCH   1  10
ATOM     10  C   UNL     1     115.106 131.018 143.896  1.00  0.00     0.223 C 
ATOM     11  O   UNL     1     114.228 131.004 142.992  1.00  0.00    -0.275 OA
ATOM     12  N   UNL     1     114.984 130.139 145.014  1.00  0.00    -0.369 N 
ATOM     13  H   UNL     1     114.179 129.476 145.078  1.00  0.00     0.159 HD
ATOM     14  H   UNL     1     115.692 130.151 145.783  1.00  0.00     0.159 HD
ENDBRANCH   1  10
TORSDOF 4
ENDMDL
MODEL 7
REMARK VINA RESULT:    -2.991     21.304     21.854
REMARK INTER + INTRA:          -3.891
REMARK INTER:                  -3.758
REMARK INTRA:                  -0.133
REMARK UNBOUND:                -0.289
REMARK SMILES NC(=O)C[C@H]([NH3+])C(=O)[O-]
REMARK SMILES IDX 4 1 5 2 6 3 7 7 8 8 9 9 2 10 3 11 1 12
REMARK H PARENT 6 4 6 5 6 6 1 13 1 14
REMARK Flexibility Score: inf
ROOT
ATOM      1  C   UNL     1     129.934 113.371 139.622  1.00  0.00     0.171 C 
ENDROOT
BRANCH   1   2
ATOM      2  C   UNL     1     131.432 113.318 139.986  1.00  0.00     0.237 C 
BRANCH   2   3
ATOM      3  N   UNL     1     131.685 112.253 140.965  1.00  0.00    -0.350 N 
ATOM      4  H   UNL     1     130.867 111.603 141.023  1.00  0.00     0.345 HD
ATOM      5  H   UNL     1     131.860 112.672 141.907  1.00  0.00     0.345 HD
ATOM      6  H   UNL     1     132.535 111.711 140.685  1.00  0.00     0.345 HD
ENDBRANCH   2   3
BRANCH   2   7
ATOM      7  C   UNL     1     131.907 114.644 140.523  1.00  0.00     0.100 C 
ATOM      8  O   UNL     1     132.125 115.609 139.744  1.00  0.00    -0.544 OA
ATOM      9  O   UNL     1     132.125 114.802 141.886  1.00  0.00    -0.544 OA
ENDBRANCH   2   7
ENDBRANCH   1   2
BRANCH   1  10
ATOM     10  C   UNL     1     129.725 113.351 138.135  1.00  0.00     0.223 C 
ATOM     11  O   UNL     1     130.665 113.692 137.367  1.00  0.00    -0.275 OA
ATOM     12  N   UNL     1     128.460 112.987 137.584  1.00  0.00    -0.369 N 
ATOM     13  H   UNL     1     128.315 112.988 136.550  1.00  0.00     0.159 HD
ATOM     14  H   UNL     1     127.664 112.720 138.207  1.00  0.00     0.159 HD
ENDBRANCH   1  10
TORSDOF 4
ENDMDL
MODEL 8
REMARK VINA RESULT:    -1.521      1.862      1.940
REMARK INTER + INTRA:          -2.121
REMARK INTER:                  -1.881
REMARK INTRA:                  -0.240
REMARK UNBOUND:                -0.289
REMARK SMILES NC(=O)C[C@H]([NH3+])C(=O)[O-]
REMARK SMILES IDX 4 1 5 2 6 3 7 7 8 8 9 9 2 10 3 11 1 12
REMARK H PARENT 6 4 6 5 6 6 1 13 1 14
REMARK Flexibility Score: inf
ROOT
ATOM      1  C   UNL     1     118.985 130.287 143.281  1.00  0.00     0.171 C 
ENDROOT
BRANCH   1   2
ATOM      2  C   UNL     1     117.877 130.886 144.171  1.00  0.00     0.237 C 
BRANCH   2   3
ATOM      3  N   UNL     1     117.380 129.880 145.118  1.00  0.00    -0.350 N 
ATOM      4  H   UNL     1     116.385 129.634 144.908  1.00  0.00     0.345 HD
ATOM      5  H   UNL     1     117.444 130.251 146.095  1.00  0.00     0.345 HD
ATOM      6  H   UNL     1     117.967 129.016 145.058  1.00  0.00     0.345 HD
ENDBRANCH   2   3
BRANCH   2   7
ATOM      7  C   UNL     1     116.741 131.422 143.336  1.00  0.00     0.100 C 
ATOM      8  O   UNL     1     115.548 131.285 143.716  1.00  0.00    -0.544 OA
ATOM      9  O   UNL     1     117.007 132.057 142.130  1.00  0.00    -0.544 OA
ENDBRANCH   2   7
ENDBRANCH   1   2
BRANCH   1  10
ATOM     10  C   UNL     1     120.252 130.059 144.054  1.00  0.00     0.223 C 
ATOM     11  O   UNL     1     120.221 129.396 145.125  1.00  0.00    -0.275 OA
ATOM     12  N   UNL     1     121.486 130.622 143.607  1.00  0.00    -0.369 N 
ATOM     13  H   UNL     1     122.362 130.474 144.156  1.00  0.00     0.159 HD
ATOM     14  H   UNL     1     121.527 131.191 142.732  1.00  0.00     0.159 HD
ENDBRANCH   1  10
TORSDOF 4
ENDMDL
MODEL 9
REMARK VINA RESULT:    -1.219     17.933     19.619
REMARK INTER + INTRA:          -1.757
REMARK INTER:                  -1.636
REMARK INTRA:                  -0.121
REMARK UNBOUND:                -0.289
REMARK SMILES NC(=O)C[C@H]([NH3+])C(=O)[O-]
REMARK SMILES IDX 4 1 5 2 6 3 7 7 8 8 9 9 2 10 3 11 1 12
REMARK H PARENT 6 4 6 5 6 6 1 13 1 14
REMARK Flexibility Score: inf
ROOT
ATOM      1  C   UNL     1     124.612 112.839 143.072  1.00  0.00     0.171 C 
ENDROOT
BRANCH   1   2
ATOM      2  C   UNL     1     125.625 112.430 144.161  1.00  0.00     0.237 C 
BRANCH   2   3
ATOM      3  N   UNL     1     125.813 113.523 145.124  1.00  0.00    -0.350 N 
ATOM      4  H   UNL     1     126.055 113.145 146.069  1.00  0.00     0.345 HD
ATOM      5  H   UNL     1     124.935 114.089 145.194  1.00  0.00     0.345 HD
ATOM      6  H   UNL     1     126.583 114.153 144.799  1.00  0.00     0.345 HD
ENDBRANCH   2   3
BRANCH   2   7
ATOM      7  C   UNL     1     126.948 112.039 143.552  1.00  0.00     0.100 C 
ATOM      8  O   UNL     1     127.963 111.875 144.280  1.00  0.00    -0.544 OA
ATOM      9  O   UNL     1     127.057 111.875 142.177  1.00  0.00    -0.544 OA
ENDBRANCH   2   7
ENDBRANCH   1   2
BRANCH   1  10
ATOM     10  C   UNL     1     123.392 113.482 143.665  1.00  0.00     0.223 C 
ATOM     11  O   UNL     1     123.117 113.299 144.881  1.00  0.00    -0.275 OA
ATOM     12  N   UNL     1     122.517 114.266 142.854  1.00  0.00    -0.369 N 
ATOM     13  H   UNL     1     121.662 114.699 143.267  1.00  0.00     0.159 HD
ATOM     14  H   UNL     1     122.719 114.412 141.839  1.00  0.00     0.159 HD
ENDBRANCH   1  10
TORSDOF 4
ENDMDL
