MODEL 1
REMARK VINA RESULT:    -7.082      0.000      0.000
REMARK INTER + INTRA:         -10.320
REMARK INTER:                  -9.566
REMARK INTRA:                  -0.754
REMARK UNBOUND:                -0.754
REMARK SMILES O=c1c(-c2ccc(O)cc2)coc2c([C@@H]3O[C@@H](CO)[C@@H](O)[C@@H](O)[C@@H]3O)c(O)ccc12
REMARK SMILES IDX 3 1 11 2 12 3 13 4 30 5 2 6 1 7 29 8 28 9 26 10 14 11 4 12
REMARK SMILES IDX 5 13 6 14 7 15 10 16 9 17 8 18 15 20 24 21 16 22 22 23 17 24
REMARK SMILES IDX 20 25 25 26 23 28 18 30 19 31 21 33 27 35
REMARK H PARENT 8 19 25 27 23 29 19 32 21 34 27 36
REMARK Flexibility Score: inf
ROOT
ATOM      1  C   UNL     1      12.655   7.822  48.332  1.00  0.00     0.065 A 
ATOM      2  C   UNL     1      13.486   8.317  47.318  1.00  0.00     0.208 A 
ATOM      3  O   UNL     1      14.525   7.616  46.885  1.00  0.00    -0.463 OA
ATOM      4  C   UNL     1      14.849   6.418  47.365  1.00  0.00     0.147 A 
ATOM      5  C   UNL     1      14.057   5.837  48.384  1.00  0.00     0.066 A 
ATOM      6  C   UNL     1      12.946   6.553  48.866  1.00  0.00     0.200 A 
ATOM      7  O   UNL     1      12.201   6.053  49.754  1.00  0.00    -0.288 OA
ATOM      8  C   UNL     1      14.385   4.566  48.880  1.00  0.00     0.020 A 
ATOM      9  C   UNL     1      15.479   3.874  48.365  1.00  0.00     0.047 A 
ATOM     10  C   UNL     1      16.268   4.437  47.355  1.00  0.00     0.125 A 
ATOM     11  C   UNL     1      15.978   5.726  46.856  1.00  0.00     0.069 A 
ENDROOT
BRANCH   1  12
ATOM     12  C   UNL     1      11.503   8.630  48.806  1.00  0.00    -0.011 A 
ATOM     13  C   UNL     1      10.193   8.286  48.429  1.00  0.00     0.013 A 
ATOM     14  C   UNL     1       9.107   9.050  48.868  1.00  0.00     0.047 A 
ATOM     15  C   UNL     1       9.315  10.168  49.682  1.00  0.00     0.115 A 
ATOM     16  C   UNL     1      11.706   9.760  49.619  1.00  0.00     0.013 A 
ATOM     17  C   UNL     1      10.618  10.522  50.055  1.00  0.00     0.047 A 
BRANCH  15  18
ATOM     18  O   UNL     1       8.224  10.919  50.111  1.00  0.00    -0.508 OA
ATOM     19  H   UNL     1       8.066  11.109  51.094  1.00  0.00     0.293 HD
ENDBRANCH  15  18
ENDBRANCH   1  12
BRANCH  11  20
ATOM     20  C   UNL     1      16.835   6.308  45.737  1.00  0.00     0.188 C 
ATOM     21  C   UNL     1      17.984   7.163  46.325  1.00  0.00     0.179 C 
ATOM     22  O   UNL     1      17.325   5.272  44.896  1.00  0.00    -0.362 OA
ATOM     23  C   UNL     1      18.848   7.760  45.195  1.00  0.00     0.177 C 
ATOM     24  C   UNL     1      18.030   5.768  43.764  1.00  0.00     0.176 C 
ATOM     25  C   UNL     1      19.231   6.666  44.173  1.00  0.00     0.177 C 
BRANCH  21  26
ATOM     26  O   UNL     1      18.774   6.436  47.237  1.00  0.00    -0.387 OA
ATOM     27  H   UNL     1      18.171   5.907  47.819  1.00  0.00     0.211 HD
ENDBRANCH  21  26
BRANCH  23  28
ATOM     28  O   UNL     1      18.147   8.800  44.561  1.00  0.00    -0.387 OA
ATOM     29  H   UNL     1      17.909   8.478  43.653  1.00  0.00     0.211 HD
ENDBRANCH  23  28
BRANCH  24  30
ATOM     30  C   UNL     1      17.083   6.379  42.704  1.00  0.00     0.191 C 
BRANCH  30  31
ATOM     31  O   UNL     1      15.987   5.533  42.476  1.00  0.00    -0.394 OA
ATOM     32  H   UNL     1      15.430   5.972  41.782  1.00  0.00     0.210 HD
ENDBRANCH  30  31
ENDBRANCH  24  30
BRANCH  25  33
ATOM     33  O   UNL     1      19.904   7.194  43.056  1.00  0.00    -0.388 OA
ATOM     34  H   UNL     1      19.393   6.959  42.240  1.00  0.00     0.211 HD
ENDBRANCH  25  33
ENDBRANCH  11  20
BRANCH  10  35
ATOM     35  O   UNL     1      17.343   3.708  46.842  1.00  0.00    -0.507 OA
ATOM     36  H   UNL     1      17.331   3.328  45.904  1.00  0.00     0.293 HD
ENDBRANCH  10  35
TORSDOF 9
ENDMDL
MODEL 2
REMARK VINA RESULT:    -6.807      2.921      9.715
REMARK INTER + INTRA:          -9.949
REMARK INTER:                  -9.028
REMARK INTRA:                  -0.921
REMARK UNBOUND:                -0.754
REMARK SMILES O=c1c(-c2ccc(O)cc2)coc2c([C@@H]3O[C@@H](CO)[C@@H](O)[C@@H](O)[C@@H]3O)c(O)ccc12
REMARK SMILES IDX 3 1 11 2 12 3 13 4 30 5 2 6 1 7 29 8 28 9 26 10 14 11 4 12
REMARK SMILES IDX 5 13 6 14 7 15 10 16 9 17 8 18 15 20 24 21 16 22 22 23 17 24
REMARK SMILES IDX 20 25 25 26 23 28 18 30 19 31 21 33 27 35
REMARK H PARENT 8 19 25 27 23 29 19 32 21 34 27 36
REMARK Flexibility Score: inf
ROOT
ATOM      1  C   UNL     1      13.227   6.827  48.929  1.00  0.00     0.065 A 
ATOM      2  C   UNL     1      11.881   6.529  49.181  1.00  0.00     0.208 A 
ATOM      3  O   UNL     1      11.054   7.454  49.652  1.00  0.00    -0.463 OA
ATOM      4  C   UNL     1      11.429   8.703  49.913  1.00  0.00     0.147 A 
ATOM      5  C   UNL     1      12.768   9.094  49.677  1.00  0.00     0.066 A 
ATOM      6  C   UNL     1      13.672   8.139  49.176  1.00  0.00     0.200 A 
ATOM      7  O   UNL     1      14.867   8.460  48.927  1.00  0.00    -0.288 OA
ATOM      8  C   UNL     1      13.162  10.416  49.934  1.00  0.00     0.020 A 
ATOM      9  C   UNL     1      12.238  11.343  50.409  1.00  0.00     0.047 A 
ATOM     10  C   UNL     1      10.909  10.970  50.643  1.00  0.00     0.125 A 
ATOM     11  C   UNL     1      10.491   9.639  50.420  1.00  0.00     0.069 A 
ENDROOT
BRANCH   1  12
ATOM     12  C   UNL     1      14.134   5.773  48.410  1.00  0.00    -0.011 A 
ATOM     13  C   UNL     1      14.673   5.875  47.115  1.00  0.00     0.013 A 
ATOM     14  C   UNL     1      15.521   4.880  46.621  1.00  0.00     0.047 A 
ATOM     15  C   UNL     1      15.837   3.769  47.409  1.00  0.00     0.115 A 
ATOM     16  C   UNL     1      14.451   4.649  49.195  1.00  0.00     0.013 A 
ATOM     17  C   UNL     1      15.298   3.655  48.697  1.00  0.00     0.047 A 
BRANCH  15  18
ATOM     18  O   UNL     1      16.684   2.785  46.903  1.00  0.00    -0.508 OA
ATOM     19  H   UNL     1      17.642   2.698  47.220  1.00  0.00     0.293 HD
ENDBRANCH  15  18
ENDBRANCH   1  12
BRANCH  11  20
ATOM     20  C   UNL     1       9.033   9.262  50.656  1.00  0.00     0.188 C 
ATOM     21  C   UNL     1       8.815   8.841  52.130  1.00  0.00     0.179 C 
ATOM     22  O   UNL     1       8.175  10.331  50.280  1.00  0.00    -0.362 OA
ATOM     23  C   UNL     1       7.342   8.450  52.370  1.00  0.00     0.177 C 
ATOM     24  C   UNL     1       6.796   9.988  50.365  1.00  0.00     0.176 C 
ATOM     25  C   UNL     1       6.397   9.529  51.795  1.00  0.00     0.177 C 
BRANCH  21  26
ATOM     26  O   UNL     1       9.229   9.839  53.034  1.00  0.00    -0.387 OA
ATOM     27  H   UNL     1       9.672   9.399  53.802  1.00  0.00     0.211 HD
ENDBRANCH  21  26
BRANCH  23  28
ATOM     28  O   UNL     1       7.080   7.202  51.779  1.00  0.00    -0.387 OA
ATOM     29  H   UNL     1       7.552   6.519  52.323  1.00  0.00     0.211 HD
ENDBRANCH  23  28
BRANCH  24  30
ATOM     30  C   UNL     1       6.356   9.042  49.223  1.00  0.00     0.191 C 
BRANCH  30  31
ATOM     31  O   UNL     1       5.012   9.264  48.889  1.00  0.00    -0.394 OA
ATOM     32  H   UNL     1       4.524   8.427  49.101  1.00  0.00     0.210 HD
ENDBRANCH  30  31
ENDBRANCH  24  30
BRANCH  25  33
ATOM     33  O   UNL     1       5.044   9.147  51.872  1.00  0.00    -0.388 OA
ATOM     34  H   UNL     1       4.997   8.157  51.863  1.00  0.00     0.211 HD
ENDBRANCH  25  33
ENDBRANCH  11  20
BRANCH  10  35
ATOM     35  O   UNL     1      10.000  11.928  51.096  1.00  0.00    -0.507 OA
ATOM     36  H   UNL     1      10.102  12.375  51.999  1.00  0.00     0.293 HD
ENDBRANCH  10  35
TORSDOF 9
ENDMDL
MODEL 3
REMARK VINA RESULT:    -6.652      2.962      5.692
REMARK INTER + INTRA:          -9.739
REMARK INTER:                  -9.410
REMARK INTRA:                  -0.329
REMARK UNBOUND:                -0.754
REMARK SMILES O=c1c(-c2ccc(O)cc2)coc2c([C@@H]3O[C@@H](CO)[C@@H](O)[C@@H](O)[C@@H]3O)c(O)ccc12
REMARK SMILES IDX 3 1 11 2 12 3 13 4 30 5 2 6 1 7 29 8 28 9 26 10 14 11 4 12
REMARK SMILES IDX 5 13 6 14 7 15 10 16 9 17 8 18 15 20 24 21 16 22 22 23 17 24
REMARK SMILES IDX 20 25 25 26 23 28 18 30 19 31 21 33 27 35
REMARK H PARENT 8 19 25 27 23 29 19 32 21 34 27 36
REMARK Flexibility Score: inf
ROOT
ATOM      1  C   UNL     1       7.963   9.443  50.193  1.00  0.00     0.065 A 
ATOM      2  C   UNL     1       8.798   9.397  49.069  1.00  0.00     0.208 A 
ATOM      3  O   UNL     1       9.999   8.838  49.134  1.00  0.00    -0.463 OA
ATOM      4  C   UNL     1      10.491   8.290  50.241  1.00  0.00     0.147 A 
ATOM      5  C   UNL     1       9.710   8.282  51.422  1.00  0.00     0.066 A 
ATOM      6  C   UNL     1       8.429   8.865  51.388  1.00  0.00     0.200 A 
ATOM      7  O   UNL     1       7.695   8.851  52.415  1.00  0.00    -0.288 OA
ATOM      8  C   UNL     1      10.218   7.689  52.587  1.00  0.00     0.020 A 
ATOM      9  C   UNL     1      11.480   7.100  52.581  1.00  0.00     0.047 A 
ATOM     10  C   UNL     1      12.261   7.098  51.419  1.00  0.00     0.125 A 
ATOM     11  C   UNL     1      11.786   7.713  50.239  1.00  0.00     0.069 A 
ENDROOT
BRANCH   1  12
ATOM     12  C   UNL     1       6.626  10.082  50.098  1.00  0.00    -0.011 A 
ATOM     13  C   UNL     1       6.414  11.365  50.631  1.00  0.00     0.013 A 
ATOM     14  C   UNL     1       5.154  11.965  50.550  1.00  0.00     0.047 A 
ATOM     15  C   UNL     1       4.090  11.291  49.942  1.00  0.00     0.115 A 
ATOM     16  C   UNL     1       5.550   9.406  49.494  1.00  0.00     0.013 A 
ATOM     17  C   UNL     1       4.291  10.010  49.416  1.00  0.00     0.047 A 
BRANCH  15  18
ATOM     18  O   UNL     1       2.841  11.902  49.869  1.00  0.00    -0.508 OA
ATOM     19  H   UNL     1       1.985  11.373  49.989  1.00  0.00     0.293 HD
ENDBRANCH  15  18
ENDBRANCH   1  12
BRANCH  11  20
ATOM     20  C   UNL     1      12.642   7.675  48.978  1.00  0.00     0.188 C 
ATOM     21  C   UNL     1      12.896   9.110  48.453  1.00  0.00     0.179 C 
ATOM     22  O   UNL     1      13.858   6.979  49.222  1.00  0.00    -0.362 OA
ATOM     23  C   UNL     1      13.755   9.074  47.172  1.00  0.00     0.177 C 
ATOM     24  C   UNL     1      14.641   6.808  48.046  1.00  0.00     0.176 C 
ATOM     25  C   UNL     1      14.989   8.165  47.375  1.00  0.00     0.177 C 
BRANCH  21  26
ATOM     26  O   UNL     1      13.480   9.937  49.433  1.00  0.00    -0.387 OA
ATOM     27  H   UNL     1      12.777  10.531  49.797  1.00  0.00     0.211 HD
ENDBRANCH  21  26
BRANCH  23  28
ATOM     28  O   UNL     1      12.979   8.615  46.094  1.00  0.00    -0.387 OA
ATOM     29  H   UNL     1      12.893   7.631  46.196  1.00  0.00     0.211 HD
ENDBRANCH  23  28
BRANCH  24  30
ATOM     30  C   UNL     1      14.050   5.737  47.099  1.00  0.00     0.191 C 
BRANCH  30  31
ATOM     31  O   UNL     1      15.025   5.284  46.198  1.00  0.00    -0.394 OA
ATOM     32  H   UNL     1      14.545   5.017  45.371  1.00  0.00     0.210 HD
ENDBRANCH  30  31
ENDBRANCH  24  30
BRANCH  25  33
ATOM     33  O   UNL     1      15.726   7.997  46.187  1.00  0.00    -0.388 OA
ATOM     34  H   UNL     1      16.246   8.824  46.020  1.00  0.00     0.211 HD
ENDBRANCH  25  33
ENDBRANCH  11  20
BRANCH  10  35
ATOM     35  O   UNL     1      13.512   6.478  51.438  1.00  0.00    -0.507 OA
ATOM     36  H   UNL     1      13.692   5.659  52.005  1.00  0.00     0.293 HD
ENDBRANCH  10  35
TORSDOF 9
ENDMDL
MODEL 4
REMARK VINA RESULT:    -6.581      1.569      2.003
REMARK INTER + INTRA:          -9.643
REMARK INTER:                  -8.594
REMARK INTRA:                  -1.049
REMARK UNBOUND:                -0.754
REMARK SMILES O=c1c(-c2ccc(O)cc2)coc2c([C@@H]3O[C@@H](CO)[C@@H](O)[C@@H](O)[C@@H]3O)c(O)ccc12
REMARK SMILES IDX 3 1 11 2 12 3 13 4 30 5 2 6 1 7 29 8 28 9 26 10 14 11 4 12
REMARK SMILES IDX 5 13 6 14 7 15 10 16 9 17 8 18 15 20 24 21 16 22 22 23 17 24
REMARK SMILES IDX 20 25 25 26 23 28 18 30 19 31 21 33 27 35
REMARK H PARENT 8 19 25 27 23 29 19 32 21 34 27 36
REMARK Flexibility Score: inf
ROOT
ATOM      1  C   UNL     1      14.118   7.208  48.127  1.00  0.00     0.065 A 
ATOM      2  C   UNL     1      14.846   8.040  47.266  1.00  0.00     0.208 A 
ATOM      3  O   UNL     1      15.922   7.592  46.632  1.00  0.00    -0.463 OA
ATOM      4  C   UNL     1      16.381   6.350  46.761  1.00  0.00     0.147 A 
ATOM      5  C   UNL     1      15.700   5.438  47.603  1.00  0.00     0.066 A 
ATOM      6  C   UNL     1      14.553   5.880  48.289  1.00  0.00     0.200 A 
ATOM      7  O   UNL     1      13.906   5.086  49.026  1.00  0.00    -0.288 OA
ATOM      8  C   UNL     1      16.170   4.122  47.727  1.00  0.00     0.020 A 
ATOM      9  C   UNL     1      17.296   3.710  47.017  1.00  0.00     0.047 A 
ATOM     10  C   UNL     1      17.976   4.601  46.178  1.00  0.00     0.125 A 
ATOM     11  C   UNL     1      17.541   5.940  46.056  1.00  0.00     0.069 A 
ENDROOT
BRANCH   1  12
ATOM     12  C   UNL     1      12.923   7.735  48.831  1.00  0.00    -0.011 A 
ATOM     13  C   UNL     1      11.670   7.745  48.193  1.00  0.00     0.013 A 
ATOM     14  C   UNL     1      10.544   8.249  48.851  1.00  0.00     0.047 A 
ATOM     15  C   UNL     1      10.655   8.754  50.150  1.00  0.00     0.115 A 
ATOM     16  C   UNL     1      13.028   8.251  50.136  1.00  0.00     0.013 A 
ATOM     17  C   UNL     1      11.900   8.755  50.790  1.00  0.00     0.047 A 
BRANCH  15  18
ATOM     18  O   UNL     1       9.524   9.252  50.793  1.00  0.00    -0.508 OA
ATOM     19  H   UNL     1       9.476   9.318  51.803  1.00  0.00     0.293 HD
ENDBRANCH  15  18
ENDBRANCH   1  12
BRANCH  11  20
ATOM     20  C   UNL     1      18.281   6.885  45.116  1.00  0.00     0.188 C 
ATOM     21  C   UNL     1      19.536   7.467  45.812  1.00  0.00     0.179 C 
ATOM     22  O   UNL     1      18.610   6.223  43.902  1.00  0.00    -0.362 OA
ATOM     23  C   UNL     1      20.281   8.431  44.867  1.00  0.00     0.177 C 
ATOM     24  C   UNL     1      19.194   7.094  42.940  1.00  0.00     0.176 C 
ATOM     25  C   UNL     1      20.480   7.780  43.479  1.00  0.00     0.177 C 
BRANCH  21  26
ATOM     26  O   UNL     1      20.395   6.458  46.288  1.00  0.00    -0.387 OA
ATOM     27  H   UNL     1      21.324   6.799  46.255  1.00  0.00     0.211 HD
ENDBRANCH  21  26
BRANCH  23  28
ATOM     28  O   UNL     1      19.560   9.632  44.747  1.00  0.00    -0.387 OA
ATOM     29  H   UNL     1      19.993  10.159  44.025  1.00  0.00     0.211 HD
ENDBRANCH  23  28
BRANCH  24  30
ATOM     30  C   UNL     1      18.155   8.049  42.306  1.00  0.00     0.191 C 
BRANCH  30  31
ATOM     31  O   UNL     1      18.625   8.546  41.082  1.00  0.00    -0.394 OA
ATOM     32  H   UNL     1      19.529   8.919  41.255  1.00  0.00     0.210 HD
ENDBRANCH  30  31
ENDBRANCH  24  30
BRANCH  25  33
ATOM     33  O   UNL     1      21.035   8.676  42.546  1.00  0.00    -0.388 OA
ATOM     34  H   UNL     1      20.386   9.408  42.388  1.00  0.00     0.211 HD
ENDBRANCH  25  33
ENDBRANCH  11  20
BRANCH  10  35
ATOM     35  O   UNL     1      19.086   4.152  45.461  1.00  0.00    -0.507 OA
ATOM     36  H   UNL     1      19.989   4.023  45.901  1.00  0.00     0.293 HD
ENDBRANCH  10  35
TORSDOF 9
ENDMDL
MODEL 5
REMARK VINA RESULT:    -6.480      2.296      7.862
REMARK INTER + INTRA:          -9.507
REMARK INTER:                  -9.322
REMARK INTRA:                  -0.185
REMARK UNBOUND:                -0.754
REMARK SMILES O=c1c(-c2ccc(O)cc2)coc2c([C@@H]3O[C@@H](CO)[C@@H](O)[C@@H](O)[C@@H]3O)c(O)ccc12
REMARK SMILES IDX 3 1 11 2 12 3 13 4 30 5 2 6 1 7 29 8 28 9 26 10 14 11 4 12
REMARK SMILES IDX 5 13 6 14 7 15 10 16 9 17 8 18 15 20 24 21 16 22 22 23 17 24
REMARK SMILES IDX 20 25 25 26 23 28 18 30 19 31 21 33 27 35
REMARK H PARENT 8 19 25 27 23 29 19 32 21 34 27 36
REMARK Flexibility Score: inf
ROOT
ATOM      1  C   UNL     1      17.450   8.234  45.016  1.00  0.00     0.065 A 
ATOM      2  C   UNL     1      16.370   8.782  45.720  1.00  0.00     0.208 A 
ATOM      3  O   UNL     1      15.719   8.071  46.632  1.00  0.00    -0.463 OA
ATOM      4  C   UNL     1      16.035   6.817  46.942  1.00  0.00     0.147 A 
ATOM      5  C   UNL     1      17.121   6.189  46.287  1.00  0.00     0.066 A 
ATOM      6  C   UNL     1      17.835   6.914  45.315  1.00  0.00     0.200 A 
ATOM      7  O   UNL     1      18.826   6.394  44.731  1.00  0.00    -0.288 OA
ATOM      8  C   UNL     1      17.469   4.872  46.625  1.00  0.00     0.020 A 
ATOM      9  C   UNL     1      16.757   4.189  47.609  1.00  0.00     0.047 A 
ATOM     10  C   UNL     1      15.683   4.801  48.266  1.00  0.00     0.125 A 
ATOM     11  C   UNL     1      15.293   6.116  47.926  1.00  0.00     0.069 A 
ENDROOT
BRANCH   1  12
ATOM     12  C   UNL     1      18.157   9.047  43.994  1.00  0.00    -0.011 A 
ATOM     13  C   UNL     1      19.218   9.890  44.367  1.00  0.00     0.013 A 
ATOM     14  C   UNL     1      19.879  10.662  43.407  1.00  0.00     0.047 A 
ATOM     15  C   UNL     1      19.486  10.607  42.066  1.00  0.00     0.115 A 
ATOM     16  C   UNL     1      17.762   9.001  42.644  1.00  0.00     0.013 A 
ATOM     17  C   UNL     1      18.426   9.775  41.687  1.00  0.00     0.047 A 
BRANCH  15  18
ATOM     18  O   UNL     1      20.155  11.382  41.121  1.00  0.00    -0.508 OA
ATOM     19  H   UNL     1      20.955  11.950  41.374  1.00  0.00     0.293 HD
ENDBRANCH  15  18
ENDBRANCH   1  12
BRANCH  11  20
ATOM     20  C   UNL     1      14.137   6.771  48.674  1.00  0.00     0.188 C 
ATOM     21  C   UNL     1      13.319   7.676  47.721  1.00  0.00     0.179 C 
ATOM     22  O   UNL     1      13.323   5.786  49.295  1.00  0.00    -0.362 OA
ATOM     23  C   UNL     1      12.155   8.348  48.477  1.00  0.00     0.177 C 
ATOM     24  C   UNL     1      12.300   6.348  50.109  1.00  0.00     0.176 C 
ATOM     25  C   UNL     1      11.373   7.301  49.305  1.00  0.00     0.177 C 
BRANCH  21  26
ATOM     26  O   UNL     1      12.853   6.973  46.593  1.00  0.00    -0.387 OA
ATOM     27  H   UNL     1      13.391   6.147  46.497  1.00  0.00     0.211 HD
ENDBRANCH  21  26
BRANCH  23  28
ATOM     28  O   UNL     1      12.654   9.362  49.313  1.00  0.00    -0.387 OA
ATOM     29  H   UNL     1      13.635   9.403  49.164  1.00  0.00     0.211 HD
ENDBRANCH  23  28
BRANCH  24  30
ATOM     30  C   UNL     1      12.855   6.929  51.431  1.00  0.00     0.191 C 
BRANCH  30  31
ATOM     31  O   UNL     1      11.851   6.973  52.410  1.00  0.00    -0.394 OA
ATOM     32  H   UNL     1      11.293   7.768  52.209  1.00  0.00     0.210 HD
ENDBRANCH  30  31
ENDBRANCH  24  30
BRANCH  25  33
ATOM     33  O   UNL     1      10.388   7.894  50.116  1.00  0.00    -0.388 OA
ATOM     34  H   UNL     1      10.063   8.715  49.667  1.00  0.00     0.211 HD
ENDBRANCH  25  33
ENDBRANCH  11  20
BRANCH  10  35
ATOM     35  O   UNL     1      15.004   4.099  49.264  1.00  0.00    -0.507 OA
ATOM     36  H   UNL     1      14.086   3.700  49.105  1.00  0.00     0.293 HD
ENDBRANCH  10  35
TORSDOF 9
ENDMDL
MODEL 6
REMARK VINA RESULT:    -6.459      3.042      9.586
REMARK INTER + INTRA:          -9.479
REMARK INTER:                  -8.969
REMARK INTRA:                  -0.510
REMARK UNBOUND:                -0.754
REMARK SMILES O=c1c(-c2ccc(O)cc2)coc2c([C@@H]3O[C@@H](CO)[C@@H](O)[C@@H](O)[C@@H]3O)c(O)ccc12
REMARK SMILES IDX 3 1 11 2 12 3 13 4 30 5 2 6 1 7 29 8 28 9 26 10 14 11 4 12
REMARK SMILES IDX 5 13 6 14 7 15 10 16 9 17 8 18 15 20 24 21 16 22 22 23 17 24
REMARK SMILES IDX 20 25 25 26 23 28 18 30 19 31 21 33 27 35
REMARK H PARENT 8 19 25 27 23 29 19 32 21 34 27 36
REMARK Flexibility Score: inf
ROOT
ATOM      1  C   UNL     1      13.191   7.000  48.894  1.00  0.00     0.065 A 
ATOM      2  C   UNL     1      11.832   6.811  49.178  1.00  0.00     0.208 A 
ATOM      3  O   UNL     1      11.083   7.812  49.621  1.00  0.00    -0.463 OA
ATOM      4  C   UNL     1      11.550   9.041  49.823  1.00  0.00     0.147 A 
ATOM      5  C   UNL     1      12.911   9.323  49.551  1.00  0.00     0.066 A 
ATOM      6  C   UNL     1      13.734   8.285  49.078  1.00  0.00     0.200 A 
ATOM      7  O   UNL     1      14.945   8.508  48.799  1.00  0.00    -0.288 OA
ATOM      8  C   UNL     1      13.403  10.623  49.745  1.00  0.00     0.020 A 
ATOM      9  C   UNL     1      12.556  11.634  50.193  1.00  0.00     0.047 A 
ATOM     10  C   UNL     1      11.208  11.368  50.463  1.00  0.00     0.125 A 
ATOM     11  C   UNL     1      10.692  10.063  50.303  1.00  0.00     0.069 A 
ENDROOT
BRANCH   1  12
ATOM     12  C   UNL     1      14.011   5.862  48.407  1.00  0.00    -0.011 A 
ATOM     13  C   UNL     1      14.485   5.844  47.084  1.00  0.00     0.013 A 
ATOM     14  C   UNL     1      15.251   4.770  46.621  1.00  0.00     0.047 A 
ATOM     15  C   UNL     1      15.547   3.699  47.470  1.00  0.00     0.115 A 
ATOM     16  C   UNL     1      14.308   4.778  49.254  1.00  0.00     0.013 A 
ATOM     17  C   UNL     1      15.073   3.705  48.787  1.00  0.00     0.047 A 
BRANCH  15  18
ATOM     18  O   UNL     1      16.311   2.636  46.994  1.00  0.00    -0.508 OA
ATOM     19  H   UNL     1      15.879   1.814  46.587  1.00  0.00     0.293 HD
ENDBRANCH  15  18
ENDBRANCH   1  12
BRANCH  11  20
ATOM     20  C   UNL     1       9.215   9.803  50.577  1.00  0.00     0.188 C 
ATOM     21  C   UNL     1       8.412   9.793  49.252  1.00  0.00     0.179 C 
ATOM     22  O   UNL     1       9.048   8.592  51.303  1.00  0.00    -0.362 OA
ATOM     23  C   UNL     1       6.916   9.540  49.527  1.00  0.00     0.177 C 
ATOM     24  C   UNL     1       7.699   8.364  51.693  1.00  0.00     0.176 C 
ATOM     25  C   UNL     1       6.738   8.328  50.471  1.00  0.00     0.177 C 
BRANCH  21  26
ATOM     26  O   UNL     1       8.924   8.860  48.329  1.00  0.00    -0.387 OA
ATOM     27  H   UNL     1       8.202   8.222  48.099  1.00  0.00     0.211 HD
ENDBRANCH  21  26
BRANCH  23  28
ATOM     28  O   UNL     1       6.335  10.690  50.089  1.00  0.00    -0.387 OA
ATOM     29  H   UNL     1       6.460  11.426  49.435  1.00  0.00     0.211 HD
ENDBRANCH  23  28
BRANCH  24  30
ATOM     30  C   UNL     1       7.257   9.289  52.851  1.00  0.00     0.191 C 
BRANCH  30  31
ATOM     31  O   UNL     1       6.205   8.707  53.573  1.00  0.00    -0.394 OA
ATOM     32  H   UNL     1       6.476   8.717  54.527  1.00  0.00     0.210 HD
ENDBRANCH  30  31
ENDBRANCH  24  30
BRANCH  25  33
ATOM     33  O   UNL     1       5.396   8.147  50.856  1.00  0.00    -0.388 OA
ATOM     34  H   UNL     1       4.931   7.637  50.144  1.00  0.00     0.211 HD
ENDBRANCH  25  33
ENDBRANCH  11  20
BRANCH  10  35
ATOM     35  O   UNL     1      10.378  12.408  50.887  1.00  0.00    -0.507 OA
ATOM     36  H   UNL     1       9.373  12.371  50.767  1.00  0.00     0.293 HD
ENDBRANCH  10  35
TORSDOF 9
ENDMDL
MODEL 7
REMARK VINA RESULT:    -6.341      3.720      6.333
REMARK INTER + INTRA:          -9.319
REMARK INTER:                  -8.641
REMARK INTRA:                  -0.678
REMARK UNBOUND:                -0.754
REMARK SMILES O=c1c(-c2ccc(O)cc2)coc2c([C@@H]3O[C@@H](CO)[C@@H](O)[C@@H](O)[C@@H]3O)c(O)ccc12
REMARK SMILES IDX 3 1 11 2 12 3 13 4 30 5 2 6 1 7 29 8 28 9 26 10 14 11 4 12
REMARK SMILES IDX 5 13 6 14 7 15 10 16 9 17 8 18 15 20 24 21 16 22 22 23 17 24
REMARK SMILES IDX 20 25 25 26 23 28 18 30 19 31 21 33 27 35
REMARK H PARENT 8 19 25 27 23 29 19 32 21 34 27 36
REMARK Flexibility Score: inf
ROOT
ATOM      1  C   UNL     1       7.669   9.554  50.353  1.00  0.00     0.065 A 
ATOM      2  C   UNL     1       8.631   9.717  49.347  1.00  0.00     0.208 A 
ATOM      3  O   UNL     1       9.860   9.237  49.495  1.00  0.00    -0.463 OA
ATOM      4  C   UNL     1      10.262   8.581  50.580  1.00  0.00     0.147 A 
ATOM      5  C   UNL     1       9.350   8.362  51.641  1.00  0.00     0.066 A 
ATOM      6  C   UNL     1       8.038   8.855  51.516  1.00  0.00     0.200 A 
ATOM      7  O   UNL     1       7.192   8.654  52.431  1.00  0.00    -0.288 OA
ATOM      8  C   UNL     1       9.765   7.654  52.779  1.00  0.00     0.020 A 
ATOM      9  C   UNL     1      11.065   7.159  52.861  1.00  0.00     0.047 A 
ATOM     10  C   UNL     1      11.975   7.366  51.817  1.00  0.00     0.125 A 
ATOM     11  C   UNL     1      11.592   8.099  50.672  1.00  0.00     0.069 A 
ENDROOT
BRANCH   1  12
ATOM     12  C   UNL     1       6.304  10.107  50.167  1.00  0.00    -0.011 A 
ATOM     13  C   UNL     1       5.334   9.380  49.454  1.00  0.00     0.013 A 
ATOM     14  C   UNL     1       4.051   9.903  49.271  1.00  0.00     0.047 A 
ATOM     15  C   UNL     1       3.720  11.158  49.792  1.00  0.00     0.115 A 
ATOM     16  C   UNL     1       5.966  11.372  50.683  1.00  0.00     0.013 A 
ATOM     17  C   UNL     1       4.682  11.892  50.497  1.00  0.00     0.047 A 
BRANCH  15  18
ATOM     18  O   UNL     1       2.437  11.665  49.602  1.00  0.00    -0.508 OA
ATOM     19  H   UNL     1       2.047  11.785  48.674  1.00  0.00     0.293 HD
ENDBRANCH  15  18
ENDBRANCH   1  12
BRANCH  11  20
ATOM     20  C   UNL     1      12.591   8.289  49.536  1.00  0.00     0.188 C 
ATOM     21  C   UNL     1      12.406   7.188  48.463  1.00  0.00     0.179 C 
ATOM     22  O   UNL     1      12.473   9.592  48.981  1.00  0.00    -0.362 OA
ATOM     23  C   UNL     1      13.422   7.372  47.317  1.00  0.00     0.177 C 
ATOM     24  C   UNL     1      13.465   9.866  47.999  1.00  0.00     0.176 C 
ATOM     25  C   UNL     1      13.429   8.840  46.832  1.00  0.00     0.177 C 
BRANCH  21  26
ATOM     26  O   UNL     1      11.088   7.145  47.969  1.00  0.00    -0.387 OA
ATOM     27  H   UNL     1      10.777   8.075  47.831  1.00  0.00     0.211 HD
ENDBRANCH  21  26
BRANCH  23  28
ATOM     28  O   UNL     1      14.704   6.994  47.753  1.00  0.00    -0.387 OA
ATOM     29  H   UNL     1      14.578   6.361  48.508  1.00  0.00     0.211 HD
ENDBRANCH  23  28
BRANCH  24  30
ATOM     30  C   UNL     1      14.860  10.102  48.624  1.00  0.00     0.191 C 
BRANCH  30  31
ATOM     31  O   UNL     1      15.722  10.702  47.694  1.00  0.00    -0.394 OA
ATOM     32  H   UNL     1      16.209   9.966  47.241  1.00  0.00     0.210 HD
ENDBRANCH  30  31
ENDBRANCH  24  30
BRANCH  25  33
ATOM     33  O   UNL     1      14.438   9.081  45.880  1.00  0.00    -0.388 OA
ATOM     34  H   UNL     1      14.206   8.598  45.047  1.00  0.00     0.211 HD
ENDBRANCH  25  33
ENDBRANCH  11  20
BRANCH  10  35
ATOM     35  O   UNL     1      13.263   6.836  51.918  1.00  0.00    -0.507 OA
ATOM     36  H   UNL     1      13.814   6.615  51.098  1.00  0.00     0.293 HD
ENDBRANCH  10  35
TORSDOF 9
ENDMDL
MODEL 8
REMARK VINA RESULT:    -6.337      1.125      2.442
REMARK INTER + INTRA:          -9.314
REMARK INTER:                  -9.156
REMARK INTRA:                  -0.158
REMARK UNBOUND:                -0.754
REMARK SMILES O=c1c(-c2ccc(O)cc2)coc2c([C@@H]3O[C@@H](CO)[C@@H](O)[C@@H](O)[C@@H]3O)c(O)ccc12
REMARK SMILES IDX 3 1 11 2 12 3 13 4 30 5 2 6 1 7 29 8 28 9 26 10 14 11 4 12
REMARK SMILES IDX 5 13 6 14 7 15 10 16 9 17 8 18 15 20 24 21 16 22 22 23 17 24
REMARK SMILES IDX 20 25 25 26 23 28 18 30 19 31 21 33 27 35
REMARK H PARENT 8 19 25 27 23 29 19 32 21 34 27 36
REMARK Flexibility Score: inf
ROOT
ATOM      1  C   UNL     1      13.603   7.486  48.333  1.00  0.00     0.065 A 
ATOM      2  C   UNL     1      14.600   7.997  47.492  1.00  0.00     0.208 A 
ATOM      3  O   UNL     1      15.613   7.238  47.096  1.00  0.00    -0.463 OA
ATOM      4  C   UNL     1      15.757   5.965  47.456  1.00  0.00     0.147 A 
ATOM      5  C   UNL     1      14.789   5.364  48.296  1.00  0.00     0.066 A 
ATOM      6  C   UNL     1      13.699   6.140  48.733  1.00  0.00     0.200 A 
ATOM      7  O   UNL     1      12.803   5.629  49.460  1.00  0.00    -0.288 OA
ATOM      8  C   UNL     1      14.926   4.017  48.662  1.00  0.00     0.020 A 
ATOM      9  C   UNL     1      16.005   3.270  48.193  1.00  0.00     0.047 A 
ATOM     10  C   UNL     1      16.967   3.852  47.360  1.00  0.00     0.125 A 
ATOM     11  C   UNL     1      16.868   5.214  46.997  1.00  0.00     0.069 A 
ENDROOT
BRANCH   1  12
ATOM     12  C   UNL     1      12.483   8.358  48.770  1.00  0.00    -0.011 A 
ATOM     13  C   UNL     1      12.738   9.507  49.539  1.00  0.00     0.013 A 
ATOM     14  C   UNL     1      11.684  10.325  49.958  1.00  0.00     0.047 A 
ATOM     15  C   UNL     1      10.366  10.004  49.622  1.00  0.00     0.115 A 
ATOM     16  C   UNL     1      11.154   8.037  48.441  1.00  0.00     0.013 A 
ATOM     17  C   UNL     1      10.103   8.857  48.863  1.00  0.00     0.047 A 
BRANCH  15  18
ATOM     18  O   UNL     1       9.327  10.829  50.047  1.00  0.00    -0.508 OA
ATOM     19  H   UNL     1       9.393  11.362  50.905  1.00  0.00     0.293 HD
ENDBRANCH  15  18
ENDBRANCH   1  12
BRANCH  11  20
ATOM     20  C   UNL     1      17.913   5.819  46.066  1.00  0.00     0.188 C 
ATOM     21  C   UNL     1      17.558   5.522  44.588  1.00  0.00     0.179 C 
ATOM     22  O   UNL     1      18.047   7.213  46.307  1.00  0.00    -0.362 OA
ATOM     23  C   UNL     1      18.618   6.125  43.644  1.00  0.00     0.177 C 
ATOM     24  C   UNL     1      19.097   7.805  45.550  1.00  0.00     0.176 C 
ATOM     25  C   UNL     1      18.903   7.597  44.022  1.00  0.00     0.177 C 
BRANCH  21  26
ATOM     26  O   UNL     1      16.265   5.972  44.253  1.00  0.00    -0.387 OA
ATOM     27  H   UNL     1      15.937   6.549  44.988  1.00  0.00     0.211 HD
ENDBRANCH  21  26
BRANCH  23  28
ATOM     28  O   UNL     1      19.798   5.364  43.708  1.00  0.00    -0.387 OA
ATOM     29  H   UNL     1      20.349   5.617  42.922  1.00  0.00     0.211 HD
ENDBRANCH  23  28
BRANCH  24  30
ATOM     30  C   UNL     1      20.496   7.429  46.093  1.00  0.00     0.191 C 
BRANCH  30  31
ATOM     31  O   UNL     1      20.749   8.093  47.303  1.00  0.00    -0.394 OA
ATOM     32  H   UNL     1      20.759   7.399  48.011  1.00  0.00     0.210 HD
ENDBRANCH  30  31
ENDBRANCH  24  30
BRANCH  25  33
ATOM     33  O   UNL     1      19.962   8.142  43.273  1.00  0.00    -0.388 OA
ATOM     34  H   UNL     1      20.744   7.538  43.347  1.00  0.00     0.211 HD
ENDBRANCH  25  33
ENDBRANCH  11  20
BRANCH  10  35
ATOM     35  O   UNL     1      18.023   3.071  46.886  1.00  0.00    -0.507 OA
ATOM     36  H   UNL     1      18.679   2.624  47.515  1.00  0.00     0.293 HD
ENDBRANCH  10  35
TORSDOF 9
ENDMDL
MODEL 9
REMARK VINA RESULT:    -6.222      4.770      6.844
REMARK INTER + INTRA:          -9.159
REMARK INTER:                  -8.282
REMARK INTRA:                  -0.877
REMARK UNBOUND:                -0.754
REMARK SMILES O=c1c(-c2ccc(O)cc2)coc2c([C@@H]3O[C@@H](CO)[C@@H](O)[C@@H](O)[C@@H]3O)c(O)ccc12
REMARK SMILES IDX 3 1 11 2 12 3 13 4 30 5 2 6 1 7 29 8 28 9 26 10 14 11 4 12
REMARK SMILES IDX 5 13 6 14 7 15 10 16 9 17 8 18 15 20 24 21 16 22 22 23 17 24
REMARK SMILES IDX 20 25 25 26 23 28 18 30 19 31 21 33 27 35
REMARK H PARENT 8 19 25 27 23 29 19 32 21 34 27 36
REMARK Flexibility Score: inf
ROOT
ATOM      1  C   UNL     1      15.520  13.033  49.958  1.00  0.00     0.065 A 
ATOM      2  C   UNL     1      15.565  11.666  50.262  1.00  0.00     0.208 A 
ATOM      3  O   UNL     1      15.397  10.751  49.316  1.00  0.00    -0.463 OA
ATOM      4  C   UNL     1      15.181  11.052  48.039  1.00  0.00     0.147 A 
ATOM      5  C   UNL     1      15.131  12.410  47.641  1.00  0.00     0.066 A 
ATOM      6  C   UNL     1      15.307  13.407  48.619  1.00  0.00     0.200 A 
ATOM      7  O   UNL     1      15.297  14.626  48.295  1.00  0.00    -0.288 OA
ATOM      8  C   UNL     1      14.922  12.731  46.292  1.00  0.00     0.020 A 
ATOM      9  C   UNL     1      14.775  11.720  45.345  1.00  0.00     0.047 A 
ATOM     10  C   UNL     1      14.824  10.374  45.725  1.00  0.00     0.125 A 
ATOM     11  C   UNL     1      15.006  10.021  47.081  1.00  0.00     0.069 A 
ENDROOT
BRANCH   1  12
ATOM     12  C   UNL     1      15.702  14.037  51.036  1.00  0.00    -0.011 A 
ATOM     13  C   UNL     1      16.983  14.537  51.331  1.00  0.00     0.013 A 
ATOM     14  C   UNL     1      17.157  15.477  52.351  1.00  0.00     0.047 A 
ATOM     15  C   UNL     1      16.060  15.925  53.092  1.00  0.00     0.115 A 
ATOM     16  C   UNL     1      14.603  14.488  51.790  1.00  0.00     0.013 A 
ATOM     17  C   UNL     1      14.782  15.427  52.809  1.00  0.00     0.047 A 
BRANCH  15  18
ATOM     18  O   UNL     1      16.250  16.862  54.105  1.00  0.00    -0.508 OA
ATOM     19  H   UNL     1      16.703  17.751  53.925  1.00  0.00     0.293 HD
ENDBRANCH  15  18
ENDBRANCH   1  12
BRANCH  11  20
ATOM     20  C   UNL     1      15.085   8.549  47.468  1.00  0.00     0.188 C 
ATOM     21  C   UNL     1      13.664   7.966  47.669  1.00  0.00     0.179 C 
ATOM     22  O   UNL     1      15.823   7.817  46.498  1.00  0.00    -0.362 OA
ATOM     23  C   UNL     1      13.741   6.478  48.070  1.00  0.00     0.177 C 
ATOM     24  C   UNL     1      16.032   6.460  46.871  1.00  0.00     0.176 C 
ATOM     25  C   UNL     1      14.693   5.712  47.122  1.00  0.00     0.177 C 
BRANCH  21  26
ATOM     26  O   UNL     1      12.852   8.144  46.532  1.00  0.00    -0.387 OA
ATOM     27  H   UNL     1      12.459   7.267  46.290  1.00  0.00     0.211 HD
ENDBRANCH  21  26
BRANCH  23  28
ATOM     28  O   UNL     1      14.178   6.367  49.401  1.00  0.00    -0.387 OA
ATOM     29  H   UNL     1      13.972   5.442  49.697  1.00  0.00     0.211 HD
ENDBRANCH  23  28
BRANCH  24  30
ATOM     30  C   UNL     1      17.086   6.316  47.994  1.00  0.00     0.191 C 
BRANCH  30  31
ATOM     31  O   UNL     1      18.383   6.356  47.459  1.00  0.00    -0.394 OA
ATOM     32  H   UNL     1      18.990   6.598  48.206  1.00  0.00     0.210 HD
ENDBRANCH  30  31
ENDBRANCH  24  30
BRANCH  25  33
ATOM     33  O   UNL     1      14.896   4.382  47.535  1.00  0.00    -0.388 OA
ATOM     34  H   UNL     1      15.867   4.185  47.492  1.00  0.00     0.211 HD
ENDBRANCH  25  33
ENDBRANCH  11  20
BRANCH  10  35
ATOM     35  O   UNL     1      14.697   9.383  44.749  1.00  0.00    -0.507 OA
ATOM     36  H   UNL     1      14.011   8.643  44.827  1.00  0.00     0.293 HD
ENDBRANCH  10  35
TORSDOF 9
ENDMDL
