MODEL 1
REMARK VINA RESULT:    -3.301      0.000      0.000
REMARK INTER + INTRA:          -4.355
REMARK INTER:                  -4.845
REMARK INTRA:                   0.490
REMARK UNBOUND:                 0.490
REMARK SMILES Cc1cc2c(C(C)C)c(O)c(O)c(C=O)c2c(O)c1-c1c(C)cc2c(C(C)C)c(O)c(O)c(C=O)c2c1O
REMARK SMILES IDX 1 1 2 2 3 3 4 4 16 5 13 6 11 7 9 8 5 9 17 10 19 11 20 12
REMARK SMILES IDX 37 13 21 14 36 15 23 16 22 17 24 18 33 19 25 20 31 21 29 22
REMARK SMILES IDX 38 23 34 25 35 26 26 27 27 28 28 29 32 30 30 32 18 34 6 36
REMARK SMILES IDX 7 37 8 38 14 39 15 40 10 41 12 43
REMARK H PARENT 38 24 32 31 30 33 18 35 10 42 12 44
REMARK Flexibility Score: inf
ROOT
ATOM      1  C   UNL     1       1.262   3.140 -28.125  1.00  0.00     0.045 C 
ATOM      2  C   UNL     1       2.103   2.619 -26.984  1.00  0.00    -0.039 A 
ATOM      3  C   UNL     1       2.115   1.251 -26.711  1.00  0.00     0.013 A 
ATOM      4  C   UNL     1       2.879   0.703 -25.661  1.00  0.00    -0.006 A 
ATOM      5  C   UNL     1       3.753   1.567 -24.932  1.00  0.00     0.039 A 
ATOM      6  C   UNL     1       4.659   0.998 -23.987  1.00  0.00     0.072 A 
ATOM      7  C   UNL     1       4.661  -0.393 -23.766  1.00  0.00     0.169 A 
ATOM      8  C   UNL     1       3.732  -1.217 -24.409  1.00  0.00     0.162 A 
ATOM      9  C   UNL     1       2.799  -0.687 -25.328  1.00  0.00     0.008 A 
ATOM     10  C   UNL     1       3.679   2.975 -25.161  1.00  0.00     0.132 A 
ATOM     11  C   UNL     1       2.859   3.490 -26.188  1.00  0.00     0.031 A 
ENDROOT
BRANCH  11  12
ATOM     12  C   UNL     1       2.795   4.955 -26.434  1.00  0.00     0.031 A 
ATOM     13  C   UNL     1       1.695   5.705 -25.972  1.00  0.00     0.132 A 
ATOM     14  C   UNL     1       3.823   5.586 -27.151  1.00  0.00    -0.039 A 
ATOM     15  C   UNL     1       1.653   7.119 -26.163  1.00  0.00     0.039 A 
ATOM     16  C   UNL     1       3.722   6.947 -27.442  1.00  0.00     0.013 A 
ATOM     17  C   UNL     1       4.994   4.801 -27.691  1.00  0.00     0.045 C 
ATOM     18  C   UNL     1       2.658   7.741 -26.967  1.00  0.00    -0.006 A 
ATOM     19  C   UNL     1       0.617   7.921 -25.606  1.00  0.00     0.072 A 
ATOM     20  C   UNL     1       2.557   9.133 -27.293  1.00  0.00     0.008 A 
ATOM     21  C   UNL     1       0.496   9.271 -25.976  1.00  0.00     0.169 A 
ATOM     22  C   UNL     1       1.412   9.850 -26.871  1.00  0.00     0.162 A 
BRANCH  13  23
ATOM     23  O   UNL     1       0.623   5.042 -25.365  1.00  0.00    -0.507 OA
ATOM     24  H   UNL     1      -0.346   5.176 -25.625  1.00  0.00     0.293 HD
ENDBRANCH  13  23
BRANCH  19  25
ATOM     25  C   UNL     1      -0.285   7.413 -24.543  1.00  0.00     0.264 C 
ATOM     26  O   UNL     1      -1.469   7.070 -24.802  1.00  0.00    -0.298 OA
ENDBRANCH  19  25
BRANCH  20  27
ATOM     27  C   UNL     1       3.608   9.899 -28.125  1.00  0.00     0.017 C 
ATOM     28  C   UNL     1       5.041   9.463 -27.787  1.00  0.00     0.012 C 
ATOM     29  C   UNL     1       3.420  11.431 -28.121  1.00  0.00     0.012 C 
ENDBRANCH  20  27
BRANCH  21  30
ATOM     30  O   UNL     1      -0.523  10.037 -25.397  1.00  0.00    -0.504 OA
ATOM     31  H   UNL     1      -1.303   9.651 -24.884  1.00  0.00     0.293 HD
ENDBRANCH  21  30
BRANCH  22  32
ATOM     32  O   UNL     1       1.200  11.144 -27.361  1.00  0.00    -0.504 OA
ATOM     33  H   UNL     1       0.748  11.352 -28.240  1.00  0.00     0.293 HD
ENDBRANCH  22  32
ENDBRANCH  11  12
BRANCH  10  34
ATOM     34  O   UNL     1       4.398   3.865 -24.354  1.00  0.00    -0.507 OA
ATOM     35  H   UNL     1       4.386   4.871 -24.469  1.00  0.00     0.293 HD
ENDBRANCH  10  34
BRANCH   9  36
ATOM     36  C   UNL     1       1.746  -1.654 -25.906  1.00  0.00     0.017 C 
ATOM     37  C   UNL     1       1.569  -1.481 -27.420  1.00  0.00     0.012 C 
ATOM     38  C   UNL     1       0.409  -1.673 -25.137  1.00  0.00     0.012 C 
ENDBRANCH   9  36
BRANCH   6  39
ATOM     39  C   UNL     1       5.665   1.816 -23.279  1.00  0.00     0.264 C 
ATOM     40  O   UNL     1       5.435   2.254 -22.120  1.00  0.00    -0.298 OA
ENDBRANCH   6  39
BRANCH   8  41
ATOM     41  O   UNL     1       3.745  -2.593 -24.149  1.00  0.00    -0.504 OA
ATOM     42  H   UNL     1       4.526  -3.193 -24.385  1.00  0.00     0.293 HD
ENDBRANCH   8  41
BRANCH   7  43
ATOM     43  O   UNL     1       5.596  -1.002 -22.920  1.00  0.00    -0.504 OA
ATOM     44  H   UNL     1       5.475  -1.106 -21.921  1.00  0.00     0.293 HD
ENDBRANCH   7  43
TORSDOF 11
ENDMDL
MODEL 2
REMARK VINA RESULT:    -2.742      1.676      2.942
REMARK INTER + INTRA:          -3.535
REMARK INTER:                  -4.080
REMARK INTRA:                   0.545
REMARK UNBOUND:                 0.490
REMARK SMILES Cc1cc2c(C(C)C)c(O)c(O)c(C=O)c2c(O)c1-c1c(C)cc2c(C(C)C)c(O)c(O)c(C=O)c2c1O
REMARK SMILES IDX 1 1 2 2 3 3 4 4 16 5 13 6 11 7 9 8 5 9 17 10 19 11 20 12
REMARK SMILES IDX 37 13 21 14 36 15 23 16 22 17 24 18 33 19 25 20 31 21 29 22
REMARK SMILES IDX 38 23 34 25 35 26 26 27 27 28 28 29 32 30 30 32 18 34 6 36
REMARK SMILES IDX 7 37 8 38 14 39 15 40 10 41 12 43
REMARK H PARENT 38 24 32 31 30 33 18 35 10 42 12 44
REMARK Flexibility Score: inf
ROOT
ATOM      1  C   UNL     1       4.232   4.301 -23.426  1.00  0.00     0.045 C 
ATOM      2  C   UNL     1       3.710   3.252 -24.378  1.00  0.00    -0.039 A 
ATOM      3  C   UNL     1       3.764   1.907 -24.013  1.00  0.00     0.013 A 
ATOM      4  C   UNL     1       3.294   0.881 -24.857  1.00  0.00    -0.006 A 
ATOM      5  C   UNL     1       2.638   1.248 -26.073  1.00  0.00     0.039 A 
ATOM      6  C   UNL     1       2.002   0.233 -26.850  1.00  0.00     0.072 A 
ATOM      7  C   UNL     1       2.054  -1.110 -26.427  1.00  0.00     0.169 A 
ATOM      8  C   UNL     1       2.784  -1.471 -25.290  1.00  0.00     0.162 A 
ATOM      9  C   UNL     1       3.452  -0.499 -24.513  1.00  0.00     0.008 A 
ATOM     10  C   UNL     1       2.655   2.617 -26.480  1.00  0.00     0.132 A 
ATOM     11  C   UNL     1       3.185   3.609 -25.628  1.00  0.00     0.031 A 
ENDROOT
BRANCH  11  12
ATOM     12  C   UNL     1       3.188   5.035 -26.047  1.00  0.00     0.031 A 
ATOM     13  C   UNL     1       2.035   5.828 -25.879  1.00  0.00     0.132 A 
ATOM     14  C   UNL     1       4.337   5.586 -26.635  1.00  0.00    -0.039 A 
ATOM     15  C   UNL     1       2.048   7.209 -26.235  1.00  0.00     0.039 A 
ATOM     16  C   UNL     1       4.310   6.905 -27.092  1.00  0.00     0.013 A 
ATOM     17  C   UNL     1       5.575   4.751 -26.862  1.00  0.00     0.045 C 
ATOM     18  C   UNL     1       3.190   7.742 -26.910  1.00  0.00    -0.006 A 
ATOM     19  C   UNL     1       0.941   8.065 -25.968  1.00  0.00     0.072 A 
ATOM     20  C   UNL     1       3.170   9.086 -27.405  1.00  0.00     0.008 A 
ATOM     21  C   UNL     1       0.909   9.363 -26.505  1.00  0.00     0.169 A 
ATOM     22  C   UNL     1       1.979   9.840 -27.280  1.00  0.00     0.162 A 
BRANCH  13  23
ATOM     23  O   UNL     1       0.860   5.232 -25.404  1.00  0.00    -0.507 OA
ATOM     24  H   UNL     1       0.419   5.473 -24.526  1.00  0.00     0.293 HD
ENDBRANCH  13  23
BRANCH  19  25
ATOM     25  C   UNL     1      -0.144   7.676 -25.033  1.00  0.00     0.264 C 
ATOM     26  O   UNL     1      -0.535   8.459 -24.126  1.00  0.00    -0.298 OA
ENDBRANCH  19  25
BRANCH  20  27
ATOM     27  C   UNL     1       4.366   9.758 -28.116  1.00  0.00     0.017 C 
ATOM     28  C   UNL     1       5.712   9.204 -27.628  1.00  0.00     0.012 C 
ATOM     29  C   UNL     1       4.307  11.301 -28.125  1.00  0.00     0.012 C 
ENDBRANCH  20  27
BRANCH  21  30
ATOM     30  O   UNL     1      -0.186  10.184 -26.210  1.00  0.00    -0.504 OA
ATOM     31  H   UNL     1      -0.490  10.413 -25.274  1.00  0.00     0.293 HD
ENDBRANCH  21  30
BRANCH  22  32
ATOM     32  O   UNL     1       1.878  11.068 -27.945  1.00  0.00    -0.504 OA
ATOM     33  H   UNL     1       1.006  11.541 -28.135  1.00  0.00     0.293 HD
ENDBRANCH  22  32
ENDBRANCH  11  12
BRANCH  10  34
ATOM     34  O   UNL     1       2.169   2.990 -27.739  1.00  0.00    -0.507 OA
ATOM     35  H   UNL     1       2.006   3.948 -28.022  1.00  0.00     0.293 HD
ENDBRANCH  10  34
BRANCH   9  36
ATOM     36  C   UNL     1       4.319  -1.002 -23.341  1.00  0.00     0.017 C 
ATOM     37  C   UNL     1       5.367  -2.029 -23.793  1.00  0.00     0.012 C 
ATOM     38  C   UNL     1       3.516  -1.459 -22.105  1.00  0.00     0.012 C 
ENDBRANCH   9  36
BRANCH   6  39
ATOM     39  C   UNL     1       1.214   0.552 -28.058  1.00  0.00     0.264 C 
ATOM     40  O   UNL     1       0.047   1.014 -27.958  1.00  0.00    -0.298 OA
ENDBRANCH   6  39
BRANCH   8  41
ATOM     41  O   UNL     1       2.835  -2.818 -24.911  1.00  0.00    -0.504 OA
ATOM     42  H   UNL     1       2.774  -3.581 -25.573  1.00  0.00     0.293 HD
ENDBRANCH   8  41
BRANCH   7  43
ATOM     43  O   UNL     1       1.365  -2.122 -27.108  1.00  0.00    -0.504 OA
ATOM     44  H   UNL     1       1.597  -2.439 -28.040  1.00  0.00     0.293 HD
ENDBRANCH   7  43
TORSDOF 11
ENDMDL
MODEL 3
REMARK VINA RESULT:    -2.423      0.888      9.096
REMARK INTER + INTRA:          -3.066
REMARK INTER:                  -3.320
REMARK INTRA:                   0.254
REMARK UNBOUND:                 0.490
REMARK SMILES Cc1cc2c(C(C)C)c(O)c(O)c(C=O)c2c(O)c1-c1c(C)cc2c(C(C)C)c(O)c(O)c(C=O)c2c1O
REMARK SMILES IDX 1 1 2 2 3 3 4 4 16 5 13 6 11 7 9 8 5 9 17 10 19 11 20 12
REMARK SMILES IDX 37 13 21 14 36 15 23 16 22 17 24 18 33 19 25 20 31 21 29 22
REMARK SMILES IDX 38 23 34 25 35 26 26 27 27 28 28 29 32 30 30 32 18 34 6 36
REMARK SMILES IDX 7 37 8 38 14 39 15 40 10 41 12 43
REMARK H PARENT 38 24 32 31 30 33 18 35 10 42 12 44
REMARK Flexibility Score: inf
ROOT
ATOM      1  C   UNL     1       5.212   5.089 -28.125  1.00  0.00     0.045 C 
ATOM      2  C   UNL     1       4.120   5.922 -27.497  1.00  0.00    -0.039 A 
ATOM      3  C   UNL     1       4.042   7.284 -27.790  1.00  0.00     0.013 A 
ATOM      4  C   UNL     1       3.047   8.115 -27.237  1.00  0.00    -0.006 A 
ATOM      5  C   UNL     1       2.022   7.512 -26.442  1.00  0.00     0.039 A 
ATOM      6  C   UNL     1       0.914   8.309 -26.023  1.00  0.00     0.072 A 
ATOM      7  C   UNL     1       0.860   9.674 -26.370  1.00  0.00     0.169 A 
ATOM      8  C   UNL     1       1.916  10.276 -27.059  1.00  0.00     0.162 A 
ATOM      9  C   UNL     1       3.044   9.528 -27.465  1.00  0.00     0.008 A 
ATOM     10  C   UNL     1       2.150   6.136 -26.081  1.00  0.00     0.132 A 
ATOM     11  C   UNL     1       3.193   5.351 -26.614  1.00  0.00     0.031 A 
ENDROOT
BRANCH  11  12
ATOM     12  C   UNL     1       3.315   3.915 -26.247  1.00  0.00     0.031 A 
ATOM     13  C   UNL     1       4.175   3.520 -25.203  1.00  0.00     0.132 A 
ATOM     14  C   UNL     1       2.589   2.950 -26.962  1.00  0.00    -0.039 A 
ATOM     15  C   UNL     1       4.258   2.149 -24.815  1.00  0.00     0.039 A 
ATOM     16  C   UNL     1       2.763   1.598 -26.661  1.00  0.00     0.013 A 
ATOM     17  C   UNL     1       1.690   3.342 -28.109  1.00  0.00     0.045 C 
ATOM     18  C   UNL     1       3.584   1.163 -25.600  1.00  0.00    -0.006 A 
ATOM     19  C   UNL     1       5.023   1.732 -23.689  1.00  0.00     0.072 A 
ATOM     20  C   UNL     1       3.769  -0.230 -25.318  1.00  0.00     0.008 A 
ATOM     21  C   UNL     1       5.243   0.364 -23.455  1.00  0.00     0.169 A 
ATOM     22  C   UNL     1       4.685  -0.604 -24.307  1.00  0.00     0.162 A 
BRANCH  13  23
ATOM     23  O   UNL     1       4.982   4.480 -24.582  1.00  0.00    -0.507 OA
ATOM     24  H   UNL     1       5.377   4.374 -23.657  1.00  0.00     0.293 HD
ENDBRANCH  13  23
BRANCH  19  25
ATOM     25  C   UNL     1       5.510   2.694 -22.670  1.00  0.00     0.264 C 
ATOM     26  O   UNL     1       4.728   3.185 -21.811  1.00  0.00    -0.298 OA
ENDBRANCH  19  25
BRANCH  20  27
ATOM     27  C   UNL     1       3.058  -1.364 -26.088  1.00  0.00     0.017 C 
ATOM     28  C   UNL     1       3.667  -1.587 -27.480  1.00  0.00     0.012 C 
ATOM     29  C   UNL     1       1.519  -1.244 -26.108  1.00  0.00     0.012 C 
ENDBRANCH  20  27
BRANCH  21  30
ATOM     30  O   UNL     1       5.987  -0.013 -22.330  1.00  0.00    -0.504 OA
ATOM     31  H   UNL     1       5.583  -0.252 -21.435  1.00  0.00     0.293 HD
ENDBRANCH  21  30
BRANCH  22  32
ATOM     32  O   UNL     1       5.033  -1.953 -24.168  1.00  0.00    -0.504 OA
ATOM     33  H   UNL     1       4.759  -2.533 -23.388  1.00  0.00     0.293 HD
ENDBRANCH  22  32
ENDBRANCH  11  12
BRANCH  10  34
ATOM     34  O   UNL     1       1.257   5.556 -25.173  1.00  0.00    -0.507 OA
ATOM     35  H   UNL     1       1.050   5.938 -24.258  1.00  0.00     0.293 HD
ENDBRANCH  10  34
BRANCH   9  36
ATOM     36  C   UNL     1       4.205  10.298 -28.124  1.00  0.00     0.017 C 
ATOM     37  C   UNL     1       5.573   9.695 -27.777  1.00  0.00     0.012 C 
ATOM     38  C   UNL     1       4.149  11.827 -27.928  1.00  0.00     0.012 C 
ENDBRANCH   9  36
BRANCH   6  39
ATOM     39  C   UNL     1      -0.233   7.729 -25.295  1.00  0.00     0.264 C 
ATOM     40  O   UNL     1      -0.791   8.369 -24.364  1.00  0.00    -0.298 OA
ENDBRANCH   6  39
BRANCH   8  41
ATOM     41  O   UNL     1       1.841  11.639 -27.367  1.00  0.00    -0.504 OA
ATOM     42  H   UNL     1       2.525  12.316 -27.053  1.00  0.00     0.293 HD
ENDBRANCH   8  41
BRANCH   7  43
ATOM     43  O   UNL     1      -0.253  10.466 -26.060  1.00  0.00    -0.504 OA
ATOM     44  H   UNL     1      -0.299  11.097 -25.271  1.00  0.00     0.293 HD
ENDBRANCH   7  43
TORSDOF 11
ENDMDL
MODEL 4
REMARK VINA RESULT:    -1.670      2.505      3.796
REMARK INTER + INTRA:          -1.961
REMARK INTER:                  -5.025
REMARK INTRA:                   3.065
REMARK UNBOUND:                 0.490
REMARK SMILES Cc1cc2c(C(C)C)c(O)c(O)c(C=O)c2c(O)c1-c1c(C)cc2c(C(C)C)c(O)c(O)c(C=O)c2c1O
REMARK SMILES IDX 1 1 2 2 3 3 4 4 16 5 13 6 11 7 9 8 5 9 17 10 19 11 20 12
REMARK SMILES IDX 37 13 21 14 36 15 23 16 22 17 24 18 33 19 25 20 31 21 29 22
REMARK SMILES IDX 38 23 34 25 35 26 26 27 27 28 28 29 32 30 30 32 18 34 6 36
REMARK SMILES IDX 7 37 8 38 14 39 15 40 10 41 12 43
REMARK H PARENT 38 24 32 31 30 33 18 35 10 42 12 44
REMARK Flexibility Score: inf
ROOT
ATOM      1  C   UNL     1       0.427   1.485 -26.393  1.00  0.00     0.045 C 
ATOM      2  C   UNL     1       1.408   0.583 -25.685  1.00  0.00    -0.039 A 
ATOM      3  C   UNL     1       1.028  -0.717 -25.349  1.00  0.00     0.013 A 
ATOM      4  C   UNL     1       1.899  -1.606 -24.688  1.00  0.00    -0.006 A 
ATOM      5  C   UNL     1       3.248  -1.194 -24.460  1.00  0.00     0.039 A 
ATOM      6  C   UNL     1       4.186  -2.144 -23.954  1.00  0.00     0.072 A 
ATOM      7  C   UNL     1       3.765  -3.456 -23.659  1.00  0.00     0.169 A 
ATOM      8  C   UNL     1       2.421  -3.820 -23.790  1.00  0.00     0.162 A 
ATOM      9  C   UNL     1       1.458  -2.899 -24.259  1.00  0.00     0.008 A 
ATOM     10  C   UNL     1       3.611   0.161 -24.732  1.00  0.00     0.132 A 
ATOM     11  C   UNL     1       2.691   1.037 -25.346  1.00  0.00     0.031 A 
ENDROOT
BRANCH  11  12
ATOM     12  C   UNL     1       3.076   2.443 -25.641  1.00  0.00     0.031 A 
ATOM     13  C   UNL     1       3.592   3.267 -24.621  1.00  0.00     0.132 A 
ATOM     14  C   UNL     1       2.901   2.955 -26.936  1.00  0.00    -0.039 A 
ATOM     15  C   UNL     1       4.008   4.601 -24.910  1.00  0.00     0.039 A 
ATOM     16  C   UNL     1       3.196   4.296 -27.189  1.00  0.00     0.013 A 
ATOM     17  C   UNL     1       2.316   2.106 -28.039  1.00  0.00     0.045 C 
ATOM     18  C   UNL     1       3.748   5.144 -26.207  1.00  0.00    -0.006 A 
ATOM     19  C   UNL     1       4.642   5.419 -23.933  1.00  0.00     0.072 A 
ATOM     20  C   UNL     1       4.024   6.524 -26.477  1.00  0.00     0.008 A 
ATOM     21  C   UNL     1       4.858   6.783 -24.189  1.00  0.00     0.169 A 
ATOM     22  C   UNL     1       4.481   7.346 -25.421  1.00  0.00     0.162 A 
BRANCH  13  23
ATOM     23  O   UNL     1       3.647   2.778 -23.311  1.00  0.00    -0.507 OA
ATOM     24  H   UNL     1       2.976   2.129 -22.921  1.00  0.00     0.293 HD
ENDBRANCH  13  23
BRANCH  19  25
ATOM     25  C   UNL     1       5.200   4.855 -22.679  1.00  0.00     0.264 C 
ATOM     26  O   UNL     1       4.574   4.946 -21.589  1.00  0.00    -0.298 OA
ENDBRANCH  19  25
BRANCH  20  27
ATOM     27  C   UNL     1       3.808   7.190 -27.854  1.00  0.00     0.017 C 
ATOM     28  C   UNL     1       4.828   8.305 -28.121  1.00  0.00     0.012 C 
ATOM     29  C   UNL     1       2.349   7.618 -28.124  1.00  0.00     0.012 C 
ENDBRANCH  20  27
BRANCH  21  30
ATOM     30  O   UNL     1       5.499   7.556 -23.213  1.00  0.00    -0.504 OA
ATOM     31  H   UNL     1       5.373   7.435 -22.218  1.00  0.00     0.293 HD
ENDBRANCH  21  30
BRANCH  22  32
ATOM     32  O   UNL     1       4.550   8.731 -25.615  1.00  0.00    -0.504 OA
ATOM     33  H   UNL     1       5.183   9.184 -26.259  1.00  0.00     0.293 HD
ENDBRANCH  22  32
ENDBRANCH  11  12
BRANCH  10  34
ATOM     34  O   UNL     1       4.874   0.644 -24.370  1.00  0.00    -0.507 OA
ATOM     35  H   UNL     1       5.057   1.601 -24.093  1.00  0.00     0.293 HD
ENDBRANCH  10  34
BRANCH   9  36
ATOM     36  C   UNL     1      -0.014  -3.356 -24.268  1.00  0.00     0.017 C 
ATOM     37  C   UNL     1      -0.924  -2.368 -25.012  1.00  0.00     0.012 C 
ATOM     38  C   UNL     1      -0.564  -3.762 -22.885  1.00  0.00     0.012 C 
ENDBRANCH   9  36
BRANCH   6  39
ATOM     39  C   UNL     1       5.619  -1.821 -23.797  1.00  0.00     0.264 C 
ATOM     40  O   UNL     1       6.504  -2.593 -24.253  1.00  0.00    -0.298 OA
ENDBRANCH   6  39
BRANCH   8  41
ATOM     41  O   UNL     1       2.033  -5.125 -23.466  1.00  0.00    -0.504 OA
ATOM     42  H   UNL     1       1.135  -5.349 -23.056  1.00  0.00     0.293 HD
ENDBRANCH   8  41
BRANCH   7  43
ATOM     43  O   UNL     1       4.671  -4.443 -23.251  1.00  0.00    -0.504 OA
ATOM     44  H   UNL     1       5.096  -4.480 -22.334  1.00  0.00     0.293 HD
ENDBRANCH   7  43
TORSDOF 11
ENDMDL
MODEL 5
REMARK VINA RESULT:    -1.596      1.586      9.029
REMARK INTER + INTRA:          -1.853
REMARK INTER:                  -4.444
REMARK INTRA:                   2.591
REMARK UNBOUND:                 0.490
REMARK SMILES Cc1cc2c(C(C)C)c(O)c(O)c(C=O)c2c(O)c1-c1c(C)cc2c(C(C)C)c(O)c(O)c(C=O)c2c1O
REMARK SMILES IDX 1 1 2 2 3 3 4 4 16 5 13 6 11 7 9 8 5 9 17 10 19 11 20 12
REMARK SMILES IDX 37 13 21 14 36 15 23 16 22 17 24 18 33 19 25 20 31 21 29 22
REMARK SMILES IDX 38 23 34 25 35 26 26 27 27 28 28 29 32 30 30 32 18 34 6 36
REMARK SMILES IDX 7 37 8 38 14 39 15 40 10 41 12 43
REMARK H PARENT 38 24 32 31 30 33 18 35 10 42 12 44
REMARK Flexibility Score: inf
ROOT
ATOM      1  C   UNL     1       5.670   4.656 -27.577  1.00  0.00     0.045 C 
ATOM      2  C   UNL     1       4.491   5.493 -27.143  1.00  0.00    -0.039 A 
ATOM      3  C   UNL     1       4.404   6.823 -27.557  1.00  0.00     0.013 A 
ATOM      4  C   UNL     1       3.330   7.656 -27.184  1.00  0.00    -0.006 A 
ATOM      5  C   UNL     1       2.243   7.080 -26.456  1.00  0.00     0.039 A 
ATOM      6  C   UNL     1       1.072   7.863 -26.226  1.00  0.00     0.072 A 
ATOM      7  C   UNL     1       1.015   9.192 -26.690  1.00  0.00     0.169 A 
ATOM      8  C   UNL     1       2.122   9.778 -27.312  1.00  0.00     0.162 A 
ATOM      9  C   UNL     1       3.309   9.045 -27.530  1.00  0.00     0.008 A 
ATOM     10  C   UNL     1       2.372   5.743 -25.967  1.00  0.00     0.132 A 
ATOM     11  C   UNL     1       3.491   4.959 -26.318  1.00  0.00     0.031 A 
ENDROOT
BRANCH  11  12
ATOM     12  C   UNL     1       3.615   3.564 -25.820  1.00  0.00     0.031 A 
ATOM     13  C   UNL     1       2.775   2.552 -26.327  1.00  0.00     0.132 A 
ATOM     14  C   UNL     1       4.557   3.261 -24.825  1.00  0.00    -0.039 A 
ATOM     15  C   UNL     1       2.924   1.202 -25.888  1.00  0.00     0.039 A 
ATOM     16  C   UNL     1       4.620   1.965 -24.310  1.00  0.00     0.013 A 
ATOM     17  C   UNL     1       5.444   4.332 -24.238  1.00  0.00     0.045 C 
ATOM     18  C   UNL     1       3.823   0.916 -24.814  1.00  0.00    -0.006 A 
ATOM     19  C   UNL     1       2.174   0.137 -26.465  1.00  0.00     0.072 A 
ATOM     20  C   UNL     1       3.884  -0.404 -24.260  1.00  0.00     0.008 A 
ATOM     21  C   UNL     1       2.199  -1.139 -25.879  1.00  0.00     0.169 A 
ATOM     22  C   UNL     1       2.987  -1.387 -24.742  1.00  0.00     0.162 A 
BRANCH  13  23
ATOM     23  O   UNL     1       1.761   2.894 -27.229  1.00  0.00    -0.507 OA
ATOM     24  H   UNL     1       1.922   3.111 -28.204  1.00  0.00     0.293 HD
ENDBRANCH  13  23
BRANCH  19  25
ATOM     25  C   UNL     1       1.447   0.295 -27.749  1.00  0.00     0.264 C 
ATOM     26  O   UNL     1       0.366  -0.315 -27.964  1.00  0.00    -0.298 OA
ENDBRANCH  19  25
BRANCH  20  27
ATOM     27  C   UNL     1       4.846  -0.816 -23.125  1.00  0.00     0.017 C 
ATOM     28  C   UNL     1       5.396   0.399 -22.364  1.00  0.00     0.012 C 
ATOM     29  C   UNL     1       5.944  -1.811 -23.560  1.00  0.00     0.012 C 
ENDBRANCH  20  27
BRANCH  21  30
ATOM     30  O   UNL     1       1.464  -2.168 -26.481  1.00  0.00    -0.504 OA
ATOM     31  H   UNL     1       1.853  -2.849 -27.117  1.00  0.00     0.293 HD
ENDBRANCH  21  30
BRANCH  22  32
ATOM     32  O   UNL     1       2.889  -2.610 -24.067  1.00  0.00    -0.504 OA
ATOM     33  H   UNL     1       3.368  -3.453 -24.348  1.00  0.00     0.293 HD
ENDBRANCH  22  32
ENDBRANCH  11  12
BRANCH  10  34
ATOM     34  O   UNL     1       1.403   5.203 -25.114  1.00  0.00    -0.507 OA
ATOM     35  H   UNL     1       1.361   5.382 -24.118  1.00  0.00     0.293 HD
ENDBRANCH  10  34
BRANCH   9  36
ATOM     36  C   UNL     1       4.512   9.804 -28.125  1.00  0.00     0.017 C 
ATOM     37  C   UNL     1       5.847   9.330 -27.535  1.00  0.00     0.012 C 
ATOM     38  C   UNL     1       4.360  11.339 -28.125  1.00  0.00     0.012 C 
ENDBRANCH   9  36
BRANCH   6  39
ATOM     39  C   UNL     1      -0.130   7.300 -25.578  1.00  0.00     0.264 C 
ATOM     40  O   UNL     1      -0.567   6.167 -25.912  1.00  0.00    -0.298 OA
ENDBRANCH   6  39
BRANCH   8  41
ATOM     41  O   UNL     1       2.039  11.108 -27.741  1.00  0.00    -0.504 OA
ATOM     42  H   UNL     1       2.700  11.822 -27.458  1.00  0.00     0.293 HD
ENDBRANCH   8  41
BRANCH   7  43
ATOM     43  O   UNL     1      -0.148   9.963 -26.569  1.00  0.00    -0.504 OA
ATOM     44  H   UNL     1      -0.839   9.838 -25.841  1.00  0.00     0.293 HD
ENDBRANCH   7  43
TORSDOF 11
ENDMDL
MODEL 6
REMARK VINA RESULT:    -1.072      2.298      4.157
REMARK INTER + INTRA:          -1.084
REMARK INTER:                  -0.877
REMARK INTRA:                  -0.206
REMARK UNBOUND:                 0.490
REMARK SMILES Cc1cc2c(C(C)C)c(O)c(O)c(C=O)c2c(O)c1-c1c(C)cc2c(C(C)C)c(O)c(O)c(C=O)c2c1O
REMARK SMILES IDX 1 1 2 2 3 3 4 4 16 5 13 6 11 7 9 8 5 9 17 10 19 11 20 12
REMARK SMILES IDX 37 13 21 14 36 15 23 16 22 17 24 18 33 19 25 20 31 21 29 22
REMARK SMILES IDX 38 23 34 25 35 26 26 27 27 28 28 29 32 30 30 32 18 34 6 36
REMARK SMILES IDX 7 37 8 38 14 39 15 40 10 41 12 43
REMARK H PARENT 38 24 32 31 30 33 18 35 10 42 12 44
REMARK Flexibility Score: inf
ROOT
ATOM      1  C   UNL     1       5.809   2.010 -25.724  1.00  0.00     0.045 C 
ATOM      2  C   UNL     1       4.768   0.953 -25.445  1.00  0.00    -0.039 A 
ATOM      3  C   UNL     1       5.170  -0.365 -25.227  1.00  0.00     0.013 A 
ATOM      4  C   UNL     1       4.247  -1.397 -24.962  1.00  0.00    -0.006 A 
ATOM      5  C   UNL     1       2.869  -1.052 -24.801  1.00  0.00     0.039 A 
ATOM      6  C   UNL     1       1.953  -2.054 -24.361  1.00  0.00     0.072 A 
ATOM      7  C   UNL     1       2.409  -3.366 -24.120  1.00  0.00     0.169 A 
ATOM      8  C   UNL     1       3.737  -3.716 -24.378  1.00  0.00     0.162 A 
ATOM      9  C   UNL     1       4.667  -2.760 -24.844  1.00  0.00     0.008 A 
ATOM     10  C   UNL     1       2.452   0.280 -25.103  1.00  0.00     0.132 A 
ATOM     11  C   UNL     1       3.403   1.273 -25.417  1.00  0.00     0.031 A 
ENDROOT
BRANCH  11  12
ATOM     12  C   UNL     1       2.968   2.663 -25.717  1.00  0.00     0.031 A 
ATOM     13  C   UNL     1       3.051   3.662 -24.726  1.00  0.00     0.132 A 
ATOM     14  C   UNL     1       2.448   2.972 -26.983  1.00  0.00    -0.039 A 
ATOM     15  C   UNL     1       2.680   5.007 -25.024  1.00  0.00     0.039 A 
ATOM     16  C   UNL     1       1.974   4.260 -27.235  1.00  0.00     0.013 A 
ATOM     17  C   UNL     1       2.312   1.913 -28.051  1.00  0.00     0.045 C 
ATOM     18  C   UNL     1       2.073   5.298 -26.285  1.00  0.00    -0.006 A 
ATOM     19  C   UNL     1       2.865   6.063 -24.086  1.00  0.00     0.072 A 
ATOM     20  C   UNL     1       1.561   6.609 -26.551  1.00  0.00     0.008 A 
ATOM     21  C   UNL     1       2.311   7.330 -24.333  1.00  0.00     0.169 A 
ATOM     22  C   UNL     1       1.600   7.577 -25.520  1.00  0.00     0.162 A 
BRANCH  13  23
ATOM     23  O   UNL     1       3.457   3.310 -23.434  1.00  0.00    -0.507 OA
ATOM     24  H   UNL     1       3.479   2.360 -23.087  1.00  0.00     0.293 HD
ENDBRANCH  13  23
BRANCH  19  25
ATOM     25  C   UNL     1       3.732   5.909 -22.891  1.00  0.00     0.264 C 
ATOM     26  O   UNL     1       3.263   5.506 -21.793  1.00  0.00    -0.298 OA
ENDBRANCH  19  25
BRANCH  20  27
ATOM     27  C   UNL     1       0.920   7.026 -27.893  1.00  0.00     0.017 C 
ATOM     28  C   UNL     1       1.000   8.541 -28.125  1.00  0.00     0.012 C 
ATOM     29  C   UNL     1      -0.492   6.447 -28.123  1.00  0.00     0.012 C 
ENDBRANCH  20  27
BRANCH  21  30
ATOM     30  O   UNL     1       2.524   8.350 -23.398  1.00  0.00    -0.504 OA
ATOM     31  H   UNL     1       3.242   9.056 -23.480  1.00  0.00     0.293 HD
ENDBRANCH  21  30
BRANCH  22  32
ATOM     32  O   UNL     1       0.915   8.786 -25.694  1.00  0.00    -0.504 OA
ATOM     33  H   UNL     1       0.328   8.998 -26.488  1.00  0.00     0.293 HD
ENDBRANCH  22  32
ENDBRANCH  11  12
BRANCH  10  34
ATOM     34  O   UNL     1       1.092   0.612 -25.116  1.00  0.00    -0.507 OA
ATOM     35  H   UNL     1       0.343  -0.068 -25.127  1.00  0.00     0.293 HD
ENDBRANCH  10  34
BRANCH   9  36
ATOM     36  C   UNL     1       6.080  -3.262 -25.202  1.00  0.00     0.017 C 
ATOM     37  C   UNL     1       7.011  -3.295 -23.983  1.00  0.00     0.012 C 
ATOM     38  C   UNL     1       6.711  -2.569 -26.428  1.00  0.00     0.012 C 
ENDBRANCH   9  36
BRANCH   6  39
ATOM     39  C   UNL     1       0.538  -1.745 -24.068  1.00  0.00     0.264 C 
ATOM     40  O   UNL     1      -0.359  -1.975 -24.922  1.00  0.00    -0.298 OA
ENDBRANCH   6  39
BRANCH   8  41
ATOM     41  O   UNL     1       4.152  -5.034 -24.151  1.00  0.00    -0.504 OA
ATOM     42  H   UNL     1       5.007  -5.267 -23.662  1.00  0.00     0.293 HD
ENDBRANCH   8  41
BRANCH   7  43
ATOM     43  O   UNL     1       1.564  -4.352 -23.598  1.00  0.00    -0.504 OA
ATOM     44  H   UNL     1       0.674  -4.612 -24.003  1.00  0.00     0.293 HD
ENDBRANCH   7  43
TORSDOF 11
ENDMDL
MODEL 7
REMARK VINA RESULT:    -0.628      2.341      9.011
REMARK INTER + INTRA:          -0.431
REMARK INTER:                  -1.076
REMARK INTRA:                   0.644
REMARK UNBOUND:                 0.490
REMARK SMILES Cc1cc2c(C(C)C)c(O)c(O)c(C=O)c2c(O)c1-c1c(C)cc2c(C(C)C)c(O)c(O)c(C=O)c2c1O
REMARK SMILES IDX 1 1 2 2 3 3 4 4 16 5 13 6 11 7 9 8 5 9 17 10 19 11 20 12
REMARK SMILES IDX 37 13 21 14 36 15 23 16 22 17 24 18 33 19 25 20 31 21 29 22
REMARK SMILES IDX 38 23 34 25 35 26 26 27 27 28 28 29 32 30 30 32 18 34 6 36
REMARK SMILES IDX 7 37 8 38 14 39 15 40 10 41 12 43
REMARK H PARENT 38 24 32 31 30 33 18 35 10 42 12 44
REMARK Flexibility Score: inf
ROOT
ATOM      1  C   UNL     1       1.474   1.389 -27.587  1.00  0.00     0.045 C 
ATOM      2  C   UNL     1       1.935   2.514 -26.691  1.00  0.00    -0.039 A 
ATOM      3  C   UNL     1       1.527   3.820 -26.963  1.00  0.00     0.013 A 
ATOM      4  C   UNL     1       1.923   4.911 -26.165  1.00  0.00    -0.006 A 
ATOM      5  C   UNL     1       2.671   4.649 -24.976  1.00  0.00     0.039 A 
ATOM      6  C   UNL     1       2.927   5.721 -24.068  1.00  0.00     0.072 A 
ATOM      7  C   UNL     1       2.467   7.019 -24.368  1.00  0.00     0.169 A 
ATOM      8  C   UNL     1       1.826   7.284 -25.581  1.00  0.00     0.162 A 
ATOM      9  C   UNL     1       1.582   6.256 -26.519  1.00  0.00     0.008 A 
ATOM     10  C   UNL     1       3.153   3.324 -24.743  1.00  0.00     0.132 A 
ATOM     11  C   UNL     1       2.778   2.267 -25.598  1.00  0.00     0.031 A 
ENDROOT
BRANCH  11  12
ATOM     12  C   UNL     1       3.269   0.886 -25.345  1.00  0.00     0.031 A 
ATOM     13  C   UNL     1       2.440  -0.056 -24.703  1.00  0.00     0.132 A 
ATOM     14  C   UNL     1       4.572   0.530 -25.725  1.00  0.00    -0.039 A 
ATOM     15  C   UNL     1       2.888  -1.395 -24.502  1.00  0.00     0.039 A 
ATOM     16  C   UNL     1       5.052  -0.745 -25.420  1.00  0.00     0.013 A 
ATOM     17  C   UNL     1       5.494   1.530 -26.380  1.00  0.00     0.045 C 
ATOM     18  C   UNL     1       4.243  -1.728 -24.813  1.00  0.00    -0.006 A 
ATOM     19  C   UNL     1       2.034  -2.401 -23.966  1.00  0.00     0.072 A 
ATOM     20  C   UNL     1       4.758  -3.024 -24.486  1.00  0.00     0.008 A 
ATOM     21  C   UNL     1       2.562  -3.650 -23.599  1.00  0.00     0.169 A 
ATOM     22  C   UNL     1       3.927  -3.930 -23.786  1.00  0.00     0.162 A 
BRANCH  13  23
ATOM     23  O   UNL     1       1.189   0.350 -24.222  1.00  0.00    -0.507 OA
ATOM     24  H   UNL     1       1.021   0.658 -23.274  1.00  0.00     0.293 HD
ENDBRANCH  13  23
BRANCH  19  25
ATOM     25  C   UNL     1       0.564  -2.222 -23.887  1.00  0.00     0.264 C 
ATOM     26  O   UNL     1      -0.206  -3.210 -23.745  1.00  0.00    -0.298 OA
ENDBRANCH  19  25
BRANCH  20  27
ATOM     27  C   UNL     1       6.195  -3.486 -24.813  1.00  0.00     0.017 C 
ATOM     28  C   UNL     1       7.173  -3.182 -23.668  1.00  0.00     0.012 C 
ATOM     29  C   UNL     1       6.708  -3.021 -26.193  1.00  0.00     0.012 C 
ENDBRANCH  20  27
BRANCH  21  30
ATOM     30  O   UNL     1       1.693  -4.623 -23.090  1.00  0.00    -0.504 OA
ATOM     31  H   UNL     1       0.939  -5.043 -23.616  1.00  0.00     0.293 HD
ENDBRANCH  21  30
BRANCH  22  32
ATOM     32  O   UNL     1       4.482  -5.110 -23.276  1.00  0.00    -0.504 OA
ATOM     33  H   UNL     1       4.544  -5.330 -22.292  1.00  0.00     0.293 HD
ENDBRANCH  22  32
ENDBRANCH  11  12
BRANCH  10  34
ATOM     34  O   UNL     1       4.024   3.063 -23.679  1.00  0.00    -0.507 OA
ATOM     35  H   UNL     1       4.070   3.619 -22.834  1.00  0.00     0.293 HD
ENDBRANCH  10  34
BRANCH   9  36
ATOM     36  C   UNL     1       0.965   6.662 -27.872  1.00  0.00     0.017 C 
ATOM     37  C   UNL     1       1.063   8.173 -28.125  1.00  0.00     0.012 C 
ATOM     38  C   UNL     1      -0.448   6.096 -28.124  1.00  0.00     0.012 C 
ENDBRANCH   9  36
BRANCH   6  39
ATOM     39  C   UNL     1       3.597   5.502 -22.770  1.00  0.00     0.264 C 
ATOM     40  O   UNL     1       4.688   6.075 -22.507  1.00  0.00    -0.298 OA
ENDBRANCH   6  39
BRANCH   8  41
ATOM     41  O   UNL     1       1.403   8.590 -25.858  1.00  0.00    -0.504 OA
ATOM     42  H   UNL     1       0.464   8.813 -26.165  1.00  0.00     0.293 HD
ENDBRANCH   8  41
BRANCH   7  43
ATOM     43  O   UNL     1       2.614   8.077 -23.463  1.00  0.00    -0.504 OA
ATOM     44  H   UNL     1       2.360   9.035 -23.663  1.00  0.00     0.293 HD
ENDBRANCH   7  43
TORSDOF 11
ENDMDL
