MODEL 1
REMARK VINA RESULT:    -4.003      0.000      0.000
REMARK INTER + INTRA:          -5.434
REMARK INTER:                  -5.173
REMARK INTRA:                  -0.261
REMARK UNBOUND:                -0.261
REMARK SMILES CCCCCCC(=O)[O-]
REMARK SMILES IDX 5 1 6 2 7 3 8 4 9 5 4 6 3 7 2 8 1 9
REMARK H PARENT
REMARK Flexibility Score: inf
ROOT
ATOM      1  C   UNL     1     -11.554  -3.633  -6.435  1.00  0.00     0.006 C 
ENDROOT
BRANCH   1   2
ATOM      2  C   UNL     1     -12.738  -4.598  -6.260  1.00  0.00     0.053 C 
BRANCH   2   3
ATOM      3  C   UNL     1     -12.562  -5.496  -5.074  1.00  0.00     0.041 C 
ATOM      4  O   UNL     1     -11.842  -6.525  -5.161  1.00  0.00    -0.550 OA
ATOM      5  O   UNL     1     -13.166  -5.178  -3.864  1.00  0.00    -0.550 OA
ENDBRANCH   2   3
ENDBRANCH   1   2
BRANCH   1   6
ATOM      6  C   UNL     1     -10.900  -3.675  -7.829  1.00  0.00     0.000 C 
BRANCH   6   7
ATOM      7  C   UNL     1     -10.484  -5.095  -8.248  1.00  0.00    -0.000 C 
BRANCH   7   8
ATOM      8  C   UNL     1     -11.087  -5.510  -9.600  1.00  0.00    -0.003 C 
ATOM      9  C   UNL     1     -11.004  -4.404 -10.651  1.00  0.00     0.004 C 
ENDBRANCH   7   8
ENDBRANCH   6   7
ENDBRANCH   1   6
TORSDOF 5
ENDMDL
MODEL 2
REMARK VINA RESULT:    -3.962      1.427      2.036
REMARK INTER + INTRA:          -5.381
REMARK INTER:                  -5.160
REMARK INTRA:                  -0.221
REMARK UNBOUND:                -0.261
REMARK SMILES CCCCCCC(=O)[O-]
REMARK SMILES IDX 5 1 6 2 7 3 8 4 9 5 4 6 3 7 2 8 1 9
REMARK H PARENT
REMARK Flexibility Score: inf
ROOT
ATOM      1  C   UNL     1      -9.622  -5.898  -6.936  1.00  0.00     0.006 C 
ENDROOT
BRANCH   1   2
ATOM      2  C   UNL     1     -10.304  -6.751  -5.853  1.00  0.00     0.053 C 
BRANCH   2   3
ATOM      3  C   UNL     1     -11.453  -6.034  -5.212  1.00  0.00     0.041 C 
ATOM      4  O   UNL     1     -11.277  -4.911  -4.673  1.00  0.00    -0.550 OA
ATOM      5  O   UNL     1     -12.725  -6.593  -5.241  1.00  0.00    -0.550 OA
ENDBRANCH   2   3
ENDBRANCH   1   2
BRANCH   1   6
ATOM      6  C   UNL     1     -10.535  -5.524  -8.119  1.00  0.00     0.000 C 
BRANCH   6   7
ATOM      7  C   UNL     1     -10.796  -4.012  -8.213  1.00  0.00    -0.000 C 
BRANCH   7   8
ATOM      8  C   UNL     1     -11.368  -3.598  -9.578  1.00  0.00    -0.003 C 
ATOM      9  C   UNL     1     -10.962  -4.547 -10.704  1.00  0.00     0.004 C 
ENDBRANCH   7   8
ENDBRANCH   6   7
ENDBRANCH   1   6
TORSDOF 5
ENDMDL
MODEL 3
REMARK VINA RESULT:    -3.915      1.927      3.645
REMARK INTER + INTRA:          -5.321
REMARK INTER:                  -4.923
REMARK INTRA:                  -0.398
REMARK UNBOUND:                -0.261
REMARK SMILES CCCCCCC(=O)[O-]
REMARK SMILES IDX 5 1 6 2 7 3 8 4 9 5 4 6 3 7 2 8 1 9
REMARK H PARENT
REMARK Flexibility Score: inf
ROOT
ATOM      1  C   UNL     1     -10.384  -5.855  -7.715  1.00  0.00     0.006 C 
ENDROOT
BRANCH   1   2
ATOM      2  C   UNL     1      -9.352  -6.128  -6.608  1.00  0.00     0.053 C 
BRANCH   2   3
ATOM      3  C   UNL     1      -9.751  -7.280  -5.737  1.00  0.00     0.041 C 
ATOM      4  O   UNL     1     -10.857  -7.854  -5.915  1.00  0.00    -0.550 OA
ATOM      5  O   UNL     1      -8.886  -7.741  -4.753  1.00  0.00    -0.550 OA
ENDBRANCH   2   3
ENDBRANCH   1   2
BRANCH   1   6
ATOM      6  C   UNL     1     -10.756  -4.370  -7.886  1.00  0.00     0.000 C 
BRANCH   6   7
ATOM      7  C   UNL     1     -11.497  -3.799  -6.664  1.00  0.00    -0.000 C 
BRANCH   7   8
ATOM      8  C   UNL     1     -12.748  -4.615  -6.302  1.00  0.00    -0.003 C 
ATOM      9  C   UNL     1     -12.733  -5.116  -4.859  1.00  0.00     0.004 C 
ENDBRANCH   7   8
ENDBRANCH   6   7
ENDBRANCH   1   6
TORSDOF 5
ENDMDL
MODEL 4
REMARK VINA RESULT:    -3.845      1.667      2.420
REMARK INTER + INTRA:          -5.230
REMARK INTER:                  -4.855
REMARK INTRA:                  -0.375
REMARK UNBOUND:                -0.261
REMARK SMILES CCCCCCC(=O)[O-]
REMARK SMILES IDX 5 1 6 2 7 3 8 4 9 5 4 6 3 7 2 8 1 9
REMARK H PARENT
REMARK Flexibility Score: inf
ROOT
ATOM      1  C   UNL     1     -12.431  -5.206  -5.687  1.00  0.00     0.006 C 
ENDROOT
BRANCH   1   2
ATOM      2  C   UNL     1     -11.032  -5.517  -5.128  1.00  0.00     0.053 C 
BRANCH   2   3
ATOM      3  C   UNL     1     -10.563  -6.886  -5.515  1.00  0.00     0.041 C 
ATOM      4  O   UNL     1     -11.291  -7.628  -6.223  1.00  0.00    -0.550 OA
ATOM      5  O   UNL     1      -9.306  -7.328  -5.120  1.00  0.00    -0.550 OA
ENDBRANCH   2   3
ENDBRANCH   1   2
BRANCH   1   6
ATOM      6  C   UNL     1     -12.476  -4.011  -6.658  1.00  0.00     0.000 C 
BRANCH   6   7
ATOM      7  C   UNL     1     -11.103  -3.695  -7.275  1.00  0.00    -0.000 C 
BRANCH   7   8
ATOM      8  C   UNL     1     -11.041  -4.031  -8.774  1.00  0.00    -0.003 C 
ATOM      9  C   UNL     1     -10.643  -5.482  -9.041  1.00  0.00     0.004 C 
ENDBRANCH   7   8
ENDBRANCH   6   7
ENDBRANCH   1   6
TORSDOF 5
ENDMDL
MODEL 5
REMARK VINA RESULT:    -3.839      2.649      4.672
REMARK INTER + INTRA:          -5.222
REMARK INTER:                  -4.979
REMARK INTRA:                  -0.244
REMARK UNBOUND:                -0.261
REMARK SMILES CCCCCCC(=O)[O-]
REMARK SMILES IDX 5 1 6 2 7 3 8 4 9 5 4 6 3 7 2 8 1 9
REMARK H PARENT
REMARK Flexibility Score: inf
ROOT
ATOM      1  C   UNL     1      -9.617  -5.917  -6.840  1.00  0.00     0.006 C 
ENDROOT
BRANCH   1   2
ATOM      2  C   UNL     1     -10.439  -6.043  -8.133  1.00  0.00     0.053 C 
BRANCH   2   3
ATOM      3  C   UNL     1     -10.587  -4.728  -8.836  1.00  0.00     0.041 C 
ATOM      4  O   UNL     1     -10.598  -4.681 -10.094  1.00  0.00    -0.550 OA
ATOM      5  O   UNL     1     -10.746  -3.560  -8.101  1.00  0.00    -0.550 OA
ENDBRANCH   2   3
ENDBRANCH   1   2
BRANCH   1   6
ATOM      6  C   UNL     1     -10.371  -6.340  -5.565  1.00  0.00     0.000 C 
BRANCH   6   7
ATOM      7  C   UNL     1     -11.137  -5.175  -4.914  1.00  0.00    -0.000 C 
BRANCH   7   8
ATOM      8  C   UNL     1     -12.660  -5.320  -5.059  1.00  0.00    -0.003 C 
ATOM      9  C   UNL     1     -13.368  -5.510  -3.718  1.00  0.00     0.004 C 
ENDBRANCH   7   8
ENDBRANCH   6   7
ENDBRANCH   1   6
TORSDOF 5
ENDMDL
MODEL 6
REMARK VINA RESULT:    -3.822      1.682      2.465
REMARK INTER + INTRA:          -5.200
REMARK INTER:                  -4.822
REMARK INTRA:                  -0.378
REMARK UNBOUND:                -0.261
REMARK SMILES CCCCCCC(=O)[O-]
REMARK SMILES IDX 5 1 6 2 7 3 8 4 9 5 4 6 3 7 2 8 1 9
REMARK H PARENT
REMARK Flexibility Score: inf
ROOT
ATOM      1  C   UNL     1     -12.394  -5.298  -5.440  1.00  0.00     0.006 C 
ENDROOT
BRANCH   1   2
ATOM      2  C   UNL     1     -10.922  -5.608  -5.122  1.00  0.00     0.053 C 
BRANCH   2   3
ATOM      3  C   UNL     1     -10.533  -6.991  -5.548  1.00  0.00     0.041 C 
ATOM      4  O   UNL     1      -9.415  -7.464  -5.217  1.00  0.00    -0.550 OA
ATOM      5  O   UNL     1     -11.421  -7.768  -6.282  1.00  0.00    -0.550 OA
ENDBRANCH   2   3
ENDBRANCH   1   2
BRANCH   1   6
ATOM      6  C   UNL     1     -12.598  -4.274  -6.572  1.00  0.00     0.000 C 
BRANCH   6   7
ATOM      7  C   UNL     1     -11.271  -3.744  -7.140  1.00  0.00    -0.000 C 
BRANCH   7   8
ATOM      8  C   UNL     1     -11.135  -3.999  -8.650  1.00  0.00    -0.003 C 
ATOM      9  C   UNL     1     -10.576  -5.384  -8.969  1.00  0.00     0.004 C 
ENDBRANCH   7   8
ENDBRANCH   6   7
ENDBRANCH   1   6
TORSDOF 5
ENDMDL
MODEL 7
REMARK VINA RESULT:    -3.803      1.670      2.610
REMARK INTER + INTRA:          -5.175
REMARK INTER:                  -4.782
REMARK INTRA:                  -0.393
REMARK UNBOUND:                -0.261
REMARK SMILES CCCCCCC(=O)[O-]
REMARK SMILES IDX 5 1 6 2 7 3 8 4 9 5 4 6 3 7 2 8 1 9
REMARK H PARENT
REMARK Flexibility Score: inf
ROOT
ATOM      1  C   UNL     1     -11.616  -3.944  -6.866  1.00  0.00     0.006 C 
ENDROOT
BRANCH   1   2
ATOM      2  C   UNL     1     -12.629  -4.876  -6.181  1.00  0.00     0.053 C 
BRANCH   2   3
ATOM      3  C   UNL     1     -12.411  -4.953  -4.700  1.00  0.00     0.041 C 
ATOM      4  O   UNL     1     -13.332  -5.360  -3.946  1.00  0.00    -0.550 OA
ATOM      5  O   UNL     1     -11.179  -4.606  -4.159  1.00  0.00    -0.550 OA
ENDBRANCH   2   3
ENDBRANCH   1   2
BRANCH   1   6
ATOM      6  C   UNL     1     -10.764  -4.622  -7.955  1.00  0.00     0.000 C 
BRANCH   6   7
ATOM      7  C   UNL     1     -10.441  -6.090  -7.629  1.00  0.00    -0.000 C 
BRANCH   7   8
ATOM      8  C   UNL     1      -9.241  -6.231  -6.679  1.00  0.00    -0.003 C 
ATOM      9  C   UNL     1      -9.484  -7.244  -5.561  1.00  0.00     0.004 C 
ENDBRANCH   7   8
ENDBRANCH   6   7
ENDBRANCH   1   6
TORSDOF 5
ENDMDL
MODEL 8
REMARK VINA RESULT:    -3.695      2.727      4.199
REMARK INTER + INTRA:          -5.036
REMARK INTER:                  -4.626
REMARK INTRA:                  -0.410
REMARK UNBOUND:                -0.261
REMARK SMILES CCCCCCC(=O)[O-]
REMARK SMILES IDX 5 1 6 2 7 3 8 4 9 5 4 6 3 7 2 8 1 9
REMARK H PARENT
REMARK Flexibility Score: inf
ROOT
ATOM      1  C   UNL     1     -12.158  -4.055  -6.852  1.00  0.00     0.006 C 
ENDROOT
BRANCH   1   2
ATOM      2  C   UNL     1     -10.892  -3.719  -7.657  1.00  0.00     0.053 C 
BRANCH   2   3
ATOM      3  C   UNL     1     -10.808  -4.507  -8.929  1.00  0.00     0.041 C 
ATOM      4  O   UNL     1     -10.453  -5.714  -8.903  1.00  0.00    -0.550 OA
ATOM      5  O   UNL     1     -11.154  -3.916 -10.138  1.00  0.00    -0.550 OA
ENDBRANCH   2   3
ENDBRANCH   1   2
BRANCH   1   6
ATOM      6  C   UNL     1     -11.888  -4.740  -5.499  1.00  0.00     0.000 C 
BRANCH   6   7
ATOM      7  C   UNL     1     -12.251  -6.234  -5.506  1.00  0.00    -0.000 C 
BRANCH   7   8
ATOM      8  C   UNL     1     -11.025  -7.136  -5.720  1.00  0.00    -0.003 C 
ATOM      9  C   UNL     1      -9.713  -6.455  -5.332  1.00  0.00     0.004 C 
ENDBRANCH   7   8
ENDBRANCH   6   7
ENDBRANCH   1   6
TORSDOF 5
ENDMDL
MODEL 9
REMARK VINA RESULT:    -3.690      1.827      3.062
REMARK INTER + INTRA:          -5.029
REMARK INTER:                  -4.702
REMARK INTRA:                  -0.328
REMARK UNBOUND:                -0.261
REMARK SMILES CCCCCCC(=O)[O-]
REMARK SMILES IDX 5 1 6 2 7 3 8 4 9 5 4 6 3 7 2 8 1 9
REMARK H PARENT
REMARK Flexibility Score: inf
ROOT
ATOM      1  C   UNL     1      -9.513  -5.913  -6.655  1.00  0.00     0.006 C 
ENDROOT
BRANCH   1   2
ATOM      2  C   UNL     1      -9.788  -7.102  -5.719  1.00  0.00     0.053 C 
BRANCH   2   3
ATOM      3  C   UNL     1     -11.230  -7.511  -5.740  1.00  0.00     0.041 C 
ATOM      4  O   UNL     1     -12.106  -6.769  -5.225  1.00  0.00    -0.550 OA
ATOM      5  O   UNL     1     -11.607  -8.697  -6.358  1.00  0.00    -0.550 OA
ENDBRANCH   2   3
ENDBRANCH   1   2
BRANCH   1   6
ATOM      6  C   UNL     1     -10.115  -6.060  -8.064  1.00  0.00     0.000 C 
BRANCH   6   7
ATOM      7  C   UNL     1     -10.905  -4.816  -8.506  1.00  0.00    -0.000 C 
BRANCH   7   8
ATOM      8  C   UNL     1     -11.087  -3.801  -7.367  1.00  0.00    -0.003 C 
ATOM      9  C   UNL     1     -12.487  -3.838  -6.756  1.00  0.00     0.004 C 
ENDBRANCH   7   8
ENDBRANCH   6   7
ENDBRANCH   1   6
TORSDOF 5
ENDMDL
