MODEL 1
REMARK VINA RESULT:    -3.637      0.000      0.000
REMARK INTER + INTRA:          -6.089
REMARK INTER:                  -5.551
REMARK INTRA:                  -0.538
REMARK UNBOUND:                -0.538
REMARK SMILES O=C([O-])CCCCCCCCC(=O)[O-]
REMARK SMILES IDX 7 1 6 2 5 3 4 4 2 5 1 6 3 7 8 8 9 9 10 10 11 11 12 12 13 13
REMARK SMILES IDX 14 14
REMARK H PARENT
REMARK Flexibility Score: inf
ROOT
ATOM      1  C   UNL     1     -93.459 146.547 238.998  1.00  0.00     0.000 C 
ENDROOT
BRANCH   1   2
ATOM      2  C   UNL     1     -93.557 148.029 239.391  1.00  0.00     0.000 C 
BRANCH   2   3
ATOM      3  C   UNL     1     -94.767 148.732 238.751  1.00  0.00     0.006 C 
BRANCH   3   4
ATOM      4  C   UNL     1     -96.081 148.387 239.465  1.00  0.00     0.053 C 
BRANCH   4   5
ATOM      5  C   UNL     1     -96.014 148.691 240.930  1.00  0.00     0.041 C 
ATOM      6  O   UNL     1     -95.912 149.882 241.327  1.00  0.00    -0.550 OA
ATOM      7  O   UNL     1     -96.095 147.661 241.858  1.00  0.00    -0.550 OA
ENDBRANCH   4   5
ENDBRANCH   3   4
ENDBRANCH   2   3
ENDBRANCH   1   2
BRANCH   1   8
ATOM      8  C   UNL     1     -92.009 146.047 238.922  1.00  0.00     0.000 C 
BRANCH   8   9
ATOM      9  C   UNL     1     -91.627 145.686 237.481  1.00  0.00     0.000 C 
BRANCH   9  10
ATOM     10  C   UNL     1     -92.797 145.947 236.520  1.00  0.00     0.006 C 
BRANCH  10  11
ATOM     11  C   UNL     1     -92.332 146.083 235.064  1.00  0.00     0.053 C 
BRANCH  11  12
ATOM     12  C   UNL     1     -93.018 147.217 234.365  1.00  0.00     0.041 C 
ATOM     13  O   UNL     1     -92.535 147.694 233.304  1.00  0.00    -0.550 OA
ATOM     14  O   UNL     1     -94.210 147.725 234.867  1.00  0.00    -0.550 OA
ENDBRANCH  11  12
ENDBRANCH  10  11
ENDBRANCH   9  10
ENDBRANCH   8   9
ENDBRANCH   1   8
TORSDOF 9
ENDMDL
MODEL 2
REMARK VINA RESULT:    -3.618      1.323      6.666
REMARK INTER + INTRA:          -6.059
REMARK INTER:                  -5.673
REMARK INTRA:                  -0.387
REMARK UNBOUND:                -0.538
REMARK SMILES O=C([O-])CCCCCCCCC(=O)[O-]
REMARK SMILES IDX 7 1 6 2 5 3 4 4 2 5 1 6 3 7 8 8 9 9 10 10 11 11 12 12 13 13
REMARK SMILES IDX 14 14
REMARK H PARENT
REMARK Flexibility Score: inf
ROOT
ATOM      1  C   UNL     1     -93.424 146.491 239.092  1.00  0.00     0.000 C 
ENDROOT
BRANCH   1   2
ATOM      2  C   UNL     1     -91.983 146.014 238.851  1.00  0.00     0.000 C 
BRANCH   2   3
ATOM      3  C   UNL     1     -91.725 145.630 237.383  1.00  0.00     0.006 C 
BRANCH   3   4
ATOM      4  C   UNL     1     -92.882 146.043 236.465  1.00  0.00     0.053 C 
BRANCH   4   5
ATOM      5  C   UNL     1     -92.491 145.993 235.020  1.00  0.00     0.041 C 
ATOM      6  O   UNL     1     -92.074 144.918 234.513  1.00  0.00    -0.550 OA
ATOM      7  O   UNL     1     -92.614 147.126 234.226  1.00  0.00    -0.550 OA
ENDBRANCH   4   5
ENDBRANCH   3   4
ENDBRANCH   2   3
ENDBRANCH   1   2
BRANCH   1   8
ATOM      8  C   UNL     1     -93.497 147.962 239.528  1.00  0.00     0.000 C 
BRANCH   8   9
ATOM      9  C   UNL     1     -94.702 148.665 238.891  1.00  0.00     0.000 C 
BRANCH   9  10
ATOM     10  C   UNL     1     -95.950 148.529 239.776  1.00  0.00     0.006 C 
BRANCH  10  11
ATOM     11  C   UNL     1     -95.849 149.372 241.054  1.00  0.00     0.053 C 
BRANCH  11  12
ATOM     12  C   UNL     1     -97.193 149.847 241.514  1.00  0.00     0.041 C 
ATOM     13  O   UNL     1     -97.996 150.369 240.696  1.00  0.00    -0.550 OA
ATOM     14  O   UNL     1     -97.573 149.683 242.841  1.00  0.00    -0.550 OA
ENDBRANCH  11  12
ENDBRANCH  10  11
ENDBRANCH   9  10
ENDBRANCH   8   9
ENDBRANCH   1   8
TORSDOF 9
ENDMDL
MODEL 3
REMARK VINA RESULT:    -3.611      3.176      7.529
REMARK INTER + INTRA:          -6.049
REMARK INTER:                  -5.504
REMARK INTRA:                  -0.545
REMARK UNBOUND:                -0.538
REMARK SMILES O=C([O-])CCCCCCCCC(=O)[O-]
REMARK SMILES IDX 7 1 6 2 5 3 4 4 2 5 1 6 3 7 8 8 9 9 10 10 11 11 12 12 13 13
REMARK SMILES IDX 14 14
REMARK H PARENT
REMARK Flexibility Score: inf
ROOT
ATOM      1  C   UNL     1     -96.192 147.804 239.740  1.00  0.00     0.000 C 
ENDROOT
BRANCH   1   2
ATOM      2  C   UNL     1     -95.392 148.603 238.700  1.00  0.00     0.000 C 
BRANCH   2   3
ATOM      3  C   UNL     1     -93.889 148.275 238.729  1.00  0.00     0.006 C 
BRANCH   3   4
ATOM      4  C   UNL     1     -93.601 146.842 238.261  1.00  0.00     0.053 C 
BRANCH   4   5
ATOM      5  C   UNL     1     -92.806 146.076 239.272  1.00  0.00     0.041 C 
ATOM      6  O   UNL     1     -91.555 145.985 239.160  1.00  0.00    -0.550 OA
ATOM      7  O   UNL     1     -93.444 145.487 240.356  1.00  0.00    -0.550 OA
ENDBRANCH   4   5
ENDBRANCH   3   4
ENDBRANCH   2   3
ENDBRANCH   1   2
BRANCH   1   8
ATOM      8  C   UNL     1     -95.942 148.283 241.178  1.00  0.00     0.000 C 
BRANCH   8   9
ATOM      9  C   UNL     1     -96.418 149.729 241.365  1.00  0.00     0.000 C 
BRANCH   9  10
ATOM     10  C   UNL     1     -97.584 149.800 242.363  1.00  0.00     0.006 C 
BRANCH  10  11
ATOM     11  C   UNL     1     -97.686 148.536 243.227  1.00  0.00     0.053 C 
BRANCH  11  12
ATOM     12  C   UNL     1     -98.402 148.799 244.515  1.00  0.00     0.041 C 
ATOM     13  O   UNL     1     -99.068 147.885 245.070  1.00  0.00    -0.550 OA
ATOM     14  O   UNL     1     -98.307 150.045 245.123  1.00  0.00    -0.550 OA
ENDBRANCH  11  12
ENDBRANCH  10  11
ENDBRANCH   9  10
ENDBRANCH   8   9
ENDBRANCH   1   8
TORSDOF 9
ENDMDL
MODEL 4
REMARK VINA RESULT:    -3.589      0.719      6.324
REMARK INTER + INTRA:          -6.016
REMARK INTER:                  -5.583
REMARK INTRA:                  -0.433
REMARK UNBOUND:                -0.538
REMARK SMILES O=C([O-])CCCCCCCCC(=O)[O-]
REMARK SMILES IDX 7 1 6 2 5 3 4 4 2 5 1 6 3 7 8 8 9 9 10 10 11 11 12 12 13 13
REMARK SMILES IDX 14 14
REMARK H PARENT
REMARK Flexibility Score: inf
ROOT
ATOM      1  C   UNL     1     -91.713 145.674 237.350  1.00  0.00     0.000 C 
ENDROOT
BRANCH   1   2
ATOM      2  C   UNL     1     -92.890 146.020 236.424  1.00  0.00     0.000 C 
BRANCH   2   3
ATOM      3  C   UNL     1     -92.618 145.644 234.956  1.00  0.00     0.006 C 
BRANCH   3   4
ATOM      4  C   UNL     1     -91.942 146.785 234.183  1.00  0.00     0.053 C 
BRANCH   4   5
ATOM      5  C   UNL     1     -92.929 147.566 233.371  1.00  0.00     0.041 C 
ATOM      6  O   UNL     1     -92.960 147.442 232.119  1.00  0.00    -0.550 OA
ATOM      7  O   UNL     1     -93.834 148.411 234.002  1.00  0.00    -0.550 OA
ENDBRANCH   4   5
ENDBRANCH   3   4
ENDBRANCH   2   3
ENDBRANCH   1   2
BRANCH   1   8
ATOM      8  C   UNL     1     -92.000 146.004 238.822  1.00  0.00     0.000 C 
BRANCH   8   9
ATOM      9  C   UNL     1     -93.434 146.516 239.001  1.00  0.00     0.000 C 
BRANCH   9  10
ATOM     10  C   UNL     1     -93.443 147.942 239.572  1.00  0.00     0.006 C 
BRANCH  10  11
ATOM     11  C   UNL     1     -94.833 148.589 239.497  1.00  0.00     0.053 C 
BRANCH  11  12
ATOM     12  C   UNL     1     -95.469 148.697 240.849  1.00  0.00     0.041 C 
ATOM     13  O   UNL     1     -95.804 149.823 241.304  1.00  0.00    -0.550 OA
ATOM     14  O   UNL     1     -95.726 147.551 241.592  1.00  0.00    -0.550 OA
ENDBRANCH  11  12
ENDBRANCH  10  11
ENDBRANCH   9  10
ENDBRANCH   8   9
ENDBRANCH   1   8
TORSDOF 9
ENDMDL
MODEL 5
REMARK VINA RESULT:    -3.556      1.814      2.589
REMARK INTER + INTRA:          -5.965
REMARK INTER:                  -5.201
REMARK INTRA:                  -0.764
REMARK UNBOUND:                -0.538
REMARK SMILES O=C([O-])CCCCCCCCC(=O)[O-]
REMARK SMILES IDX 7 1 6 2 5 3 4 4 2 5 1 6 3 7 8 8 9 9 10 10 11 11 12 12 13 13
REMARK SMILES IDX 14 14
REMARK H PARENT
REMARK Flexibility Score: inf
ROOT
ATOM      1  C   UNL     1     -94.421 146.786 241.159  1.00  0.00     0.000 C 
ENDROOT
BRANCH   1   2
ATOM      2  C   UNL     1     -94.554 148.231 240.653  1.00  0.00     0.000 C 
BRANCH   2   3
ATOM      3  C   UNL     1     -96.019 148.653 240.448  1.00  0.00     0.006 C 
BRANCH   3   4
ATOM      4  C   UNL     1     -96.458 149.728 241.452  1.00  0.00     0.053 C 
BRANCH   4   5
ATOM      5  C   UNL     1     -97.379 149.172 242.493  1.00  0.00     0.041 C 
ATOM      6  O   UNL     1     -97.438 147.930 242.692  1.00  0.00    -0.550 OA
ATOM      7  O   UNL     1     -98.153 150.029 243.265  1.00  0.00    -0.550 OA
ENDBRANCH   4   5
ENDBRANCH   3   4
ENDBRANCH   2   3
ENDBRANCH   1   2
BRANCH   1   8
ATOM      8  C   UNL     1     -93.811 145.844 240.111  1.00  0.00     0.000 C 
BRANCH   8   9
ATOM      9  C   UNL     1     -92.771 146.575 239.253  1.00  0.00     0.000 C 
BRANCH   9  10
ATOM     10  C   UNL     1     -92.985 146.282 237.760  1.00  0.00     0.006 C 
BRANCH  10  11
ATOM     11  C   UNL     1     -94.445 146.480 237.333  1.00  0.00     0.053 C 
BRANCH  11  12
ATOM     12  C   UNL     1     -94.626 147.734 236.535  1.00  0.00     0.041 C 
ATOM     13  O   UNL     1     -95.031 148.789 237.093  1.00  0.00    -0.550 OA
ATOM     14  O   UNL     1     -94.315 147.749 235.181  1.00  0.00    -0.550 OA
ENDBRANCH  11  12
ENDBRANCH  10  11
ENDBRANCH   9  10
ENDBRANCH   8   9
ENDBRANCH   1   8
TORSDOF 9
ENDMDL
MODEL 6
REMARK VINA RESULT:    -3.547      2.582      3.936
REMARK INTER + INTRA:          -5.951
REMARK INTER:                  -5.539
REMARK INTRA:                  -0.412
REMARK UNBOUND:                -0.538
REMARK SMILES O=C([O-])CCCCCCCCC(=O)[O-]
REMARK SMILES IDX 7 1 6 2 5 3 4 4 2 5 1 6 3 7 8 8 9 9 10 10 11 11 12 12 13 13
REMARK SMILES IDX 14 14
REMARK H PARENT
REMARK Flexibility Score: inf
ROOT
ATOM      1  C   UNL     1     -95.613 148.889 240.174  1.00  0.00     0.000 C 
ENDROOT
BRANCH   1   2
ATOM      2  C   UNL     1     -96.584 148.709 241.351  1.00  0.00     0.000 C 
BRANCH   2   3
ATOM      3  C   UNL     1     -97.224 150.035 241.797  1.00  0.00     0.006 C 
BRANCH   3   4
ATOM      4  C   UNL     1     -98.566 149.819 242.509  1.00  0.00     0.053 C 
BRANCH   4   5
ATOM      5  C   UNL     1     -98.386 149.586 243.977  1.00  0.00     0.041 C 
ATOM      6  O   UNL     1     -98.433 150.552 244.784  1.00  0.00    -0.550 OA
ATOM      7  O   UNL     1     -98.194 148.297 244.458  1.00  0.00    -0.550 OA
ENDBRANCH   4   5
ENDBRANCH   3   4
ENDBRANCH   2   3
ENDBRANCH   1   2
BRANCH   1   8
ATOM      8  C   UNL     1     -94.246 148.235 240.427  1.00  0.00     0.000 C 
BRANCH   8   9
ATOM      9  C   UNL     1     -94.411 146.829 241.017  1.00  0.00     0.000 C 
BRANCH   9  10
ATOM     10  C   UNL     1     -93.730 145.776 240.130  1.00  0.00     0.006 C 
BRANCH  10  11
ATOM     11  C   UNL     1     -92.635 146.385 239.244  1.00  0.00     0.053 C 
BRANCH  11  12
ATOM     12  C   UNL     1     -92.929 146.195 237.788  1.00  0.00     0.041 C 
ATOM     13  O   UNL     1     -94.052 146.523 237.319  1.00  0.00    -0.550 OA
ATOM     14  O   UNL     1     -91.952 145.689 236.940  1.00  0.00    -0.550 OA
ENDBRANCH  11  12
ENDBRANCH  10  11
ENDBRANCH   9  10
ENDBRANCH   8   9
ENDBRANCH   1   8
TORSDOF 9
ENDMDL
MODEL 7
REMARK VINA RESULT:    -3.526      2.274      3.330
REMARK INTER + INTRA:          -5.919
REMARK INTER:                  -5.442
REMARK INTRA:                  -0.478
REMARK UNBOUND:                -0.538
REMARK SMILES O=C([O-])CCCCCCCCC(=O)[O-]
REMARK SMILES IDX 7 1 6 2 5 3 4 4 2 5 1 6 3 7 8 8 9 9 10 10 11 11 12 12 13 13
REMARK SMILES IDX 14 14
REMARK H PARENT
REMARK Flexibility Score: inf
ROOT
ATOM      1  C   UNL     1     -94.922 148.077 240.859  1.00  0.00     0.000 C 
ENDROOT
BRANCH   1   2
ATOM      2  C   UNL     1     -95.617 149.443 240.961  1.00  0.00     0.000 C 
BRANCH   2   3
ATOM      3  C   UNL     1     -96.881 149.401 241.839  1.00  0.00     0.006 C 
BRANCH   3   4
ATOM      4  C   UNL     1     -97.185 147.985 242.347  1.00  0.00     0.053 C 
BRANCH   4   5
ATOM      5  C   UNL     1     -97.814 148.006 243.706  1.00  0.00     0.041 C 
ATOM      6  O   UNL     1     -98.132 149.100 244.242  1.00  0.00    -0.550 OA
ATOM      7  O   UNL     1     -98.077 146.814 244.368  1.00  0.00    -0.550 OA
ENDBRANCH   4   5
ENDBRANCH   3   4
ENDBRANCH   2   3
ENDBRANCH   1   2
BRANCH   1   8
ATOM      8  C   UNL     1     -93.887 148.020 239.727  1.00  0.00     0.000 C 
BRANCH   8   9
ATOM      9  C   UNL     1     -94.432 148.674 238.451  1.00  0.00     0.000 C 
BRANCH   9  10
ATOM     10  C   UNL     1     -94.496 147.661 237.297  1.00  0.00     0.006 C 
BRANCH  10  11
ATOM     11  C   UNL     1     -93.872 146.311 237.675  1.00  0.00     0.053 C 
BRANCH  11  12
ATOM     12  C   UNL     1     -92.597 146.060 236.932  1.00  0.00     0.041 C 
ATOM     13  O   UNL     1     -91.557 145.716 237.554  1.00  0.00    -0.550 OA
ATOM     14  O   UNL     1     -92.564 146.173 235.547  1.00  0.00    -0.550 OA
ENDBRANCH  11  12
ENDBRANCH  10  11
ENDBRANCH   9  10
ENDBRANCH   8   9
ENDBRANCH   1   8
TORSDOF 9
ENDMDL
MODEL 8
REMARK VINA RESULT:    -3.516      2.330      6.808
REMARK INTER + INTRA:          -5.904
REMARK INTER:                  -5.246
REMARK INTRA:                  -0.658
REMARK UNBOUND:                -0.538
REMARK SMILES O=C([O-])CCCCCCCCC(=O)[O-]
REMARK SMILES IDX 7 1 6 2 5 3 4 4 2 5 1 6 3 7 8 8 9 9 10 10 11 11 12 12 13 13
REMARK SMILES IDX 14 14
REMARK H PARENT
REMARK Flexibility Score: inf
ROOT
ATOM      1  C   UNL     1     -94.594 146.809 241.003  1.00  0.00     0.000 C 
ENDROOT
BRANCH   1   2
ATOM      2  C   UNL     1     -93.643 145.914 240.194  1.00  0.00     0.000 C 
BRANCH   2   3
ATOM      3  C   UNL     1     -92.785 146.711 239.196  1.00  0.00     0.006 C 
BRANCH   3   4
ATOM      4  C   UNL     1     -93.043 146.287 237.744  1.00  0.00     0.053 C 
BRANCH   4   5
ATOM      5  C   UNL     1     -94.384 146.744 237.261  1.00  0.00     0.041 C 
ATOM      6  O   UNL     1     -94.607 147.968 237.068  1.00  0.00    -0.550 OA
ATOM      7  O   UNL     1     -95.381 145.814 236.995  1.00  0.00    -0.550 OA
ENDBRANCH   4   5
ENDBRANCH   3   4
ENDBRANCH   2   3
ENDBRANCH   1   2
BRANCH   1   8
ATOM      8  C   UNL     1     -94.385 148.304 240.721  1.00  0.00     0.000 C 
BRANCH   8   9
ATOM      9  C   UNL     1     -95.697 148.969 240.285  1.00  0.00     0.000 C 
BRANCH   9  10
ATOM     10  C   UNL     1     -96.423 149.594 241.485  1.00  0.00     0.006 C 
BRANCH  10  11
ATOM     11  C   UNL     1     -97.630 148.758 241.932  1.00  0.00     0.053 C 
BRANCH  11  12
ATOM     12  C   UNL     1     -97.961 148.986 243.375  1.00  0.00     0.041 C 
ATOM     13  O   UNL     1     -98.329 150.125 243.769  1.00  0.00    -0.550 OA
ATOM     14  O   UNL     1     -97.897 147.933 244.279  1.00  0.00    -0.550 OA
ENDBRANCH  11  12
ENDBRANCH  10  11
ENDBRANCH   9  10
ENDBRANCH   8   9
ENDBRANCH   1   8
TORSDOF 9
ENDMDL
MODEL 9
REMARK VINA RESULT:    -3.489      3.036      8.066
REMARK INTER + INTRA:          -5.863
REMARK INTER:                  -5.422
REMARK INTRA:                  -0.440
REMARK UNBOUND:                -0.538
REMARK SMILES O=C([O-])CCCCCCCCC(=O)[O-]
REMARK SMILES IDX 7 1 6 2 5 3 4 4 2 5 1 6 3 7 8 8 9 9 10 10 11 11 12 12 13 13
REMARK SMILES IDX 14 14
REMARK H PARENT
REMARK Flexibility Score: inf
ROOT
ATOM      1  C   UNL     1     -96.089 148.817 240.490  1.00  0.00     0.000 C 
ENDROOT
BRANCH   1   2
ATOM      2  C   UNL     1     -94.682 148.258 240.756  1.00  0.00     0.000 C 
BRANCH   2   3
ATOM      3  C   UNL     1     -93.804 148.241 239.492  1.00  0.00     0.006 C 
BRANCH   3   4
ATOM      4  C   UNL     1     -94.618 148.508 238.219  1.00  0.00     0.053 C 
BRANCH   4   5
ATOM      5  C   UNL     1     -94.309 147.513 237.143  1.00  0.00     0.041 C 
ATOM      6  O   UNL     1     -94.748 147.685 235.975  1.00  0.00    -0.550 OA
ATOM      7  O   UNL     1     -93.512 146.411 237.423  1.00  0.00    -0.550 OA
ENDBRANCH   4   5
ENDBRANCH   3   4
ENDBRANCH   2   3
ENDBRANCH   1   2
BRANCH   1   8
ATOM      8  C   UNL     1     -96.487 149.919 241.484  1.00  0.00     0.000 C 
BRANCH   8   9
ATOM      9  C   UNL     1     -98.001 150.158 241.460  1.00  0.00     0.000 C 
BRANCH   9  10
ATOM     10  C   UNL     1     -98.716 149.266 242.487  1.00  0.00     0.006 C 
BRANCH  10  11
ATOM     11  C   UNL     1     -98.072 149.351 243.877  1.00  0.00     0.053 C 
BRANCH  11  12
ATOM     12  C   UNL     1     -98.823 150.278 244.782  1.00  0.00     0.041 C 
ATOM     13  O   UNL     1     -98.214 150.923 245.676  1.00  0.00    -0.550 OA
ATOM     14  O   UNL     1    -100.191 150.455 244.617  1.00  0.00    -0.550 OA
ENDBRANCH  11  12
ENDBRANCH  10  11
ENDBRANCH   9  10
ENDBRANCH   8   9
ENDBRANCH   1   8
TORSDOF 9
ENDMDL
