MODEL 1
REMARK VINA RESULT:    -2.130      0.000      0.000
REMARK INTER + INTRA:          -2.986
REMARK INTER:                  -3.250
REMARK INTRA:                   0.264
REMARK UNBOUND:                 0.264
REMARK SMILES CC1=CCC[C@H](C)C(=O)C[C@H](C(C)C)C(=O)C1
REMARK SMILES IDX 8 1 9 2 6 3 7 4 5 5 4 6 3 7 2 8 1 9 10 11 11 12 15 13 16 14
REMARK SMILES IDX 17 15 12 17 13 18 14 19
REMARK H PARENT
REMARK Flexibility Score: 70.00
ROOT
ATOM      1  C   UNL     1      88.900  31.000  66.564  1.00  0.00     0.136 C 
ATOM      2  O   UNL     1      89.086  30.348  67.582  1.00  0.00    -0.299 OA
ENDROOT
BRANCH   1   3
ATOM      3  C   UNL     1      88.851  32.510  66.633  1.00  0.00     0.053 C 
ATOM      4  C   UNL     1      89.084  33.090  65.233  1.00  0.00     0.016 C 
BRANCH   3   5
ATOM      5  C   UNL     1      87.520  33.039  67.217  1.00  0.00     0.015 C 
BRANCH   5   6
ATOM      6  C   UNL     1      86.538  31.924  67.628  1.00  0.00     0.028 C 
BRANCH   6   7
ATOM      7  C   UNL     1      85.219  32.044  66.896  1.00  0.00    -0.028 C 
ATOM      8  C   UNL     1      84.963  31.641  65.629  1.00  0.00    -0.070 CG0
ATOM      9  C   UNL     1      83.561  31.823  65.102  1.00  0.00     0.039 C 
ATOM     10  G   UNL     1      86.016  31.089  64.691  1.00  0.00     0.000 G0
ENDBRANCH   6   7
ENDBRANCH   5   6
ENDBRANCH   3   5
ENDBRANCH   1   3
BRANCH   1  11
ATOM     11  C   UNL     1      88.691  30.282  65.252  1.00  0.00     0.087 C 
BRANCH  11  12
ATOM     12  C   UNL     1      87.641  29.154  65.368  1.00  0.00     0.066 C 
BRANCH  12  13
ATOM     13  C   UNL     1      86.275  29.643  64.924  1.00  0.00     0.140 C 
ATOM     14  O   UNL     1      85.373  28.840  64.732  1.00  0.00    -0.299 OA
BRANCH  13  15
ATOM     15  C   UNL     1      86.016  31.102  64.668  1.00  0.00     0.106 CG0
ATOM     16  G   UNL     1      84.997  31.628  65.658  1.00  0.00     0.000 G0
ENDBRANCH  13  15
ENDBRANCH  12  13
BRANCH  12  17
ATOM     17  C   UNL     1      88.088  27.850  64.639  1.00  0.00    -0.006 C 
ATOM     18  C   UNL     1      89.005  26.939  65.473  1.00  0.00     0.008 C 
ATOM     19  C   UNL     1      88.750  28.171  63.290  1.00  0.00     0.008 C 
ENDBRANCH  12  17
ENDBRANCH  11  12
ENDBRANCH   1  11
TORSDOF 1
ENDMDL
MODEL 2
REMARK VINA RESULT:    -1.632      2.281      4.087
REMARK INTER + INTRA:          -2.227
REMARK INTER:                  -2.634
REMARK INTRA:                   0.406
REMARK UNBOUND:                 0.264
REMARK SMILES CC1=CCC[C@H](C)C(=O)C[C@H](C(C)C)C(=O)C1
REMARK SMILES IDX 8 1 9 2 6 3 7 4 5 5 4 6 3 7 2 8 1 9 10 11 11 12 15 13 16 14
REMARK SMILES IDX 17 15 12 17 13 18 14 19
REMARK H PARENT
REMARK Flexibility Score: 70.00
ROOT
ATOM      1  C   UNL     1      87.132  30.880  66.149  1.00  0.00     0.136 C 
ATOM      2  O   UNL     1      86.813  30.958  67.327  1.00  0.00    -0.299 OA
ENDROOT
BRANCH   1   3
ATOM      3  C   UNL     1      88.594  30.889  65.761  1.00  0.00     0.053 C 
ATOM      4  C   UNL     1      88.801  29.979  64.544  1.00  0.00     0.016 C 
BRANCH   3   5
ATOM      5  C   UNL     1      89.125  32.311  65.462  1.00  0.00     0.015 C 
BRANCH   5   6
ATOM      6  C   UNL     1      88.511  33.403  66.360  1.00  0.00     0.028 C 
BRANCH   6   7
ATOM      7  C   UNL     1      88.085  34.612  65.556  1.00  0.00    -0.028 C 
ATOM      8  C   UNL     1      87.301  34.608  64.452  1.00  0.00    -0.070 CG0
ATOM      9  C   UNL     1      86.966  35.937  63.821  1.00  0.00     0.039 C 
ATOM     10  G   UNL     1      86.803  33.347  63.776  1.00  0.00     0.000 G0
ENDBRANCH   6   7
ENDBRANCH   5   6
ENDBRANCH   3   5
ENDBRANCH   1   3
BRANCH   1  11
ATOM     11  C   UNL     1      86.056  30.808  65.092  1.00  0.00     0.087 C 
BRANCH  11  12
ATOM     12  C   UNL     1      85.061  31.985  65.196  1.00  0.00     0.066 C 
BRANCH  12  13
ATOM     13  C   UNL     1      85.371  33.044  64.154  1.00  0.00     0.140 C 
ATOM     14  O   UNL     1      84.458  33.639  63.599  1.00  0.00    -0.299 OA
BRANCH  13  15
ATOM     15  C   UNL     1      86.788  33.350  63.752  1.00  0.00     0.106 CG0
ATOM     16  G   UNL     1      87.270  34.599  64.461  1.00  0.00     0.000 G0
ENDBRANCH  13  15
ENDBRANCH  12  13
BRANCH  12  17
ATOM     17  C   UNL     1      83.575  31.513  65.160  1.00  0.00    -0.006 C 
ATOM     18  C   UNL     1      82.807  31.735  66.473  1.00  0.00     0.008 C 
ATOM     19  C   UNL     1      83.475  30.040  64.734  1.00  0.00     0.008 C 
ENDBRANCH  12  17
ENDBRANCH  11  12
ENDBRANCH   1  11
TORSDOF 1
ENDMDL
MODEL 3
REMARK VINA RESULT:    -0.433      2.025      5.150
REMARK INTER + INTRA:          -0.397
REMARK INTER:                  -2.395
REMARK INTRA:                   1.998
REMARK UNBOUND:                 0.264
REMARK SMILES CC1=CCC[C@H](C)C(=O)C[C@H](C(C)C)C(=O)C1
REMARK SMILES IDX 8 1 9 2 6 3 7 4 5 5 4 6 3 7 2 8 1 9 10 11 11 12 15 13 16 14
REMARK SMILES IDX 17 15 12 17 13 18 14 19
REMARK H PARENT
REMARK Flexibility Score: 70.00
ROOT
ATOM      1  C   UNL     1      84.546  32.015  64.831  1.00  0.00     0.136 C 
ATOM      2  O   UNL     1      83.656  32.841  64.689  1.00  0.00    -0.299 OA
ENDROOT
BRANCH   1   3
ATOM      3  C   UNL     1      84.229  30.658  65.421  1.00  0.00     0.053 C 
ATOM      4  C   UNL     1      82.731  30.581  65.739  1.00  0.00     0.016 C 
BRANCH   3   5
ATOM      5  C   UNL     1      84.639  29.492  64.491  1.00  0.00     0.015 C 
BRANCH   5   6
ATOM      6  C   UNL     1      85.805  28.644  65.037  1.00  0.00     0.028 C 
BRANCH   6   7
ATOM      7  C   UNL     1      87.146  29.269  64.719  1.00  0.00    -0.028 C 
ATOM      8  C   UNL     1      87.766  30.245  65.424  1.00  0.00    -0.070 CG0
ATOM      9  C   UNL     1      89.124  30.702  64.950  1.00  0.00     0.039 C 
ATOM     10  G   UNL     1      87.145  30.951  66.611  1.00  0.00     0.000 G0
ENDBRANCH   6   7
ENDBRANCH   5   6
ENDBRANCH   3   5
ENDBRANCH   1   3
BRANCH   1  11
ATOM     11  C   UNL     1      85.960  32.374  64.442  1.00  0.00     0.087 C 
BRANCH  11  12
ATOM     12  C   UNL     1      86.638  33.279  65.494  1.00  0.00     0.066 C 
BRANCH  12  13
ATOM     13  C   UNL     1      87.337  32.445  66.552  1.00  0.00     0.140 C 
ATOM     14  O   UNL     1      88.102  32.979  67.342  1.00  0.00    -0.299 OA
BRANCH  13  15
ATOM     15  C   UNL     1      87.141  30.955  66.623  1.00  0.00     0.106 CG0
ATOM     16  G   UNL     1      87.808  30.288  65.437  1.00  0.00     0.000 G0
ENDBRANCH  13  15
ENDBRANCH  12  13
BRANCH  12  17
ATOM     17  C   UNL     1      87.573  34.345  64.846  1.00  0.00    -0.006 C 
ATOM     18  C   UNL     1      88.313  35.239  65.856  1.00  0.00     0.008 C 
ATOM     19  C   UNL     1      86.804  35.215  63.839  1.00  0.00     0.008 C 
ENDBRANCH  12  17
ENDBRANCH  11  12
ENDBRANCH   1  11
TORSDOF 1
ENDMDL
MODEL 4
REMARK VINA RESULT:    -0.255      1.699      4.291
REMARK INTER + INTRA:          -0.124
REMARK INTER:                  -2.249
REMARK INTRA:                   2.124
REMARK UNBOUND:                 0.264
REMARK SMILES CC1=CCC[C@H](C)C(=O)C[C@H](C(C)C)C(=O)C1
REMARK SMILES IDX 8 1 9 2 6 3 7 4 5 5 4 6 3 7 2 8 1 9 10 11 11 12 15 13 16 14
REMARK SMILES IDX 17 15 12 17 13 18 14 19
REMARK H PARENT
REMARK Flexibility Score: 70.00
ROOT
ATOM      1  C   UNL     1      85.615  32.377  66.384  1.00  0.00     0.136 C 
ATOM      2  O   UNL     1      85.564  33.183  65.465  1.00  0.00    -0.299 OA
ENDROOT
BRANCH   1   3
ATOM      3  C   UNL     1      84.437  31.468  66.657  1.00  0.00     0.053 C 
ATOM      4  C   UNL     1      83.636  32.018  67.843  1.00  0.00     0.016 C 
BRANCH   3   5
ATOM      5  C   UNL     1      83.518  31.295  65.425  1.00  0.00     0.015 C 
BRANCH   5   6
ATOM      6  C   UNL     1      84.182  30.541  64.256  1.00  0.00     0.028 C 
BRANCH   6   7
ATOM      7  C   UNL     1      84.956  29.334  64.739  1.00  0.00    -0.028 C 
ATOM      8  C   UNL     1      86.292  29.264  64.945  1.00  0.00    -0.070 CG0
ATOM      9  C   UNL     1      86.858  27.966  65.467  1.00  0.00     0.039 C 
ATOM     10  G   UNL     1      87.256  30.386  64.615  1.00  0.00     0.000 G0
ENDBRANCH   6   7
ENDBRANCH   5   6
ENDBRANCH   3   5
ENDBRANCH   1   3
BRANCH   1  11
ATOM     11  C   UNL     1      86.848  32.323  67.254  1.00  0.00     0.087 C 
BRANCH  11  12
ATOM     12  C   UNL     1      88.133  32.101  66.426  1.00  0.00     0.066 C 
BRANCH  12  13
ATOM     13  C   UNL     1      88.139  30.716  65.805  1.00  0.00     0.140 C 
ATOM     14  O   UNL     1      88.887  29.854  66.244  1.00  0.00    -0.299 OA
BRANCH  13  15
ATOM     15  C   UNL     1      87.271  30.391  64.620  1.00  0.00     0.106 CG0
ATOM     16  G   UNL     1      86.303  29.282  64.976  1.00  0.00     0.000 G0
ENDBRANCH  13  15
ENDBRANCH  12  13
BRANCH  12  17
ATOM     17  C   UNL     1      88.372  33.236  65.385  1.00  0.00    -0.006 C 
ATOM     18  C   UNL     1      89.123  32.788  64.119  1.00  0.00     0.008 C 
ATOM     19  C   UNL     1      89.092  34.432  66.027  1.00  0.00     0.008 C 
ENDBRANCH  12  17
ENDBRANCH  11  12
ENDBRANCH   1  11
TORSDOF 1
ENDMDL
MODEL 5
REMARK VINA RESULT:    -0.166     15.195     17.485
REMARK INTER + INTRA:           0.012
REMARK INTER:                  -0.119
REMARK INTRA:                   0.130
REMARK UNBOUND:                 0.264
REMARK SMILES CC1=CCC[C@H](C)C(=O)C[C@H](C(C)C)C(=O)C1
REMARK SMILES IDX 8 1 9 2 6 3 7 4 5 5 4 6 3 7 2 8 1 9 10 11 11 12 15 13 16 14
REMARK SMILES IDX 17 15 12 17 13 18 14 19
REMARK H PARENT
REMARK Flexibility Score: 70.00
ROOT
ATOM      1  C   UNL     1      78.381  32.362  52.358  1.00  0.00     0.136 C 
ATOM      2  O   UNL     1      77.757  31.557  53.036  1.00  0.00    -0.299 OA
ENDROOT
BRANCH   1   3
ATOM      3  C   UNL     1      79.885  32.452  52.487  1.00  0.00     0.053 C 
ATOM      4  C   UNL     1      80.376  31.378  53.465  1.00  0.00     0.016 C 
BRANCH   3   5
ATOM      5  C   UNL     1      80.611  32.309  51.128  1.00  0.00     0.015 C 
BRANCH   5   6
ATOM      6  C   UNL     1      81.628  33.433  50.847  1.00  0.00     0.028 C 
BRANCH   6   7
ATOM      7  C   UNL     1      81.221  34.267  49.653  1.00  0.00    -0.028 C 
ATOM      8  C   UNL     1      80.451  35.381  49.674  1.00  0.00    -0.070 CG0
ATOM      9  C   UNL     1      80.195  36.086  48.365  1.00  0.00     0.039 C 
ATOM     10  G   UNL     1      79.775  35.914  50.920  1.00  0.00     0.000 G0
ENDBRANCH   6   7
ENDBRANCH   5   6
ENDBRANCH   3   5
ENDBRANCH   1   3
BRANCH   1  11
ATOM     11  C   UNL     1      77.632  33.277  51.419  1.00  0.00     0.087 C 
BRANCH  11  12
ATOM     12  C   UNL     1      77.644  34.743  51.907  1.00  0.00     0.066 C 
BRANCH  12  13
ATOM     13  C   UNL     1      78.289  35.649  50.874  1.00  0.00     0.140 C 
ATOM     14  O   UNL     1      77.612  36.123  49.972  1.00  0.00    -0.299 OA
BRANCH  13  15
ATOM     15  C   UNL     1      79.763  35.942  50.908  1.00  0.00     0.106 CG0
ATOM     16  G   UNL     1      80.438  35.352  49.687  1.00  0.00     0.000 G0
ENDBRANCH  13  15
ENDBRANCH  12  13
BRANCH  12  17
ATOM     17  C   UNL     1      76.231  35.234  52.349  1.00  0.00    -0.006 C 
ATOM     18  C   UNL     1      76.219  36.030  53.665  1.00  0.00     0.008 C 
ATOM     19  C   UNL     1      75.242  34.062  52.434  1.00  0.00     0.008 C 
ENDBRANCH  12  17
ENDBRANCH  11  12
ENDBRANCH   1  11
TORSDOF 1
ENDMDL
MODEL 6
REMARK VINA RESULT:    -0.162      1.919      4.628
REMARK INTER + INTRA:           0.017
REMARK INTER:                  -1.604
REMARK INTRA:                   1.621
REMARK UNBOUND:                 0.264
REMARK SMILES CC1=CCC[C@H](C)C(=O)C[C@H](C(C)C)C(=O)C1
REMARK SMILES IDX 8 1 9 2 6 3 7 4 5 5 4 6 3 7 2 8 1 9 10 11 11 12 15 13 16 14
REMARK SMILES IDX 17 15 12 17 13 18 14 19
REMARK H PARENT
REMARK Flexibility Score: 70.00
ROOT
ATOM      1  C   UNL     1      85.987  29.759  64.692  1.00  0.00     0.136 C 
ATOM      2  O   UNL     1      84.797  29.478  64.698  1.00  0.00    -0.299 OA
ENDROOT
BRANCH   1   3
ATOM      3  C   UNL     1      87.005  28.746  65.169  1.00  0.00     0.053 C 
ATOM      4  C   UNL     1      86.829  27.442  64.382  1.00  0.00     0.016 C 
BRANCH   3   5
ATOM      5  C   UNL     1      88.460  29.255  65.042  1.00  0.00     0.015 C 
BRANCH   5   6
ATOM      6  C   UNL     1      89.125  29.577  66.395  1.00  0.00     0.028 C 
BRANCH   6   7
ATOM      7  C   UNL     1      89.124  31.064  66.677  1.00  0.00    -0.028 C 
ATOM      8  C   UNL     1      88.055  31.814  67.034  1.00  0.00    -0.070 CG0
ATOM      9  C   UNL     1      88.283  33.281  67.305  1.00  0.00     0.039 C 
ATOM     10  G   UNL     1      86.638  31.284  67.104  1.00  0.00     0.000 G0
ENDBRANCH   6   7
ENDBRANCH   5   6
ENDBRANCH   3   5
ENDBRANCH   1   3
BRANCH   1  11
ATOM     11  C   UNL     1      86.423  31.131  64.234  1.00  0.00     0.087 C 
BRANCH  11  12
ATOM     12  C   UNL     1      85.589  32.253  64.891  1.00  0.00     0.066 C 
BRANCH  12  13
ATOM     13  C   UNL     1      85.632  32.141  66.403  1.00  0.00     0.140 C 
ATOM     14  O   UNL     1      84.877  32.818  67.087  1.00  0.00    -0.299 OA
BRANCH  13  15
ATOM     15  C   UNL     1      86.621  31.239  67.089  1.00  0.00     0.106 CG0
ATOM     16  G   UNL     1      88.009  31.843  67.017  1.00  0.00     0.000 G0
ENDBRANCH  13  15
ENDBRANCH  12  13
BRANCH  12  17
ATOM     17  C   UNL     1      85.989  33.669  64.375  1.00  0.00    -0.006 C 
ATOM     18  C   UNL     1      85.328  34.070  63.045  1.00  0.00     0.008 C 
ATOM     19  C   UNL     1      87.515  33.806  64.265  1.00  0.00     0.008 C 
ENDBRANCH  12  17
ENDBRANCH  11  12
ENDBRANCH   1  11
TORSDOF 1
ENDMDL
