MODEL 1
REMARK VINA RESULT:    -2.950      0.000      0.000
REMARK INTER + INTRA:          -7.414
REMARK INTER:                  -5.192
REMARK INTRA:                  -2.222
REMARK UNBOUND:                -2.222
REMARK SMILES CCCCCCCCCCCCCCC(=O)[O-]
REMARK SMILES IDX 9 1 10 2 11 3 12 4 13 5 14 6 15 7 16 8 17 9 8 10 7 11 6 12
REMARK SMILES IDX 5 13 4 14 3 15 2 16 1 17
REMARK H PARENT
REMARK Flexibility Score: inf
ROOT
ATOM      1  C   UNL     1    -102.819 -30.798 -14.280  1.00  0.00     0.000 C 
ENDROOT
BRANCH   1   2
ATOM      2  C   UNL     1    -103.280 -29.638 -15.180  1.00  0.00     0.000 C 
BRANCH   2   3
ATOM      3  C   UNL     1    -102.328 -29.398 -16.364  1.00  0.00     0.000 C 
BRANCH   3   4
ATOM      4  C   UNL     1    -101.993 -27.908 -16.569  1.00  0.00     0.000 C 
BRANCH   4   5
ATOM      5  C   UNL     1    -102.788 -26.928 -15.684  1.00  0.00     0.006 C 
BRANCH   5   6
ATOM      6  C   UNL     1    -103.474 -25.786 -16.452  1.00  0.00     0.053 C 
BRANCH   6   7
ATOM      7  C   UNL     1    -104.444 -25.035 -15.594  1.00  0.00     0.041 C 
ATOM      8  O   UNL     1    -104.432 -23.776 -15.577  1.00  0.00    -0.550 OA
ATOM      9  O   UNL     1    -105.338 -25.726 -14.785  1.00  0.00    -0.550 OA
ENDBRANCH   6   7
ENDBRANCH   5   6
ENDBRANCH   4   5
ENDBRANCH   3   4
ENDBRANCH   2   3
ENDBRANCH   1   2
BRANCH   1  10
ATOM     10  C   UNL     1    -101.520 -31.452 -14.774  1.00  0.00     0.000 C 
BRANCH  10  11
ATOM     11  C   UNL     1    -100.399 -31.295 -13.739  1.00  0.00    -0.000 C 
BRANCH  11  12
ATOM     12  C   UNL     1     -99.408 -30.201 -14.165  1.00  0.00    -0.000 C 
BRANCH  12  13
ATOM     13  C   UNL     1     -99.270 -29.094 -13.105  1.00  0.00    -0.000 C 
BRANCH  13  14
ATOM     14  C   UNL     1    -100.225 -27.901 -13.336  1.00  0.00    -0.000 C 
BRANCH  14  15
ATOM     15  C   UNL     1    -101.386 -27.836 -12.325  1.00  0.00    -0.000 C 
BRANCH  15  16
ATOM     16  C   UNL     1    -101.230 -28.773 -11.115  1.00  0.00    -0.003 C 
ATOM     17  C   UNL     1    -102.453 -29.664 -10.895  1.00  0.00     0.004 C 
ENDBRANCH  15  16
ENDBRANCH  14  15
ENDBRANCH  13  14
ENDBRANCH  12  13
ENDBRANCH  11  12
ENDBRANCH  10  11
ENDBRANCH   1  10
TORSDOF 13
ENDMDL
MODEL 2
REMARK VINA RESULT:    -2.859      3.950      5.542
REMARK INTER + INTRA:          -7.254
REMARK INTER:                  -4.890
REMARK INTRA:                  -2.364
REMARK UNBOUND:                -2.222
REMARK SMILES CCCCCCCCCCCCCCC(=O)[O-]
REMARK SMILES IDX 9 1 10 2 11 3 12 4 13 5 14 6 15 7 16 8 17 9 8 10 7 11 6 12
REMARK SMILES IDX 5 13 4 14 3 15 2 16 1 17
REMARK H PARENT
REMARK Flexibility Score: inf
ROOT
ATOM      1  C   UNL     1    -102.066 -30.730 -15.667  1.00  0.00     0.000 C 
ENDROOT
BRANCH   1   2
ATOM      2  C   UNL     1    -100.671 -30.637 -16.307  1.00  0.00     0.000 C 
BRANCH   2   3
ATOM      3  C   UNL     1     -99.543 -30.638 -15.261  1.00  0.00     0.000 C 
BRANCH   3   4
ATOM      4  C   UNL     1    -100.020 -31.086 -13.867  1.00  0.00     0.000 C 
BRANCH   4   5
ATOM      5  C   UNL     1     -99.205 -30.526 -12.683  1.00  0.00     0.006 C 
BRANCH   5   6
ATOM      6  C   UNL     1     -98.108 -29.524 -13.079  1.00  0.00     0.053 C 
BRANCH   6   7
ATOM      7  C   UNL     1     -96.735 -30.066 -12.825  1.00  0.00     0.041 C 
ATOM      8  O   UNL     1     -96.214 -30.875 -13.637  1.00  0.00    -0.550 OA
ATOM      9  O   UNL     1     -96.045 -29.704 -11.674  1.00  0.00    -0.550 OA
ENDBRANCH   6   7
ENDBRANCH   5   6
ENDBRANCH   4   5
ENDBRANCH   3   4
ENDBRANCH   2   3
ENDBRANCH   1   2
BRANCH   1  10
ATOM     10  C   UNL     1    -102.916 -29.473 -15.911  1.00  0.00     0.000 C 
BRANCH  10  11
ATOM     11  C   UNL     1    -102.030 -28.274 -16.270  1.00  0.00    -0.000 C 
BRANCH  11  12
ATOM     12  C   UNL     1    -102.057 -27.218 -15.155  1.00  0.00    -0.000 C 
BRANCH  12  13
ATOM     13  C   UNL     1    -100.994 -27.483 -14.074  1.00  0.00    -0.000 C 
BRANCH  13  14
ATOM     14  C   UNL     1    -101.593 -27.706 -12.667  1.00  0.00    -0.000 C 
BRANCH  14  15
ATOM     15  C   UNL     1    -103.132 -27.638 -12.635  1.00  0.00    -0.000 C 
BRANCH  15  16
ATOM     16  C   UNL     1    -103.805 -28.789 -11.867  1.00  0.00    -0.003 C 
ATOM     17  C   UNL     1    -103.180 -30.150 -12.173  1.00  0.00     0.004 C 
ENDBRANCH  15  16
ENDBRANCH  14  15
ENDBRANCH  13  14
ENDBRANCH  12  13
ENDBRANCH  11  12
ENDBRANCH  10  11
ENDBRANCH   1  10
TORSDOF 13
ENDMDL
MODEL 3
REMARK VINA RESULT:    -2.854      4.017      6.273
REMARK INTER + INTRA:          -7.245
REMARK INTER:                  -5.084
REMARK INTRA:                  -2.161
REMARK UNBOUND:                -2.222
REMARK SMILES CCCCCCCCCCCCCCC(=O)[O-]
REMARK SMILES IDX 9 1 10 2 11 3 12 4 13 5 14 6 15 7 16 8 17 9 8 10 7 11 6 12
REMARK SMILES IDX 5 13 4 14 3 15 2 16 1 17
REMARK H PARENT
REMARK Flexibility Score: inf
ROOT
ATOM      1  C   UNL     1    -102.416 -31.030 -13.023  1.00  0.00     0.000 C 
ENDROOT
BRANCH   1   2
ATOM      2  C   UNL     1    -101.097 -31.758 -13.333  1.00  0.00     0.000 C 
BRANCH   2   3
ATOM      3  C   UNL     1     -99.891 -31.120 -12.623  1.00  0.00     0.000 C 
BRANCH   3   4
ATOM      4  C   UNL     1     -98.868 -30.519 -13.605  1.00  0.00     0.000 C 
BRANCH   4   5
ATOM      5  C   UNL     1     -97.932 -29.450 -13.006  1.00  0.00     0.006 C 
BRANCH   5   6
ATOM      6  C   UNL     1     -96.558 -29.980 -12.564  1.00  0.00     0.053 C 
BRANCH   6   7
ATOM      7  C   UNL     1     -96.442 -30.064 -11.073  1.00  0.00     0.041 C 
ATOM      8  O   UNL     1     -95.355 -30.411 -10.541  1.00  0.00    -0.550 OA
ATOM      9  O   UNL     1     -97.545 -29.793 -10.273  1.00  0.00    -0.550 OA
ENDBRANCH   6   7
ENDBRANCH   5   6
ENDBRANCH   4   5
ENDBRANCH   3   4
ENDBRANCH   2   3
ENDBRANCH   1   2
BRANCH   1  10
ATOM     10  C   UNL     1    -102.260 -29.960 -11.931  1.00  0.00     0.000 C 
BRANCH  10  11
ATOM     11  C   UNL     1    -102.651 -28.575 -12.461  1.00  0.00    -0.000 C 
BRANCH  11  12
ATOM     12  C   UNL     1    -101.412 -27.685 -12.639  1.00  0.00    -0.000 C 
BRANCH  12  13
ATOM     13  C   UNL     1    -100.940 -27.628 -14.102  1.00  0.00    -0.000 C 
BRANCH  13  14
ATOM     14  C   UNL     1    -102.060 -27.237 -15.093  1.00  0.00    -0.000 C 
BRANCH  14  15
ATOM     15  C   UNL     1    -102.135 -28.152 -16.330  1.00  0.00    -0.000 C 
BRANCH  15  16
ATOM     16  C   UNL     1    -101.284 -29.430 -16.231  1.00  0.00    -0.003 C 
ATOM     17  C   UNL     1    -102.008 -30.667 -16.763  1.00  0.00     0.004 C 
ENDBRANCH  15  16
ENDBRANCH  14  15
ENDBRANCH  13  14
ENDBRANCH  12  13
ENDBRANCH  11  12
ENDBRANCH  10  11
ENDBRANCH   1  10
TORSDOF 13
ENDMDL
MODEL 4
REMARK VINA RESULT:    -2.842      1.450      2.511
REMARK INTER + INTRA:          -7.223
REMARK INTER:                  -5.028
REMARK INTRA:                  -2.195
REMARK UNBOUND:                -2.222
REMARK SMILES CCCCCCCCCCCCCCC(=O)[O-]
REMARK SMILES IDX 9 1 10 2 11 3 12 4 13 5 14 6 15 7 16 8 17 9 8 10 7 11 6 12
REMARK SMILES IDX 5 13 4 14 3 15 2 16 1 17
REMARK H PARENT
REMARK Flexibility Score: inf
ROOT
ATOM      1  C   UNL     1    -100.297 -31.266 -14.071  1.00  0.00     0.000 C 
ENDROOT
BRANCH   1   2
ATOM      2  C   UNL     1     -99.847 -30.663 -15.412  1.00  0.00     0.000 C 
BRANCH   2   3
ATOM      3  C   UNL     1    -101.013 -30.486 -16.400  1.00  0.00     0.000 C 
BRANCH   3   4
ATOM      4  C   UNL     1    -102.066 -29.476 -15.908  1.00  0.00     0.000 C 
BRANCH   4   5
ATOM      5  C   UNL     1    -101.850 -28.022 -16.373  1.00  0.00     0.006 C 
BRANCH   5   6
ATOM      6  C   UNL     1    -102.567 -26.964 -15.518  1.00  0.00     0.053 C 
BRANCH   6   7
ATOM      7  C   UNL     1    -103.767 -26.399 -16.213  1.00  0.00     0.041 C 
ATOM      8  O   UNL     1    -103.906 -25.153 -16.323  1.00  0.00    -0.550 OA
ATOM      9  O   UNL     1    -104.749 -27.249 -16.708  1.00  0.00    -0.550 OA
ENDBRANCH   6   7
ENDBRANCH   5   6
ENDBRANCH   4   5
ENDBRANCH   3   4
ENDBRANCH   2   3
ENDBRANCH   1   2
BRANCH   1  10
ATOM     10  C   UNL     1     -99.865 -30.419 -12.864  1.00  0.00     0.000 C 
BRANCH  10  11
ATOM     11  C   UNL     1     -99.312 -29.062 -13.317  1.00  0.00    -0.000 C 
BRANCH  11  12
ATOM     12  C   UNL     1    -100.290 -27.928 -12.974  1.00  0.00    -0.000 C 
BRANCH  12  13
ATOM     13  C   UNL     1    -101.262 -28.317 -11.847  1.00  0.00    -0.000 C 
BRANCH  13  14
ATOM     14  C   UNL     1    -102.356 -27.257 -11.587  1.00  0.00    -0.000 C 
BRANCH  14  15
ATOM     15  C   UNL     1    -103.742 -27.655 -12.131  1.00  0.00    -0.000 C 
BRANCH  15  16
ATOM     16  C   UNL     1    -103.820 -29.085 -12.691  1.00  0.00    -0.003 C 
ATOM     17  C   UNL     1    -104.985 -29.278 -13.661  1.00  0.00     0.004 C 
ENDBRANCH  15  16
ENDBRANCH  14  15
ENDBRANCH  13  14
ENDBRANCH  12  13
ENDBRANCH  11  12
ENDBRANCH  10  11
ENDBRANCH   1  10
TORSDOF 13
ENDMDL
MODEL 5
REMARK VINA RESULT:    -2.837      3.322      6.197
REMARK INTER + INTRA:          -7.215
REMARK INTER:                  -5.348
REMARK INTRA:                  -1.867
REMARK UNBOUND:                -2.222
REMARK SMILES CCCCCCCCCCCCCCC(=O)[O-]
REMARK SMILES IDX 9 1 10 2 11 3 12 4 13 5 14 6 15 7 16 8 17 9 8 10 7 11 6 12
REMARK SMILES IDX 5 13 4 14 3 15 2 16 1 17
REMARK H PARENT
REMARK Flexibility Score: inf
ROOT
ATOM      1  C   UNL     1    -104.055 -27.756 -12.533  1.00  0.00     0.000 C 
ENDROOT
BRANCH   1   2
ATOM      2  C   UNL     1    -102.716 -28.502 -12.661  1.00  0.00     0.000 C 
BRANCH   2   3
ATOM      3  C   UNL     1    -101.506 -27.586 -12.411  1.00  0.00     0.000 C 
BRANCH   3   4
ATOM      4  C   UNL     1    -100.249 -28.030 -13.182  1.00  0.00     0.000 C 
BRANCH   4   5
ATOM      5  C   UNL     1     -99.468 -29.200 -12.549  1.00  0.00     0.006 C 
BRANCH   5   6
ATOM      6  C   UNL     1     -98.248 -29.667 -13.360  1.00  0.00     0.053 C 
BRANCH   6   7
ATOM      7  C   UNL     1     -98.555 -30.874 -14.191  1.00  0.00     0.041 C 
ATOM      8  O   UNL     1     -97.758 -31.241 -15.093  1.00  0.00    -0.550 OA
ATOM      9  O   UNL     1     -99.739 -31.574 -13.992  1.00  0.00    -0.550 OA
ENDBRANCH   6   7
ENDBRANCH   5   6
ENDBRANCH   4   5
ENDBRANCH   3   4
ENDBRANCH   2   3
ENDBRANCH   1   2
BRANCH   1  10
ATOM     10  C   UNL     1    -103.888 -26.322 -12.006  1.00  0.00     0.000 C 
BRANCH  10  11
ATOM     11  C   UNL     1    -104.605 -25.317 -12.916  1.00  0.00    -0.000 C 
BRANCH  11  12
ATOM     12  C   UNL     1    -104.819 -25.903 -14.320  1.00  0.00    -0.000 C 
BRANCH  12  13
ATOM     13  C   UNL     1    -103.903 -25.252 -15.371  1.00  0.00    -0.000 C 
BRANCH  13  14
ATOM     14  C   UNL     1    -103.482 -26.218 -16.501  1.00  0.00    -0.000 C 
BRANCH  14  15
ATOM     15  C   UNL     1    -102.384 -27.214 -16.083  1.00  0.00    -0.000 C 
BRANCH  15  16
ATOM     16  C   UNL     1    -102.730 -28.690 -16.342  1.00  0.00    -0.003 C 
ATOM     17  C   UNL     1    -101.501 -29.600 -16.317  1.00  0.00     0.004 C 
ENDBRANCH  15  16
ENDBRANCH  14  15
ENDBRANCH  13  14
ENDBRANCH  12  13
ENDBRANCH  11  12
ENDBRANCH  10  11
ENDBRANCH   1  10
TORSDOF 13
ENDMDL
MODEL 6
REMARK VINA RESULT:    -2.814      1.533      3.127
REMARK INTER + INTRA:          -7.175
REMARK INTER:                  -5.057
REMARK INTRA:                  -2.118
REMARK UNBOUND:                -2.222
REMARK SMILES CCCCCCCCCCCCCCC(=O)[O-]
REMARK SMILES IDX 9 1 10 2 11 3 12 4 13 5 14 6 15 7 16 8 17 9 8 10 7 11 6 12
REMARK SMILES IDX 5 13 4 14 3 15 2 16 1 17
REMARK H PARENT
REMARK Flexibility Score: inf
ROOT
ATOM      1  C   UNL     1    -101.062 -28.467 -12.448  1.00  0.00     0.000 C 
ENDROOT
BRANCH   1   2
ATOM      2  C   UNL     1    -100.842 -27.654 -13.736  1.00  0.00     0.000 C 
BRANCH   2   3
ATOM      3  C   UNL     1    -102.162 -27.321 -14.453  1.00  0.00     0.000 C 
BRANCH   3   4
ATOM      4  C   UNL     1    -102.048 -27.411 -15.987  1.00  0.00     0.000 C 
BRANCH   4   5
ATOM      5  C   UNL     1    -103.368 -27.709 -16.727  1.00  0.00     0.006 C 
BRANCH   5   6
ATOM      6  C   UNL     1    -104.173 -26.461 -17.124  1.00  0.00     0.053 C 
BRANCH   6   7
ATOM      7  C   UNL     1    -105.570 -26.501 -16.588  1.00  0.00     0.041 C 
ATOM      8  O   UNL     1    -105.927 -27.431 -15.817  1.00  0.00    -0.550 OA
ATOM      9  O   UNL     1    -106.489 -25.530 -16.965  1.00  0.00    -0.550 OA
ENDBRANCH   6   7
ENDBRANCH   5   6
ENDBRANCH   4   5
ENDBRANCH   3   4
ENDBRANCH   2   3
ENDBRANCH   1   2
BRANCH   1  10
ATOM     10  C   UNL     1     -99.906 -29.435 -12.153  1.00  0.00     0.000 C 
BRANCH  10  11
ATOM     11  C   UNL     1     -98.692 -29.126 -13.038  1.00  0.00    -0.000 C 
BRANCH  11  12
ATOM     12  C   UNL     1     -98.002 -30.421 -13.493  1.00  0.00    -0.000 C 
BRANCH  12  13
ATOM     13  C   UNL     1     -98.983 -31.405 -14.152  1.00  0.00    -0.000 C 
BRANCH  13  14
ATOM     14  C   UNL     1     -99.365 -31.015 -15.598  1.00  0.00    -0.000 C 
BRANCH  14  15
ATOM     15  C   UNL     1    -100.880 -30.818 -15.803  1.00  0.00    -0.000 C 
BRANCH  15  16
ATOM     16  C   UNL     1    -101.759 -31.462 -14.718  1.00  0.00    -0.003 C 
ATOM     17  C   UNL     1    -103.170 -30.873 -14.672  1.00  0.00     0.004 C 
ENDBRANCH  15  16
ENDBRANCH  14  15
ENDBRANCH  13  14
ENDBRANCH  12  13
ENDBRANCH  11  12
ENDBRANCH  10  11
ENDBRANCH   1  10
TORSDOF 13
ENDMDL
MODEL 7
REMARK VINA RESULT:    -2.807      3.541      6.048
REMARK INTER + INTRA:          -7.162
REMARK INTER:                  -4.765
REMARK INTRA:                  -2.397
REMARK UNBOUND:                -2.222
REMARK SMILES CCCCCCCCCCCCCCC(=O)[O-]
REMARK SMILES IDX 9 1 10 2 11 3 12 4 13 5 14 6 15 7 16 8 17 9 8 10 7 11 6 12
REMARK SMILES IDX 5 13 4 14 3 15 2 16 1 17
REMARK H PARENT
REMARK Flexibility Score: inf
ROOT
ATOM      1  C   UNL     1    -103.622 -28.351 -12.287  1.00  0.00     0.000 C 
ENDROOT
BRANCH   1   2
ATOM      2  C   UNL     1    -102.138 -28.739 -12.177  1.00  0.00     0.000 C 
BRANCH   2   3
ATOM      3  C   UNL     1    -101.197 -27.583 -12.555  1.00  0.00     0.000 C 
BRANCH   3   4
ATOM      4  C   UNL     1    -100.001 -28.040 -13.412  1.00  0.00     0.000 C 
BRANCH   4   5
ATOM      5  C   UNL     1     -99.558 -29.501 -13.195  1.00  0.00     0.006 C 
BRANCH   5   6
ATOM      6  C   UNL     1     -98.138 -29.660 -12.625  1.00  0.00     0.053 C 
BRANCH   6   7
ATOM      7  C   UNL     1     -98.151 -29.908 -11.149  1.00  0.00     0.041 C 
ATOM      8  O   UNL     1     -99.244 -30.043 -10.538  1.00  0.00    -0.550 OA
ATOM      9  O   UNL     1     -96.956 -29.956 -10.440  1.00  0.00    -0.550 OA
ENDBRANCH   6   7
ENDBRANCH   5   6
ENDBRANCH   4   5
ENDBRANCH   3   4
ENDBRANCH   2   3
ENDBRANCH   1   2
BRANCH   1  10
ATOM     10  C   UNL     1    -103.824 -26.920 -12.810  1.00  0.00     0.000 C 
BRANCH  10  11
ATOM     11  C   UNL     1    -104.395 -26.933 -14.233  1.00  0.00    -0.000 C 
BRANCH  11  12
ATOM     12  C   UNL     1    -103.564 -26.038 -15.166  1.00  0.00    -0.000 C 
BRANCH  12  13
ATOM     13  C   UNL     1    -102.662 -26.854 -16.107  1.00  0.00    -0.000 C 
BRANCH  13  14
ATOM     14  C   UNL     1    -103.055 -28.347 -16.192  1.00  0.00    -0.000 C 
BRANCH  14  15
ATOM     15  C   UNL     1    -101.845 -29.299 -16.272  1.00  0.00    -0.000 C 
BRANCH  15  16
ATOM     16  C   UNL     1    -102.062 -30.663 -15.597  1.00  0.00    -0.003 C 
ATOM     17  C   UNL     1    -103.465 -30.816 -15.007  1.00  0.00     0.004 C 
ENDBRANCH  15  16
ENDBRANCH  14  15
ENDBRANCH  13  14
ENDBRANCH  12  13
ENDBRANCH  11  12
ENDBRANCH  10  11
ENDBRANCH   1  10
TORSDOF 13
ENDMDL
MODEL 8
REMARK VINA RESULT:    -2.802      1.439      2.682
REMARK INTER + INTRA:          -7.153
REMARK INTER:                  -5.177
REMARK INTRA:                  -1.976
REMARK UNBOUND:                -2.222
REMARK SMILES CCCCCCCCCCCCCCC(=O)[O-]
REMARK SMILES IDX 9 1 10 2 11 3 12 4 13 5 14 6 15 7 16 8 17 9 8 10 7 11 6 12
REMARK SMILES IDX 5 13 4 14 3 15 2 16 1 17
REMARK H PARENT
REMARK Flexibility Score: inf
ROOT
ATOM      1  C   UNL     1    -103.081 -29.993 -13.259  1.00  0.00     0.000 C 
ENDROOT
BRANCH   1   2
ATOM      2  C   UNL     1    -103.486 -28.558 -13.635  1.00  0.00     0.000 C 
BRANCH   2   3
ATOM      3  C   UNL     1    -102.288 -27.594 -13.654  1.00  0.00     0.000 C 
BRANCH   3   4
ATOM      4  C   UNL     1    -101.781 -27.297 -15.077  1.00  0.00     0.000 C 
BRANCH   4   5
ATOM      5  C   UNL     1    -102.797 -27.562 -16.206  1.00  0.00     0.006 C 
BRANCH   5   6
ATOM      6  C   UNL     1    -103.379 -26.295 -16.854  1.00  0.00     0.053 C 
BRANCH   6   7
ATOM      7  C   UNL     1    -104.413 -25.646 -15.988  1.00  0.00     0.041 C 
ATOM      8  O   UNL     1    -105.506 -26.229 -15.761  1.00  0.00    -0.550 OA
ATOM      9  O   UNL     1    -104.185 -24.382 -15.458  1.00  0.00    -0.550 OA
ENDBRANCH   6   7
ENDBRANCH   5   6
ENDBRANCH   4   5
ENDBRANCH   3   4
ENDBRANCH   2   3
ENDBRANCH   1   2
BRANCH   1  10
ATOM     10  C   UNL     1    -103.261 -30.985 -14.418  1.00  0.00     0.000 C 
BRANCH  10  11
ATOM     11  C   UNL     1    -101.946 -31.710 -14.729  1.00  0.00    -0.000 C 
BRANCH  11  12
ATOM     12  C   UNL     1    -101.345 -31.213 -16.053  1.00  0.00    -0.000 C 
BRANCH  12  13
ATOM     13  C   UNL     1    -100.056 -30.400 -15.841  1.00  0.00    -0.000 C 
BRANCH  13  14
ATOM     14  C   UNL     1     -99.331 -30.735 -14.518  1.00  0.00    -0.000 C 
BRANCH  14  15
ATOM     15  C   UNL     1     -99.129 -29.514 -13.600  1.00  0.00    -0.000 C 
BRANCH  15  16
ATOM     16  C   UNL     1     -98.284 -29.793 -12.345  1.00  0.00    -0.003 C 
ATOM     17  C   UNL     1     -96.786 -29.865 -12.644  1.00  0.00     0.004 C 
ENDBRANCH  15  16
ENDBRANCH  14  15
ENDBRANCH  13  14
ENDBRANCH  12  13
ENDBRANCH  11  12
ENDBRANCH  10  11
ENDBRANCH   1  10
TORSDOF 13
ENDMDL
MODEL 9
REMARK VINA RESULT:    -2.800      1.838      3.085
REMARK INTER + INTRA:          -7.151
REMARK INTER:                  -5.282
REMARK INTRA:                  -1.869
REMARK UNBOUND:                -2.222
REMARK SMILES CCCCCCCCCCCCCCC(=O)[O-]
REMARK SMILES IDX 9 1 10 2 11 3 12 4 13 5 14 6 15 7 16 8 17 9 8 10 7 11 6 12
REMARK SMILES IDX 5 13 4 14 3 15 2 16 1 17
REMARK H PARENT
REMARK Flexibility Score: inf
ROOT
ATOM      1  C   UNL     1    -102.510 -27.538 -16.348  1.00  0.00     0.000 C 
ENDROOT
BRANCH   1   2
ATOM      2  C   UNL     1    -103.989 -27.552 -16.772  1.00  0.00     0.000 C 
BRANCH   2   3
ATOM      3  C   UNL     1    -104.566 -26.137 -16.944  1.00  0.00     0.000 C 
BRANCH   3   4
ATOM      4  C   UNL     1    -103.955 -25.119 -15.962  1.00  0.00     0.000 C 
BRANCH   4   5
ATOM      5  C   UNL     1    -104.734 -24.928 -14.645  1.00  0.00     0.006 C 
BRANCH   5   6
ATOM      6  C   UNL     1    -105.108 -23.471 -14.328  1.00  0.00     0.053 C 
BRANCH   6   7
ATOM      7  C   UNL     1    -105.668 -22.763 -15.523  1.00  0.00     0.041 C 
ATOM      8  O   UNL     1    -106.725 -23.179 -16.068  1.00  0.00    -0.550 OA
ATOM      9  O   UNL     1    -105.004 -21.665 -16.056  1.00  0.00    -0.550 OA
ENDBRANCH   6   7
ENDBRANCH   5   6
ENDBRANCH   4   5
ENDBRANCH   3   4
ENDBRANCH   2   3
ENDBRANCH   1   2
BRANCH   1  10
ATOM     10  C   UNL     1    -101.909 -28.948 -16.242  1.00  0.00     0.000 C 
BRANCH  10  11
ATOM     11  C   UNL     1    -101.025 -29.075 -14.995  1.00  0.00    -0.000 C 
BRANCH  11  12
ATOM     12  C   UNL     1    -101.032 -27.771 -14.182  1.00  0.00    -0.000 C 
BRANCH  12  13
ATOM     13  C   UNL     1    -100.737 -28.012 -12.691  1.00  0.00    -0.000 C 
BRANCH  13  14
ATOM     14  C   UNL     1    -101.898 -27.590 -11.761  1.00  0.00    -0.000 C 
BRANCH  14  15
ATOM     15  C   UNL     1    -103.182 -27.198 -12.517  1.00  0.00    -0.000 C 
BRANCH  15  16
ATOM     16  C   UNL     1    -104.353 -28.178 -12.333  1.00  0.00    -0.003 C 
ATOM     17  C   UNL     1    -104.485 -29.168 -13.491  1.00  0.00     0.004 C 
ENDBRANCH  15  16
ENDBRANCH  14  15
ENDBRANCH  13  14
ENDBRANCH  12  13
ENDBRANCH  11  12
ENDBRANCH  10  11
ENDBRANCH   1  10
TORSDOF 13
ENDMDL
