MODEL 1
REMARK VINA RESULT:    -6.262      0.000      0.000
REMARK INTER + INTRA:          -9.908
REMARK INTER:                  -9.008
REMARK INTRA:                  -0.901
REMARK UNBOUND:                -0.901
REMARK SMILES O=c1c(O[C@H]2O[C@@H](CO)[C@@H](O)[C@H](O)[C@@H]2O)c(-c2ccc(O)cc2)oc2cc(O)cc(O)c12
REMARK SMILES IDX 4 1 3 2 16 3 24 4 2 5 25 6 1 7 32 8 26 9 30 10 27 11 29 12
REMARK SMILES IDX 17 13 18 14 19 15 20 16 23 17 22 18 21 19 31 21 28 23 5 25
REMARK SMILES IDX 14 26 6 27 12 28 7 29 10 30 15 31 13 33 8 35 9 36 11 38
REMARK H PARENT 21 20 31 22 28 24 15 32 13 34 9 37 11 39
REMARK Flexibility Score: inf
ROOT
ATOM      1  O   UNL     1     173.655 169.529 172.934  1.00  0.00    -0.454 OA
ENDROOT
BRANCH   1   2
ATOM      2  C   UNL     1     173.556 169.862 171.571  1.00  0.00     0.214 A 
ATOM      3  C   UNL     1     174.569 170.631 170.987  1.00  0.00     0.180 A 
ATOM      4  O   UNL     1     174.469 171.016 169.723  1.00  0.00    -0.452 OA
ATOM      5  C   UNL     1     172.464 169.462 170.787  1.00  0.00     0.239 A 
ATOM      6  C   UNL     1     173.472 170.648 168.932  1.00  0.00     0.146 A 
ATOM      7  O   UNL     1     171.564 168.773 171.323  1.00  0.00    -0.285 OA
ATOM      8  C   UNL     1     172.406 169.837 169.418  1.00  0.00     0.111 A 
ATOM      9  C   UNL     1     173.500 171.054 167.596  1.00  0.00     0.094 A 
ATOM     10  C   UNL     1     171.392 169.429 168.494  1.00  0.00     0.134 A 
ATOM     11  C   UNL     1     172.531 170.618 166.699  1.00  0.00     0.123 A 
ATOM     12  C   UNL     1     171.489 169.802 167.148  1.00  0.00     0.093 A 
BRANCH   3  13
ATOM     13  C   UNL     1     175.739 171.058 171.776  1.00  0.00     0.021 A 
ATOM     14  C   UNL     1     177.033 170.727 171.354  1.00  0.00     0.016 A 
ATOM     15  C   UNL     1     178.142 171.211 172.052  1.00  0.00     0.047 A 
ATOM     16  C   UNL     1     177.965 171.966 173.218  1.00  0.00     0.115 A 
ATOM     17  C   UNL     1     175.563 171.837 172.933  1.00  0.00     0.016 A 
ATOM     18  C   UNL     1     176.673 172.297 173.647  1.00  0.00     0.047 A 
BRANCH  16  19
ATOM     19  O   UNL     1     179.079 172.360 173.965  1.00  0.00    -0.508 OA
ATOM     20  H   UNL     1     179.781 172.985 173.583  1.00  0.00     0.293 HD
ENDBRANCH  16  19
ENDBRANCH   3  13
BRANCH  10  21
ATOM     21  O   UNL     1     170.279 168.651 168.824  1.00  0.00    -0.507 OA
ATOM     22  H   UNL     1     170.298 167.679 169.090  1.00  0.00     0.293 HD
ENDBRANCH  10  21
BRANCH  11  23
ATOM     23  O   UNL     1     172.628 170.991 165.360  1.00  0.00    -0.508 OA
ATOM     24  H   UNL     1     171.956 171.624 164.935  1.00  0.00     0.293 HD
ENDBRANCH  11  23
ENDBRANCH   1   2
BRANCH   1  25
ATOM     25  C   UNL     1     174.094 168.261 173.436  1.00  0.00     0.339 C 
ATOM     26  C   UNL     1     174.619 167.377 172.272  1.00  0.00     0.214 C 
ATOM     27  O   UNL     1     172.990 167.639 174.064  1.00  0.00    -0.332 OA
ATOM     28  C   UNL     1     174.268 165.888 172.507  1.00  0.00     0.180 C 
ATOM     29  C   UNL     1     173.381 166.482 174.800  1.00  0.00     0.179 C 
ATOM     30  C   UNL     1     174.370 165.563 174.006  1.00  0.00     0.177 C 
BRANCH  26  31
ATOM     31  O   UNL     1     176.011 167.564 172.168  1.00  0.00    -0.384 OA
ATOM     32  H   UNL     1     176.335 167.895 173.047  1.00  0.00     0.211 HD
ENDBRANCH  26  31
BRANCH  28  33
ATOM     33  O   UNL     1     175.123 165.045 171.767  1.00  0.00    -0.387 OA
ATOM     34  H   UNL     1     174.562 164.304 171.418  1.00  0.00     0.211 HD
ENDBRANCH  28  33
BRANCH  29  35
ATOM     35  C   UNL     1     172.101 165.734 175.218  1.00  0.00     0.191 C 
BRANCH  35  36
ATOM     36  O   UNL     1     172.324 164.936 176.346  1.00  0.00    -0.394 OA
ATOM     37  H   UNL     1     171.579 165.106 176.980  1.00  0.00     0.210 HD
ENDBRANCH  35  36
ENDBRANCH  29  35
BRANCH  30  38
ATOM     38  O   UNL     1     174.109 164.198 174.228  1.00  0.00    -0.387 OA
ATOM     39  H   UNL     1     174.990 163.745 174.330  1.00  0.00     0.211 HD
ENDBRANCH  30  38
ENDBRANCH   1  25
TORSDOF 11
ENDMDL
MODEL 2
REMARK VINA RESULT:    -6.258      2.638      7.253
REMARK INTER + INTRA:          -9.903
REMARK INTER:                  -8.675
REMARK INTRA:                  -1.228
REMARK UNBOUND:                -0.901
REMARK SMILES O=c1c(O[C@H]2O[C@@H](CO)[C@@H](O)[C@H](O)[C@@H]2O)c(-c2ccc(O)cc2)oc2cc(O)cc(O)c12
REMARK SMILES IDX 4 1 3 2 16 3 24 4 2 5 25 6 1 7 32 8 26 9 30 10 27 11 29 12
REMARK SMILES IDX 17 13 18 14 19 15 20 16 23 17 22 18 21 19 31 21 28 23 5 25
REMARK SMILES IDX 14 26 6 27 12 28 7 29 10 30 15 31 13 33 8 35 9 36 11 38
REMARK H PARENT 21 20 31 22 28 24 15 32 13 34 9 37 11 39
REMARK Flexibility Score: inf
ROOT
ATOM      1  O   UNL     1     173.990 168.156 169.960  1.00  0.00    -0.454 OA
ENDROOT
BRANCH   1   2
ATOM      2  C   UNL     1     174.611 169.123 170.771  1.00  0.00     0.214 A 
ATOM      3  C   UNL     1     173.852 169.770 171.754  1.00  0.00     0.180 A 
ATOM      4  O   UNL     1     174.392 170.733 172.486  1.00  0.00    -0.452 OA
ATOM      5  C   UNL     1     175.960 169.470 170.612  1.00  0.00     0.239 A 
ATOM      6  C   UNL     1     175.666 171.084 172.393  1.00  0.00     0.146 A 
ATOM      7  O   UNL     1     176.628 168.882 169.728  1.00  0.00    -0.285 OA
ATOM      8  C   UNL     1     176.534 170.464 171.449  1.00  0.00     0.111 A 
ATOM      9  C   UNL     1     176.150 172.065 173.262  1.00  0.00     0.094 A 
ATOM     10  C   UNL     1     177.912 170.852 171.441  1.00  0.00     0.134 A 
ATOM     11  C   UNL     1     177.498 172.404 173.273  1.00  0.00     0.123 A 
ATOM     12  C   UNL     1     178.373 171.792 172.372  1.00  0.00     0.093 A 
BRANCH   3  13
ATOM     13  C   UNL     1     172.434 169.422 171.960  1.00  0.00     0.021 A 
ATOM     14  C   UNL     1     172.086 168.334 172.772  1.00  0.00     0.016 A 
ATOM     15  C   UNL     1     170.743 168.064 173.040  1.00  0.00     0.047 A 
ATOM     16  C   UNL     1     169.737 168.830 172.440  1.00  0.00     0.115 A 
ATOM     17  C   UNL     1     171.424 170.206 171.378  1.00  0.00     0.016 A 
ATOM     18  C   UNL     1     170.079 169.916 171.624  1.00  0.00     0.047 A 
BRANCH  16  19
ATOM     19  O   UNL     1     168.395 168.488 172.633  1.00  0.00    -0.508 OA
ATOM     20  H   UNL     1     167.664 168.833 172.020  1.00  0.00     0.293 HD
ENDBRANCH  16  19
ENDBRANCH   3  13
BRANCH  10  21
ATOM     21  O   UNL     1     178.878 170.349 170.566  1.00  0.00    -0.507 OA
ATOM     22  H   UNL     1     179.011 170.636 169.608  1.00  0.00     0.293 HD
ENDBRANCH  10  21
BRANCH  11  23
ATOM     23  O   UNL     1     177.956 173.340 174.198  1.00  0.00    -0.508 OA
ATOM     24  H   UNL     1     178.190 173.075 175.151  1.00  0.00     0.293 HD
ENDBRANCH  11  23
ENDBRANCH   1   2
BRANCH   1  25
ATOM     25  C   UNL     1     173.393 168.420 168.685  1.00  0.00     0.339 C 
ATOM     26  C   UNL     1     173.883 167.382 167.639  1.00  0.00     0.214 C 
ATOM     27  O   UNL     1     173.768 169.725 168.294  1.00  0.00    -0.332 OA
ATOM     28  C   UNL     1     174.045 168.037 166.246  1.00  0.00     0.180 C 
ATOM     29  C   UNL     1     173.035 170.170 167.154  1.00  0.00     0.179 C 
ATOM     30  C   UNL     1     172.938 169.081 166.033  1.00  0.00     0.177 C 
BRANCH  26  31
ATOM     31  O   UNL     1     172.958 166.321 167.601  1.00  0.00    -0.384 OA
ATOM     32  H   UNL     1     173.460 165.495 167.372  1.00  0.00     0.211 HD
ENDBRANCH  26  31
BRANCH  28  33
ATOM     33  O   UNL     1     174.002 167.066 165.224  1.00  0.00    -0.387 OA
ATOM     34  H   UNL     1     173.207 166.498 165.402  1.00  0.00     0.211 HD
ENDBRANCH  28  33
BRANCH  29  35
ATOM     35  C   UNL     1     173.689 171.469 166.649  1.00  0.00     0.191 C 
BRANCH  35  36
ATOM     36  O   UNL     1     172.832 172.170 165.794  1.00  0.00    -0.394 OA
ATOM     37  H   UNL     1     173.307 172.997 165.512  1.00  0.00     0.210 HD
ENDBRANCH  35  36
ENDBRANCH  29  35
BRANCH  30  38
ATOM     38  O   UNL     1     173.039 169.644 164.747  1.00  0.00    -0.387 OA
ATOM     39  H   UNL     1     173.943 170.055 164.677  1.00  0.00     0.211 HD
ENDBRANCH  30  38
ENDBRANCH   1  25
TORSDOF 11
ENDMDL
MODEL 3
REMARK VINA RESULT:    -6.223      1.717      6.319
REMARK INTER + INTRA:          -9.852
REMARK INTER:                  -8.783
REMARK INTRA:                  -1.068
REMARK UNBOUND:                -0.901
REMARK SMILES O=c1c(O[C@H]2O[C@@H](CO)[C@@H](O)[C@H](O)[C@@H]2O)c(-c2ccc(O)cc2)oc2cc(O)cc(O)c12
REMARK SMILES IDX 4 1 3 2 16 3 24 4 2 5 25 6 1 7 32 8 26 9 30 10 27 11 29 12
REMARK SMILES IDX 17 13 18 14 19 15 20 16 23 17 22 18 21 19 31 21 28 23 5 25
REMARK SMILES IDX 14 26 6 27 12 28 7 29 10 30 15 31 13 33 8 35 9 36 11 38
REMARK H PARENT 21 20 31 22 28 24 15 32 13 34 9 37 11 39
REMARK Flexibility Score: inf
ROOT
ATOM      1  O   UNL     1     173.009 170.039 171.175  1.00  0.00    -0.454 OA
ENDROOT
BRANCH   1   2
ATOM      2  C   UNL     1     173.160 169.135 172.242  1.00  0.00     0.214 A 
ATOM      3  C   UNL     1     174.335 169.175 173.001  1.00  0.00     0.180 A 
ATOM      4  O   UNL     1     174.533 168.291 173.968  1.00  0.00    -0.452 OA
ATOM      5  C   UNL     1     172.176 168.185 172.555  1.00  0.00     0.239 A 
ATOM      6  C   UNL     1     173.629 167.389 174.321  1.00  0.00     0.146 A 
ATOM      7  O   UNL     1     171.128 168.162 171.867  1.00  0.00    -0.285 OA
ATOM      8  C   UNL     1     172.385 167.286 173.635  1.00  0.00     0.111 A 
ATOM      9  C   UNL     1     173.914 166.551 175.401  1.00  0.00     0.094 A 
ATOM     10  C   UNL     1     171.432 166.327 174.104  1.00  0.00     0.134 A 
ATOM     11  C   UNL     1     172.964 165.652 175.873  1.00  0.00     0.123 A 
ATOM     12  C   UNL     1     171.727 165.550 175.231  1.00  0.00     0.093 A 
BRANCH   3  13
ATOM     13  C   UNL     1     175.385 170.168 172.711  1.00  0.00     0.021 A 
ATOM     14  C   UNL     1     175.392 171.401 173.375  1.00  0.00     0.016 A 
ATOM     15  C   UNL     1     176.438 172.302 173.167  1.00  0.00     0.047 A 
ATOM     16  C   UNL     1     177.444 172.009 172.239  1.00  0.00     0.115 A 
ATOM     17  C   UNL     1     176.409 169.865 171.798  1.00  0.00     0.016 A 
ATOM     18  C   UNL     1     177.441 170.779 171.569  1.00  0.00     0.047 A 
BRANCH  16  19
ATOM     19  O   UNL     1     178.432 172.961 171.963  1.00  0.00    -0.508 OA
ATOM     20  H   UNL     1     179.345 172.923 172.405  1.00  0.00     0.293 HD
ENDBRANCH  16  19
ENDBRANCH   3  13
BRANCH  10  21
ATOM     21  O   UNL     1     170.180 166.098 173.527  1.00  0.00    -0.507 OA
ATOM     22  H   UNL     1     169.844 166.507 172.669  1.00  0.00     0.293 HD
ENDBRANCH  10  21
BRANCH  11  23
ATOM     23  O   UNL     1     173.260 164.877 176.994  1.00  0.00    -0.508 OA
ATOM     24  H   UNL     1     172.902 165.116 177.914  1.00  0.00     0.293 HD
ENDBRANCH  11  23
ENDBRANCH   1   2
BRANCH   1  25
ATOM     25  C   UNL     1     172.933 169.667 169.793  1.00  0.00     0.339 C 
ATOM     26  C   UNL     1     173.822 168.422 169.524  1.00  0.00     0.214 C 
ATOM     27  O   UNL     1     173.381 170.765 169.025  1.00  0.00    -0.332 OA
ATOM     28  C   UNL     1     174.479 168.505 168.125  1.00  0.00     0.180 C 
ATOM     29  C   UNL     1     173.121 170.582 167.634  1.00  0.00     0.179 C 
ATOM     30  C   UNL     1     173.499 169.148 167.131  1.00  0.00     0.177 C 
BRANCH  26  31
ATOM     31  O   UNL     1     173.021 167.271 169.646  1.00  0.00    -0.384 OA
ATOM     32  H   UNL     1     173.505 166.630 170.230  1.00  0.00     0.211 HD
ENDBRANCH  26  31
BRANCH  28  33
ATOM     33  O   UNL     1     174.863 167.227 167.671  1.00  0.00    -0.387 OA
ATOM     34  H   UNL     1     174.289 167.015 166.890  1.00  0.00     0.211 HD
ENDBRANCH  28  33
BRANCH  29  35
ATOM     35  C   UNL     1     173.871 171.686 166.864  1.00  0.00     0.191 C 
BRANCH  35  36
ATOM     36  O   UNL     1     173.161 172.082 165.726  1.00  0.00    -0.394 OA
ATOM     37  H   UNL     1     173.827 172.376 165.049  1.00  0.00     0.210 HD
ENDBRANCH  35  36
ENDBRANCH  29  35
BRANCH  30  38
ATOM     38  O   UNL     1     174.061 169.178 165.841  1.00  0.00    -0.387 OA
ATOM     39  H   UNL     1     173.396 168.768 165.222  1.00  0.00     0.211 HD
ENDBRANCH  30  38
ENDBRANCH   1  25
TORSDOF 11
ENDMDL
MODEL 4
REMARK VINA RESULT:    -6.152      1.570      6.501
REMARK INTER + INTRA:          -9.749
REMARK INTER:                  -8.881
REMARK INTRA:                  -0.868
REMARK UNBOUND:                -0.901
REMARK SMILES O=c1c(O[C@H]2O[C@@H](CO)[C@@H](O)[C@H](O)[C@@H]2O)c(-c2ccc(O)cc2)oc2cc(O)cc(O)c12
REMARK SMILES IDX 4 1 3 2 16 3 24 4 2 5 25 6 1 7 32 8 26 9 30 10 27 11 29 12
REMARK SMILES IDX 17 13 18 14 19 15 20 16 23 17 22 18 21 19 31 21 28 23 5 25
REMARK SMILES IDX 14 26 6 27 12 28 7 29 10 30 15 31 13 33 8 35 9 36 11 38
REMARK H PARENT 21 20 31 22 28 24 15 32 13 34 9 37 11 39
REMARK Flexibility Score: inf
ROOT
ATOM      1  O   UNL     1     175.829 168.928 170.036  1.00  0.00    -0.454 OA
ENDROOT
BRANCH   1   2
ATOM      2  C   UNL     1     175.567 168.183 171.200  1.00  0.00     0.214 A 
ATOM      3  C   UNL     1     175.841 168.758 172.447  1.00  0.00     0.180 A 
ATOM      4  O   UNL     1     175.668 168.054 173.556  1.00  0.00    -0.452 OA
ATOM      5  C   UNL     1     175.059 166.877 171.146  1.00  0.00     0.239 A 
ATOM      6  C   UNL     1     175.170 166.826 173.564  1.00  0.00     0.146 A 
ATOM      7  O   UNL     1     174.819 166.375 170.022  1.00  0.00    -0.285 OA
ATOM      8  C   UNL     1     174.827 166.163 172.352  1.00  0.00     0.111 A 
ATOM      9  C   UNL     1     174.965 166.201 174.797  1.00  0.00     0.094 A 
ATOM     10  C   UNL     1     174.240 164.860 172.437  1.00  0.00     0.134 A 
ATOM     11  C   UNL     1     174.357 164.953 174.868  1.00  0.00     0.123 A 
ATOM     12  C   UNL     1     173.989 164.293 173.693  1.00  0.00     0.093 A 
BRANCH   3  13
ATOM     13  C   UNL     1     176.362 170.133 172.544  1.00  0.00     0.021 A 
ATOM     14  C   UNL     1     175.661 171.104 173.270  1.00  0.00     0.016 A 
ATOM     15  C   UNL     1     176.203 172.380 173.438  1.00  0.00     0.047 A 
ATOM     16  C   UNL     1     177.412 172.717 172.818  1.00  0.00     0.115 A 
ATOM     17  C   UNL     1     177.588 170.466 171.943  1.00  0.00     0.016 A 
ATOM     18  C   UNL     1     178.116 171.752 172.087  1.00  0.00     0.047 A 
BRANCH  16  19
ATOM     19  O   UNL     1     177.896 174.027 172.908  1.00  0.00    -0.508 OA
ATOM     20  H   UNL     1     177.413 174.736 173.450  1.00  0.00     0.293 HD
ENDBRANCH  16  19
ENDBRANCH   3  13
BRANCH  10  21
ATOM     21  O   UNL     1     173.868 164.079 171.340  1.00  0.00    -0.507 OA
ATOM     22  H   UNL     1     173.596 163.108 171.373  1.00  0.00     0.293 HD
ENDBRANCH  10  21
BRANCH  11  23
ATOM     23  O   UNL     1     174.109 164.389 176.119  1.00  0.00    -0.508 OA
ATOM     24  H   UNL     1     174.184 164.935 176.973  1.00  0.00     0.293 HD
ENDBRANCH  11  23
ENDBRANCH   1   2
BRANCH   1  25
ATOM     25  C   UNL     1     174.838 169.629 169.274  1.00  0.00     0.339 C 
ATOM     26  C   UNL     1     173.450 169.505 169.959  1.00  0.00     0.214 C 
ATOM     27  O   UNL     1     174.800 169.053 167.983  1.00  0.00    -0.332 OA
ATOM     28  C   UNL     1     172.320 169.405 168.906  1.00  0.00     0.180 C 
ATOM     29  C   UNL     1     174.017 169.830 167.079  1.00  0.00     0.179 C 
ATOM     30  C   UNL     1     172.657 170.297 167.700  1.00  0.00     0.177 C 
BRANCH  26  31
ATOM     31  O   UNL     1     173.270 170.622 170.798  1.00  0.00    -0.384 OA
ATOM     32  H   UNL     1     172.360 170.556 171.192  1.00  0.00     0.211 HD
ENDBRANCH  26  31
BRANCH  28  33
ATOM     33  O   UNL     1     171.079 169.783 169.458  1.00  0.00    -0.387 OA
ATOM     34  H   UNL     1     171.231 170.632 169.951  1.00  0.00     0.211 HD
ENDBRANCH  28  33
BRANCH  29  35
ATOM     35  C   UNL     1     173.816 169.001 165.796  1.00  0.00     0.191 C 
BRANCH  35  36
ATOM     36  O   UNL     1     173.470 169.817 164.713  1.00  0.00    -0.394 OA
ATOM     37  H   UNL     1     173.658 170.756 164.979  1.00  0.00     0.210 HD
ENDBRANCH  35  36
ENDBRANCH  29  35
BRANCH  30  38
ATOM     38  O   UNL     1     171.612 170.261 166.759  1.00  0.00    -0.387 OA
ATOM     39  H   UNL     1     171.627 169.357 166.339  1.00  0.00     0.211 HD
ENDBRANCH  30  38
ENDBRANCH   1  25
TORSDOF 11
ENDMDL
MODEL 5
REMARK VINA RESULT:    -6.137      2.847      4.592
REMARK INTER + INTRA:          -9.728
REMARK INTER:                  -8.856
REMARK INTRA:                  -0.872
REMARK UNBOUND:                -0.901
REMARK SMILES O=c1c(O[C@H]2O[C@@H](CO)[C@@H](O)[C@H](O)[C@@H]2O)c(-c2ccc(O)cc2)oc2cc(O)cc(O)c12
REMARK SMILES IDX 4 1 3 2 16 3 24 4 2 5 25 6 1 7 32 8 26 9 30 10 27 11 29 12
REMARK SMILES IDX 17 13 18 14 19 15 20 16 23 17 22 18 21 19 31 21 28 23 5 25
REMARK SMILES IDX 14 26 6 27 12 28 7 29 10 30 15 31 13 33 8 35 9 36 11 38
REMARK H PARENT 21 20 31 22 28 24 15 32 13 34 9 37 11 39
REMARK Flexibility Score: inf
ROOT
ATOM      1  O   UNL     1     173.905 170.350 170.469  1.00  0.00    -0.454 OA
ENDROOT
BRANCH   1   2
ATOM      2  C   UNL     1     174.828 169.345 170.127  1.00  0.00     0.214 A 
ATOM      3  C   UNL     1     176.118 169.399 170.666  1.00  0.00     0.180 A 
ATOM      4  O   UNL     1     177.028 168.504 170.307  1.00  0.00    -0.452 OA
ATOM      5  C   UNL     1     174.497 168.303 169.248  1.00  0.00     0.239 A 
ATOM      6  C   UNL     1     176.763 167.487 169.501  1.00  0.00     0.146 A 
ATOM      7  O   UNL     1     173.337 168.266 168.774  1.00  0.00    -0.285 OA
ATOM      8  C   UNL     1     175.471 167.320 168.925  1.00  0.00     0.111 A 
ATOM      9  C   UNL     1     177.779 166.562 169.244  1.00  0.00     0.094 A 
ATOM     10  C   UNL     1     175.240 166.168 168.108  1.00  0.00     0.134 A 
ATOM     11  C   UNL     1     177.529 165.427 168.482  1.00  0.00     0.123 A 
ATOM     12  C   UNL     1     176.263 165.229 167.926  1.00  0.00     0.093 A 
BRANCH   3  13
ATOM     13  C   UNL     1     176.498 170.471 171.603  1.00  0.00     0.021 A 
ATOM     14  C   UNL     1     177.030 170.154 172.859  1.00  0.00     0.016 A 
ATOM     15  C   UNL     1     177.475 171.171 173.708  1.00  0.00     0.047 A 
ATOM     16  C   UNL     1     177.321 172.512 173.339  1.00  0.00     0.115 A 
ATOM     17  C   UNL     1     176.367 171.818 171.224  1.00  0.00     0.016 A 
ATOM     18  C   UNL     1     176.786 172.836 172.086  1.00  0.00     0.047 A 
BRANCH  16  19
ATOM     19  O   UNL     1     177.676 173.524 174.238  1.00  0.00    -0.508 OA
ATOM     20  H   UNL     1     178.392 173.382 174.942  1.00  0.00     0.293 HD
ENDBRANCH  16  19
ENDBRANCH   3  13
BRANCH  10  21
ATOM     21  O   UNL     1     174.035 165.877 167.462  1.00  0.00    -0.507 OA
ATOM     22  H   UNL     1     173.920 165.722 166.472  1.00  0.00     0.293 HD
ENDBRANCH  10  21
BRANCH  11  23
ATOM     23  O   UNL     1     178.548 164.493 168.301  1.00  0.00    -0.508 OA
ATOM     24  H   UNL     1     179.180 164.543 167.506  1.00  0.00     0.293 HD
ENDBRANCH  11  23
ENDBRANCH   1   2
BRANCH   1  25
ATOM     25  C   UNL     1     172.868 170.208 171.447  1.00  0.00     0.339 C 
ATOM     26  C   UNL     1     173.045 168.877 172.227  1.00  0.00     0.214 C 
ATOM     27  O   UNL     1     171.628 170.216 170.767  1.00  0.00    -0.332 OA
ATOM     28  C   UNL     1     171.672 168.253 172.574  1.00  0.00     0.180 C 
ATOM     29  C   UNL     1     170.528 170.319 171.669  1.00  0.00     0.179 C 
ATOM     30  C   UNL     1     170.666 169.367 172.904  1.00  0.00     0.177 C 
BRANCH  26  31
ATOM     31  O   UNL     1     173.795 169.142 173.389  1.00  0.00    -0.384 OA
ATOM     32  H   UNL     1     173.292 168.769 174.161  1.00  0.00     0.211 HD
ENDBRANCH  26  31
BRANCH  28  33
ATOM     33  O   UNL     1     171.783 167.360 173.660  1.00  0.00    -0.387 OA
ATOM     34  H   UNL     1     171.757 166.443 173.281  1.00  0.00     0.211 HD
ENDBRANCH  28  33
BRANCH  29  35
ATOM     35  C   UNL     1     169.237 170.053 170.871  1.00  0.00     0.191 C 
BRANCH  35  36
ATOM     36  O   UNL     1     168.116 170.555 171.539  1.00  0.00    -0.394 OA
ATOM     37  H   UNL     1     167.752 169.819 172.100  1.00  0.00     0.210 HD
ENDBRANCH  35  36
ENDBRANCH  29  35
BRANCH  30  38
ATOM     38  O   UNL     1     169.428 168.812 173.277  1.00  0.00    -0.387 OA
ATOM     39  H   UNL     1     169.621 168.051 173.891  1.00  0.00     0.211 HD
ENDBRANCH  30  38
ENDBRANCH   1  25
TORSDOF 11
ENDMDL
MODEL 6
REMARK VINA RESULT:    -6.105      2.583      4.295
REMARK INTER + INTRA:          -9.683
REMARK INTER:                  -8.629
REMARK INTRA:                  -1.054
REMARK UNBOUND:                -0.901
REMARK SMILES O=c1c(O[C@H]2O[C@@H](CO)[C@@H](O)[C@H](O)[C@@H]2O)c(-c2ccc(O)cc2)oc2cc(O)cc(O)c12
REMARK SMILES IDX 4 1 3 2 16 3 24 4 2 5 25 6 1 7 32 8 26 9 30 10 27 11 29 12
REMARK SMILES IDX 17 13 18 14 19 15 20 16 23 17 22 18 21 19 31 21 28 23 5 25
REMARK SMILES IDX 14 26 6 27 12 28 7 29 10 30 15 31 13 33 8 35 9 36 11 38
REMARK H PARENT 21 20 31 22 28 24 15 32 13 34 9 37 11 39
REMARK Flexibility Score: inf
ROOT
ATOM      1  O   UNL     1     174.856 169.193 169.599  1.00  0.00    -0.454 OA
ENDROOT
BRANCH   1   2
ATOM      2  C   UNL     1     173.718 169.677 170.269  1.00  0.00     0.214 A 
ATOM      3  C   UNL     1     173.891 170.501 171.388  1.00  0.00     0.180 A 
ATOM      4  O   UNL     1     172.840 170.915 172.079  1.00  0.00    -0.452 OA
ATOM      5  C   UNL     1     172.419 169.343 169.861  1.00  0.00     0.239 A 
ATOM      6  C   UNL     1     171.591 170.649 171.725  1.00  0.00     0.146 A 
ATOM      7  O   UNL     1     172.279 168.604 168.857  1.00  0.00    -0.285 OA
ATOM      8  C   UNL     1     171.304 169.847 170.583  1.00  0.00     0.111 A 
ATOM      9  C   UNL     1     170.555 171.194 172.487  1.00  0.00     0.094 A 
ATOM     10  C   UNL     1     169.932 169.647 170.226  1.00  0.00     0.134 A 
ATOM     11  C   UNL     1     169.228 171.026 172.106  1.00  0.00     0.123 A 
ATOM     12  C   UNL     1     168.923 170.264 170.975  1.00  0.00     0.093 A 
BRANCH   3  13
ATOM     13  C   UNL     1     175.242 170.885 171.838  1.00  0.00     0.021 A 
ATOM     14  C   UNL     1     175.816 172.086 171.401  1.00  0.00     0.016 A 
ATOM     15  C   UNL     1     177.055 172.491 171.901  1.00  0.00     0.047 A 
ATOM     16  C   UNL     1     177.763 171.664 172.782  1.00  0.00     0.115 A 
ATOM     17  C   UNL     1     175.942 170.067 172.741  1.00  0.00     0.016 A 
ATOM     18  C   UNL     1     177.196 170.460 173.219  1.00  0.00     0.047 A 
BRANCH  16  19
ATOM     19  O   UNL     1     179.047 172.031 173.198  1.00  0.00    -0.508 OA
ATOM     20  H   UNL     1     179.872 171.766 172.670  1.00  0.00     0.293 HD
ENDBRANCH  16  19
ENDBRANCH   3  13
BRANCH  10  21
ATOM     21  O   UNL     1     169.493 168.875 169.148  1.00  0.00    -0.507 OA
ATOM     22  H   UNL     1     169.901 168.004 168.842  1.00  0.00     0.293 HD
ENDBRANCH  10  21
BRANCH  11  23
ATOM     23  O   UNL     1     168.224 171.639 172.854  1.00  0.00    -0.508 OA
ATOM     24  H   UNL     1     168.422 172.083 173.746  1.00  0.00     0.293 HD
ENDBRANCH  11  23
ENDBRANCH   1   2
BRANCH   1  25
ATOM     25  C   UNL     1     175.234 167.813 169.520  1.00  0.00     0.339 C 
ATOM     26  C   UNL     1     174.819 167.070 170.820  1.00  0.00     0.214 C 
ATOM     27  O   UNL     1     176.636 167.758 169.351  1.00  0.00    -0.332 OA
ATOM     28  C   UNL     1     175.864 165.992 171.197  1.00  0.00     0.180 C 
ATOM     29  C   UNL     1     177.081 166.442 169.026  1.00  0.00     0.179 C 
ATOM     30  C   UNL     1     176.419 165.341 169.921  1.00  0.00     0.177 C 
BRANCH  26  31
ATOM     31  O   UNL     1     173.548 166.501 170.617  1.00  0.00    -0.384 OA
ATOM     32  H   UNL     1     173.585 165.980 169.771  1.00  0.00     0.211 HD
ENDBRANCH  26  31
BRANCH  28  33
ATOM     33  O   UNL     1     175.297 165.012 172.037  1.00  0.00    -0.387 OA
ATOM     34  H   UNL     1     174.904 165.492 172.813  1.00  0.00     0.211 HD
ENDBRANCH  28  33
BRANCH  29  35
ATOM     35  C   UNL     1     178.618 166.426 169.124  1.00  0.00     0.191 C 
BRANCH  35  36
ATOM     36  O   UNL     1     179.169 165.445 168.292  1.00  0.00    -0.394 OA
ATOM     37  H   UNL     1     178.413 164.970 167.854  1.00  0.00     0.210 HD
ENDBRANCH  35  36
ENDBRANCH  29  35
BRANCH  30  38
ATOM     38  O   UNL     1     177.328 164.319 170.250  1.00  0.00    -0.387 OA
ATOM     39  H   UNL     1     177.480 164.367 171.234  1.00  0.00     0.211 HD
ENDBRANCH  30  38
ENDBRANCH   1  25
TORSDOF 11
ENDMDL
MODEL 7
REMARK VINA RESULT:    -6.097      2.692      5.523
REMARK INTER + INTRA:          -9.671
REMARK INTER:                  -8.496
REMARK INTRA:                  -1.174
REMARK UNBOUND:                -0.901
REMARK SMILES O=c1c(O[C@H]2O[C@@H](CO)[C@@H](O)[C@H](O)[C@@H]2O)c(-c2ccc(O)cc2)oc2cc(O)cc(O)c12
REMARK SMILES IDX 4 1 3 2 16 3 24 4 2 5 25 6 1 7 32 8 26 9 30 10 27 11 29 12
REMARK SMILES IDX 17 13 18 14 19 15 20 16 23 17 22 18 21 19 31 21 28 23 5 25
REMARK SMILES IDX 14 26 6 27 12 28 7 29 10 30 15 31 13 33 8 35 9 36 11 38
REMARK H PARENT 21 20 31 22 28 24 15 32 13 34 9 37 11 39
REMARK Flexibility Score: inf
ROOT
ATOM      1  O   UNL     1     173.503 168.001 171.912  1.00  0.00    -0.454 OA
ENDROOT
BRANCH   1   2
ATOM      2  C   UNL     1     174.613 168.864 171.931  1.00  0.00     0.214 A 
ATOM      3  C   UNL     1     175.684 168.608 171.066  1.00  0.00     0.180 A 
ATOM      4  O   UNL     1     176.771 169.363 171.111  1.00  0.00    -0.452 OA
ATOM      5  C   UNL     1     174.686 169.960 172.802  1.00  0.00     0.239 A 
ATOM      6  C   UNL     1     176.883 170.424 171.897  1.00  0.00     0.146 A 
ATOM      7  O   UNL     1     173.719 170.178 173.571  1.00  0.00    -0.285 OA
ATOM      8  C   UNL     1     175.837 170.792 172.791  1.00  0.00     0.111 A 
ATOM      9  C   UNL     1     178.048 171.192 171.813  1.00  0.00     0.094 A 
ATOM     10  C   UNL     1     176.002 171.982 173.569  1.00  0.00     0.134 A 
ATOM     11  C   UNL     1     178.178 172.367 172.545  1.00  0.00     0.123 A 
ATOM     12  C   UNL     1     177.154 172.761 173.411  1.00  0.00     0.093 A 
BRANCH   3  13
ATOM     13  C   UNL     1     175.637 167.473 170.127  1.00  0.00     0.021 A 
ATOM     14  C   UNL     1     174.948 167.590 168.913  1.00  0.00     0.016 A 
ATOM     15  C   UNL     1     174.984 166.547 167.985  1.00  0.00     0.047 A 
ATOM     16  C   UNL     1     175.644 165.352 168.294  1.00  0.00     0.115 A 
ATOM     17  C   UNL     1     176.321 166.282 170.426  1.00  0.00     0.016 A 
ATOM     18  C   UNL     1     176.332 165.227 169.508  1.00  0.00     0.047 A 
BRANCH  16  19
ATOM     19  O   UNL     1     175.588 164.277 167.401  1.00  0.00    -0.508 OA
ATOM     20  H   UNL     1     174.759 163.698 167.318  1.00  0.00     0.293 HD
ENDBRANCH  16  19
ENDBRANCH   3  13
BRANCH  10  21
ATOM     21  O   UNL     1     175.075 172.461 174.499  1.00  0.00    -0.507 OA
ATOM     22  H   UNL     1     174.102 172.651 174.316  1.00  0.00     0.293 HD
ENDBRANCH  10  21
BRANCH  11  23
ATOM     23  O   UNL     1     179.326 173.141 172.387  1.00  0.00    -0.508 OA
ATOM     24  H   UNL     1     179.579 173.860 173.060  1.00  0.00     0.293 HD
ENDBRANCH  11  23
ENDBRANCH   1   2
BRANCH   1  25
ATOM     25  C   UNL     1     173.430 166.747 172.601  1.00  0.00     0.339 C 
ATOM     26  C   UNL     1     171.950 166.392 172.912  1.00  0.00     0.214 C 
ATOM     27  O   UNL     1     174.166 166.871 173.802  1.00  0.00    -0.332 OA
ATOM     28  C   UNL     1     171.829 165.672 174.277  1.00  0.00     0.180 C 
ATOM     29  C   UNL     1     174.352 165.611 174.443  1.00  0.00     0.179 C 
ATOM     30  C   UNL     1     173.043 164.753 174.486  1.00  0.00     0.177 C 
BRANCH  26  31
ATOM     31  O   UNL     1     171.459 165.589 171.865  1.00  0.00    -0.384 OA
ATOM     32  H   UNL     1     171.173 164.723 172.261  1.00  0.00     0.211 HD
ENDBRANCH  26  31
BRANCH  28  33
ATOM     33  O   UNL     1     170.635 164.927 174.351  1.00  0.00    -0.387 OA
ATOM     34  H   UNL     1     170.110 165.144 173.536  1.00  0.00     0.211 HD
ENDBRANCH  28  33
BRANCH  29  35
ATOM     35  C   UNL     1     174.920 165.876 175.850  1.00  0.00     0.191 C 
BRANCH  35  36
ATOM     36  O   UNL     1     174.016 166.600 176.634  1.00  0.00    -0.394 OA
ATOM     37  H   UNL     1     173.620 167.304 176.055  1.00  0.00     0.210 HD
ENDBRANCH  35  36
ENDBRANCH  29  35
BRANCH  30  38
ATOM     38  O   UNL     1     172.918 164.049 175.698  1.00  0.00    -0.387 OA
ATOM     39  H   UNL     1     172.628 164.704 176.389  1.00  0.00     0.211 HD
ENDBRANCH  30  38
ENDBRANCH   1  25
TORSDOF 11
ENDMDL
MODEL 8
REMARK VINA RESULT:    -6.096      2.092      6.426
REMARK INTER + INTRA:          -9.669
REMARK INTER:                  -8.533
REMARK INTRA:                  -1.136
REMARK UNBOUND:                -0.901
REMARK SMILES O=c1c(O[C@H]2O[C@@H](CO)[C@@H](O)[C@H](O)[C@@H]2O)c(-c2ccc(O)cc2)oc2cc(O)cc(O)c12
REMARK SMILES IDX 4 1 3 2 16 3 24 4 2 5 25 6 1 7 32 8 26 9 30 10 27 11 29 12
REMARK SMILES IDX 17 13 18 14 19 15 20 16 23 17 22 18 21 19 31 21 28 23 5 25
REMARK SMILES IDX 14 26 6 27 12 28 7 29 10 30 15 31 13 33 8 35 9 36 11 38
REMARK H PARENT 21 20 31 22 28 24 15 32 13 34 9 37 11 39
REMARK Flexibility Score: inf
ROOT
ATOM      1  O   UNL     1     173.324 168.728 170.769  1.00  0.00    -0.454 OA
ENDROOT
BRANCH   1   2
ATOM      2  C   UNL     1     174.406 169.366 171.401  1.00  0.00     0.214 A 
ATOM      3  C   UNL     1     175.123 168.669 172.382  1.00  0.00     0.180 A 
ATOM      4  O   UNL     1     176.103 169.269 173.041  1.00  0.00    -0.452 OA
ATOM      5  C   UNL     1     174.775 170.683 171.091  1.00  0.00     0.239 A 
ATOM      6  C   UNL     1     176.508 170.502 172.773  1.00  0.00     0.146 A 
ATOM      7  O   UNL     1     174.124 171.294 170.211  1.00  0.00    -0.285 OA
ATOM      8  C   UNL     1     175.868 171.285 171.770  1.00  0.00     0.111 A 
ATOM      9  C   UNL     1     177.598 171.012 173.483  1.00  0.00     0.094 A 
ATOM     10  C   UNL     1     176.393 172.587 171.493  1.00  0.00     0.134 A 
ATOM     11  C   UNL     1     178.123 172.262 173.176  1.00  0.00     0.123 A 
ATOM     12  C   UNL     1     177.527 173.039 172.180  1.00  0.00     0.093 A 
BRANCH   3  13
ATOM     13  C   UNL     1     174.773 167.279 172.724  1.00  0.00     0.021 A 
ATOM     14  C   UNL     1     174.023 167.004 173.875  1.00  0.00     0.016 A 
ATOM     15  C   UNL     1     173.615 165.696 174.148  1.00  0.00     0.047 A 
ATOM     16  C   UNL     1     174.016 164.646 173.314  1.00  0.00     0.115 A 
ATOM     17  C   UNL     1     175.154 166.226 171.874  1.00  0.00     0.016 A 
ATOM     18  C   UNL     1     174.769 164.914 172.164  1.00  0.00     0.047 A 
BRANCH  16  19
ATOM     19  O   UNL     1     173.687 163.328 173.651  1.00  0.00    -0.508 OA
ATOM     20  H   UNL     1     174.393 162.601 173.703  1.00  0.00     0.293 HD
ENDBRANCH  16  19
ENDBRANCH   3  13
BRANCH  10  21
ATOM     21  O   UNL     1     175.865 173.477 170.554  1.00  0.00    -0.507 OA
ATOM     22  H   UNL     1     175.105 173.283 169.921  1.00  0.00     0.293 HD
ENDBRANCH  10  21
BRANCH  11  23
ATOM     23  O   UNL     1     179.251 172.711 173.861  1.00  0.00    -0.508 OA
ATOM     24  H   UNL     1     179.204 172.995 174.836  1.00  0.00     0.293 HD
ENDBRANCH  11  23
ENDBRANCH   1   2
BRANCH   1  25
ATOM     25  C   UNL     1     171.968 168.768 171.232  1.00  0.00     0.339 C 
ATOM     26  C   UNL     1     170.997 168.939 170.031  1.00  0.00     0.214 C 
ATOM     27  O   UNL     1     171.846 169.861 172.120  1.00  0.00    -0.332 OA
ATOM     28  C   UNL     1     169.789 169.825 170.419  1.00  0.00     0.180 C 
ATOM     29  C   UNL     1     170.601 169.845 172.815  1.00  0.00     0.179 C 
ATOM     30  C   UNL     1     169.386 169.541 171.875  1.00  0.00     0.177 C 
BRANCH  26  31
ATOM     31  O   UNL     1     170.581 167.661 169.614  1.00  0.00    -0.384 OA
ATOM     32  H   UNL     1     170.625 167.640 168.622  1.00  0.00     0.211 HD
ENDBRANCH  26  31
BRANCH  28  33
ATOM     33  O   UNL     1     168.697 169.596 169.558  1.00  0.00    -0.387 OA
ATOM     34  H   UNL     1     168.682 168.621 169.368  1.00  0.00     0.211 HD
ENDBRANCH  28  33
BRANCH  29  35
ATOM     35  C   UNL     1     170.450 171.193 173.545  1.00  0.00     0.191 C 
BRANCH  35  36
ATOM     36  O   UNL     1     170.189 172.231 172.644  1.00  0.00    -0.394 OA
ATOM     37  H   UNL     1     169.330 172.019 172.189  1.00  0.00     0.210 HD
ENDBRANCH  35  36
ENDBRANCH  29  35
BRANCH  30  38
ATOM     38  O   UNL     1     168.253 170.298 172.224  1.00  0.00    -0.387 OA
ATOM     39  H   UNL     1     167.885 169.906 173.062  1.00  0.00     0.211 HD
ENDBRANCH  30  38
ENDBRANCH   1  25
TORSDOF 11
ENDMDL
MODEL 9
REMARK VINA RESULT:    -6.070      2.876      4.588
REMARK INTER + INTRA:          -9.632
REMARK INTER:                  -8.737
REMARK INTRA:                  -0.895
REMARK UNBOUND:                -0.901
REMARK SMILES O=c1c(O[C@H]2O[C@@H](CO)[C@@H](O)[C@H](O)[C@@H]2O)c(-c2ccc(O)cc2)oc2cc(O)cc(O)c12
REMARK SMILES IDX 4 1 3 2 16 3 24 4 2 5 25 6 1 7 32 8 26 9 30 10 27 11 29 12
REMARK SMILES IDX 17 13 18 14 19 15 20 16 23 17 22 18 21 19 31 21 28 23 5 25
REMARK SMILES IDX 14 26 6 27 12 28 7 29 10 30 15 31 13 33 8 35 9 36 11 38
REMARK H PARENT 21 20 31 22 28 24 15 32 13 34 9 37 11 39
REMARK Flexibility Score: inf
ROOT
ATOM      1  O   UNL     1     175.716 167.906 172.471  1.00  0.00    -0.454 OA
ENDROOT
BRANCH   1   2
ATOM      2  C   UNL     1     174.485 168.559 172.662  1.00  0.00     0.214 A 
ATOM      3  C   UNL     1     174.468 169.954 172.765  1.00  0.00     0.180 A 
ATOM      4  O   UNL     1     173.332 170.590 173.013  1.00  0.00    -0.452 OA
ATOM      5  C   UNL     1     173.279 167.851 172.768  1.00  0.00     0.239 A 
ATOM      6  C   UNL     1     172.162 169.974 173.100  1.00  0.00     0.146 A 
ATOM      7  O   UNL     1     173.309 166.601 172.673  1.00  0.00    -0.285 OA
ATOM      8  C   UNL     1     172.064 168.558 172.975  1.00  0.00     0.111 A 
ATOM      9  C   UNL     1     171.017 170.749 173.295  1.00  0.00     0.094 A 
ATOM     10  C   UNL     1     170.763 167.965 173.022  1.00  0.00     0.134 A 
ATOM     11  C   UNL     1     169.755 170.165 173.298  1.00  0.00     0.123 A 
ATOM     12  C   UNL     1     169.632 168.780 173.153  1.00  0.00     0.093 A 
BRANCH   3  13
ATOM     13  C   UNL     1     175.714 170.733 172.644  1.00  0.00     0.021 A 
ATOM     14  C   UNL     1     175.828 171.734 171.671  1.00  0.00     0.016 A 
ATOM     15  C   UNL     1     176.973 172.532 171.618  1.00  0.00     0.047 A 
ATOM     16  C   UNL     1     178.042 172.286 172.489  1.00  0.00     0.115 A 
ATOM     17  C   UNL     1     176.778 170.504 173.534  1.00  0.00     0.016 A 
ATOM     18  C   UNL     1     177.935 171.284 173.462  1.00  0.00     0.047 A 
BRANCH  16  19
ATOM     19  O   UNL     1     179.224 173.024 172.361  1.00  0.00    -0.508 OA
ATOM     20  H   UNL     1     179.211 174.019 172.163  1.00  0.00     0.293 HD
ENDBRANCH  16  19
ENDBRANCH   3  13
BRANCH  10  21
ATOM     21  O   UNL     1     170.508 166.594 172.932  1.00  0.00    -0.507 OA
ATOM     22  H   UNL     1     169.912 166.149 172.251  1.00  0.00     0.293 HD
ENDBRANCH  10  21
BRANCH  11  23
ATOM     23  O   UNL     1     168.631 170.977 173.430  1.00  0.00    -0.508 OA
ATOM     24  H   UNL     1     168.685 171.985 173.305  1.00  0.00     0.293 HD
ENDBRANCH  11  23
ENDBRANCH   1   2
BRANCH   1  25
ATOM     25  C   UNL     1     176.193 167.411 171.213  1.00  0.00     0.339 C 
ATOM     26  C   UNL     1     175.228 167.833 170.072  1.00  0.00     0.214 C 
ATOM     27  O   UNL     1     176.262 166.002 171.302  1.00  0.00    -0.332 OA
ATOM     28  C   UNL     1     175.128 166.724 168.996  1.00  0.00     0.180 C 
ATOM     29  C   UNL     1     176.947 165.433 170.188  1.00  0.00     0.179 C 
ATOM     30  C   UNL     1     176.497 166.049 168.820  1.00  0.00     0.177 C 
BRANCH  26  31
ATOM     31  O   UNL     1     175.698 169.040 169.519  1.00  0.00    -0.384 OA
ATOM     32  H   UNL     1     175.630 169.738 170.224  1.00  0.00     0.211 HD
ENDBRANCH  26  31
BRANCH  28  33
ATOM     33  O   UNL     1     174.684 167.253 167.767  1.00  0.00    -0.387 OA
ATOM     34  H   UNL     1     175.441 167.172 167.130  1.00  0.00     0.211 HD
ENDBRANCH  28  33
BRANCH  29  35
ATOM     35  C   UNL     1     176.741 163.907 170.235  1.00  0.00     0.191 C 
BRANCH  35  36
ATOM     36  O   UNL     1     177.736 163.238 169.515  1.00  0.00    -0.394 OA
ATOM     37  H   UNL     1     177.476 163.264 168.556  1.00  0.00     0.210 HD
ENDBRANCH  35  36
ENDBRANCH  29  35
BRANCH  30  38
ATOM     38  O   UNL     1     176.434 165.077 167.804  1.00  0.00    -0.387 OA
ATOM     39  H   UNL     1     176.488 164.186 168.247  1.00  0.00     0.211 HD
ENDBRANCH  30  38
ENDBRANCH   1  25
TORSDOF 11
ENDMDL
