MODEL 1
REMARK VINA RESULT:    -6.484      0.000      0.000
REMARK INTER + INTRA:          -7.888
REMARK INTER:                  -7.622
REMARK INTRA:                  -0.267
REMARK UNBOUND:                -0.267
REMARK SMILES O=c1cc(-c2ccc(O)c(O)c2)oc2cc(O)cc(O)c12
REMARK SMILES IDX 4 1 3 2 2 3 1 4 21 5 19 6 18 7 16 8 15 9 14 10 13 11 5 12
REMARK SMILES IDX 6 13 7 14 8 15 12 16 10 17 9 18 11 20 20 22 17 24
REMARK H PARENT 9 19 11 21 20 23 17 25
REMARK Flexibility Score: inf
ROOT
ATOM      1  C   UNL     1      18.927  -0.616 -17.037  1.00  0.00     0.138 A 
ATOM      2  C   UNL     1      18.441   0.214 -16.018  1.00  0.00     0.100 A 
ATOM      3  C   UNL     1      17.700  -0.338 -14.971  1.00  0.00     0.197 A 
ATOM      4  O   UNL     1      17.332   0.422 -14.039  1.00  0.00    -0.289 OA
ATOM      5  C   UNL     1      17.418  -1.725 -14.966  1.00  0.00     0.107 A 
ATOM      6  C   UNL     1      16.638  -2.391 -13.973  1.00  0.00     0.134 A 
ATOM      7  C   UNL     1      16.523  -3.786 -14.007  1.00  0.00     0.093 A 
ATOM      8  C   UNL     1      17.108  -4.532 -15.030  1.00  0.00     0.123 A 
ATOM      9  C   UNL     1      17.827  -3.887 -16.036  1.00  0.00     0.094 A 
ATOM     10  C   UNL     1      17.989  -2.500 -16.010  1.00  0.00     0.146 A 
ATOM     11  O   UNL     1      18.694  -1.923 -16.979  1.00  0.00    -0.456 OA
ENDROOT
BRANCH   1  12
ATOM     12  C   UNL     1      19.719  -0.081 -18.172  1.00  0.00     0.021 A 
ATOM     13  C   UNL     1      19.332  -0.294 -19.510  1.00  0.00     0.016 A 
ATOM     14  C   UNL     1      20.103   0.213 -20.560  1.00  0.00     0.051 A 
ATOM     15  C   UNL     1      21.275   0.931 -20.294  1.00  0.00     0.157 A 
ATOM     16  C   UNL     1      20.906   0.630 -17.915  1.00  0.00     0.062 A 
ATOM     17  C   UNL     1      21.679   1.138 -18.969  1.00  0.00     0.158 A 
BRANCH  15  18
ATOM     18  O   UNL     1      22.045   1.438 -21.339  1.00  0.00    -0.504 OA
ATOM     19  H   UNL     1      22.990   1.113 -21.507  1.00  0.00     0.293 HD
ENDBRANCH  15  18
BRANCH  17  20
ATOM     20  O   UNL     1      22.848   1.850 -18.707  1.00  0.00    -0.504 OA
ATOM     21  H   UNL     1      23.577   1.948 -19.403  1.00  0.00     0.293 HD
ENDBRANCH  17  20
ENDBRANCH   1  12
BRANCH   6  22
ATOM     22  O   UNL     1      15.942  -1.733 -12.955  1.00  0.00    -0.507 OA
ATOM     23  H   UNL     1      16.372  -1.207 -12.209  1.00  0.00     0.293 HD
ENDBRANCH   6  22
BRANCH   8  24
ATOM     24  O   UNL     1      16.960  -5.918 -15.040  1.00  0.00    -0.508 OA
ATOM     25  H   UNL     1      17.762  -6.536 -15.064  1.00  0.00     0.293 HD
ENDBRANCH   8  24
TORSDOF 5
ENDMDL
MODEL 2
REMARK VINA RESULT:    -6.446      3.386      5.023
REMARK INTER + INTRA:          -7.843
REMARK INTER:                  -7.555
REMARK INTRA:                  -0.288
REMARK UNBOUND:                -0.267
REMARK SMILES O=c1cc(-c2ccc(O)c(O)c2)oc2cc(O)cc(O)c12
REMARK SMILES IDX 4 1 3 2 2 3 1 4 21 5 19 6 18 7 16 8 15 9 14 10 13 11 5 12
REMARK SMILES IDX 6 13 7 14 8 15 12 16 10 17 9 18 11 20 20 22 17 24
REMARK H PARENT 9 19 11 21 20 23 17 25
REMARK Flexibility Score: inf
ROOT
ATOM      1  C   UNL     1      20.706   0.669 -17.271  1.00  0.00     0.138 A 
ATOM      2  C   UNL     1      19.502   0.630 -16.556  1.00  0.00     0.100 A 
ATOM      3  C   UNL     1      19.484   1.006 -15.211  1.00  0.00     0.197 A 
ATOM      4  O   UNL     1      18.378   1.021 -14.613  1.00  0.00    -0.289 OA
ATOM      5  C   UNL     1      20.688   1.392 -14.574  1.00  0.00     0.107 A 
ATOM      6  C   UNL     1      20.797   1.755 -13.198  1.00  0.00     0.134 A 
ATOM      7  C   UNL     1      22.018   2.232 -12.706  1.00  0.00     0.093 A 
ATOM      8  C   UNL     1      23.146   2.301 -13.522  1.00  0.00     0.123 A 
ATOM      9  C   UNL     1      23.065   1.897 -14.855  1.00  0.00     0.094 A 
ATOM     10  C   UNL     1      21.852   1.450 -15.385  1.00  0.00     0.146 A 
ATOM     11  O   UNL     1      21.811   1.087 -16.663  1.00  0.00    -0.456 OA
ENDROOT
BRANCH   1  12
ATOM     12  C   UNL     1      20.781   0.280 -18.701  1.00  0.00     0.021 A 
ATOM     13  C   UNL     1      20.272  -0.951 -19.161  1.00  0.00     0.016 A 
ATOM     14  C   UNL     1      20.366  -1.295 -20.513  1.00  0.00     0.051 A 
ATOM     15  C   UNL     1      20.975  -0.425 -21.424  1.00  0.00     0.157 A 
ATOM     16  C   UNL     1      21.403   1.143 -19.622  1.00  0.00     0.062 A 
ATOM     17  C   UNL     1      21.496   0.796 -20.978  1.00  0.00     0.158 A 
BRANCH  15  18
ATOM     18  O   UNL     1      21.069  -0.766 -22.772  1.00  0.00    -0.504 OA
ATOM     19  H   UNL     1      20.256  -1.054 -23.303  1.00  0.00     0.293 HD
ENDBRANCH  15  18
BRANCH  17  20
ATOM     20  O   UNL     1      22.105   1.660 -21.887  1.00  0.00    -0.504 OA
ATOM     21  H   UNL     1      23.113   1.740 -21.949  1.00  0.00     0.293 HD
ENDBRANCH  17  20
ENDBRANCH   1  12
BRANCH   6  22
ATOM     22  O   UNL     1      19.753   1.645 -12.275  1.00  0.00    -0.507 OA
ATOM     23  H   UNL     1      19.421   0.777 -11.882  1.00  0.00     0.293 HD
ENDBRANCH   6  22
BRANCH   8  24
ATOM     24  O   UNL     1      24.349   2.766 -12.994  1.00  0.00    -0.508 OA
ATOM     25  H   UNL     1      25.192   2.205 -13.022  1.00  0.00     0.293 HD
ENDBRANCH   8  24
TORSDOF 5
ENDMDL
MODEL 3
REMARK VINA RESULT:    -6.260      2.793      3.843
REMARK INTER + INTRA:          -7.624
REMARK INTER:                  -7.352
REMARK INTRA:                  -0.272
REMARK UNBOUND:                -0.267
REMARK SMILES O=c1cc(-c2ccc(O)c(O)c2)oc2cc(O)cc(O)c12
REMARK SMILES IDX 4 1 3 2 2 3 1 4 21 5 19 6 18 7 16 8 15 9 14 10 13 11 5 12
REMARK SMILES IDX 6 13 7 14 8 15 12 16 10 17 9 18 11 20 20 22 17 24
REMARK H PARENT 9 19 11 21 20 23 17 25
REMARK Flexibility Score: inf
ROOT
ATOM      1  C   UNL     1      20.617   0.621 -17.599  1.00  0.00     0.138 A 
ATOM      2  C   UNL     1      21.657   1.105 -16.795  1.00  0.00     0.100 A 
ATOM      3  C   UNL     1      21.418   1.377 -15.446  1.00  0.00     0.197 A 
ATOM      4  O   UNL     1      22.386   1.751 -14.735  1.00  0.00    -0.289 OA
ATOM      5  C   UNL     1      20.120   1.192 -14.911  1.00  0.00     0.107 A 
ATOM      6  C   UNL     1      19.750   1.476 -13.562  1.00  0.00     0.134 A 
ATOM      7  C   UNL     1      18.466   1.143 -13.115  1.00  0.00     0.093 A 
ATOM      8  C   UNL     1      17.521   0.595 -13.981  1.00  0.00     0.123 A 
ATOM      9  C   UNL     1      17.855   0.364 -15.316  1.00  0.00     0.094 A 
ATOM     10  C   UNL     1      19.139   0.653 -15.784  1.00  0.00     0.146 A 
ATOM     11  O   UNL     1      19.422   0.405 -17.059  1.00  0.00    -0.456 OA
ENDROOT
BRANCH   1  12
ATOM     12  C   UNL     1      20.817   0.316 -19.038  1.00  0.00     0.021 A 
ATOM     13  C   UNL     1      20.441  -0.924 -19.591  1.00  0.00     0.016 A 
ATOM     14  C   UNL     1      20.650  -1.187 -20.948  1.00  0.00     0.051 A 
ATOM     15  C   UNL     1      21.244  -0.224 -21.771  1.00  0.00     0.157 A 
ATOM     16  C   UNL     1      21.426   1.273 -19.871  1.00  0.00     0.062 A 
ATOM     17  C   UNL     1      21.635   1.008 -21.232  1.00  0.00     0.158 A 
BRANCH  15  18
ATOM     18  O   UNL     1      21.453  -0.484 -23.125  1.00  0.00    -0.504 OA
ATOM     19  H   UNL     1      21.218   0.197 -23.837  1.00  0.00     0.293 HD
ENDBRANCH  15  18
BRANCH  17  20
ATOM     20  O   UNL     1      22.230   1.964 -22.054  1.00  0.00    -0.504 OA
ATOM     21  H   UNL     1      22.895   2.635 -21.691  1.00  0.00     0.293 HD
ENDBRANCH  17  20
ENDBRANCH   1  12
BRANCH   6  22
ATOM     22  O   UNL     1      20.591   2.100 -12.636  1.00  0.00    -0.507 OA
ATOM     23  H   UNL     1      21.504   2.475 -12.847  1.00  0.00     0.293 HD
ENDBRANCH   6  22
BRANCH   8  24
ATOM     24  O   UNL     1      16.247   0.291 -13.505  1.00  0.00    -0.508 OA
ATOM     25  H   UNL     1      16.067  -0.555 -12.978  1.00  0.00     0.293 HD
ENDBRANCH   8  24
TORSDOF 5
ENDMDL
MODEL 4
REMARK VINA RESULT:    -6.208      3.430      6.577
REMARK INTER + INTRA:          -7.564
REMARK INTER:                  -7.252
REMARK INTRA:                  -0.312
REMARK UNBOUND:                -0.267
REMARK SMILES O=c1cc(-c2ccc(O)c(O)c2)oc2cc(O)cc(O)c12
REMARK SMILES IDX 4 1 3 2 2 3 1 4 21 5 19 6 18 7 16 8 15 9 14 10 13 11 5 12
REMARK SMILES IDX 6 13 7 14 8 15 12 16 10 17 9 18 11 20 20 22 17 24
REMARK H PARENT 9 19 11 21 20 23 17 25
REMARK Flexibility Score: inf
ROOT
ATOM      1  C   UNL     1      21.414   1.302 -16.276  1.00  0.00     0.138 A 
ATOM      2  C   UNL     1      20.245   0.557 -16.080  1.00  0.00     0.100 A 
ATOM      3  C   UNL     1      19.580   0.012 -17.180  1.00  0.00     0.197 A 
ATOM      4  O   UNL     1      18.568  -0.705 -16.968  1.00  0.00    -0.289 OA
ATOM      5  C   UNL     1      20.075   0.245 -18.486  1.00  0.00     0.107 A 
ATOM      6  C   UNL     1      19.458  -0.226 -19.684  1.00  0.00     0.134 A 
ATOM      7  C   UNL     1      20.102  -0.034 -20.912  1.00  0.00     0.093 A 
ATOM      8  C   UNL     1      21.307   0.663 -20.993  1.00  0.00     0.123 A 
ATOM      9  C   UNL     1      21.892   1.175 -19.834  1.00  0.00     0.094 A 
ATOM     10  C   UNL     1      21.292   0.969 -18.590  1.00  0.00     0.146 A 
ATOM     11  O   UNL     1      21.888   1.460 -17.508  1.00  0.00    -0.456 OA
ENDROOT
BRANCH   1  12
ATOM     12  C   UNL     1      22.160   1.903 -15.141  1.00  0.00     0.021 A 
ATOM     13  C   UNL     1      21.993   1.445 -13.820  1.00  0.00     0.016 A 
ATOM     14  C   UNL     1      22.700   2.037 -12.770  1.00  0.00     0.051 A 
ATOM     15  C   UNL     1      23.577   3.100 -13.018  1.00  0.00     0.157 A 
ATOM     16  C   UNL     1      23.033   2.981 -15.380  1.00  0.00     0.062 A 
ATOM     17  C   UNL     1      23.742   3.574 -14.326  1.00  0.00     0.158 A 
BRANCH  15  18
ATOM     18  O   UNL     1      24.284   3.691 -11.973  1.00  0.00    -0.504 OA
ATOM     19  H   UNL     1      23.885   3.778 -11.046  1.00  0.00     0.293 HD
ENDBRANCH  15  18
BRANCH  17  20
ATOM     20  O   UNL     1      24.613   4.635 -14.570  1.00  0.00    -0.504 OA
ATOM     21  H   UNL     1      24.303   5.479 -15.036  1.00  0.00     0.293 HD
ENDBRANCH  17  20
ENDBRANCH   1  12
BRANCH   6  22
ATOM     22  O   UNL     1      18.213  -0.860 -19.725  1.00  0.00    -0.507 OA
ATOM     23  H   UNL     1      17.808  -1.282 -20.547  1.00  0.00     0.293 HD
ENDBRANCH   6  22
BRANCH   8  24
ATOM     24  O   UNL     1      21.912   0.849 -22.235  1.00  0.00    -0.508 OA
ATOM     25  H   UNL     1      21.408   0.686 -23.099  1.00  0.00     0.293 HD
ENDBRANCH   8  24
TORSDOF 5
ENDMDL
MODEL 5
REMARK VINA RESULT:    -6.098      1.891      6.967
REMARK INTER + INTRA:          -7.435
REMARK INTER:                  -7.171
REMARK INTRA:                  -0.263
REMARK UNBOUND:                -0.267
REMARK SMILES O=c1cc(-c2ccc(O)c(O)c2)oc2cc(O)cc(O)c12
REMARK SMILES IDX 4 1 3 2 2 3 1 4 21 5 19 6 18 7 16 8 15 9 14 10 13 11 5 12
REMARK SMILES IDX 6 13 7 14 8 15 12 16 10 17 9 18 11 20 20 22 17 24
REMARK H PARENT 9 19 11 21 20 23 17 25
REMARK Flexibility Score: inf
ROOT
ATOM      1  C   UNL     1      18.065  -0.134 -15.576  1.00  0.00     0.138 A 
ATOM      2  C   UNL     1      19.143   0.596 -15.060  1.00  0.00     0.100 A 
ATOM      3  C   UNL     1      20.221   0.915 -15.889  1.00  0.00     0.197 A 
ATOM      4  O   UNL     1      21.145   1.625 -15.416  1.00  0.00    -0.289 OA
ATOM      5  C   UNL     1      20.229   0.469 -17.233  1.00  0.00     0.107 A 
ATOM      6  C   UNL     1      21.292   0.698 -18.158  1.00  0.00     0.134 A 
ATOM      7  C   UNL     1      21.139   0.311 -19.495  1.00  0.00     0.093 A 
ATOM      8  C   UNL     1      19.989  -0.350 -19.925  1.00  0.00     0.123 A 
ATOM      9  C   UNL     1      18.966  -0.628 -19.018  1.00  0.00     0.094 A 
ATOM     10  C   UNL     1      19.075  -0.223 -17.686  1.00  0.00     0.146 A 
ATOM     11  O   UNL     1      18.073  -0.494 -16.855  1.00  0.00    -0.456 OA
ENDROOT
BRANCH   1  12
ATOM     12  C   UNL     1      16.894  -0.500 -14.738  1.00  0.00     0.021 A 
ATOM     13  C   UNL     1      15.786   0.359 -14.600  1.00  0.00     0.016 A 
ATOM     14  C   UNL     1      14.702  -0.007 -13.796  1.00  0.00     0.051 A 
ATOM     15  C   UNL     1      14.710  -1.228 -13.112  1.00  0.00     0.157 A 
ATOM     16  C   UNL     1      16.899  -1.719 -14.036  1.00  0.00     0.062 A 
ATOM     17  C   UNL     1      15.811  -2.085 -13.230  1.00  0.00     0.158 A 
BRANCH  15  18
ATOM     18  O   UNL     1      13.630  -1.595 -12.311  1.00  0.00    -0.504 OA
ATOM     19  H   UNL     1      13.166  -0.927 -11.708  1.00  0.00     0.293 HD
ENDBRANCH  15  18
BRANCH  17  20
ATOM     20  O   UNL     1      15.818  -3.299 -12.545  1.00  0.00    -0.504 OA
ATOM     21  H   UNL     1      16.662  -3.665 -12.123  1.00  0.00     0.293 HD
ENDBRANCH  17  20
ENDBRANCH   1  12
BRANCH   6  22
ATOM     22  O   UNL     1      22.518   1.275 -17.812  1.00  0.00    -0.507 OA
ATOM     23  H   UNL     1      23.161   1.696 -18.466  1.00  0.00     0.293 HD
ENDBRANCH   6  22
BRANCH   8  24
ATOM     24  O   UNL     1      19.877  -0.735 -21.260  1.00  0.00    -0.508 OA
ATOM     25  H   UNL     1      20.417  -1.505 -21.637  1.00  0.00     0.293 HD
ENDBRANCH   8  24
TORSDOF 5
ENDMDL
MODEL 6
REMARK VINA RESULT:    -6.089      4.012      7.388
REMARK INTER + INTRA:          -7.423
REMARK INTER:                  -7.139
REMARK INTRA:                  -0.285
REMARK UNBOUND:                -0.267
REMARK SMILES O=c1cc(-c2ccc(O)c(O)c2)oc2cc(O)cc(O)c12
REMARK SMILES IDX 4 1 3 2 2 3 1 4 21 5 19 6 18 7 16 8 15 9 14 10 13 11 5 12
REMARK SMILES IDX 6 13 7 14 8 15 12 16 10 17 9 18 11 20 20 22 17 24
REMARK H PARENT 9 19 11 21 20 23 17 25
REMARK Flexibility Score: inf
ROOT
ATOM      1  C   UNL     1      21.248   0.882 -17.630  1.00  0.00     0.138 A 
ATOM      2  C   UNL     1      20.722  -0.373 -17.962  1.00  0.00     0.100 A 
ATOM      3  C   UNL     1      20.624  -0.749 -19.303  1.00  0.00     0.197 A 
ATOM      4  O   UNL     1      20.208  -1.905 -19.567  1.00  0.00    -0.289 OA
ATOM      5  C   UNL     1      21.026   0.155 -20.316  1.00  0.00     0.107 A 
ATOM      6  C   UNL     1      20.934  -0.104 -21.717  1.00  0.00     0.134 A 
ATOM      7  C   UNL     1      21.471   0.817 -22.625  1.00  0.00     0.093 A 
ATOM      8  C   UNL     1      22.041   2.012 -22.187  1.00  0.00     0.123 A 
ATOM      9  C   UNL     1      22.087   2.300 -20.823  1.00  0.00     0.094 A 
ATOM     10  C   UNL     1      21.592   1.386 -19.890  1.00  0.00     0.146 A 
ATOM     11  O   UNL     1      21.668   1.690 -18.599  1.00  0.00    -0.456 OA
ENDROOT
BRANCH   1  12
ATOM     12  C   UNL     1      21.373   1.332 -16.221  1.00  0.00     0.021 A 
ATOM     13  C   UNL     1      20.268   1.344 -15.346  1.00  0.00     0.016 A 
ATOM     14  C   UNL     1      20.414   1.782 -14.027  1.00  0.00     0.051 A 
ATOM     15  C   UNL     1      21.658   2.223 -13.561  1.00  0.00     0.157 A 
ATOM     16  C   UNL     1      22.617   1.790 -15.748  1.00  0.00     0.062 A 
ATOM     17  C   UNL     1      22.762   2.229 -14.424  1.00  0.00     0.158 A 
BRANCH  15  18
ATOM     18  O   UNL     1      21.806   2.659 -12.246  1.00  0.00    -0.504 OA
ATOM     19  H   UNL     1      21.794   3.644 -12.010  1.00  0.00     0.293 HD
ENDBRANCH  15  18
BRANCH  17  20
ATOM     20  O   UNL     1      23.999   2.672 -13.959  1.00  0.00    -0.504 OA
ATOM     21  H   UNL     1      24.660   3.137 -14.569  1.00  0.00     0.293 HD
ENDBRANCH  17  20
ENDBRANCH   1  12
BRANCH   6  22
ATOM     22  O   UNL     1      20.309  -1.228 -22.265  1.00  0.00    -0.507 OA
ATOM     23  H   UNL     1      20.358  -2.159 -21.881  1.00  0.00     0.293 HD
ENDBRANCH   6  22
BRANCH   8  24
ATOM     24  O   UNL     1      22.551   2.912 -23.120  1.00  0.00    -0.508 OA
ATOM     25  H   UNL     1      23.120   2.602 -23.899  1.00  0.00     0.293 HD
ENDBRANCH   8  24
TORSDOF 5
ENDMDL
MODEL 7
REMARK VINA RESULT:    -6.055      7.815     13.291
REMARK INTER + INTRA:          -7.384
REMARK INTER:                  -7.074
REMARK INTRA:                  -0.310
REMARK UNBOUND:                -0.267
REMARK SMILES O=c1cc(-c2ccc(O)c(O)c2)oc2cc(O)cc(O)c12
REMARK SMILES IDX 4 1 3 2 2 3 1 4 21 5 19 6 18 7 16 8 15 9 14 10 13 11 5 12
REMARK SMILES IDX 6 13 7 14 8 15 12 16 10 17 9 18 11 20 20 22 17 24
REMARK H PARENT 9 19 11 21 20 23 17 25
REMARK Flexibility Score: inf
ROOT
ATOM      1  C   UNL     1      11.479  -7.201  -9.836  1.00  0.00     0.138 A 
ATOM      2  C   UNL     1      11.593  -8.207 -10.804  1.00  0.00     0.100 A 
ATOM      3  C   UNL     1      12.585  -8.115 -11.782  1.00  0.00     0.197 A 
ATOM      4  O   UNL     1      12.703  -9.063 -12.600  1.00  0.00    -0.289 OA
ATOM      5  C   UNL     1      13.446  -6.991 -11.806  1.00  0.00     0.107 A 
ATOM      6  C   UNL     1      14.466  -6.771 -12.779  1.00  0.00     0.134 A 
ATOM      7  C   UNL     1      15.334  -5.682 -12.634  1.00  0.00     0.093 A 
ATOM      8  C   UNL     1      15.181  -4.773 -11.588  1.00  0.00     0.123 A 
ATOM      9  C   UNL     1      14.153  -4.948 -10.661  1.00  0.00     0.094 A 
ATOM     10  C   UNL     1      13.293  -6.044 -10.758  1.00  0.00     0.146 A 
ATOM     11  O   UNL     1      12.335  -6.185  -9.848  1.00  0.00    -0.456 OA
ENDROOT
BRANCH   1  12
ATOM     12  C   UNL     1      10.442  -7.249  -8.774  1.00  0.00     0.021 A 
ATOM     13  C   UNL     1       9.853  -8.464  -8.369  1.00  0.00     0.016 A 
ATOM     14  C   UNL     1       8.871  -8.477  -7.374  1.00  0.00     0.051 A 
ATOM     15  C   UNL     1       8.455  -7.283  -6.775  1.00  0.00     0.157 A 
ATOM     16  C   UNL     1      10.007  -6.052  -8.176  1.00  0.00     0.062 A 
ATOM     17  C   UNL     1       9.022  -6.068  -7.177  1.00  0.00     0.158 A 
BRANCH  15  18
ATOM     18  O   UNL     1       7.477  -7.294  -5.782  1.00  0.00    -0.504 OA
ATOM     19  H   UNL     1       7.338  -8.101  -5.185  1.00  0.00     0.293 HD
ENDBRANCH  15  18
BRANCH  17  20
ATOM     20  O   UNL     1       8.603  -4.879  -6.582  1.00  0.00    -0.504 OA
ATOM     21  H   UNL     1       7.815  -4.853  -5.947  1.00  0.00     0.293 HD
ENDBRANCH  17  20
ENDBRANCH   1  12
BRANCH   6  22
ATOM     22  O   UNL     1      14.653  -7.571 -13.911  1.00  0.00    -0.507 OA
ATOM     23  H   UNL     1      14.766  -7.222 -14.851  1.00  0.00     0.293 HD
ENDBRANCH   6  22
BRANCH   8  24
ATOM     24  O   UNL     1      16.054  -3.691 -11.484  1.00  0.00    -0.508 OA
ATOM     25  H   UNL     1      16.530  -3.477 -10.616  1.00  0.00     0.293 HD
ENDBRANCH   8  24
TORSDOF 5
ENDMDL
MODEL 8
REMARK VINA RESULT:    -5.982      1.325      2.003
REMARK INTER + INTRA:          -7.298
REMARK INTER:                  -7.029
REMARK INTRA:                  -0.270
REMARK UNBOUND:                -0.267
REMARK SMILES O=c1cc(-c2ccc(O)c(O)c2)oc2cc(O)cc(O)c12
REMARK SMILES IDX 4 1 3 2 2 3 1 4 21 5 19 6 18 7 16 8 15 9 14 10 13 11 5 12
REMARK SMILES IDX 6 13 7 14 8 15 12 16 10 17 9 18 11 20 20 22 17 24
REMARK H PARENT 9 19 11 21 20 23 17 25
REMARK Flexibility Score: inf
ROOT
ATOM      1  C   UNL     1      18.150  -0.807 -16.050  1.00  0.00     0.138 A 
ATOM      2  C   UNL     1      17.490   0.112 -15.224  1.00  0.00     0.100 A 
ATOM      3  C   UNL     1      16.673  -0.352 -14.190  1.00  0.00     0.197 A 
ATOM      4  O   UNL     1      16.143   0.496 -13.426  1.00  0.00    -0.289 OA
ATOM      5  C   UNL     1      16.494  -1.744 -14.007  1.00  0.00     0.107 A 
ATOM      6  C   UNL     1      15.653  -2.330 -13.013  1.00  0.00     0.134 A 
ATOM      7  C   UNL     1      15.645  -3.721 -12.850  1.00  0.00     0.093 A 
ATOM      8  C   UNL     1      16.398  -4.548 -13.682  1.00  0.00     0.123 A 
ATOM      9  C   UNL     1      17.182  -3.989 -14.693  1.00  0.00     0.094 A 
ATOM     10  C   UNL     1      17.239  -2.603 -14.858  1.00  0.00     0.146 A 
ATOM     11  O   UNL     1      18.008  -2.108 -15.822  1.00  0.00    -0.456 OA
ENDROOT
BRANCH   1  12
ATOM     12  C   UNL     1      19.030  -0.368 -17.163  1.00  0.00     0.021 A 
ATOM     13  C   UNL     1      20.244   0.305 -16.925  1.00  0.00     0.016 A 
ATOM     14  C   UNL     1      21.047   0.715 -17.993  1.00  0.00     0.051 A 
ATOM     15  C   UNL     1      20.649   0.470 -19.313  1.00  0.00     0.157 A 
ATOM     16  C   UNL     1      18.631  -0.598 -18.492  1.00  0.00     0.062 A 
ATOM     17  C   UNL     1      19.438  -0.187 -19.563  1.00  0.00     0.158 A 
BRANCH  15  18
ATOM     18  O   UNL     1      21.448   0.877 -20.379  1.00  0.00    -0.504 OA
ATOM     19  H   UNL     1      21.179   0.701 -21.340  1.00  0.00     0.293 HD
ENDBRANCH  15  18
BRANCH  17  20
ATOM     20  O   UNL     1      19.041  -0.426 -20.878  1.00  0.00    -0.504 OA
ATOM     21  H   UNL     1      18.241   0.042 -21.285  1.00  0.00     0.293 HD
ENDBRANCH  17  20
ENDBRANCH   1  12
BRANCH   6  22
ATOM     22  O   UNL     1      14.796  -1.600 -12.184  1.00  0.00    -0.507 OA
ATOM     23  H   UNL     1      14.926  -0.632 -11.931  1.00  0.00     0.293 HD
ENDBRANCH   6  22
BRANCH   8  24
ATOM     24  O   UNL     1      16.354  -5.929 -13.501  1.00  0.00    -0.508 OA
ATOM     25  H   UNL     1      16.831  -6.562 -14.133  1.00  0.00     0.293 HD
ENDBRANCH   8  24
TORSDOF 5
ENDMDL
