MODEL 1
REMARK VINA RESULT:    -2.772      0.000      0.000
REMARK INTER + INTRA:          -2.853
REMARK INTER:                  -2.853
REMARK INTRA:                   0.000
REMARK UNBOUND:                 0.000
REMARK SMILES Oc1ccc2[nH]ccc2c1
REMARK SMILES IDX 3 1 4 2 5 3 9 4 8 5 7 6 6 7 10 8 2 9 1 11
REMARK H PARENT 6 10 1 12
REMARK Flexibility Score: inf
ROOT
ATOM      1  C   UNL     1     -28.855 -23.093  41.205  1.00  0.00     0.048 A 
ATOM      2  C   UNL     1     -29.724 -23.030  42.310  1.00  0.00     0.030 A 
ATOM      3  C   UNL     1     -29.447 -23.849  43.403  1.00  0.00     0.046 A 
ATOM      4  C   UNL     1     -28.368 -24.692  43.417  1.00  0.00     0.003 A 
ATOM      5  C   UNL     1     -28.376 -25.354  44.624  1.00  0.00     0.028 A 
ATOM      6  C   UNL     1     -29.491 -24.863  45.299  1.00  0.00     0.083 A 
ATOM      7  N   UNL     1     -30.141 -23.944  44.549  1.00  0.00    -0.361 N 
ATOM      8  C   UNL     1     -27.489 -24.778  42.339  1.00  0.00     0.056 A 
ATOM      9  C   UNL     1     -27.739 -23.963  41.216  1.00  0.00     0.116 A 
ATOM     10  H   UNL     1     -31.005 -23.420  44.811  1.00  0.00     0.166 HD
ENDROOT
BRANCH   9  11
ATOM     11  O   UNL     1     -26.895 -24.006  40.110  1.00  0.00    -0.508 OA
ATOM     12  H   UNL     1     -27.232 -23.794  39.178  1.00  0.00     0.293 HD
ENDBRANCH   9  11
TORSDOF 1
ENDMDL
MODEL 2
REMARK VINA RESULT:    -2.752     16.741     17.492
REMARK INTER + INTRA:          -2.833
REMARK INTER:                  -2.833
REMARK INTRA:                   0.000
REMARK UNBOUND:                 0.000
REMARK SMILES Oc1ccc2[nH]ccc2c1
REMARK SMILES IDX 3 1 4 2 5 3 9 4 8 5 7 6 6 7 10 8 2 9 1 11
REMARK H PARENT 6 10 1 12
REMARK Flexibility Score: inf
ROOT
ATOM      1  C   UNL     1     -46.982 -24.980  40.477  1.00  0.00     0.048 A 
ATOM      2  C   UNL     1     -47.124 -25.845  41.576  1.00  0.00     0.030 A 
ATOM      3  C   UNL     1     -46.387 -25.565  42.725  1.00  0.00     0.046 A 
ATOM      4  C   UNL     1     -45.549 -24.484  42.797  1.00  0.00     0.003 A 
ATOM      5  C   UNL     1     -44.976 -24.489  44.050  1.00  0.00     0.028 A 
ATOM      6  C   UNL     1     -45.513 -25.602  44.690  1.00  0.00     0.083 A 
ATOM      7  N   UNL     1     -46.375 -26.255  43.878  1.00  0.00    -0.361 N 
ATOM      8  C   UNL     1     -45.385 -23.608  41.726  1.00  0.00     0.056 A 
ATOM      9  C   UNL     1     -46.116 -23.863  40.547  1.00  0.00     0.116 A 
ATOM     10  H   UNL     1     -46.916 -27.119  44.103  1.00  0.00     0.166 HD
ENDROOT
BRANCH   9  11
ATOM     11  O   UNL     1     -45.994 -23.021  39.445  1.00  0.00    -0.508 OA
ATOM     12  H   UNL     1     -45.826 -23.389  38.515  1.00  0.00     0.293 HD
ENDBRANCH   9  11
TORSDOF 1
ENDMDL
MODEL 3
REMARK VINA RESULT:    -2.715      2.934      4.608
REMARK INTER + INTRA:          -2.794
REMARK INTER:                  -2.794
REMARK INTRA:                   0.000
REMARK UNBOUND:                 0.000
REMARK SMILES Oc1ccc2[nH]ccc2c1
REMARK SMILES IDX 3 1 4 2 5 3 9 4 8 5 7 6 6 7 10 8 2 9 1 11
REMARK H PARENT 6 10 1 12
REMARK Flexibility Score: inf
ROOT
ATOM      1  C   UNL     1     -28.498 -23.717  42.619  1.00  0.00     0.048 A 
ATOM      2  C   UNL     1     -27.788 -23.796  41.407  1.00  0.00     0.030 A 
ATOM      3  C   UNL     1     -28.473 -23.497  40.231  1.00  0.00     0.046 A 
ATOM      4  C   UNL     1     -29.793 -23.135  40.238  1.00  0.00     0.003 A 
ATOM      5  C   UNL     1     -30.166 -22.909  38.932  1.00  0.00     0.028 A 
ATOM      6  C   UNL     1     -29.021 -23.152  38.180  1.00  0.00     0.083 A 
ATOM      7  N   UNL     1     -27.989 -23.510  38.978  1.00  0.00    -0.361 N 
ATOM      8  C   UNL     1     -30.525 -23.047  41.420  1.00  0.00     0.056 A 
ATOM      9  C   UNL     1     -29.863 -23.343  42.630  1.00  0.00     0.116 A 
ATOM     10  H   UNL     1     -27.018 -23.748  38.677  1.00  0.00     0.166 HD
ENDROOT
BRANCH   9  11
ATOM     11  O   UNL     1     -30.543 -23.272  43.843  1.00  0.00    -0.508 OA
ATOM     12  H   UNL     1     -30.140 -22.809  44.649  1.00  0.00     0.293 HD
ENDBRANCH   9  11
TORSDOF 1
ENDMDL
MODEL 4
REMARK VINA RESULT:    -2.701     16.632     17.450
REMARK INTER + INTRA:          -2.780
REMARK INTER:                  -2.780
REMARK INTRA:                   0.000
REMARK UNBOUND:                 0.000
REMARK SMILES Oc1ccc2[nH]ccc2c1
REMARK SMILES IDX 3 1 4 2 5 3 9 4 8 5 7 6 6 7 10 8 2 9 1 11
REMARK H PARENT 6 10 1 12
REMARK Flexibility Score: inf
ROOT
ATOM      1  C   UNL     1     -26.875 -41.136  41.636  1.00  0.00     0.048 A 
ATOM      2  C   UNL     1     -26.893 -40.340  42.795  1.00  0.00     0.030 A 
ATOM      3  C   UNL     1     -27.717 -40.739  43.846  1.00  0.00     0.046 A 
ATOM      4  C   UNL     1     -28.488 -41.868  43.768  1.00  0.00     0.003 A 
ATOM      5  C   UNL     1     -29.176 -41.980  44.956  1.00  0.00     0.028 A 
ATOM      6  C   UNL     1     -28.774 -40.885  45.714  1.00  0.00     0.083 A 
ATOM      7  N   UNL     1     -27.882 -40.130  45.032  1.00  0.00    -0.361 N 
ATOM      8  C   UNL     1     -28.494 -42.677  42.634  1.00  0.00     0.056 A 
ATOM      9  C   UNL     1     -27.671 -42.302  41.551  1.00  0.00     0.116 A 
ATOM     10  H   UNL     1     -27.420 -39.254  45.363  1.00  0.00     0.166 HD
ENDROOT
BRANCH   9  11
ATOM     11  O   UNL     1     -27.635 -43.072  40.392  1.00  0.00    -0.508 OA
ATOM     12  H   UNL     1     -27.605 -42.645  39.473  1.00  0.00     0.293 HD
ENDBRANCH   9  11
TORSDOF 1
ENDMDL
MODEL 5
REMARK VINA RESULT:    -2.611     24.036     24.696
REMARK INTER + INTRA:          -2.687
REMARK INTER:                  -2.687
REMARK INTRA:                   0.000
REMARK UNBOUND:                 0.000
REMARK SMILES Oc1ccc2[nH]ccc2c1
REMARK SMILES IDX 3 1 4 2 5 3 9 4 8 5 7 6 6 7 10 8 2 9 1 11
REMARK H PARENT 6 10 1 12
REMARK Flexibility Score: inf
ROOT
ATOM      1  C   UNL     1     -45.080 -43.123  41.293  1.00  0.00     0.048 A 
ATOM      2  C   UNL     1     -44.288 -43.124  42.456  1.00  0.00     0.030 A 
ATOM      3  C   UNL     1     -44.699 -42.327  43.523  1.00  0.00     0.046 A 
ATOM      4  C   UNL     1     -45.835 -41.563  43.456  1.00  0.00     0.003 A 
ATOM      5  C   UNL     1     -45.959 -40.902  44.658  1.00  0.00     0.028 A 
ATOM      6  C   UNL     1     -44.863 -41.312  45.412  1.00  0.00     0.083 A 
ATOM      7  N   UNL     1     -44.097 -42.181  44.715  1.00  0.00    -0.361 N 
ATOM      8  C   UNL     1     -46.639 -41.540  42.319  1.00  0.00     0.056 A 
ATOM      9  C   UNL     1     -46.252 -42.336  41.221  1.00  0.00     0.116 A 
ATOM     10  H   UNL     1     -43.218 -42.643  45.040  1.00  0.00     0.166 HD
ENDROOT
BRANCH   9  11
ATOM     11  O   UNL     1     -47.018 -42.353  40.057  1.00  0.00    -0.508 OA
ATOM     12  H   UNL     1     -47.899 -41.857  39.997  1.00  0.00     0.293 HD
ENDBRANCH   9  11
TORSDOF 1
ENDMDL
MODEL 6
REMARK VINA RESULT:    -2.607      2.667      3.747
REMARK INTER + INTRA:          -2.683
REMARK INTER:                  -2.683
REMARK INTRA:                   0.000
REMARK UNBOUND:                 0.000
REMARK SMILES Oc1ccc2[nH]ccc2c1
REMARK SMILES IDX 3 1 4 2 5 3 9 4 8 5 7 6 6 7 10 8 2 9 1 11
REMARK H PARENT 6 10 1 12
REMARK Flexibility Score: inf
ROOT
ATOM      1  C   UNL     1     -29.848 -22.939  42.316  1.00  0.00     0.048 A 
ATOM      2  C   UNL     1     -29.344 -22.875  41.004  1.00  0.00     0.030 A 
ATOM      3  C   UNL     1     -28.359 -23.791  40.640  1.00  0.00     0.046 A 
ATOM      4  C   UNL     1     -27.888 -24.730  41.519  1.00  0.00     0.003 A 
ATOM      5  C   UNL     1     -26.934 -25.471  40.858  1.00  0.00     0.028 A 
ATOM      6  C   UNL     1     -26.875 -24.929  39.578  1.00  0.00     0.083 A 
ATOM      7  N   UNL     1     -27.748 -23.904  39.449  1.00  0.00    -0.361 N 
ATOM      8  C   UNL     1     -28.365 -24.819  42.825  1.00  0.00     0.056 A 
ATOM      9  C   UNL     1     -29.363 -23.907  43.226  1.00  0.00     0.116 A 
ATOM     10  H   UNL     1     -27.909 -23.322  38.597  1.00  0.00     0.166 HD
ENDROOT
BRANCH   9  11
ATOM     11  O   UNL     1     -29.879 -23.949  44.519  1.00  0.00    -0.508 OA
ATOM     12  H   UNL     1     -30.871 -24.068  44.690  1.00  0.00     0.293 HD
ENDBRANCH   9  11
TORSDOF 1
ENDMDL
MODEL 7
REMARK VINA RESULT:    -2.597     17.502     18.261
REMARK INTER + INTRA:          -2.673
REMARK INTER:                  -2.673
REMARK INTRA:                   0.000
REMARK UNBOUND:                 0.000
REMARK SMILES Oc1ccc2[nH]ccc2c1
REMARK SMILES IDX 3 1 4 2 5 3 9 4 8 5 7 6 6 7 10 8 2 9 1 11
REMARK H PARENT 6 10 1 12
REMARK Flexibility Score: inf
ROOT
ATOM      1  C   UNL     1     -45.848 -24.320  42.933  1.00  0.00     0.048 A 
ATOM      2  C   UNL     1     -45.826 -23.707  41.667  1.00  0.00     0.030 A 
ATOM      3  C   UNL     1     -46.287 -24.444  40.578  1.00  0.00     0.046 A 
ATOM      4  C   UNL     1     -46.750 -25.725  40.720  1.00  0.00     0.003 A 
ATOM      5  C   UNL     1     -47.125 -26.169  39.471  1.00  0.00     0.028 A 
ATOM      6  C   UNL     1     -46.864 -25.104  38.614  1.00  0.00     0.083 A 
ATOM      7  N   UNL     1     -46.352 -24.053  39.294  1.00  0.00    -0.361 N 
ATOM      8  C   UNL     1     -46.784 -26.362  41.959  1.00  0.00     0.056 A 
ATOM      9  C   UNL     1     -46.325 -25.643  43.083  1.00  0.00     0.116 A 
ATOM     10  H   UNL     1     -46.067 -23.130  38.899  1.00  0.00     0.166 HD
ENDROOT
BRANCH   9  11
ATOM     11  O   UNL     1     -46.336 -26.228  44.347  1.00  0.00    -0.508 OA
ATOM     12  H   UNL     1     -47.011 -26.943  44.593  1.00  0.00     0.293 HD
ENDBRANCH   9  11
TORSDOF 1
ENDMDL
MODEL 8
REMARK VINA RESULT:    -2.592     16.342     17.255
REMARK INTER + INTRA:          -2.667
REMARK INTER:                  -2.667
REMARK INTRA:                   0.000
REMARK UNBOUND:                 0.000
REMARK SMILES Oc1ccc2[nH]ccc2c1
REMARK SMILES IDX 3 1 4 2 5 3 9 4 8 5 7 6 6 7 10 8 2 9 1 11
REMARK H PARENT 6 10 1 12
REMARK Flexibility Score: inf
ROOT
ATOM      1  C   UNL     1     -27.397 -41.710  42.866  1.00  0.00     0.048 A 
ATOM      2  C   UNL     1     -27.433 -42.364  41.621  1.00  0.00     0.030 A 
ATOM      3  C   UNL     1     -27.242 -41.594  40.476  1.00  0.00     0.046 A 
ATOM      4  C   UNL     1     -27.023 -40.243  40.544  1.00  0.00     0.003 A 
ATOM      5  C   UNL     1     -26.875 -39.784  39.254  1.00  0.00     0.028 A 
ATOM      6  C   UNL     1     -27.014 -40.911  38.449  1.00  0.00     0.083 A 
ATOM      7  N   UNL     1     -27.237 -42.014  39.200  1.00  0.00    -0.361 N 
ATOM      8  C   UNL     1     -26.983 -39.565  41.761  1.00  0.00     0.056 A 
ATOM      9  C   UNL     1     -27.173 -40.315  42.940  1.00  0.00     0.116 A 
ATOM     10  H   UNL     1     -27.377 -42.989  38.854  1.00  0.00     0.166 HD
ENDROOT
BRANCH   9  11
ATOM     11  O   UNL     1     -27.142 -39.692  44.185  1.00  0.00    -0.508 OA
ATOM     12  H   UNL     1     -27.754 -38.914  44.402  1.00  0.00     0.293 HD
ENDBRANCH   9  11
TORSDOF 1
ENDMDL
MODEL 9
REMARK VINA RESULT:    -2.527      2.122      3.458
REMARK INTER + INTRA:          -2.601
REMARK INTER:                  -2.601
REMARK INTRA:                   0.000
REMARK UNBOUND:                 0.000
REMARK SMILES Oc1ccc2[nH]ccc2c1
REMARK SMILES IDX 3 1 4 2 5 3 9 4 8 5 7 6 6 7 10 8 2 9 1 11
REMARK H PARENT 6 10 1 12
REMARK Flexibility Score: inf
ROOT
ATOM      1  C   UNL     1     -28.953 -25.556  45.610  1.00  0.00     0.048 A 
ATOM      2  C   UNL     1     -29.854 -24.626  45.059  1.00  0.00     0.030 A 
ATOM      3  C   UNL     1     -29.521 -24.042  43.839  1.00  0.00     0.046 A 
ATOM      4  C   UNL     1     -28.359 -24.354  43.184  1.00  0.00     0.003 A 
ATOM      5  C   UNL     1     -28.329 -23.616  42.022  1.00  0.00     0.028 A 
ATOM      6  C   UNL     1     -29.508 -22.875  42.032  1.00  0.00     0.083 A 
ATOM      7  N   UNL     1     -30.232 -23.139  43.143  1.00  0.00    -0.361 N 
ATOM      8  C   UNL     1     -27.446 -25.270  43.702  1.00  0.00     0.056 A 
ATOM      9  C   UNL     1     -27.752 -25.880  44.937  1.00  0.00     0.116 A 
ATOM     10  H   UNL     1     -31.154 -22.724  43.404  1.00  0.00     0.166 HD
ENDROOT
BRANCH   9  11
ATOM     11  O   UNL     1     -26.877 -26.803  45.504  1.00  0.00    -0.508 OA
ATOM     12  H   UNL     1     -26.022 -27.078  45.036  1.00  0.00     0.293 HD
ENDBRANCH   9  11
TORSDOF 1
ENDMDL
