MODEL 1
REMARK VINA RESULT:    -7.867      0.000      0.000
REMARK INTER + INTRA:          -9.737
REMARK INTER:                  -9.477
REMARK INTRA:                  -0.260
REMARK UNBOUND:                -0.260
REMARK SMILES O=c1c(O)c(-c2ccc(O)c(O)c2)oc2cc(O)cc(O)c12
REMARK SMILES IDX 5 1 3 2 2 3 1 4 22 5 20 6 19 7 17 8 16 9 15 10 14 11 6 12
REMARK SMILES IDX 7 13 8 14 9 15 13 16 11 17 10 18 12 20 4 22 21 24 18 26
REMARK H PARENT 10 19 12 21 4 23 21 25 18 27
REMARK Flexibility Score: inf
ROOT
ATOM      1  C   UNL     1      57.444 -20.219   3.313  1.00  0.00     0.180 A 
ATOM      2  C   UNL     1      56.604 -21.208   3.862  1.00  0.00     0.208 A 
ATOM      3  C   UNL     1      55.232 -20.940   3.985  1.00  0.00     0.238 A 
ATOM      4  O   UNL     1      54.472 -21.814   4.485  1.00  0.00    -0.285 OA
ATOM      5  C   UNL     1      54.720 -19.703   3.543  1.00  0.00     0.111 A 
ATOM      6  C   UNL     1      53.350 -19.357   3.629  1.00  0.00     0.134 A 
ATOM      7  C   UNL     1      52.917 -18.108   3.159  1.00  0.00     0.093 A 
ATOM      8  C   UNL     1      53.827 -17.201   2.603  1.00  0.00     0.123 A 
ATOM      9  C   UNL     1      55.179 -17.538   2.517  1.00  0.00     0.094 A 
ATOM     10  C   UNL     1      55.630 -18.777   2.982  1.00  0.00     0.146 A 
ATOM     11  O   UNL     1      56.922 -19.068   2.893  1.00  0.00    -0.452 OA
ENDROOT
BRANCH   1  12
ATOM     12  C   UNL     1      58.903 -20.418   3.166  1.00  0.00     0.025 A 
ATOM     13  C   UNL     1      59.456 -20.555   1.883  1.00  0.00     0.016 A 
ATOM     14  C   UNL     1      60.833 -20.724   1.721  1.00  0.00     0.051 A 
ATOM     15  C   UNL     1      61.680 -20.742   2.833  1.00  0.00     0.157 A 
ATOM     16  C   UNL     1      59.758 -20.415   4.282  1.00  0.00     0.062 A 
ATOM     17  C   UNL     1      61.142 -20.582   4.120  1.00  0.00     0.158 A 
BRANCH  15  18
ATOM     18  O   UNL     1      63.050 -20.914   2.639  1.00  0.00    -0.504 OA
ATOM     19  H   UNL     1      63.632 -21.398   3.312  1.00  0.00     0.293 HD
ENDBRANCH  15  18
BRANCH  17  20
ATOM     20  O   UNL     1      61.982 -20.584   5.233  1.00  0.00    -0.504 OA
ATOM     21  H   UNL     1      61.688 -20.976   6.120  1.00  0.00     0.293 HD
ENDBRANCH  17  20
ENDBRANCH   1  12
BRANCH   2  22
ATOM     22  O   UNL     1      57.128 -22.445   4.245  1.00  0.00    -0.502 OA
ATOM     23  H   UNL     1      57.709 -22.556   5.068  1.00  0.00     0.293 HD
ENDBRANCH   2  22
BRANCH   6  24
ATOM     24  O   UNL     1      52.418 -20.240   4.177  1.00  0.00    -0.507 OA
ATOM     25  H   UNL     1      52.703 -21.068   4.687  1.00  0.00     0.293 HD
ENDBRANCH   6  24
BRANCH   8  26
ATOM     26  O   UNL     1      53.398 -15.962   2.136  1.00  0.00    -0.508 OA
ATOM     27  H   UNL     1      52.557 -15.522   2.493  1.00  0.00     0.293 HD
ENDBRANCH   8  26
TORSDOF 6
ENDMDL
MODEL 2
REMARK VINA RESULT:    -7.850      1.214      2.894
REMARK INTER + INTRA:          -9.716
REMARK INTER:                  -9.502
REMARK INTRA:                  -0.214
REMARK UNBOUND:                -0.260
REMARK SMILES O=c1c(O)c(-c2ccc(O)c(O)c2)oc2cc(O)cc(O)c12
REMARK SMILES IDX 5 1 3 2 2 3 1 4 22 5 20 6 19 7 17 8 16 9 15 10 14 11 6 12
REMARK SMILES IDX 7 13 8 14 9 15 13 16 11 17 10 18 12 20 4 22 21 24 18 26
REMARK H PARENT 10 19 12 21 4 23 21 25 18 27
REMARK Flexibility Score: inf
ROOT
ATOM      1  C   UNL     1      57.575 -19.833   3.126  1.00  0.00     0.180 A 
ATOM      2  C   UNL     1      57.043 -18.590   2.731  1.00  0.00     0.208 A 
ATOM      3  C   UNL     1      55.662 -18.373   2.853  1.00  0.00     0.238 A 
ATOM      4  O   UNL     1      55.174 -17.268   2.492  1.00  0.00    -0.285 OA
ATOM      5  C   UNL     1      54.841 -19.389   3.385  1.00  0.00     0.111 A 
ATOM      6  C   UNL     1      53.441 -19.248   3.544  1.00  0.00     0.134 A 
ATOM      7  C   UNL     1      52.694 -20.303   4.090  1.00  0.00     0.093 A 
ATOM      8  C   UNL     1      53.319 -21.493   4.479  1.00  0.00     0.123 A 
ATOM      9  C   UNL     1      54.699 -21.636   4.323  1.00  0.00     0.094 A 
ATOM     10  C   UNL     1      55.461 -20.597   3.779  1.00  0.00     0.146 A 
ATOM     11  O   UNL     1      56.771 -20.763   3.637  1.00  0.00    -0.452 OA
ENDROOT
BRANCH   1  12
ATOM     12  C   UNL     1      59.017 -20.144   3.011  1.00  0.00     0.025 A 
ATOM     13  C   UNL     1      59.592 -20.296   1.740  1.00  0.00     0.016 A 
ATOM     14  C   UNL     1      60.956 -20.569   1.608  1.00  0.00     0.051 A 
ATOM     15  C   UNL     1      61.768 -20.680   2.741  1.00  0.00     0.157 A 
ATOM     16  C   UNL     1      59.839 -20.235   4.149  1.00  0.00     0.062 A 
ATOM     17  C   UNL     1      61.209 -20.507   4.018  1.00  0.00     0.158 A 
BRANCH  15  18
ATOM     18  O   UNL     1      63.125 -20.955   2.577  1.00  0.00    -0.504 OA
ATOM     19  H   UNL     1      63.454 -21.845   2.221  1.00  0.00     0.293 HD
ENDBRANCH  15  18
BRANCH  17  20
ATOM     20  O   UNL     1      62.016 -20.602   5.151  1.00  0.00    -0.504 OA
ATOM     21  H   UNL     1      61.632 -20.837   6.059  1.00  0.00     0.293 HD
ENDBRANCH  17  20
ENDBRANCH   1  12
BRANCH   2  22
ATOM     22  O   UNL     1      57.885 -17.582   2.254  1.00  0.00    -0.502 OA
ATOM     23  H   UNL     1      58.427 -16.990   2.873  1.00  0.00     0.293 HD
ENDBRANCH   2  22
BRANCH   6  24
ATOM     24  O   UNL     1      52.789 -18.074   3.166  1.00  0.00    -0.507 OA
ATOM     25  H   UNL     1      53.081 -17.537   2.358  1.00  0.00     0.293 HD
ENDBRANCH   6  24
BRANCH   8  26
ATOM     26  O   UNL     1      52.579 -22.540   5.021  1.00  0.00    -0.508 OA
ATOM     27  H   UNL     1      53.020 -23.281   5.554  1.00  0.00     0.293 HD
ENDBRANCH   8  26
TORSDOF 6
ENDMDL
MODEL 3
REMARK VINA RESULT:    -7.817      2.589      6.061
REMARK INTER + INTRA:          -9.677
REMARK INTER:                  -9.489
REMARK INTRA:                  -0.188
REMARK UNBOUND:                -0.260
REMARK SMILES O=c1c(O)c(-c2ccc(O)c(O)c2)oc2cc(O)cc(O)c12
REMARK SMILES IDX 5 1 3 2 2 3 1 4 22 5 20 6 19 7 17 8 16 9 15 10 14 11 6 12
REMARK SMILES IDX 7 13 8 14 9 15 13 16 11 17 10 18 12 20 4 22 21 24 18 26
REMARK H PARENT 10 19 12 21 4 23 21 25 18 27
REMARK Flexibility Score: inf
ROOT
ATOM      1  C   UNL     1      58.194 -20.293   3.029  1.00  0.00     0.180 A 
ATOM      2  C   UNL     1      59.382 -20.999   2.756  1.00  0.00     0.208 A 
ATOM      3  C   UNL     1      60.454 -20.317   2.158  1.00  0.00     0.238 A 
ATOM      4  O   UNL     1      61.518 -20.941   1.899  1.00  0.00    -0.285 OA
ATOM      5  C   UNL     1      60.329 -18.944   1.863  1.00  0.00     0.111 A 
ATOM      6  C   UNL     1      61.363 -18.184   1.264  1.00  0.00     0.134 A 
ATOM      7  C   UNL     1      61.164 -16.818   1.010  1.00  0.00     0.093 A 
ATOM      8  C   UNL     1      59.954 -16.200   1.344  1.00  0.00     0.123 A 
ATOM      9  C   UNL     1      58.932 -16.946   1.934  1.00  0.00     0.094 A 
ATOM     10  C   UNL     1      59.109 -18.308   2.193  1.00  0.00     0.146 A 
ATOM     11  O   UNL     1      58.118 -18.994   2.750  1.00  0.00    -0.452 OA
ENDROOT
BRANCH   1  12
ATOM     12  C   UNL     1      57.015 -20.945   3.641  1.00  0.00     0.025 A 
ATOM     13  C   UNL     1      55.857 -21.143   2.872  1.00  0.00     0.016 A 
ATOM     14  C   UNL     1      54.740 -21.775   3.423  1.00  0.00     0.051 A 
ATOM     15  C   UNL     1      54.767 -22.233   4.743  1.00  0.00     0.157 A 
ATOM     16  C   UNL     1      57.047 -21.426   4.962  1.00  0.00     0.062 A 
ATOM     17  C   UNL     1      55.927 -22.063   5.517  1.00  0.00     0.158 A 
BRANCH  15  18
ATOM     18  O   UNL     1      53.635 -22.858   5.266  1.00  0.00    -0.504 OA
ATOM     19  H   UNL     1      52.700 -22.624   4.956  1.00  0.00     0.293 HD
ENDBRANCH  15  18
BRANCH  17  20
ATOM     20  O   UNL     1      55.965 -22.530   6.829  1.00  0.00    -0.504 OA
ATOM     21  H   UNL     1      56.558 -22.100   7.530  1.00  0.00     0.293 HD
ENDBRANCH  17  20
ENDBRANCH   1  12
BRANCH   2  22
ATOM     22  O   UNL     1      59.498 -22.347   3.104  1.00  0.00    -0.502 OA
ATOM     23  H   UNL     1      60.393 -22.785   3.287  1.00  0.00     0.293 HD
ENDBRANCH   2  22
BRANCH   6  24
ATOM     24  O   UNL     1      62.581 -18.772   0.921  1.00  0.00    -0.507 OA
ATOM     25  H   UNL     1      63.296 -18.962   1.614  1.00  0.00     0.293 HD
ENDBRANCH   6  24
BRANCH   8  26
ATOM     26  O   UNL     1      59.756 -14.845   1.092  1.00  0.00    -0.508 OA
ATOM     27  H   UNL     1      59.774 -14.159   1.839  1.00  0.00     0.293 HD
ENDBRANCH   8  26
TORSDOF 6
ENDMDL
MODEL 4
REMARK VINA RESULT:    -7.794      4.165      6.390
REMARK INTER + INTRA:          -9.648
REMARK INTER:                  -9.343
REMARK INTRA:                  -0.305
REMARK UNBOUND:                -0.260
REMARK SMILES O=c1c(O)c(-c2ccc(O)c(O)c2)oc2cc(O)cc(O)c12
REMARK SMILES IDX 5 1 3 2 2 3 1 4 22 5 20 6 19 7 17 8 16 9 15 10 14 11 6 12
REMARK SMILES IDX 7 13 8 14 9 15 13 16 11 17 10 18 12 20 4 22 21 24 18 26
REMARK H PARENT 10 19 12 21 4 23 21 25 18 27
REMARK Flexibility Score: inf
ROOT
ATOM      1  C   UNL     1      60.334 -17.920   1.107  1.00  0.00     0.180 A 
ATOM      2  C   UNL     1      61.427 -18.769   1.368  1.00  0.00     0.208 A 
ATOM      3  C   UNL     1      61.237 -19.882   2.201  1.00  0.00     0.238 A 
ATOM      4  O   UNL     1      62.212 -20.643   2.450  1.00  0.00    -0.285 OA
ATOM      5  C   UNL     1      59.961 -20.139   2.742  1.00  0.00     0.111 A 
ATOM      6  C   UNL     1      59.687 -21.240   3.588  1.00  0.00     0.134 A 
ATOM      7  C   UNL     1      58.386 -21.433   4.079  1.00  0.00     0.093 A 
ATOM      8  C   UNL     1      57.358 -20.547   3.740  1.00  0.00     0.123 A 
ATOM      9  C   UNL     1      57.625 -19.459   2.906  1.00  0.00     0.094 A 
ATOM     10  C   UNL     1      58.914 -19.248   2.408  1.00  0.00     0.146 A 
ATOM     11  O   UNL     1      59.140 -18.202   1.623  1.00  0.00    -0.452 OA
ENDROOT
BRANCH   1  12
ATOM     12  C   UNL     1      60.458 -16.717   0.253  1.00  0.00     0.025 A 
ATOM     13  C   UNL     1      60.370 -16.848  -1.142  1.00  0.00     0.016 A 
ATOM     14  C   UNL     1      60.464 -15.724  -1.966  1.00  0.00     0.051 A 
ATOM     15  C   UNL     1      60.629 -14.451  -1.410  1.00  0.00     0.157 A 
ATOM     16  C   UNL     1      60.602 -15.435   0.811  1.00  0.00     0.062 A 
ATOM     17  C   UNL     1      60.694 -14.304  -0.015  1.00  0.00     0.158 A 
BRANCH  15  18
ATOM     18  O   UNL     1      60.721 -13.348  -2.258  1.00  0.00    -0.504 OA
ATOM     19  H   UNL     1      61.176 -12.488  -1.975  1.00  0.00     0.293 HD
ENDBRANCH  15  18
BRANCH  17  20
ATOM     20  O   UNL     1      60.845 -13.037   0.547  1.00  0.00    -0.504 OA
ATOM     21  H   UNL     1      60.483 -12.207   0.092  1.00  0.00     0.293 HD
ENDBRANCH  17  20
ENDBRANCH   1  12
BRANCH   2  22
ATOM     22  O   UNL     1      62.670 -18.520   0.779  1.00  0.00    -0.502 OA
ATOM     23  H   UNL     1      62.918 -17.616   0.396  1.00  0.00     0.293 HD
ENDBRANCH   2  22
BRANCH   6  24
ATOM     24  O   UNL     1      60.691 -22.142   3.943  1.00  0.00    -0.507 OA
ATOM     25  H   UNL     1      60.510 -23.135   4.029  1.00  0.00     0.293 HD
ENDBRANCH   6  24
BRANCH   8  26
ATOM     26  O   UNL     1      56.067 -20.737   4.226  1.00  0.00    -0.508 OA
ATOM     27  H   UNL     1      55.481 -19.954   4.494  1.00  0.00     0.293 HD
ENDBRANCH   8  26
TORSDOF 6
ENDMDL
MODEL 5
REMARK VINA RESULT:    -7.750      5.609      8.116
REMARK INTER + INTRA:          -9.596
REMARK INTER:                  -9.266
REMARK INTRA:                  -0.330
REMARK UNBOUND:                -0.260
REMARK SMILES O=c1c(O)c(-c2ccc(O)c(O)c2)oc2cc(O)cc(O)c12
REMARK SMILES IDX 5 1 3 2 2 3 1 4 22 5 20 6 19 7 17 8 16 9 15 10 14 11 6 12
REMARK SMILES IDX 7 13 8 14 9 15 13 16 11 17 10 18 12 20 4 22 21 24 18 26
REMARK H PARENT 10 19 12 21 4 23 21 25 18 27
REMARK Flexibility Score: inf
ROOT
ATOM      1  C   UNL     1      61.136 -16.410  -0.183  1.00  0.00     0.180 A 
ATOM      2  C   UNL     1      60.245 -15.989   0.825  1.00  0.00     0.208 A 
ATOM      3  C   UNL     1      59.885 -16.896   1.833  1.00  0.00     0.238 A 
ATOM      4  O   UNL     1      59.080 -16.534   2.734  1.00  0.00    -0.285 OA
ATOM      5  C   UNL     1      60.431 -18.196   1.830  1.00  0.00     0.111 A 
ATOM      6  C   UNL     1      60.121 -19.168   2.812  1.00  0.00     0.134 A 
ATOM      7  C   UNL     1      60.715 -20.438   2.745  1.00  0.00     0.093 A 
ATOM      8  C   UNL     1      61.611 -20.752   1.717  1.00  0.00     0.123 A 
ATOM      9  C   UNL     1      61.919 -19.797   0.747  1.00  0.00     0.094 A 
ATOM     10  C   UNL     1      61.337 -18.527   0.795  1.00  0.00     0.146 A 
ATOM     11  O   UNL     1      61.643 -17.640  -0.144  1.00  0.00    -0.452 OA
ENDROOT
BRANCH   1  12
ATOM     12  C   UNL     1      61.550 -15.519  -1.289  1.00  0.00     0.025 A 
ATOM     13  C   UNL     1      62.697 -14.722  -1.143  1.00  0.00     0.016 A 
ATOM     14  C   UNL     1      63.117 -13.890  -2.182  1.00  0.00     0.051 A 
ATOM     15  C   UNL     1      62.411 -13.851  -3.388  1.00  0.00     0.157 A 
ATOM     16  C   UNL     1      60.852 -15.494  -2.510  1.00  0.00     0.062 A 
ATOM     17  C   UNL     1      61.275 -14.660  -3.556  1.00  0.00     0.158 A 
BRANCH  15  18
ATOM     18  O   UNL     1      62.854 -13.008  -4.407  1.00  0.00    -0.504 OA
ATOM     19  H   UNL     1      63.493 -12.242  -4.231  1.00  0.00     0.293 HD
ENDBRANCH  15  18
BRANCH  17  20
ATOM     20  O   UNL     1      60.573 -14.637  -4.760  1.00  0.00    -0.504 OA
ATOM     21  H   UNL     1      59.744 -14.067  -4.882  1.00  0.00     0.293 HD
ENDBRANCH  17  20
ENDBRANCH   1  12
BRANCH   2  22
ATOM     22  O   UNL     1      59.757 -14.680   0.833  1.00  0.00    -0.502 OA
ATOM     23  H   UNL     1      60.284 -13.907   1.221  1.00  0.00     0.293 HD
ENDBRANCH   2  22
BRANCH   6  24
ATOM     24  O   UNL     1      59.233 -18.884   3.850  1.00  0.00    -0.507 OA
ATOM     25  H   UNL     1      58.362 -18.391   3.687  1.00  0.00     0.293 HD
ENDBRANCH   6  24
BRANCH   8  26
ATOM     26  O   UNL     1      62.201 -22.012   1.650  1.00  0.00    -0.508 OA
ATOM     27  H   UNL     1      62.839 -22.337   2.367  1.00  0.00     0.293 HD
ENDBRANCH   8  26
TORSDOF 6
ENDMDL
MODEL 6
REMARK VINA RESULT:    -7.463      2.362      6.345
REMARK INTER + INTRA:          -9.249
REMARK INTER:                  -9.723
REMARK INTRA:                   0.474
REMARK UNBOUND:                -0.260
REMARK SMILES O=c1c(O)c(-c2ccc(O)c(O)c2)oc2cc(O)cc(O)c12
REMARK SMILES IDX 5 1 3 2 2 3 1 4 22 5 20 6 19 7 17 8 16 9 15 10 14 11 6 12
REMARK SMILES IDX 7 13 8 14 9 15 13 16 11 17 10 18 12 20 4 22 21 24 18 26
REMARK H PARENT 10 19 12 21 4 23 21 25 18 27
REMARK Flexibility Score: inf
ROOT
ATOM      1  C   UNL     1      57.545 -19.830   3.120  1.00  0.00     0.180 A 
ATOM      2  C   UNL     1      58.642 -20.706   3.007  1.00  0.00     0.208 A 
ATOM      3  C   UNL     1      59.835 -20.230   2.441  1.00  0.00     0.238 A 
ATOM      4  O   UNL     1      60.820 -21.009   2.326  1.00  0.00    -0.285 OA
ATOM      5  C   UNL     1      59.918 -18.888   2.017  1.00  0.00     0.111 A 
ATOM      6  C   UNL     1      61.084 -18.330   1.440  1.00  0.00     0.134 A 
ATOM      7  C   UNL     1      61.091 -16.982   1.052  1.00  0.00     0.093 A 
ATOM      8  C   UNL     1      59.956 -16.183   1.230  1.00  0.00     0.123 A 
ATOM      9  C   UNL     1      58.804 -16.729   1.799  1.00  0.00     0.094 A 
ATOM     10  C   UNL     1      58.776 -18.071   2.190  1.00  0.00     0.146 A 
ATOM     11  O   UNL     1      57.665 -18.566   2.723  1.00  0.00    -0.452 OA
ENDROOT
BRANCH   1  12
ATOM     12  C   UNL     1      56.249 -20.262   3.689  1.00  0.00     0.025 A 
ATOM     13  C   UNL     1      56.186 -21.439   4.452  1.00  0.00     0.016 A 
ATOM     14  C   UNL     1      54.977 -21.854   5.015  1.00  0.00     0.051 A 
ATOM     15  C   UNL     1      53.817 -21.093   4.841  1.00  0.00     0.157 A 
ATOM     16  C   UNL     1      55.086 -19.486   3.533  1.00  0.00     0.062 A 
ATOM     17  C   UNL     1      53.871 -19.900   4.100  1.00  0.00     0.158 A 
BRANCH  15  18
ATOM     18  O   UNL     1      52.625 -21.534   5.414  1.00  0.00    -0.504 OA
ATOM     19  H   UNL     1      51.797 -20.951   5.450  1.00  0.00     0.293 HD
ENDBRANCH  15  18
BRANCH  17  20
ATOM     20  O   UNL     1      52.722 -19.129   3.934  1.00  0.00    -0.504 OA
ATOM     21  H   UNL     1      51.885 -19.298   4.480  1.00  0.00     0.293 HD
ENDBRANCH  17  20
ENDBRANCH   1  12
BRANCH   2  22
ATOM     22  O   UNL     1      58.549 -22.018   3.481  1.00  0.00    -0.502 OA
ATOM     23  H   UNL     1      58.575 -22.240   4.469  1.00  0.00     0.293 HD
ENDBRANCH   2  22
BRANCH   6  24
ATOM     24  O   UNL     1      62.232 -19.101   1.250  1.00  0.00    -0.507 OA
ATOM     25  H   UNL     1      62.815 -19.390   2.027  1.00  0.00     0.293 HD
ENDBRANCH   6  24
BRANCH   8  26
ATOM     26  O   UNL     1      59.962 -14.844   0.846  1.00  0.00    -0.508 OA
ATOM     27  H   UNL     1      59.913 -14.097   1.528  1.00  0.00     0.293 HD
ENDBRANCH   8  26
TORSDOF 6
ENDMDL
MODEL 7
REMARK VINA RESULT:    -7.462      2.192      6.372
REMARK INTER + INTRA:          -9.249
REMARK INTER:                  -9.048
REMARK INTRA:                  -0.201
REMARK UNBOUND:                -0.260
REMARK SMILES O=c1c(O)c(-c2ccc(O)c(O)c2)oc2cc(O)cc(O)c12
REMARK SMILES IDX 5 1 3 2 2 3 1 4 22 5 20 6 19 7 17 8 16 9 15 10 14 11 6 12
REMARK SMILES IDX 7 13 8 14 9 15 13 16 11 17 10 18 12 20 4 22 21 24 18 26
REMARK H PARENT 10 19 12 21 4 23 21 25 18 27
REMARK Flexibility Score: inf
ROOT
ATOM      1  C   UNL     1      55.890 -19.943   3.364  1.00  0.00     0.180 A 
ATOM      2  C   UNL     1      56.904 -20.895   3.586  1.00  0.00     0.208 A 
ATOM      3  C   UNL     1      58.232 -20.555   3.286  1.00  0.00     0.238 A 
ATOM      4  O   UNL     1      59.146 -21.404   3.470  1.00  0.00    -0.285 OA
ATOM      5  C   UNL     1      58.527 -19.268   2.790  1.00  0.00     0.111 A 
ATOM      6  C   UNL     1      59.839 -18.846   2.467  1.00  0.00     0.134 A 
ATOM      7  C   UNL     1      60.052 -17.544   1.987  1.00  0.00     0.093 A 
ATOM      8  C   UNL     1      58.980 -16.659   1.826  1.00  0.00     0.123 A 
ATOM      9  C   UNL     1      57.684 -17.073   2.143  1.00  0.00     0.094 A 
ATOM     10  C   UNL     1      57.451 -18.365   2.621  1.00  0.00     0.146 A 
ATOM     11  O   UNL     1      56.208 -18.733   2.909  1.00  0.00    -0.452 OA
ENDROOT
BRANCH   1  12
ATOM     12  C   UNL     1      54.465 -20.232   3.639  1.00  0.00     0.025 A 
ATOM     13  C   UNL     1      53.573 -20.390   2.567  1.00  0.00     0.016 A 
ATOM     14  C   UNL     1      52.228 -20.683   2.803  1.00  0.00     0.051 A 
ATOM     15  C   UNL     1      51.756 -20.841   4.110  1.00  0.00     0.157 A 
ATOM     16  C   UNL     1      53.994 -20.412   4.952  1.00  0.00     0.062 A 
ATOM     17  C   UNL     1      52.644 -20.709   5.190  1.00  0.00     0.158 A 
BRANCH  15  18
ATOM     18  O   UNL     1      50.408 -21.132   4.313  1.00  0.00    -0.504 OA
ATOM     19  H   UNL     1      49.794 -21.397   3.553  1.00  0.00     0.293 HD
ENDBRANCH  15  18
BRANCH  17  20
ATOM     20  O   UNL     1      52.184 -20.879   6.495  1.00  0.00    -0.504 OA
ATOM     21  H   UNL     1      52.324 -21.747   6.999  1.00  0.00     0.293 HD
ENDBRANCH  17  20
ENDBRANCH   1  12
BRANCH   2  22
ATOM     22  O   UNL     1      56.591 -22.146   4.125  1.00  0.00    -0.502 OA
ATOM     23  H   UNL     1      55.803 -22.288   4.745  1.00  0.00     0.293 HD
ENDBRANCH   2  22
BRANCH   6  24
ATOM     24  O   UNL     1      60.929 -19.704   2.618  1.00  0.00    -0.507 OA
ATOM     25  H   UNL     1      60.835 -20.613   3.056  1.00  0.00     0.293 HD
ENDBRANCH   6  24
BRANCH   8  26
ATOM     26  O   UNL     1      59.190 -15.368   1.350  1.00  0.00    -0.508 OA
ATOM     27  H   UNL     1      58.599 -14.595   1.636  1.00  0.00     0.293 HD
ENDBRANCH   8  26
TORSDOF 6
ENDMDL
MODEL 8
REMARK VINA RESULT:    -7.430      3.239      6.373
REMARK INTER + INTRA:          -9.209
REMARK INTER:                  -8.899
REMARK INTRA:                  -0.311
REMARK UNBOUND:                -0.260
REMARK SMILES O=c1c(O)c(-c2ccc(O)c(O)c2)oc2cc(O)cc(O)c12
REMARK SMILES IDX 5 1 3 2 2 3 1 4 22 5 20 6 19 7 17 8 16 9 15 10 14 11 6 12
REMARK SMILES IDX 7 13 8 14 9 15 13 16 11 17 10 18 12 20 4 22 21 24 18 26
REMARK H PARENT 10 19 12 21 4 23 21 25 18 27
REMARK Flexibility Score: inf
ROOT
ATOM      1  C   UNL     1      59.416 -19.577   2.351  1.00  0.00     0.180 A 
ATOM      2  C   UNL     1      60.202 -20.287   1.422  1.00  0.00     0.208 A 
ATOM      3  C   UNL     1      60.916 -19.571   0.449  1.00  0.00     0.238 A 
ATOM      4  O   UNL     1      61.614 -20.197  -0.394  1.00  0.00    -0.285 OA
ATOM      5  C   UNL     1      60.849 -18.163   0.432  1.00  0.00     0.111 A 
ATOM      6  C   UNL     1      61.540 -17.367  -0.514  1.00  0.00     0.134 A 
ATOM      7  C   UNL     1      61.429 -15.969  -0.460  1.00  0.00     0.093 A 
ATOM      8  C   UNL     1      60.643 -15.354   0.521  1.00  0.00     0.123 A 
ATOM      9  C   UNL     1      59.959 -16.135   1.454  1.00  0.00     0.094 A 
ATOM     10  C   UNL     1      60.055 -17.529   1.416  1.00  0.00     0.146 A 
ATOM     11  O   UNL     1      59.389 -18.247   2.313  1.00  0.00    -0.452 OA
ENDROOT
BRANCH   1  12
ATOM     12  C   UNL     1      58.621 -20.261   3.395  1.00  0.00     0.025 A 
ATOM     13  C   UNL     1      59.236 -20.629   4.603  1.00  0.00     0.016 A 
ATOM     14  C   UNL     1      58.500 -21.256   5.610  1.00  0.00     0.051 A 
ATOM     15  C   UNL     1      57.137 -21.512   5.435  1.00  0.00     0.157 A 
ATOM     16  C   UNL     1      57.245 -20.500   3.229  1.00  0.00     0.062 A 
ATOM     17  C   UNL     1      56.504 -21.129   4.241  1.00  0.00     0.158 A 
BRANCH  15  18
ATOM     18  O   UNL     1      56.429 -22.142   6.457  1.00  0.00    -0.504 OA
ATOM     19  H   UNL     1      55.417 -22.123   6.503  1.00  0.00     0.293 HD
ENDBRANCH  15  18
BRANCH  17  20
ATOM     20  O   UNL     1      55.142 -21.368   4.065  1.00  0.00    -0.504 OA
ATOM     21  H   UNL     1      54.505 -21.417   4.852  1.00  0.00     0.293 HD
ENDBRANCH  17  20
ENDBRANCH   1  12
BRANCH   2  22
ATOM     22  O   UNL     1      60.292 -21.680   1.493  1.00  0.00    -0.502 OA
ATOM     23  H   UNL     1      59.535 -22.288   1.201  1.00  0.00     0.293 HD
ENDBRANCH   2  22
BRANCH   6  24
ATOM     24  O   UNL     1      62.333 -17.951  -1.502  1.00  0.00    -0.507 OA
ATOM     25  H   UNL     1      62.695 -18.893  -1.409  1.00  0.00     0.293 HD
ENDBRANCH   6  24
BRANCH   8  26
ATOM     26  O   UNL     1      60.533 -13.967   0.575  1.00  0.00    -0.508 OA
ATOM     27  H   UNL     1      61.349 -13.374   0.671  1.00  0.00     0.293 HD
ENDBRANCH   8  26
TORSDOF 6
ENDMDL
MODEL 9
REMARK VINA RESULT:    -7.369      1.845      7.122
REMARK INTER + INTRA:          -9.137
REMARK INTER:                  -9.082
REMARK INTRA:                  -0.055
REMARK UNBOUND:                -0.260
REMARK SMILES O=c1c(O)c(-c2ccc(O)c(O)c2)oc2cc(O)cc(O)c12
REMARK SMILES IDX 5 1 3 2 2 3 1 4 22 5 20 6 19 7 17 8 16 9 15 10 14 11 6 12
REMARK SMILES IDX 7 13 8 14 9 15 13 16 11 17 10 18 12 20 4 22 21 24 18 26
REMARK H PARENT 10 19 12 21 4 23 21 25 18 27
REMARK Flexibility Score: inf
ROOT
ATOM      1  C   UNL     1      55.459 -19.512   3.183  1.00  0.00     0.180 A 
ATOM      2  C   UNL     1      55.812 -18.285   2.589  1.00  0.00     0.208 A 
ATOM      3  C   UNL     1      57.170 -17.994   2.389  1.00  0.00     0.238 A 
ATOM      4  O   UNL     1      57.498 -16.893   1.868  1.00  0.00    -0.285 OA
ATOM      5  C   UNL     1      58.148 -18.938   2.764  1.00  0.00     0.111 A 
ATOM      6  C   UNL     1      59.537 -18.723   2.593  1.00  0.00     0.134 A 
ATOM      7  C   UNL     1      60.448 -19.716   2.984  1.00  0.00     0.093 A 
ATOM      8  C   UNL     1      59.996 -20.917   3.542  1.00  0.00     0.123 A 
ATOM      9  C   UNL     1      58.628 -21.133   3.714  1.00  0.00     0.094 A 
ATOM     10  C   UNL     1      57.704 -20.155   3.332  1.00  0.00     0.146 A 
ATOM     11  O   UNL     1      56.409 -20.385   3.511  1.00  0.00    -0.452 OA
ENDROOT
BRANCH   1  12
ATOM     12  C   UNL     1      54.050 -19.884   3.444  1.00  0.00     0.025 A 
ATOM     13  C   UNL     1      53.136 -19.920   2.380  1.00  0.00     0.016 A 
ATOM     14  C   UNL     1      51.807 -20.288   2.600  1.00  0.00     0.051 A 
ATOM     15  C   UNL     1      51.374 -20.642   3.881  1.00  0.00     0.157 A 
ATOM     16  C   UNL     1      53.618 -20.260   4.729  1.00  0.00     0.062 A 
ATOM     17  C   UNL     1      52.284 -20.633   4.951  1.00  0.00     0.158 A 
BRANCH  15  18
ATOM     18  O   UNL     1      50.040 -21.003   4.070  1.00  0.00    -0.504 OA
ATOM     19  H   UNL     1      49.675 -21.895   3.759  1.00  0.00     0.293 HD
ENDBRANCH  15  18
BRANCH  17  20
ATOM     20  O   UNL     1      51.862 -20.997   6.229  1.00  0.00    -0.504 OA
ATOM     21  H   UNL     1      51.028 -21.553   6.375  1.00  0.00     0.293 HD
ENDBRANCH  17  20
ENDBRANCH   1  12
BRANCH   2  22
ATOM     22  O   UNL     1      54.821 -17.388   2.180  1.00  0.00    -0.502 OA
ATOM     23  H   UNL     1      55.006 -16.402   2.038  1.00  0.00     0.293 HD
ENDBRANCH   2  22
BRANCH   6  24
ATOM     24  O   UNL     1      60.018 -17.536   2.039  1.00  0.00    -0.507 OA
ATOM     25  H   UNL     1      60.770 -17.011   2.470  1.00  0.00     0.293 HD
ENDBRANCH   6  24
BRANCH   8  26
ATOM     26  O   UNL     1      60.900 -21.903   3.930  1.00  0.00    -0.508 OA
ATOM     27  H   UNL     1      60.956 -22.221   4.891  1.00  0.00     0.293 HD
ENDBRANCH   8  26
TORSDOF 6
ENDMDL
