MODEL 1
REMARK VINA RESULT:    -3.999      0.000      0.000
REMARK INTER + INTRA:         -15.418
REMARK INTER:                 -10.077
REMARK INTRA:                  -5.342
REMARK UNBOUND:                -5.342
REMARK SMILES CCCCCCCCCCCCCCCCCCCCCCCCCCCC(=O)[O-]
REMARK SMILES IDX 15 1 16 2 17 3 18 4 19 5 20 6 21 7 22 8 23 9 24 10 25 11
REMARK SMILES IDX 26 12 27 13 28 14 29 15 30 16 14 17 13 18 12 19 11 20 10 21
REMARK SMILES IDX 9 22 8 23 7 24 6 25 5 26 4 27 3 28 2 29 1 30
REMARK H PARENT
REMARK Flexibility Score: inf
ROOT
ATOM      1  C   UNL     1      -6.312   5.725  56.393  1.00  0.00     0.000 C 
ENDROOT
BRANCH   1   2
ATOM      2  C   UNL     1      -7.074   6.020  57.695  1.00  0.00     0.000 C 
BRANCH   2   3
ATOM      3  C   UNL     1      -6.211   5.853  58.967  1.00  0.00     0.000 C 
BRANCH   3   4
ATOM      4  C   UNL     1      -4.834   5.241  58.653  1.00  0.00     0.000 C 
BRANCH   4   5
ATOM      5  C   UNL     1      -4.462   4.099  59.622  1.00  0.00     0.000 C 
BRANCH   5   6
ATOM      6  C   UNL     1      -5.416   2.890  59.557  1.00  0.00     0.000 C 
BRANCH   6   7
ATOM      7  C   UNL     1      -5.705   2.366  58.140  1.00  0.00     0.000 C 
BRANCH   7   8
ATOM      8  C   UNL     1      -7.203   2.163  57.873  1.00  0.00     0.000 C 
BRANCH   8   9
ATOM      9  C   UNL     1      -8.042   2.633  59.071  1.00  0.00     0.000 C 
BRANCH   9  10
ATOM     10  C   UNL     1      -9.429   3.164  58.662  1.00  0.00     0.000 C 
BRANCH  10  11
ATOM     11  C   UNL     1      -9.822   4.512  59.293  1.00  0.00     0.000 C 
BRANCH  11  12
ATOM     12  C   UNL     1      -9.459   4.603  60.785  1.00  0.00     0.006 C 
BRANCH  12  13
ATOM     13  C   UNL     1      -9.913   5.927  61.412  1.00  0.00     0.053 C 
BRANCH  13  14
ATOM     14  C   UNL     1      -8.803   6.932  61.454  1.00  0.00     0.041 C 
ATOM     15  O   UNL     1      -8.975   8.089  60.987  1.00  0.00    -0.550 OA
ATOM     16  O   UNL     1      -7.568   6.581  61.987  1.00  0.00    -0.550 OA
ENDBRANCH  13  14
ENDBRANCH  12  13
ENDBRANCH  11  12
ENDBRANCH  10  11
ENDBRANCH   9  10
ENDBRANCH   8   9
ENDBRANCH   7   8
ENDBRANCH   6   7
ENDBRANCH   5   6
ENDBRANCH   4   5
ENDBRANCH   3   4
ENDBRANCH   2   3
ENDBRANCH   1   2
BRANCH   1  17
ATOM     17  C   UNL     1      -7.248   5.535  55.189  1.00  0.00     0.000 C 
BRANCH  17  18
ATOM     18  C   UNL     1      -7.494   4.054  54.846  1.00  0.00     0.000 C 
BRANCH  18  19
ATOM     19  C   UNL     1      -6.252   3.272  54.378  1.00  0.00     0.000 C 
BRANCH  19  20
ATOM     20  C   UNL     1      -6.494   2.488  53.078  1.00  0.00     0.000 C 
BRANCH  20  21
ATOM     21  C   UNL     1      -7.983   2.422  52.698  1.00  0.00     0.000 C 
BRANCH  21  22
ATOM     22  C   UNL     1      -8.260   3.011  51.304  1.00  0.00    -0.000 C 
BRANCH  22  23
ATOM     23  C   UNL     1      -7.287   4.146  50.931  1.00  0.00    -0.000 C 
BRANCH  23  24
ATOM     24  C   UNL     1      -7.735   5.556  51.356  1.00  0.00    -0.000 C 
BRANCH  24  25
ATOM     25  C   UNL     1      -9.252   5.766  51.228  1.00  0.00    -0.000 C 
BRANCH  25  26
ATOM     26  C   UNL     1      -9.864   6.180  52.572  1.00  0.00    -0.000 C 
BRANCH  26  27
ATOM     27  C   UNL     1     -10.878   5.138  53.061  1.00  0.00    -0.000 C 
BRANCH  27  28
ATOM     28  C   UNL     1     -10.938   5.109  54.596  1.00  0.00    -0.000 C 
BRANCH  28  29
ATOM     29  C   UNL     1     -11.333   6.466  55.198  1.00  0.00    -0.003 C 
ATOM     30  C   UNL     1     -10.504   6.832  56.428  1.00  0.00     0.004 C 
ENDBRANCH  28  29
ENDBRANCH  27  28
ENDBRANCH  26  27
ENDBRANCH  25  26
ENDBRANCH  24  25
ENDBRANCH  23  24
ENDBRANCH  22  23
ENDBRANCH  21  22
ENDBRANCH  20  21
ENDBRANCH  19  20
ENDBRANCH  18  19
ENDBRANCH  17  18
ENDBRANCH   1  17
TORSDOF 26
ENDMDL
MODEL 2
REMARK VINA RESULT:    -3.957      1.385      3.481
REMARK INTER + INTRA:         -15.314
REMARK INTER:                  -9.599
REMARK INTRA:                  -5.715
REMARK UNBOUND:                -5.342
REMARK SMILES CCCCCCCCCCCCCCCCCCCCCCCCCCCC(=O)[O-]
REMARK SMILES IDX 15 1 16 2 17 3 18 4 19 5 20 6 21 7 22 8 23 9 24 10 25 11
REMARK SMILES IDX 26 12 27 13 28 14 29 15 30 16 14 17 13 18 12 19 11 20 10 21
REMARK SMILES IDX 9 22 8 23 7 24 6 25 5 26 4 27 3 28 2 29 1 30
REMARK H PARENT
REMARK Flexibility Score: inf
ROOT
ATOM      1  C   UNL     1      -6.307   2.842  55.957  1.00  0.00     0.000 C 
ENDROOT
BRANCH   1   2
ATOM      2  C   UNL     1      -5.115   1.955  56.353  1.00  0.00     0.000 C 
BRANCH   2   3
ATOM      3  C   UNL     1      -4.002   2.717  57.107  1.00  0.00     0.000 C 
BRANCH   3   4
ATOM      4  C   UNL     1      -3.605   2.011  58.416  1.00  0.00     0.000 C 
BRANCH   4   5
ATOM      5  C   UNL     1      -4.042   2.801  59.668  1.00  0.00     0.000 C 
BRANCH   5   6
ATOM      6  C   UNL     1      -4.598   4.205  59.358  1.00  0.00     0.000 C 
BRANCH   6   7
ATOM      7  C   UNL     1      -5.995   4.492  59.931  1.00  0.00     0.000 C 
BRANCH   7   8
ATOM      8  C   UNL     1      -6.702   3.227  60.441  1.00  0.00     0.000 C 
BRANCH   8   9
ATOM      9  C   UNL     1      -7.614   2.634  59.357  1.00  0.00     0.000 C 
BRANCH   9  10
ATOM     10  C   UNL     1      -8.488   3.695  58.662  1.00  0.00     0.000 C 
BRANCH  10  11
ATOM     11  C   UNL     1      -9.606   4.292  59.537  1.00  0.00     0.000 C 
BRANCH  11  12
ATOM     12  C   UNL     1     -10.281   5.514  58.892  1.00  0.00     0.006 C 
BRANCH  12  13
ATOM     13  C   UNL     1      -9.469   6.800  59.097  1.00  0.00     0.053 C 
BRANCH  13  14
ATOM     14  C   UNL     1      -9.258   7.097  60.550  1.00  0.00     0.041 C 
ATOM     15  O   UNL     1     -10.241   7.341  61.299  1.00  0.00    -0.550 OA
ATOM     16  O   UNL     1      -7.970   7.131  61.073  1.00  0.00    -0.550 OA
ENDBRANCH  13  14
ENDBRANCH  12  13
ENDBRANCH  11  12
ENDBRANCH  10  11
ENDBRANCH   9  10
ENDBRANCH   8   9
ENDBRANCH   7   8
ENDBRANCH   6   7
ENDBRANCH   5   6
ENDBRANCH   4   5
ENDBRANCH   3   4
ENDBRANCH   2   3
ENDBRANCH   1   2
BRANCH   1  17
ATOM     17  C   UNL     1      -5.872   4.228  55.453  1.00  0.00     0.000 C 
BRANCH  17  18
ATOM     18  C   UNL     1      -6.261   5.366  56.414  1.00  0.00     0.000 C 
BRANCH  18  19
ATOM     19  C   UNL     1      -7.352   6.322  55.896  1.00  0.00     0.000 C 
BRANCH  19  20
ATOM     20  C   UNL     1      -8.141   5.742  54.710  1.00  0.00     0.000 C 
BRANCH  20  21
ATOM     21  C   UNL     1      -9.663   5.819  54.923  1.00  0.00     0.000 C 
BRANCH  21  22
ATOM     22  C   UNL     1     -10.379   4.519  54.516  1.00  0.00    -0.000 C 
BRANCH  22  23
ATOM     23  C   UNL     1      -9.821   3.278  55.238  1.00  0.00    -0.000 C 
BRANCH  23  24
ATOM     24  C   UNL     1      -9.682   2.021  54.362  1.00  0.00    -0.000 C 
BRANCH  24  25
ATOM     25  C   UNL     1      -9.322   2.345  52.903  1.00  0.00    -0.000 C 
BRANCH  25  26
ATOM     26  C   UNL     1      -7.860   1.992  52.606  1.00  0.00    -0.000 C 
BRANCH  26  27
ATOM     27  C   UNL     1      -7.062   3.240  52.205  1.00  0.00    -0.000 C 
BRANCH  27  28
ATOM     28  C   UNL     1      -7.673   3.906  50.962  1.00  0.00    -0.000 C 
BRANCH  28  29
ATOM     29  C   UNL     1      -7.976   5.396  51.180  1.00  0.00    -0.003 C 
ATOM     30  C   UNL     1      -9.468   5.714  51.106  1.00  0.00     0.004 C 
ENDBRANCH  28  29
ENDBRANCH  27  28
ENDBRANCH  26  27
ENDBRANCH  25  26
ENDBRANCH  24  25
ENDBRANCH  23  24
ENDBRANCH  22  23
ENDBRANCH  21  22
ENDBRANCH  20  21
ENDBRANCH  19  20
ENDBRANCH  18  19
ENDBRANCH  17  18
ENDBRANCH   1  17
TORSDOF 26
ENDMDL
MODEL 3
REMARK VINA RESULT:    -3.917      9.365     13.379
REMARK INTER + INTRA:         -15.213
REMARK INTER:                 -10.137
REMARK INTRA:                  -5.076
REMARK UNBOUND:                -5.342
REMARK SMILES CCCCCCCCCCCCCCCCCCCCCCCCCCCC(=O)[O-]
REMARK SMILES IDX 15 1 16 2 17 3 18 4 19 5 20 6 21 7 22 8 23 9 24 10 25 11
REMARK SMILES IDX 26 12 27 13 28 14 29 15 30 16 14 17 13 18 12 19 11 20 10 21
REMARK SMILES IDX 9 22 8 23 7 24 6 25 5 26 4 27 3 28 2 29 1 30
REMARK H PARENT
REMARK Flexibility Score: inf
ROOT
ATOM      1  C   UNL     1      -0.119  -2.289  56.966  1.00  0.00     0.000 C 
ENDROOT
BRANCH   1   2
ATOM      2  C   UNL     1      -1.149  -1.313  57.558  1.00  0.00     0.000 C 
BRANCH   2   3
ATOM      3  C   UNL     1      -1.017   0.128  57.014  1.00  0.00     0.000 C 
BRANCH   3   4
ATOM      4  C   UNL     1       0.046   0.230  55.905  1.00  0.00     0.000 C 
BRANCH   4   5
ATOM      5  C   UNL     1       0.939   1.480  56.057  1.00  0.00     0.000 C 
BRANCH   5   6
ATOM      6  C   UNL     1       2.021   1.610  54.968  1.00  0.00     0.000 C 
BRANCH   6   7
ATOM      7  C   UNL     1       3.072   0.489  54.959  1.00  0.00     0.000 C 
BRANCH   7   8
ATOM      8  C   UNL     1       2.858  -0.521  53.822  1.00  0.00     0.000 C 
BRANCH   8   9
ATOM      9  C   UNL     1       2.882  -1.961  54.357  1.00  0.00     0.000 C 
BRANCH   9  10
ATOM     10  C   UNL     1       1.827  -2.866  53.694  1.00  0.00     0.000 C 
BRANCH  10  11
ATOM     11  C   UNL     1       0.478  -2.185  53.399  1.00  0.00     0.000 C 
BRANCH  11  12
ATOM     12  C   UNL     1      -0.420  -3.016  52.467  1.00  0.00     0.006 C 
BRANCH  12  13
ATOM     13  C   UNL     1      -1.084  -2.156  51.383  1.00  0.00     0.053 C 
BRANCH  13  14
ATOM     14  C   UNL     1      -2.562  -2.036  51.597  1.00  0.00     0.041 C 
ATOM     15  O   UNL     1      -3.104  -2.569  52.601  1.00  0.00    -0.550 OA
ATOM     16  O   UNL     1      -3.345  -1.358  50.671  1.00  0.00    -0.550 OA
ENDBRANCH  13  14
ENDBRANCH  12  13
ENDBRANCH  11  12
ENDBRANCH  10  11
ENDBRANCH   9  10
ENDBRANCH   8   9
ENDBRANCH   7   8
ENDBRANCH   6   7
ENDBRANCH   5   6
ENDBRANCH   4   5
ENDBRANCH   3   4
ENDBRANCH   2   3
ENDBRANCH   1   2
BRANCH   1  17
ATOM     17  C   UNL     1       0.527  -3.187  58.033  1.00  0.00     0.000 C 
BRANCH  17  18
ATOM     18  C   UNL     1       2.037  -2.936  58.195  1.00  0.00     0.000 C 
BRANCH  18  19
ATOM     19  C   UNL     1       2.482  -1.469  58.041  1.00  0.00     0.000 C 
BRANCH  19  20
ATOM     20  C   UNL     1       3.476  -1.028  59.128  1.00  0.00     0.000 C 
BRANCH  20  21
ATOM     21  C   UNL     1       2.912   0.087  60.025  1.00  0.00     0.000 C 
BRANCH  21  22
ATOM     22  C   UNL     1       1.668   0.757  59.417  1.00  0.00    -0.000 C 
BRANCH  22  23
ATOM     23  C   UNL     1       0.415   0.605  60.301  1.00  0.00    -0.000 C 
BRANCH  23  24
ATOM     24  C   UNL     1       0.522  -0.461  61.406  1.00  0.00    -0.000 C 
BRANCH  24  25
ATOM     25  C   UNL     1      -0.386  -1.675  61.156  1.00  0.00    -0.000 C 
BRANCH  25  26
ATOM     26  C   UNL     1       0.304  -2.975  61.588  1.00  0.00    -0.000 C 
BRANCH  26  27
ATOM     27  C   UNL     1       1.730  -2.705  62.084  1.00  0.00    -0.000 C 
BRANCH  27  28
ATOM     28  C   UNL     1       2.308  -3.937  62.796  1.00  0.00    -0.000 C 
BRANCH  28  29
ATOM     29  C   UNL     1       2.317  -3.787  64.324  1.00  0.00    -0.003 C 
ATOM     30  C   UNL     1       0.914  -3.652  64.915  1.00  0.00     0.004 C 
ENDBRANCH  28  29
ENDBRANCH  27  28
ENDBRANCH  26  27
ENDBRANCH  25  26
ENDBRANCH  24  25
ENDBRANCH  23  24
ENDBRANCH  22  23
ENDBRANCH  21  22
ENDBRANCH  20  21
ENDBRANCH  19  20
ENDBRANCH  18  19
ENDBRANCH  17  18
ENDBRANCH   1  17
TORSDOF 26
ENDMDL
MODEL 4
REMARK VINA RESULT:    -3.882      2.730      4.482
REMARK INTER + INTRA:         -15.124
REMARK INTER:                  -9.818
REMARK INTRA:                  -5.306
REMARK UNBOUND:                -5.342
REMARK SMILES CCCCCCCCCCCCCCCCCCCCCCCCCCCC(=O)[O-]
REMARK SMILES IDX 15 1 16 2 17 3 18 4 19 5 20 6 21 7 22 8 23 9 24 10 25 11
REMARK SMILES IDX 26 12 27 13 28 14 29 15 30 16 14 17 13 18 12 19 11 20 10 21
REMARK SMILES IDX 9 22 8 23 7 24 6 25 5 26 4 27 3 28 2 29 1 30
REMARK H PARENT
REMARK Flexibility Score: inf
ROOT
ATOM      1  C   UNL     1      -6.069   4.426  55.343  1.00  0.00     0.000 C 
ENDROOT
BRANCH   1   2
ATOM      2  C   UNL     1      -7.042   5.550  55.738  1.00  0.00     0.000 C 
BRANCH   2   3
ATOM      3  C   UNL     1      -6.889   6.011  57.205  1.00  0.00     0.000 C 
BRANCH   3   4
ATOM      4  C   UNL     1      -5.480   5.727  57.755  1.00  0.00     0.000 C 
BRANCH   4   5
ATOM      5  C   UNL     1      -5.418   5.820  59.294  1.00  0.00     0.000 C 
BRANCH   5   6
ATOM      6  C   UNL     1      -6.781   6.096  59.958  1.00  0.00     0.000 C 
BRANCH   6   7
ATOM      7  C   UNL     1      -7.313   4.960  60.847  1.00  0.00     0.000 C 
BRANCH   7   8
ATOM      8  C   UNL     1      -7.987   3.839  60.042  1.00  0.00     0.000 C 
BRANCH   8   9
ATOM      9  C   UNL     1      -7.059   2.622  59.915  1.00  0.00     0.000 C 
BRANCH   9  10
ATOM     10  C   UNL     1      -7.251   1.855  58.593  1.00  0.00     0.000 C 
BRANCH  10  11
ATOM     11  C   UNL     1      -5.955   1.564  57.815  1.00  0.00     0.000 C 
BRANCH  11  12
ATOM     12  C   UNL     1      -4.720   2.242  58.434  1.00  0.00     0.006 C 
BRANCH  12  13
ATOM     13  C   UNL     1      -3.600   2.455  57.408  1.00  0.00     0.053 C 
BRANCH  13  14
ATOM     14  C   UNL     1      -2.344   1.740  57.800  1.00  0.00     0.041 C 
ATOM     15  O   UNL     1      -1.925   1.796  58.987  1.00  0.00    -0.550 OA
ATOM     16  O   UNL     1      -1.620   1.033  56.848  1.00  0.00    -0.550 OA
ENDBRANCH  13  14
ENDBRANCH  12  13
ENDBRANCH  11  12
ENDBRANCH  10  11
ENDBRANCH   9  10
ENDBRANCH   8   9
ENDBRANCH   7   8
ENDBRANCH   6   7
ENDBRANCH   5   6
ENDBRANCH   4   5
ENDBRANCH   3   4
ENDBRANCH   2   3
ENDBRANCH   1   2
BRANCH   1  17
ATOM     17  C   UNL     1      -6.769   3.264  54.621  1.00  0.00     0.000 C 
BRANCH  17  18
ATOM     18  C   UNL     1      -6.358   3.141  53.142  1.00  0.00     0.000 C 
BRANCH  18  19
ATOM     19  C   UNL     1      -7.446   2.591  52.201  1.00  0.00     0.000 C 
BRANCH  19  20
ATOM     20  C   UNL     1      -7.699   3.497  50.984  1.00  0.00     0.000 C 
BRANCH  20  21
ATOM     21  C   UNL     1      -7.088   4.898  51.157  1.00  0.00     0.000 C 
BRANCH  21  22
ATOM     22  C   UNL     1      -8.075   5.895  51.789  1.00  0.00    -0.000 C 
BRANCH  22  23
ATOM     23  C   UNL     1      -9.509   5.742  51.245  1.00  0.00    -0.000 C 
BRANCH  23  24
ATOM     24  C   UNL     1     -10.527   5.161  52.243  1.00  0.00    -0.000 C 
BRANCH  24  25
ATOM     25  C   UNL     1      -9.937   4.957  53.648  1.00  0.00    -0.000 C 
BRANCH  25  26
ATOM     26  C   UNL     1     -11.001   4.428  54.618  1.00  0.00    -0.000 C 
BRANCH  26  27
ATOM     27  C   UNL     1     -10.585   4.666  56.075  1.00  0.00    -0.000 C 
BRANCH  27  28
ATOM     28  C   UNL     1     -10.000   3.389  56.696  1.00  0.00    -0.000 C 
BRANCH  28  29
ATOM     29  C   UNL     1     -10.556   2.110  56.051  1.00  0.00    -0.003 C 
ATOM     30  C   UNL     1      -9.459   1.128  55.642  1.00  0.00     0.004 C 
ENDBRANCH  28  29
ENDBRANCH  27  28
ENDBRANCH  26  27
ENDBRANCH  25  26
ENDBRANCH  24  25
ENDBRANCH  23  24
ENDBRANCH  22  23
ENDBRANCH  21  22
ENDBRANCH  20  21
ENDBRANCH  19  20
ENDBRANCH  18  19
ENDBRANCH  17  18
ENDBRANCH   1  17
TORSDOF 26
ENDMDL
MODEL 5
REMARK VINA RESULT:    -3.880      9.511     12.751
REMARK INTER + INTRA:         -15.118
REMARK INTER:                  -9.248
REMARK INTRA:                  -5.871
REMARK UNBOUND:                -5.342
REMARK SMILES CCCCCCCCCCCCCCCCCCCCCCCCCCCC(=O)[O-]
REMARK SMILES IDX 15 1 16 2 17 3 18 4 19 5 20 6 21 7 22 8 23 9 24 10 25 11
REMARK SMILES IDX 26 12 27 13 28 14 29 15 30 16 14 17 13 18 12 19 11 20 10 21
REMARK SMILES IDX 9 22 8 23 7 24 6 25 5 26 4 27 3 28 2 29 1 30
REMARK H PARENT
REMARK Flexibility Score: inf
ROOT
ATOM      1  C   UNL     1       2.838  -2.339  53.928  1.00  0.00     0.000 C 
ENDROOT
BRANCH   1   2
ATOM      2  C   UNL     1       2.067  -1.086  53.481  1.00  0.00     0.000 C 
BRANCH   2   3
ATOM      3  C   UNL     1       2.863   0.226  53.665  1.00  0.00     0.000 C 
BRANCH   3   4
ATOM      4  C   UNL     1       2.064   1.280  54.453  1.00  0.00     0.000 C 
BRANCH   4   5
ATOM      5  C   UNL     1       1.262   0.663  55.618  1.00  0.00     0.000 C 
BRANCH   5   6
ATOM      6  C   UNL     1       1.193   1.557  56.871  1.00  0.00     0.000 C 
BRANCH   6   7
ATOM      7  C   UNL     1      -0.181   1.608  57.557  1.00  0.00     0.000 C 
BRANCH   7   8
ATOM      8  C   UNL     1      -1.117   0.478  57.104  1.00  0.00     0.000 C 
BRANCH   8   9
ATOM      9  C   UNL     1      -1.724  -0.249  58.313  1.00  0.00     0.000 C 
BRANCH   9  10
ATOM     10  C   UNL     1      -0.751  -0.352  59.502  1.00  0.00     0.000 C 
BRANCH  10  11
ATOM     11  C   UNL     1      -0.959  -1.579  60.409  1.00  0.00     0.000 C 
BRANCH  11  12
ATOM     12  C   UNL     1       0.184  -1.777  61.419  1.00  0.00     0.006 C 
BRANCH  12  13
ATOM     13  C   UNL     1      -0.260  -2.583  62.646  1.00  0.00     0.053 C 
BRANCH  13  14
ATOM     14  C   UNL     1      -0.027  -4.051  62.460  1.00  0.00     0.041 C 
ATOM     15  O   UNL     1       0.491  -4.482  61.396  1.00  0.00    -0.550 OA
ATOM     16  O   UNL     1      -0.407  -4.947  63.452  1.00  0.00    -0.550 OA
ENDBRANCH  13  14
ENDBRANCH  12  13
ENDBRANCH  11  12
ENDBRANCH  10  11
ENDBRANCH   9  10
ENDBRANCH   8   9
ENDBRANCH   7   8
ENDBRANCH   6   7
ENDBRANCH   5   6
ENDBRANCH   4   5
ENDBRANCH   3   4
ENDBRANCH   2   3
ENDBRANCH   1   2
BRANCH   1  17
ATOM     17  C   UNL     1       3.963  -2.018  54.925  1.00  0.00     0.000 C 
BRANCH  17  18
ATOM     18  C   UNL     1       4.372  -3.230  55.781  1.00  0.00     0.000 C 
BRANCH  18  19
ATOM     19  C   UNL     1       4.204  -4.603  55.102  1.00  0.00     0.000 C 
BRANCH  19  20
ATOM     20  C   UNL     1       3.534  -5.644  56.014  1.00  0.00     0.000 C 
BRANCH  20  21
ATOM     21  C   UNL     1       2.400  -6.404  55.307  1.00  0.00     0.000 C 
BRANCH  21  22
ATOM     22  C   UNL     1       1.195  -5.501  54.990  1.00  0.00    -0.000 C 
BRANCH  22  23
ATOM     23  C   UNL     1       0.544  -4.909  56.254  1.00  0.00    -0.000 C 
BRANCH  23  24
ATOM     24  C   UNL     1       0.156  -3.423  56.153  1.00  0.00    -0.000 C 
BRANCH  24  25
ATOM     25  C   UNL     1       0.879  -2.545  57.188  1.00  0.00    -0.000 C 
BRANCH  25  26
ATOM     26  C   UNL     1       1.527  -3.405  58.280  1.00  0.00    -0.000 C 
BRANCH  26  27
ATOM     27  C   UNL     1       2.710  -2.675  58.928  1.00  0.00    -0.000 C 
BRANCH  27  28
ATOM     28  C   UNL     1       2.758  -1.205  58.484  1.00  0.00    -0.000 C 
BRANCH  28  29
ATOM     29  C   UNL     1       3.036  -0.245  59.650  1.00  0.00    -0.003 C 
ATOM     30  C   UNL     1       4.108  -0.766  60.605  1.00  0.00     0.004 C 
ENDBRANCH  28  29
ENDBRANCH  27  28
ENDBRANCH  26  27
ENDBRANCH  25  26
ENDBRANCH  24  25
ENDBRANCH  23  24
ENDBRANCH  22  23
ENDBRANCH  21  22
ENDBRANCH  20  21
ENDBRANCH  19  20
ENDBRANCH  18  19
ENDBRANCH  17  18
ENDBRANCH   1  17
TORSDOF 26
ENDMDL
MODEL 6
REMARK VINA RESULT:    -3.866      1.303      6.512
REMARK INTER + INTRA:         -15.084
REMARK INTER:                  -9.350
REMARK INTRA:                  -5.734
REMARK UNBOUND:                -5.342
REMARK SMILES CCCCCCCCCCCCCCCCCCCCCCCCCCCC(=O)[O-]
REMARK SMILES IDX 15 1 16 2 17 3 18 4 19 5 20 6 21 7 22 8 23 9 24 10 25 11
REMARK SMILES IDX 26 12 27 13 28 14 29 15 30 16 14 17 13 18 12 19 11 20 10 21
REMARK SMILES IDX 9 22 8 23 7 24 6 25 5 26 4 27 3 28 2 29 1 30
REMARK H PARENT
REMARK Flexibility Score: inf
ROOT
ATOM      1  C   UNL     1      -6.249   2.565  53.251  1.00  0.00     0.000 C 
ENDROOT
BRANCH   1   2
ATOM      2  C   UNL     1      -7.723   2.758  52.858  1.00  0.00     0.000 C 
BRANCH   2   3
ATOM      3  C   UNL     1      -7.915   3.216  51.394  1.00  0.00     0.000 C 
BRANCH   3   4
ATOM      4  C   UNL     1      -7.305   4.606  51.140  1.00  0.00     0.000 C 
BRANCH   4   5
ATOM      5  C   UNL     1      -8.126   5.739  51.791  1.00  0.00     0.000 C 
BRANCH   5   6
ATOM      6  C   UNL     1      -9.537   5.908  51.196  1.00  0.00     0.000 C 
BRANCH   6   7
ATOM      7  C   UNL     1     -10.690   5.540  52.144  1.00  0.00     0.000 C 
BRANCH   7   8
ATOM      8  C   UNL     1     -10.259   5.493  53.618  1.00  0.00     0.000 C 
BRANCH   8   9
ATOM      9  C   UNL     1     -10.786   4.222  54.301  1.00  0.00     0.000 C 
BRANCH   9  10
ATOM     10  C   UNL     1     -10.590   4.238  55.829  1.00  0.00     0.000 C 
BRANCH  10  11
ATOM     11  C   UNL     1     -11.296   5.391  56.564  1.00  0.00     0.000 C 
BRANCH  11  12
ATOM     12  C   UNL     1     -10.372   6.129  57.547  1.00  0.00     0.006 C 
BRANCH  12  13
ATOM     13  C   UNL     1     -11.097   7.263  58.285  1.00  0.00     0.053 C 
BRANCH  13  14
ATOM     14  C   UNL     1     -10.799   7.249  59.753  1.00  0.00     0.041 C 
ATOM     15  O   UNL     1     -11.233   6.317  60.481  1.00  0.00    -0.550 OA
ATOM     16  O   UNL     1     -10.063   8.281  60.323  1.00  0.00    -0.550 OA
ENDBRANCH  13  14
ENDBRANCH  12  13
ENDBRANCH  11  12
ENDBRANCH  10  11
ENDBRANCH   9  10
ENDBRANCH   8   9
ENDBRANCH   7   8
ENDBRANCH   6   7
ENDBRANCH   5   6
ENDBRANCH   4   5
ENDBRANCH   3   4
ENDBRANCH   2   3
ENDBRANCH   1   2
BRANCH   1  17
ATOM     17  C   UNL     1      -5.887   3.281  54.562  1.00  0.00     0.000 C 
BRANCH  17  18
ATOM     18  C   UNL     1      -7.089   3.994  55.209  1.00  0.00     0.000 C 
BRANCH  18  19
ATOM     19  C   UNL     1      -6.946   5.520  55.359  1.00  0.00     0.000 C 
BRANCH  19  20
ATOM     20  C   UNL     1      -6.957   5.982  56.826  1.00  0.00     0.000 C 
BRANCH  20  21
ATOM     21  C   UNL     1      -5.615   5.727  57.533  1.00  0.00     0.000 C 
BRANCH  21  22
ATOM     22  C   UNL     1      -5.736   5.800  59.065  1.00  0.00    -0.000 C 
BRANCH  22  23
ATOM     23  C   UNL     1      -7.191   5.969  59.543  1.00  0.00    -0.000 C 
BRANCH  23  24
ATOM     24  C   UNL     1      -7.677   4.905  60.544  1.00  0.00    -0.000 C 
BRANCH  24  25
ATOM     25  C   UNL     1      -8.765   3.989  59.961  1.00  0.00    -0.000 C 
BRANCH  25  26
ATOM     26  C   UNL     1      -8.209   3.137  58.813  1.00  0.00    -0.000 C 
BRANCH  26  27
ATOM     27  C   UNL     1      -7.053   2.252  59.294  1.00  0.00    -0.000 C 
BRANCH  27  28
ATOM     28  C   UNL     1      -6.050   1.995  58.159  1.00  0.00    -0.000 C 
BRANCH  28  29
ATOM     29  C   UNL     1      -4.600   2.285  58.576  1.00  0.00    -0.003 C 
ATOM     30  C   UNL     1      -3.660   2.444  57.381  1.00  0.00     0.004 C 
ENDBRANCH  28  29
ENDBRANCH  27  28
ENDBRANCH  26  27
ENDBRANCH  25  26
ENDBRANCH  24  25
ENDBRANCH  23  24
ENDBRANCH  22  23
ENDBRANCH  21  22
ENDBRANCH  20  21
ENDBRANCH  19  20
ENDBRANCH  18  19
ENDBRANCH  17  18
ENDBRANCH   1  17
TORSDOF 26
ENDMDL
MODEL 7
REMARK VINA RESULT:    -3.818      8.213     11.516
REMARK INTER + INTRA:         -14.964
REMARK INTER:                 -10.189
REMARK INTRA:                  -4.775
REMARK UNBOUND:                -5.342
REMARK SMILES CCCCCCCCCCCCCCCCCCCCCCCCCCCC(=O)[O-]
REMARK SMILES IDX 15 1 16 2 17 3 18 4 19 5 20 6 21 7 22 8 23 9 24 10 25 11
REMARK SMILES IDX 26 12 27 13 28 14 29 15 30 16 14 17 13 18 12 19 11 20 10 21
REMARK SMILES IDX 9 22 8 23 7 24 6 25 5 26 4 27 3 28 2 29 1 30
REMARK H PARENT
REMARK Flexibility Score: inf
ROOT
ATOM      1  C   UNL     1       1.105   0.921  55.849  1.00  0.00     0.000 C 
ENDROOT
BRANCH   1   2
ATOM      2  C   UNL     1       2.388   1.156  55.034  1.00  0.00     0.000 C 
BRANCH   2   3
ATOM      3  C   UNL     1       2.324   0.574  53.604  1.00  0.00     0.000 C 
BRANCH   3   4
ATOM      4  C   UNL     1       3.018  -0.796  53.507  1.00  0.00     0.000 C 
BRANCH   4   5
ATOM      5  C   UNL     1       2.027  -1.970  53.658  1.00  0.00     0.000 C 
BRANCH   5   6
ATOM      6  C   UNL     1       2.315  -2.877  54.871  1.00  0.00     0.000 C 
BRANCH   6   7
ATOM      7  C   UNL     1       3.613  -2.556  55.629  1.00  0.00     0.000 C 
BRANCH   7   8
ATOM      8  C   UNL     1       3.361  -1.870  56.980  1.00  0.00     0.000 C 
BRANCH   8   9
ATOM      9  C   UNL     1       2.004  -2.292  57.563  1.00  0.00     0.000 C 
BRANCH   9  10
ATOM     10  C   UNL     1       2.136  -3.121  58.854  1.00  0.00     0.000 C 
BRANCH  10  11
ATOM     11  C   UNL     1       2.961  -2.458  59.972  1.00  0.00     0.000 C 
BRANCH  11  12
ATOM     12  C   UNL     1       2.954  -3.267  61.280  1.00  0.00     0.006 C 
BRANCH  12  13
ATOM     13  C   UNL     1       2.288  -2.502  62.431  1.00  0.00     0.053 C 
BRANCH  13  14
ATOM     14  C   UNL     1       2.152  -3.352  63.657  1.00  0.00     0.041 C 
ATOM     15  O   UNL     1       2.986  -4.266  63.892  1.00  0.00    -0.550 OA
ATOM     16  O   UNL     1       1.088  -3.151  64.528  1.00  0.00    -0.550 OA
ENDBRANCH  13  14
ENDBRANCH  12  13
ENDBRANCH  11  12
ENDBRANCH  10  11
ENDBRANCH   9  10
ENDBRANCH   8   9
ENDBRANCH   7   8
ENDBRANCH   6   7
ENDBRANCH   5   6
ENDBRANCH   4   5
ENDBRANCH   3   4
ENDBRANCH   2   3
ENDBRANCH   1   2
BRANCH   1  17
ATOM     17  C   UNL     1       0.881   1.996  56.925  1.00  0.00     0.000 C 
BRANCH  17  18
ATOM     18  C   UNL     1       1.159   1.487  58.351  1.00  0.00     0.000 C 
BRANCH  18  19
ATOM     19  C   UNL     1       0.525   2.319  59.482  1.00  0.00     0.000 C 
BRANCH  19  20
ATOM     20  C   UNL     1       0.083   1.462  60.680  1.00  0.00     0.000 C 
BRANCH  20  21
ATOM     21  C   UNL     1       0.378  -0.034  60.474  1.00  0.00     0.000 C 
BRANCH  21  22
ATOM     22  C   UNL     1      -0.905  -0.872  60.334  1.00  0.00    -0.000 C 
BRANCH  22  23
ATOM     23  C   UNL     1      -1.273  -1.160  58.866  1.00  0.00    -0.000 C 
BRANCH  23  24
ATOM     24  C   UNL     1      -2.590  -0.525  58.385  1.00  0.00    -0.000 C 
BRANCH  24  25
ATOM     25  C   UNL     1      -2.374   0.571  57.329  1.00  0.00    -0.000 C 
BRANCH  25  26
ATOM     26  C   UNL     1      -2.798   1.944  57.868  1.00  0.00    -0.000 C 
BRANCH  26  27
ATOM     27  C   UNL     1      -3.396   1.823  59.275  1.00  0.00    -0.000 C 
BRANCH  27  28
ATOM     28  C   UNL     1      -3.499   3.200  59.948  1.00  0.00    -0.000 C 
BRANCH  28  29
ATOM     29  C   UNL     1      -4.860   3.873  59.711  1.00  0.00    -0.003 C 
ATOM     30  C   UNL     1      -4.753   5.148  58.875  1.00  0.00     0.004 C 
ENDBRANCH  28  29
ENDBRANCH  27  28
ENDBRANCH  26  27
ENDBRANCH  25  26
ENDBRANCH  24  25
ENDBRANCH  23  24
ENDBRANCH  22  23
ENDBRANCH  21  22
ENDBRANCH  20  21
ENDBRANCH  19  20
ENDBRANCH  18  19
ENDBRANCH  17  18
ENDBRANCH   1  17
TORSDOF 26
ENDMDL
MODEL 8
REMARK VINA RESULT:    -3.817      3.096      5.828
REMARK INTER + INTRA:         -14.961
REMARK INTER:                  -9.573
REMARK INTRA:                  -5.388
REMARK UNBOUND:                -5.342
REMARK SMILES CCCCCCCCCCCCCCCCCCCCCCCCCCCC(=O)[O-]
REMARK SMILES IDX 15 1 16 2 17 3 18 4 19 5 20 6 21 7 22 8 23 9 24 10 25 11
REMARK SMILES IDX 26 12 27 13 28 14 29 15 30 16 14 17 13 18 12 19 11 20 10 21
REMARK SMILES IDX 9 22 8 23 7 24 6 25 5 26 4 27 3 28 2 29 1 30
REMARK H PARENT
REMARK Flexibility Score: inf
ROOT
ATOM      1  C   UNL     1      -6.795   2.763  53.113  1.00  0.00     0.000 C 
ENDROOT
BRANCH   1   2
ATOM      2  C   UNL     1      -5.904   3.826  53.776  1.00  0.00     0.000 C 
BRANCH   2   3
ATOM      3  C   UNL     1      -6.388   4.245  55.183  1.00  0.00     0.000 C 
BRANCH   3   4
ATOM      4  C   UNL     1      -6.935   5.684  55.200  1.00  0.00     0.000 C 
BRANCH   4   5
ATOM      5  C   UNL     1      -7.535   6.071  56.568  1.00  0.00     0.000 C 
BRANCH   5   6
ATOM      6  C   UNL     1      -7.188   5.087  57.702  1.00  0.00     0.000 C 
BRANCH   6   7
ATOM      7  C   UNL     1      -7.033   5.726  59.092  1.00  0.00     0.000 C 
BRANCH   7   8
ATOM      8  C   UNL     1      -5.566   5.965  59.478  1.00  0.00     0.000 C 
BRANCH   8   9
ATOM      9  C   UNL     1      -4.660   4.873  58.890  1.00  0.00     0.000 C 
BRANCH   9  10
ATOM     10  C   UNL     1      -4.547   3.634  59.798  1.00  0.00     0.000 C 
BRANCH  10  11
ATOM     11  C   UNL     1      -3.827   2.428  59.168  1.00  0.00     0.000 C 
BRANCH  11  12
ATOM     12  C   UNL     1      -3.805   2.481  57.631  1.00  0.00     0.006 C 
BRANCH  12  13
ATOM     13  C   UNL     1      -4.775   1.471  57.003  1.00  0.00     0.053 C 
BRANCH  13  14
ATOM     14  C   UNL     1      -4.071   0.223  56.565  1.00  0.00     0.041 C 
ATOM     15  O   UNL     1      -2.816   0.146  56.631  1.00  0.00    -0.550 OA
ATOM     16  O   UNL     1      -4.801  -0.845  56.058  1.00  0.00    -0.550 OA
ENDBRANCH  13  14
ENDBRANCH  12  13
ENDBRANCH  11  12
ENDBRANCH  10  11
ENDBRANCH   9  10
ENDBRANCH   8   9
ENDBRANCH   7   8
ENDBRANCH   6   7
ENDBRANCH   5   6
ENDBRANCH   4   5
ENDBRANCH   3   4
ENDBRANCH   2   3
ENDBRANCH   1   2
BRANCH   1  17
ATOM     17  C   UNL     1      -7.417   3.250  51.795  1.00  0.00     0.000 C 
BRANCH  17  18
ATOM     18  C   UNL     1      -7.035   4.701  51.450  1.00  0.00     0.000 C 
BRANCH  18  19
ATOM     19  C   UNL     1      -8.096   5.762  51.798  1.00  0.00     0.000 C 
BRANCH  19  20
ATOM     20  C   UNL     1      -9.459   5.483  51.144  1.00  0.00     0.000 C 
BRANCH  20  21
ATOM     21  C   UNL     1     -10.608   5.454  52.167  1.00  0.00     0.000 C 
BRANCH  21  22
ATOM     22  C   UNL     1     -10.126   5.740  53.600  1.00  0.00    -0.000 C 
BRANCH  22  23
ATOM     23  C   UNL     1     -10.438   4.590  54.576  1.00  0.00    -0.000 C 
BRANCH  23  24
ATOM     24  C   UNL     1     -10.363   3.178  53.967  1.00  0.00    -0.000 C 
BRANCH  24  25
ATOM     25  C   UNL     1      -9.742   2.147  54.923  1.00  0.00    -0.000 C 
BRANCH  25  26
ATOM     26  C   UNL     1      -9.626   2.714  56.343  1.00  0.00    -0.000 C 
BRANCH  26  27
ATOM     27  C   UNL     1      -9.208   1.625  57.339  1.00  0.00    -0.000 C 
BRANCH  27  28
ATOM     28  C   UNL     1      -8.896   2.230  58.716  1.00  0.00    -0.000 C 
BRANCH  28  29
ATOM     29  C   UNL     1      -7.573   1.715  59.302  1.00  0.00    -0.003 C 
ATOM     30  C   UNL     1      -7.443   0.195  59.224  1.00  0.00     0.004 C 
ENDBRANCH  28  29
ENDBRANCH  27  28
ENDBRANCH  26  27
ENDBRANCH  25  26
ENDBRANCH  24  25
ENDBRANCH  23  24
ENDBRANCH  22  23
ENDBRANCH  21  22
ENDBRANCH  20  21
ENDBRANCH  19  20
ENDBRANCH  18  19
ENDBRANCH  17  18
ENDBRANCH   1  17
TORSDOF 26
ENDMDL
MODEL 9
REMARK VINA RESULT:    -3.801      2.890      5.442
REMARK INTER + INTRA:         -14.921
REMARK INTER:                  -8.832
REMARK INTRA:                  -6.089
REMARK UNBOUND:                -5.342
REMARK SMILES CCCCCCCCCCCCCCCCCCCCCCCCCCCC(=O)[O-]
REMARK SMILES IDX 15 1 16 2 17 3 18 4 19 5 20 6 21 7 22 8 23 9 24 10 25 11
REMARK SMILES IDX 26 12 27 13 28 14 29 15 30 16 14 17 13 18 12 19 11 20 10 21
REMARK SMILES IDX 9 22 8 23 7 24 6 25 5 26 4 27 3 28 2 29 1 30
REMARK H PARENT
REMARK Flexibility Score: inf
ROOT
ATOM      1  C   UNL     1      -6.522   4.318  56.285  1.00  0.00     0.000 C 
ENDROOT
BRANCH   1   2
ATOM      2  C   UNL     1      -7.395   3.161  55.772  1.00  0.00     0.000 C 
BRANCH   2   3
ATOM      3  C   UNL     1      -8.271   2.516  56.870  1.00  0.00     0.000 C 
BRANCH   3   4
ATOM      4  C   UNL     1      -7.890   3.010  58.277  1.00  0.00     0.000 C 
BRANCH   4   5
ATOM      5  C   UNL     1      -9.016   3.835  58.937  1.00  0.00     0.000 C 
BRANCH   5   6
ATOM      6  C   UNL     1      -8.507   5.006  59.800  1.00  0.00     0.000 C 
BRANCH   6   7
ATOM      7  C   UNL     1      -7.053   4.875  60.281  1.00  0.00     0.000 C 
BRANCH   7   8
ATOM      8  C   UNL     1      -6.137   5.972  59.719  1.00  0.00     0.000 C 
BRANCH   8   9
ATOM      9  C   UNL     1      -4.814   5.376  59.216  1.00  0.00     0.000 C 
BRANCH   9  10
ATOM     10  C   UNL     1      -4.570   3.943  59.725  1.00  0.00     0.000 C 
BRANCH  10  11
ATOM     11  C   UNL     1      -4.047   2.956  58.665  1.00  0.00     0.000 C 
BRANCH  11  12
ATOM     12  C   UNL     1      -4.612   1.536  58.840  1.00  0.00     0.006 C 
BRANCH  12  13
ATOM     13  C   UNL     1      -4.850   0.837  57.495  1.00  0.00     0.053 C 
BRANCH  13  14
ATOM     14  C   UNL     1      -3.761  -0.141  57.177  1.00  0.00     0.041 C 
ATOM     15  O   UNL     1      -3.803  -0.817  56.115  1.00  0.00    -0.550 OA
ATOM     16  O   UNL     1      -2.712  -0.327  58.069  1.00  0.00    -0.550 OA
ENDBRANCH  13  14
ENDBRANCH  12  13
ENDBRANCH  11  12
ENDBRANCH  10  11
ENDBRANCH   9  10
ENDBRANCH   8   9
ENDBRANCH   7   8
ENDBRANCH   6   7
ENDBRANCH   5   6
ENDBRANCH   4   5
ENDBRANCH   3   4
ENDBRANCH   2   3
ENDBRANCH   1   2
BRANCH   1  17
ATOM     17  C   UNL     1      -6.873   5.661  55.626  1.00  0.00     0.000 C 
BRANCH  17  18
ATOM     18  C   UNL     1      -7.972   6.432  56.380  1.00  0.00     0.000 C 
BRANCH  18  19
ATOM     19  C   UNL     1      -9.280   6.649  55.596  1.00  0.00     0.000 C 
BRANCH  19  20
ATOM     20  C   UNL     1     -10.522   6.154  56.356  1.00  0.00     0.000 C 
BRANCH  20  21
ATOM     21  C   UNL     1     -10.979   4.760  55.891  1.00  0.00     0.000 C 
BRANCH  21  22
ATOM     22  C   UNL     1     -10.522   4.440  54.458  1.00  0.00    -0.000 C 
BRANCH  22  23
ATOM     23  C   UNL     1     -11.071   3.096  53.942  1.00  0.00    -0.000 C 
BRANCH  23  24
ATOM     24  C   UNL     1     -10.443   2.595  52.629  1.00  0.00    -0.000 C 
BRANCH  24  25
ATOM     25  C   UNL     1      -9.042   1.995  52.827  1.00  0.00    -0.000 C 
BRANCH  25  26
ATOM     26  C   UNL     1      -8.078   2.478  51.736  1.00  0.00    -0.000 C 
BRANCH  26  27
ATOM     27  C   UNL     1      -7.139   3.566  52.273  1.00  0.00    -0.000 C 
BRANCH  27  28
ATOM     28  C   UNL     1      -7.240   4.845  51.428  1.00  0.00    -0.000 C 
BRANCH  28  29
ATOM     29  C   UNL     1      -8.279   5.834  51.977  1.00  0.00    -0.003 C 
ATOM     30  C   UNL     1      -9.568   5.856  51.157  1.00  0.00     0.004 C 
ENDBRANCH  28  29
ENDBRANCH  27  28
ENDBRANCH  26  27
ENDBRANCH  25  26
ENDBRANCH  24  25
ENDBRANCH  23  24
ENDBRANCH  22  23
ENDBRANCH  21  22
ENDBRANCH  20  21
ENDBRANCH  19  20
ENDBRANCH  18  19
ENDBRANCH  17  18
ENDBRANCH   1  17
TORSDOF 26
ENDMDL
