MODEL 1
REMARK VINA RESULT:    -4.094      0.000      0.000
REMARK INTER + INTRA:          -5.305
REMARK INTER:                  -4.932
REMARK INTRA:                  -0.373
REMARK UNBOUND:                -0.373
REMARK SMILES Oc1cc(O)c2c(c1)O[C@@H](c1ccc(O)c(O)c1)[C@H](O)C2
REMARK SMILES IDX 21 1 19 2 10 3 9 4 7 5 8 6 2 7 3 8 4 9 6 10 20 11 11 13
REMARK SMILES IDX 18 14 12 15 16 16 13 17 14 18 17 19 15 21 5 23 1 25
REMARK H PARENT 20 12 17 20 15 22 5 24 1 26
REMARK Flexibility Score: inf
ROOT
ATOM      1  C   UNL     1      73.005  73.427  80.149  1.00  0.00     0.079 C 
ATOM      2  C   UNL     1      73.279  74.235  78.866  1.00  0.00     0.164 C 
ATOM      3  C   UNL     1      72.745  75.672  79.017  1.00  0.00     0.232 C 
ATOM      4  O   UNL     1      73.330  76.284  80.166  1.00  0.00    -0.482 OA
ATOM      5  C   UNL     1      73.563  75.581  81.353  1.00  0.00     0.131 A 
ATOM      6  C   UNL     1      73.961  76.286  82.491  1.00  0.00     0.093 A 
ATOM      7  C   UNL     1      74.186  75.613  83.696  1.00  0.00     0.122 A 
ATOM      8  C   UNL     1      74.002  74.230  83.762  1.00  0.00     0.092 A 
ATOM      9  C   UNL     1      73.603  73.507  82.633  1.00  0.00     0.126 A 
ATOM     10  C   UNL     1      73.415  74.176  81.400  1.00  0.00     0.039 A 
ENDROOT
BRANCH   2  11
ATOM     11  O   UNL     1      72.717  73.592  77.748  1.00  0.00    -0.389 OA
ATOM     12  H   UNL     1      72.117  72.874  78.083  1.00  0.00     0.211 HD
ENDBRANCH   2  11
BRANCH   3  13
ATOM     13  C   UNL     1      73.048  76.499  77.789  1.00  0.00    -0.001 A 
ATOM     14  C   UNL     1      74.378  76.766  77.418  1.00  0.00     0.057 A 
ATOM     15  C   UNL     1      72.002  76.969  76.978  1.00  0.00     0.012 A 
ATOM     16  C   UNL     1      74.657  77.510  76.262  1.00  0.00     0.157 A 
ATOM     17  C   UNL     1      72.281  77.711  75.827  1.00  0.00     0.050 A 
ATOM     18  C   UNL     1      73.607  77.984  75.467  1.00  0.00     0.157 A 
BRANCH  16  19
ATOM     19  O   UNL     1      75.975  77.778  75.899  1.00  0.00    -0.504 OA
ATOM     20  H   UNL     1      76.721  77.117  76.080  1.00  0.00     0.293 HD
ENDBRANCH  16  19
BRANCH  18  21
ATOM     21  O   UNL     1      73.889  78.724  74.320  1.00  0.00    -0.504 OA
ATOM     22  H   UNL     1      73.154  79.164  73.779  1.00  0.00     0.293 HD
ENDBRANCH  18  21
ENDBRANCH   3  13
BRANCH   9  23
ATOM     23  O   UNL     1      73.391  72.133  82.774  1.00  0.00    -0.507 OA
ATOM     24  H   UNL     1      74.061  71.508  83.202  1.00  0.00     0.293 HD
ENDBRANCH   9  23
BRANCH   7  25
ATOM     25  O   UNL     1      74.586  76.309  84.834  1.00  0.00    -0.508 OA
ATOM     26  H   UNL     1      74.260  76.048  85.757  1.00  0.00     0.293 HD
ENDBRANCH   7  25
TORSDOF 6
ENDMDL
MODEL 2
REMARK VINA RESULT:    -3.880      3.619      6.983
REMARK INTER + INTRA:          -5.046
REMARK INTER:                  -4.683
REMARK INTRA:                  -0.363
REMARK UNBOUND:                -0.373
REMARK SMILES Oc1cc(O)c2c(c1)O[C@@H](c1ccc(O)c(O)c1)[C@H](O)C2
REMARK SMILES IDX 21 1 19 2 10 3 9 4 7 5 8 6 2 7 3 8 4 9 6 10 20 11 11 13
REMARK SMILES IDX 18 14 12 15 16 16 13 17 14 18 17 19 15 21 5 23 1 25
REMARK H PARENT 20 12 17 20 15 22 5 24 1 26
REMARK Flexibility Score: inf
ROOT
ATOM      1  C   UNL     1      76.610  73.540  81.133  1.00  0.00     0.079 C 
ATOM      2  C   UNL     1      75.893  73.980  82.424  1.00  0.00     0.164 C 
ATOM      3  C   UNL     1      74.799  75.016  82.101  1.00  0.00     0.232 C 
ATOM      4  O   UNL     1      73.888  74.470  81.146  1.00  0.00    -0.482 OA
ATOM      5  C   UNL     1      74.310  73.660  80.086  1.00  0.00     0.131 A 
ATOM      6  C   UNL     1      73.394  73.319  79.088  1.00  0.00     0.093 A 
ATOM      7  C   UNL     1      73.790  72.525  78.008  1.00  0.00     0.122 A 
ATOM      8  C   UNL     1      75.111  72.079  77.922  1.00  0.00     0.092 A 
ATOM      9  C   UNL     1      76.043  72.411  78.911  1.00  0.00     0.126 A 
ATOM     10  C   UNL     1      75.637  73.179  80.029  1.00  0.00     0.039 A 
ENDROOT
BRANCH   2  11
ATOM     11  O   UNL     1      76.819  74.485  83.355  1.00  0.00    -0.389 OA
ATOM     12  H   UNL     1      77.686  74.026  83.198  1.00  0.00     0.211 HD
ENDBRANCH   2  11
BRANCH   3  13
ATOM     13  C   UNL     1      74.048  75.423  83.346  1.00  0.00    -0.001 A 
ATOM     14  C   UNL     1      73.963  76.777  83.719  1.00  0.00     0.057 A 
ATOM     15  C   UNL     1      73.382  74.457  84.118  1.00  0.00     0.012 A 
ATOM     16  C   UNL     1      73.241  77.155  84.860  1.00  0.00     0.157 A 
ATOM     17  C   UNL     1      72.663  74.834  85.255  1.00  0.00     0.050 A 
ATOM     18  C   UNL     1      72.591  76.183  85.630  1.00  0.00     0.157 A 
BRANCH  16  19
ATOM     19  O   UNL     1      73.163  78.496  85.232  1.00  0.00    -0.504 OA
ATOM     20  H   UNL     1      73.665  78.854  86.036  1.00  0.00     0.293 HD
ENDBRANCH  16  19
BRANCH  18  21
ATOM     21  O   UNL     1      71.875  76.563  86.763  1.00  0.00    -0.504 OA
ATOM     22  H   UNL     1      71.320  75.897  87.288  1.00  0.00     0.293 HD
ENDBRANCH  18  21
ENDBRANCH   3  13
BRANCH   9  23
ATOM     23  O   UNL     1      77.359  71.974  78.746  1.00  0.00    -0.507 OA
ATOM     24  H   UNL     1      78.035  71.945  79.498  1.00  0.00     0.293 HD
ENDBRANCH   9  23
BRANCH   7  25
ATOM     25  O   UNL     1      72.880  72.178  77.010  1.00  0.00    -0.508 OA
ATOM     26  H   UNL     1      73.124  72.235  76.028  1.00  0.00     0.293 HD
ENDBRANCH   7  25
TORSDOF 6
ENDMDL
MODEL 3
REMARK VINA RESULT:    -3.832      2.949      4.763
REMARK INTER + INTRA:          -4.989
REMARK INTER:                  -4.621
REMARK INTRA:                  -0.367
REMARK UNBOUND:                -0.373
REMARK SMILES Oc1cc(O)c2c(c1)O[C@@H](c1ccc(O)c(O)c1)[C@H](O)C2
REMARK SMILES IDX 21 1 19 2 10 3 9 4 7 5 8 6 2 7 3 8 4 9 6 10 20 11 11 13
REMARK SMILES IDX 18 14 12 15 16 16 13 17 14 18 17 19 15 21 5 23 1 25
REMARK H PARENT 20 12 17 20 15 22 5 24 1 26
REMARK Flexibility Score: inf
ROOT
ATOM      1  C   UNL     1      76.319  75.738  83.356  1.00  0.00     0.079 C 
ATOM      2  C   UNL     1      75.856  75.241  81.973  1.00  0.00     0.164 C 
ATOM      3  C   UNL     1      74.820  74.112  82.132  1.00  0.00     0.232 C 
ATOM      4  O   UNL     1      73.725  74.572  82.925  1.00  0.00    -0.482 OA
ATOM      5  C   UNL     1      73.902  75.412  84.030  1.00  0.00     0.131 A 
ATOM      6  C   UNL     1      72.815  75.668  84.868  1.00  0.00     0.093 A 
ATOM      7  C   UNL     1      72.964  76.490  85.988  1.00  0.00     0.122 A 
ATOM      8  C   UNL     1      74.210  77.051  86.275  1.00  0.00     0.092 A 
ATOM      9  C   UNL     1      75.312  76.806  85.449  1.00  0.00     0.126 A 
ATOM     10  C   UNL     1      75.157  76.009  84.289  1.00  0.00     0.039 A 
ENDROOT
BRANCH   2  11
ATOM     11  O   UNL     1      76.957  74.823  81.205  1.00  0.00    -0.389 OA
ATOM     12  H   UNL     1      77.409  74.089  81.698  1.00  0.00     0.211 HD
ENDBRANCH   2  11
BRANCH   3  13
ATOM     13  C   UNL     1      74.312  73.643  80.788  1.00  0.00    -0.001 A 
ATOM     14  C   UNL     1      73.697  74.545  79.902  1.00  0.00     0.057 A 
ATOM     15  C   UNL     1      74.496  72.309  80.390  1.00  0.00     0.012 A 
ATOM     16  C   UNL     1      73.252  74.113  78.644  1.00  0.00     0.157 A 
ATOM     17  C   UNL     1      74.052  71.879  79.136  1.00  0.00     0.050 A 
ATOM     18  C   UNL     1      73.428  72.779  78.262  1.00  0.00     0.157 A 
BRANCH  16  19
ATOM     19  O   UNL     1      72.637  75.008  77.770  1.00  0.00    -0.504 OA
ATOM     20  H   UNL     1      72.971  75.958  77.662  1.00  0.00     0.293 HD
ENDBRANCH  16  19
BRANCH  18  21
ATOM     21  O   UNL     1      72.985  72.353  77.011  1.00  0.00    -0.504 OA
ATOM     22  H   UNL     1      72.696  73.013  76.298  1.00  0.00     0.293 HD
ENDBRANCH  18  21
ENDBRANCH   3  13
BRANCH   9  23
ATOM     23  O   UNL     1      76.543  77.357  85.814  1.00  0.00    -0.507 OA
ATOM     24  H   UNL     1      77.374  77.291  85.242  1.00  0.00     0.293 HD
ENDBRANCH   9  23
BRANCH   7  25
ATOM     25  O   UNL     1      71.882  76.752  86.827  1.00  0.00    -0.508 OA
ATOM     26  H   UNL     1      70.934  76.515  86.558  1.00  0.00     0.293 HD
ENDBRANCH   7  25
TORSDOF 6
ENDMDL
MODEL 4
REMARK VINA RESULT:    -3.805      2.618      4.651
REMARK INTER + INTRA:          -4.956
REMARK INTER:                  -5.067
REMARK INTRA:                   0.111
REMARK UNBOUND:                -0.373
REMARK SMILES Oc1cc(O)c2c(c1)O[C@@H](c1ccc(O)c(O)c1)[C@H](O)C2
REMARK SMILES IDX 21 1 19 2 10 3 9 4 7 5 8 6 2 7 3 8 4 9 6 10 20 11 11 13
REMARK SMILES IDX 18 14 12 15 16 16 13 17 14 18 17 19 15 21 5 23 1 25
REMARK H PARENT 20 12 17 20 15 22 5 24 1 26
REMARK Flexibility Score: inf
ROOT
ATOM      1  C   UNL     1      74.282  74.718  84.663  1.00  0.00     0.079 C 
ATOM      2  C   UNL     1      74.034  74.032  83.307  1.00  0.00     0.164 C 
ATOM      3  C   UNL     1      73.748  75.085  82.219  1.00  0.00     0.232 C 
ATOM      4  O   UNL     1      74.830  76.014  82.155  1.00  0.00    -0.482 OA
ATOM      5  C   UNL     1      75.499  76.467  83.298  1.00  0.00     0.131 A 
ATOM      6  C   UNL     1      76.417  77.512  83.176  1.00  0.00     0.093 A 
ATOM      7  C   UNL     1      77.088  77.997  84.303  1.00  0.00     0.122 A 
ATOM      8  C   UNL     1      76.832  77.438  85.556  1.00  0.00     0.092 A 
ATOM      9  C   UNL     1      75.915  76.390  85.698  1.00  0.00     0.126 A 
ATOM     10  C   UNL     1      75.265  75.867  84.556  1.00  0.00     0.039 A 
ENDROOT
BRANCH   2  11
ATOM     11  O   UNL     1      72.983  73.101  83.410  1.00  0.00    -0.389 OA
ATOM     12  H   UNL     1      72.164  73.599  83.669  1.00  0.00     0.211 HD
ENDBRANCH   2  11
BRANCH   3  13
ATOM     13  C   UNL     1      73.552  74.437  80.869  1.00  0.00    -0.001 A 
ATOM     14  C   UNL     1      73.081  75.189  79.777  1.00  0.00     0.057 A 
ATOM     15  C   UNL     1      73.887  73.087  80.678  1.00  0.00     0.012 A 
ATOM     16  C   UNL     1      72.927  74.591  78.518  1.00  0.00     0.157 A 
ATOM     17  C   UNL     1      73.733  72.492  79.423  1.00  0.00     0.050 A 
ATOM     18  C   UNL     1      73.251  73.241  78.341  1.00  0.00     0.157 A 
BRANCH  16  19
ATOM     19  O   UNL     1      72.454  75.336  77.439  1.00  0.00    -0.504 OA
ATOM     20  H   UNL     1      72.304  74.916  76.529  1.00  0.00     0.293 HD
ENDBRANCH  16  19
BRANCH  18  21
ATOM     21  O   UNL     1      73.096  72.651  77.088  1.00  0.00    -0.504 OA
ATOM     22  H   UNL     1      73.312  73.153  76.234  1.00  0.00     0.293 HD
ENDBRANCH  18  21
ENDBRANCH   3  13
BRANCH   9  23
ATOM     23  O   UNL     1      75.668  75.904  86.984  1.00  0.00    -0.507 OA
ATOM     24  H   UNL     1      75.647  74.919  87.212  1.00  0.00     0.293 HD
ENDBRANCH   9  23
BRANCH   7  25
ATOM     25  O   UNL     1      78.008  79.038  84.188  1.00  0.00    -0.508 OA
ATOM     26  H   UNL     1      78.996  78.892  84.355  1.00  0.00     0.293 HD
ENDBRANCH   7  25
TORSDOF 6
ENDMDL
MODEL 5
REMARK VINA RESULT:    -3.800     14.715     16.259
REMARK INTER + INTRA:          -4.950
REMARK INTER:                  -4.598
REMARK INTRA:                  -0.352
REMARK UNBOUND:                -0.373
REMARK SMILES Oc1cc(O)c2c(c1)O[C@@H](c1ccc(O)c(O)c1)[C@H](O)C2
REMARK SMILES IDX 21 1 19 2 10 3 9 4 7 5 8 6 2 7 3 8 4 9 6 10 20 11 11 13
REMARK SMILES IDX 18 14 12 15 16 16 13 17 14 18 17 19 15 21 5 23 1 25
REMARK H PARENT 20 12 17 20 15 22 5 24 1 26
REMARK Flexibility Score: inf
ROOT
ATOM      1  C   UNL     1      76.622  91.266  80.198  1.00  0.00     0.079 C 
ATOM      2  C   UNL     1      75.943  90.711  78.932  1.00  0.00     0.164 C 
ATOM      3  C   UNL     1      76.377  91.519  77.695  1.00  0.00     0.232 C 
ATOM      4  O   UNL     1      77.801  91.502  77.585  1.00  0.00    -0.482 OA
ATOM      5  C   UNL     1      78.639  91.579  78.703  1.00  0.00     0.131 A 
ATOM      6  C   UNL     1      80.012  91.746  78.510  1.00  0.00     0.093 A 
ATOM      7  C   UNL     1      80.873  91.843  79.608  1.00  0.00     0.122 A 
ATOM      8  C   UNL     1      80.355  91.780  80.903  1.00  0.00     0.092 A 
ATOM      9  C   UNL     1      78.982  91.613  81.117  1.00  0.00     0.126 A 
ATOM     10  C   UNL     1      78.111  91.472  80.010  1.00  0.00     0.039 A 
ENDROOT
BRANCH   2  11
ATOM     11  O   UNL     1      74.544  90.712  79.082  1.00  0.00    -0.389 OA
ATOM     12  H   UNL     1      74.283  91.585  79.477  1.00  0.00     0.211 HD
ENDBRANCH   2  11
BRANCH   3  13
ATOM     13  C   UNL     1      75.763  90.959  76.433  1.00  0.00    -0.001 A 
ATOM     14  C   UNL     1      75.057  91.795  75.550  1.00  0.00     0.057 A 
ATOM     15  C   UNL     1      75.935  89.605  76.104  1.00  0.00     0.012 A 
ATOM     16  C   UNL     1      74.513  91.278  74.365  1.00  0.00     0.157 A 
ATOM     17  C   UNL     1      75.392  89.090  74.924  1.00  0.00     0.050 A 
ATOM     18  C   UNL     1      74.679  89.924  74.053  1.00  0.00     0.157 A 
BRANCH  16  19
ATOM     19  O   UNL     1      73.808  92.107  73.494  1.00  0.00    -0.504 OA
ATOM     20  H   UNL     1      74.264  92.568  72.715  1.00  0.00     0.293 HD
ENDBRANCH  16  19
BRANCH  18  21
ATOM     21  O   UNL     1      74.136  89.414  72.875  1.00  0.00    -0.504 OA
ATOM     22  H   UNL     1      74.720  89.176  72.082  1.00  0.00     0.293 HD
ENDBRANCH  18  21
ENDBRANCH   3  13
BRANCH   9  23
ATOM     23  O   UNL     1      78.519  91.603  82.434  1.00  0.00    -0.507 OA
ATOM     24  H   UNL     1      77.557  91.782  82.688  1.00  0.00     0.293 HD
ENDBRANCH   9  23
BRANCH   7  25
ATOM     25  O   UNL     1      82.244  92.007  79.422  1.00  0.00    -0.508 OA
ATOM     26  H   UNL     1      82.656  92.925  79.304  1.00  0.00     0.293 HD
ENDBRANCH   7  25
TORSDOF 6
ENDMDL
MODEL 6
REMARK VINA RESULT:    -3.747      3.125      7.228
REMARK INTER + INTRA:          -4.886
REMARK INTER:                  -4.519
REMARK INTRA:                  -0.367
REMARK UNBOUND:                -0.373
REMARK SMILES Oc1cc(O)c2c(c1)O[C@@H](c1ccc(O)c(O)c1)[C@H](O)C2
REMARK SMILES IDX 21 1 19 2 10 3 9 4 7 5 8 6 2 7 3 8 4 9 6 10 20 11 11 13
REMARK SMILES IDX 18 14 12 15 16 16 13 17 14 18 17 19 15 21 5 23 1 25
REMARK H PARENT 20 12 17 20 15 22 5 24 1 26
REMARK Flexibility Score: inf
ROOT
ATOM      1  C   UNL     1      77.799  72.791  78.910  1.00  0.00     0.079 C 
ATOM      2  C   UNL     1      76.718  72.598  79.990  1.00  0.00     0.164 C 
ATOM      3  C   UNL     1      76.148  73.962  80.425  1.00  0.00     0.232 C 
ATOM      4  O   UNL     1      75.642  74.656  79.284  1.00  0.00    -0.482 OA
ATOM      5  C   UNL     1      76.280  74.617  78.039  1.00  0.00     0.131 A 
ATOM      6  C   UNL     1      75.836  75.467  77.024  1.00  0.00     0.093 A 
ATOM      7  C   UNL     1      76.464  75.463  75.774  1.00  0.00     0.122 A 
ATOM      8  C   UNL     1      77.546  74.610  75.545  1.00  0.00     0.092 A 
ATOM      9  C   UNL     1      78.006  73.752  76.551  1.00  0.00     0.126 A 
ATOM     10  C   UNL     1      77.347  73.721  77.803  1.00  0.00     0.039 A 
ENDROOT
BRANCH   2  11
ATOM     11  O   UNL     1      77.238  71.886  81.087  1.00  0.00    -0.389 OA
ATOM     12  H   UNL     1      77.068  72.424  81.904  1.00  0.00     0.211 HD
ENDBRANCH   2  11
BRANCH   3  13
ATOM     13  C   UNL     1      75.050  73.795  81.447  1.00  0.00    -0.001 A 
ATOM     14  C   UNL     1      75.236  74.224  82.774  1.00  0.00     0.057 A 
ATOM     15  C   UNL     1      73.810  73.253  81.070  1.00  0.00     0.012 A 
ATOM     16  C   UNL     1      74.204  74.093  83.714  1.00  0.00     0.157 A 
ATOM     17  C   UNL     1      72.782  73.122  82.008  1.00  0.00     0.050 A 
ATOM     18  C   UNL     1      72.976  73.540  83.331  1.00  0.00     0.157 A 
BRANCH  16  19
ATOM     19  O   UNL     1      74.392  74.514  85.030  1.00  0.00    -0.504 OA
ATOM     20  H   UNL     1      75.272  74.372  85.511  1.00  0.00     0.293 HD
ENDBRANCH  16  19
BRANCH  18  21
ATOM     21  O   UNL     1      71.953  73.411  84.269  1.00  0.00    -0.504 OA
ATOM     22  H   UNL     1      72.111  72.975  85.170  1.00  0.00     0.293 HD
ENDBRANCH  18  21
ENDBRANCH   3  13
BRANCH   9  23
ATOM     23  O   UNL     1      79.120  72.957  76.275  1.00  0.00    -0.507 OA
ATOM     24  H   UNL     1      79.742  73.121  75.495  1.00  0.00     0.293 HD
ENDBRANCH   9  23
BRANCH   7  25
ATOM     25  O   UNL     1      76.024  76.306  74.756  1.00  0.00    -0.508 OA
ATOM     26  H   UNL     1      75.468  77.130  74.953  1.00  0.00     0.293 HD
ENDBRANCH   7  25
TORSDOF 6
ENDMDL
MODEL 7
REMARK VINA RESULT:    -3.716      5.472      7.825
REMARK INTER + INTRA:          -4.850
REMARK INTER:                  -4.606
REMARK INTRA:                  -0.244
REMARK UNBOUND:                -0.373
REMARK SMILES Oc1cc(O)c2c(c1)O[C@@H](c1ccc(O)c(O)c1)[C@H](O)C2
REMARK SMILES IDX 21 1 19 2 10 3 9 4 7 5 8 6 2 7 3 8 4 9 6 10 20 11 11 13
REMARK SMILES IDX 18 14 12 15 16 16 13 17 14 18 17 19 15 21 5 23 1 25
REMARK H PARENT 20 12 17 20 15 22 5 24 1 26
REMARK Flexibility Score: inf
ROOT
ATOM      1  C   UNL     1      78.386  72.686  74.022  1.00  0.00     0.079 C 
ATOM      2  C   UNL     1      77.050  73.036  74.705  1.00  0.00     0.164 C 
ATOM      3  C   UNL     1      77.090  72.635  76.192  1.00  0.00     0.232 C 
ATOM      4  O   UNL     1      78.196  73.271  76.832  1.00  0.00    -0.482 OA
ATOM      5  C   UNL     1      79.434  73.436  76.200  1.00  0.00     0.131 A 
ATOM      6  C   UNL     1      80.521  73.894  76.947  1.00  0.00     0.093 A 
ATOM      7  C   UNL     1      81.774  74.053  76.348  1.00  0.00     0.122 A 
ATOM      8  C   UNL     1      81.940  73.744  74.996  1.00  0.00     0.092 A 
ATOM      9  C   UNL     1      80.863  73.282  74.231  1.00  0.00     0.126 A 
ATOM     10  C   UNL     1      79.583  73.160  74.822  1.00  0.00     0.039 A 
ENDROOT
BRANCH   2  11
ATOM     11  O   UNL     1      75.977  72.420  74.035  1.00  0.00    -0.389 OA
ATOM     12  H   UNL     1      76.034  72.674  73.076  1.00  0.00     0.211 HD
ENDBRANCH   2  11
BRANCH   3  13
ATOM     13  C   UNL     1      75.808  73.016  76.895  1.00  0.00    -0.001 A 
ATOM     14  C   UNL     1      75.634  74.312  77.412  1.00  0.00     0.057 A 
ATOM     15  C   UNL     1      74.756  72.091  76.995  1.00  0.00     0.012 A 
ATOM     16  C   UNL     1      74.432  74.671  78.039  1.00  0.00     0.157 A 
ATOM     17  C   UNL     1      73.558  72.449  77.621  1.00  0.00     0.050 A 
ATOM     18  C   UNL     1      73.394  73.738  78.145  1.00  0.00     0.157 A 
BRANCH  16  19
ATOM     19  O   UNL     1      74.264  75.954  78.556  1.00  0.00    -0.504 OA
ATOM     20  H   UNL     1      75.038  76.605  78.624  1.00  0.00     0.293 HD
ENDBRANCH  16  19
BRANCH  18  21
ATOM     21  O   UNL     1      72.201  74.099  78.769  1.00  0.00    -0.504 OA
ATOM     22  H   UNL     1      71.303  73.789  78.417  1.00  0.00     0.293 HD
ENDBRANCH  18  21
ENDBRANCH   3  13
BRANCH   9  23
ATOM     23  O   UNL     1      81.103  72.946  72.897  1.00  0.00    -0.507 OA
ATOM     24  H   UNL     1      81.022  72.004  72.537  1.00  0.00     0.293 HD
ENDBRANCH   9  23
BRANCH   7  25
ATOM     25  O   UNL     1      82.862  74.513  77.087  1.00  0.00    -0.508 OA
ATOM     26  H   UNL     1      83.433  73.882  77.637  1.00  0.00     0.293 HD
ENDBRANCH   7  25
TORSDOF 6
ENDMDL
MODEL 8
REMARK VINA RESULT:    -3.687      3.444      4.625
REMARK INTER + INTRA:          -4.814
REMARK INTER:                  -4.511
REMARK INTRA:                  -0.303
REMARK UNBOUND:                -0.373
REMARK SMILES Oc1cc(O)c2c(c1)O[C@@H](c1ccc(O)c(O)c1)[C@H](O)C2
REMARK SMILES IDX 21 1 19 2 10 3 9 4 7 5 8 6 2 7 3 8 4 9 6 10 20 11 11 13
REMARK SMILES IDX 18 14 12 15 16 16 13 17 14 18 17 19 15 21 5 23 1 25
REMARK H PARENT 20 12 17 20 15 22 5 24 1 26
REMARK Flexibility Score: inf
ROOT
ATOM      1  C   UNL     1      72.671  74.080  84.081  1.00  0.00     0.079 C 
ATOM      2  C   UNL     1      73.459  73.481  82.901  1.00  0.00     0.164 C 
ATOM      3  C   UNL     1      73.038  74.154  81.581  1.00  0.00     0.232 C 
ATOM      4  O   UNL     1      73.224  75.567  81.681  1.00  0.00    -0.482 OA
ATOM      5  C   UNL     1      72.950  76.276  82.856  1.00  0.00     0.131 A 
ATOM      6  C   UNL     1      72.974  77.672  82.825  1.00  0.00     0.093 A 
ATOM      7  C   UNL     1      72.689  78.410  83.978  1.00  0.00     0.122 A 
ATOM      8  C   UNL     1      72.370  77.745  85.165  1.00  0.00     0.092 A 
ATOM      9  C   UNL     1      72.340  76.347  85.215  1.00  0.00     0.126 A 
ATOM     10  C   UNL     1      72.670  75.595  84.062  1.00  0.00     0.039 A 
ENDROOT
BRANCH   2  11
ATOM     11  O   UNL     1      73.281  72.086  82.846  1.00  0.00    -0.389 OA
ATOM     12  H   UNL     1      73.226  71.752  83.780  1.00  0.00     0.211 HD
ENDBRANCH   2  11
BRANCH   3  13
ATOM     13  C   UNL     1      73.835  73.618  80.415  1.00  0.00    -0.001 A 
ATOM     14  C   UNL     1      73.199  73.288  79.205  1.00  0.00     0.057 A 
ATOM     15  C   UNL     1      75.231  73.491  80.512  1.00  0.00     0.012 A 
ATOM     16  C   UNL     1      73.945  72.817  78.115  1.00  0.00     0.157 A 
ATOM     17  C   UNL     1      75.974  73.022  79.426  1.00  0.00     0.050 A 
ATOM     18  C   UNL     1      75.334  72.682  78.226  1.00  0.00     0.157 A 
BRANCH  16  19
ATOM     19  O   UNL     1      73.312  72.484  76.919  1.00  0.00    -0.504 OA
ATOM     20  H   UNL     1      73.737  72.681  76.021  1.00  0.00     0.293 HD
ENDBRANCH  16  19
BRANCH  18  21
ATOM     21  O   UNL     1      76.072  72.214  77.141  1.00  0.00    -0.504 OA
ATOM     22  H   UNL     1      76.840  72.748  76.752  1.00  0.00     0.293 HD
ENDBRANCH  18  21
ENDBRANCH   3  13
BRANCH   9  23
ATOM     23  O   UNL     1      71.969  75.742  86.418  1.00  0.00    -0.507 OA
ATOM     24  H   UNL     1      71.225  75.061  86.493  1.00  0.00     0.293 HD
ENDBRANCH   9  23
BRANCH   7  25
ATOM     25  O   UNL     1      72.714  79.802  83.955  1.00  0.00    -0.508 OA
ATOM     26  H   UNL     1      72.535  80.350  84.789  1.00  0.00     0.293 HD
ENDBRANCH   7  25
TORSDOF 6
ENDMDL
MODEL 9
REMARK VINA RESULT:    -3.628     14.582     16.775
REMARK INTER + INTRA:          -4.743
REMARK INTER:                  -4.388
REMARK INTRA:                  -0.355
REMARK UNBOUND:                -0.373
REMARK SMILES Oc1cc(O)c2c(c1)O[C@@H](c1ccc(O)c(O)c1)[C@H](O)C2
REMARK SMILES IDX 21 1 19 2 10 3 9 4 7 5 8 6 2 7 3 8 4 9 6 10 20 11 11 13
REMARK SMILES IDX 18 14 12 15 16 16 13 17 14 18 17 19 15 21 5 23 1 25
REMARK H PARENT 20 12 17 20 15 22 5 24 1 26
REMARK Flexibility Score: inf
ROOT
ATOM      1  C   UNL     1      77.837  89.018  75.611  1.00  0.00     0.079 C 
ATOM      2  C   UNL     1      77.879  89.287  77.127  1.00  0.00     0.164 C 
ATOM      3  C   UNL     1      77.874  90.803  77.401  1.00  0.00     0.232 C 
ATOM      4  O   UNL     1      76.731  91.398  76.787  1.00  0.00    -0.482 OA
ATOM      5  C   UNL     1      76.256  90.991  75.536  1.00  0.00     0.131 A 
ATOM      6  C   UNL     1      75.253  91.740  74.915  1.00  0.00     0.093 A 
ATOM      7  C   UNL     1      74.769  91.368  73.658  1.00  0.00     0.122 A 
ATOM      8  C   UNL     1      75.298  90.247  73.015  1.00  0.00     0.092 A 
ATOM      9  C   UNL     1      76.303  89.484  73.620  1.00  0.00     0.126 A 
ATOM     10  C   UNL     1      76.766  89.831  74.912  1.00  0.00     0.039 A 
ENDROOT
BRANCH   2  11
ATOM     11  O   UNL     1      78.999  88.663  77.708  1.00  0.00    -0.389 OA
ATOM     12  H   UNL     1      78.794  87.695  77.795  1.00  0.00     0.211 HD
ENDBRANCH   2  11
BRANCH   3  13
ATOM     13  C   UNL     1      77.863  91.090  78.884  1.00  0.00    -0.001 A 
ATOM     14  C   UNL     1      76.873  90.533  79.713  1.00  0.00     0.057 A 
ATOM     15  C   UNL     1      78.874  91.879  79.458  1.00  0.00     0.012 A 
ATOM     16  C   UNL     1      76.882  90.779  81.094  1.00  0.00     0.157 A 
ATOM     17  C   UNL     1      78.882  92.124  80.834  1.00  0.00     0.050 A 
ATOM     18  C   UNL     1      77.886  91.577  81.654  1.00  0.00     0.157 A 
BRANCH  16  19
ATOM     19  O   UNL     1      75.897  90.231  81.913  1.00  0.00    -0.504 OA
ATOM     20  H   UNL     1      75.775  90.533  82.871  1.00  0.00     0.293 HD
ENDBRANCH  16  19
BRANCH  18  21
ATOM     21  O   UNL     1      77.891  91.819  83.027  1.00  0.00    -0.504 OA
ATOM     22  H   UNL     1      78.252  92.684  83.411  1.00  0.00     0.293 HD
ENDBRANCH  18  21
ENDBRANCH   3  13
BRANCH   9  23
ATOM     23  O   UNL     1      76.823  88.401  72.908  1.00  0.00    -0.507 OA
ATOM     24  H   UNL     1      77.119  88.459  71.943  1.00  0.00     0.293 HD
ENDBRANCH   9  23
BRANCH   7  25
ATOM     25  O   UNL     1      73.767  92.110  73.034  1.00  0.00    -0.508 OA
ATOM     26  H   UNL     1      73.549  91.985  72.053  1.00  0.00     0.293 HD
ENDBRANCH   7  25
TORSDOF 6
ENDMDL
