MODEL 1
REMARK VINA RESULT:    -4.573      0.000      0.000
REMARK INTER + INTRA:          -5.893
REMARK INTER:                  -5.642
REMARK INTRA:                  -0.251
REMARK UNBOUND:                -0.251
REMARK SMILES CCCCC(=O)c1ccccc1
REMARK SMILES IDX 4 1 3 2 2 3 1 4 5 5 6 6 7 7 8 8 12 9 9 10 11 11 10 12
REMARK H PARENT
REMARK Flexibility Score: inf
ROOT
ATOM      1  C   UNL     1      33.268 170.843 156.033  1.00  0.00     0.081 C 
ENDROOT
BRANCH   1   2
ATOM      2  C   UNL     1      34.655 170.207 155.856  1.00  0.00     0.008 C 
BRANCH   2   3
ATOM      3  C   UNL     1      35.045 169.386 157.090  1.00  0.00    -0.003 C 
ATOM      4  C   UNL     1      33.814 168.969 157.889  1.00  0.00     0.004 C 
ENDBRANCH   2   3
ENDBRANCH   1   2
BRANCH   1   5
ATOM      5  C   UNL     1      32.404 170.740 154.796  1.00  0.00     0.162 C 
ATOM      6  O   UNL     1      32.689 169.888 153.908  1.00  0.00    -0.294 OA
BRANCH   5   7
ATOM      7  C   UNL     1      31.222 171.623 154.601  1.00  0.00     0.017 A 
ATOM      8  C   UNL     1      29.918 171.190 154.926  1.00  0.00     0.012 A 
ATOM      9  C   UNL     1      31.390 172.923 154.083  1.00  0.00     0.012 A 
ATOM     10  C   UNL     1      28.821 172.036 154.736  1.00  0.00     0.001 A 
ATOM     11  C   UNL     1      30.289 173.763 153.896  1.00  0.00     0.001 A 
ATOM     12  C   UNL     1      29.006 173.321 154.222  1.00  0.00     0.000 A 
ENDBRANCH   5   7
ENDBRANCH   1   5
TORSDOF 4
ENDMDL
MODEL 2
REMARK VINA RESULT:    -4.497      1.053      5.163
REMARK INTER + INTRA:          -5.799
REMARK INTER:                  -5.552
REMARK INTRA:                  -0.247
REMARK UNBOUND:                -0.251
REMARK SMILES CCCCC(=O)c1ccccc1
REMARK SMILES IDX 4 1 3 2 2 3 1 4 5 5 6 6 7 7 8 8 12 9 9 10 11 11 10 12
REMARK H PARENT
REMARK Flexibility Score: inf
ROOT
ATOM      1  C   UNL     1      30.675 171.393 154.874  1.00  0.00     0.081 C 
ENDROOT
BRANCH   1   2
ATOM      2  C   UNL     1      31.118 172.472 153.875  1.00  0.00     0.008 C 
BRANCH   2   3
ATOM      3  C   UNL     1      30.226 173.715 153.977  1.00  0.00    -0.003 C 
ATOM      4  C   UNL     1      31.050 174.962 154.282  1.00  0.00     0.004 C 
ENDBRANCH   2   3
ENDBRANCH   1   2
BRANCH   1   5
ATOM      5  C   UNL     1      31.447 170.099 154.733  1.00  0.00     0.162 C 
ATOM      6  O   UNL     1      31.072 169.242 153.886  1.00  0.00    -0.294 OA
BRANCH   5   7
ATOM      7  C   UNL     1      32.642 169.815 155.574  1.00  0.00     0.017 A 
ATOM      8  C   UNL     1      32.579 168.923 156.666  1.00  0.00     0.012 A 
ATOM      9  C   UNL     1      33.873 170.440 155.285  1.00  0.00     0.012 A 
ATOM     10  C   UNL     1      33.714 168.669 157.442  1.00  0.00     0.001 A 
ATOM     11  C   UNL     1      35.003 170.181 156.066  1.00  0.00     0.001 A 
ATOM     12  C   UNL     1      34.924 169.297 157.142  1.00  0.00     0.000 A 
ENDBRANCH   5   7
ENDBRANCH   1   5
TORSDOF 4
ENDMDL
MODEL 3
REMARK VINA RESULT:    -4.486      0.374      1.446
REMARK INTER + INTRA:          -5.786
REMARK INTER:                  -5.528
REMARK INTRA:                  -0.258
REMARK UNBOUND:                -0.251
REMARK SMILES CCCCC(=O)c1ccccc1
REMARK SMILES IDX 4 1 3 2 2 3 1 4 5 5 6 6 7 7 8 8 12 9 9 10 11 11 10 12
REMARK H PARENT
REMARK Flexibility Score: inf
ROOT
ATOM      1  C   UNL     1      33.291 170.819 156.143  1.00  0.00     0.081 C 
ENDROOT
BRANCH   1   2
ATOM      2  C   UNL     1      34.643 170.102 156.012  1.00  0.00     0.008 C 
BRANCH   2   3
ATOM      3  C   UNL     1      34.936 169.250 157.253  1.00  0.00    -0.003 C 
ATOM      4  C   UNL     1      34.088 167.981 157.264  1.00  0.00     0.004 C 
ENDBRANCH   2   3
ENDBRANCH   1   2
BRANCH   1   5
ATOM      5  C   UNL     1      32.421 170.676 154.914  1.00  0.00     0.162 C 
ATOM      6  O   UNL     1      32.660 169.752 154.087  1.00  0.00    -0.294 OA
BRANCH   5   7
ATOM      7  C   UNL     1      31.284 171.603 154.658  1.00  0.00     0.017 A 
ATOM      8  C   UNL     1      31.494 172.901 154.147  1.00  0.00     0.012 A 
ATOM      9  C   UNL     1      29.963 171.189 154.924  1.00  0.00     0.012 A 
ATOM     10  C   UNL     1      30.412 173.756 153.912  1.00  0.00     0.001 A 
ATOM     11  C   UNL     1      28.886 172.049 154.687  1.00  0.00     0.001 A 
ATOM     12  C   UNL     1      29.110 173.330 154.182  1.00  0.00     0.000 A 
ENDBRANCH   5   7
ENDBRANCH   1   5
TORSDOF 4
ENDMDL
MODEL 4
REMARK VINA RESULT:    -4.040      3.329      5.327
REMARK INTER + INTRA:          -5.235
REMARK INTER:                  -4.872
REMARK INTRA:                  -0.363
REMARK UNBOUND:                -0.251
REMARK SMILES CCCCC(=O)c1ccccc1
REMARK SMILES IDX 4 1 3 2 2 3 1 4 5 5 6 6 7 7 8 8 12 9 9 10 11 11 10 12
REMARK H PARENT
REMARK Flexibility Score: inf
ROOT
ATOM      1  C   UNL     1      31.580 170.032 159.865  1.00  0.00     0.081 C 
ENDROOT
BRANCH   1   2
ATOM      2  C   UNL     1      31.574 168.835 160.827  1.00  0.00     0.008 C 
BRANCH   2   3
ATOM      3  C   UNL     1      32.924 168.696 161.540  1.00  0.00    -0.003 C 
ATOM      4  C   UNL     1      32.793 168.992 163.032  1.00  0.00     0.004 C 
ENDBRANCH   2   3
ENDBRANCH   1   2
BRANCH   1   5
ATOM      5  C   UNL     1      31.600 169.624 158.408  1.00  0.00     0.162 C 
ATOM      6  O   UNL     1      30.534 169.232 157.858  1.00  0.00    -0.294 OA
BRANCH   5   7
ATOM      7  C   UNL     1      32.854 169.675 157.607  1.00  0.00     0.017 A 
ATOM      8  C   UNL     1      33.994 168.929 157.974  1.00  0.00     0.012 A 
ATOM      9  C   UNL     1      32.920 170.480 156.451  1.00  0.00     0.012 A 
ATOM     10  C   UNL     1      35.161 168.991 157.207  1.00  0.00     0.001 A 
ATOM     11  C   UNL     1      34.090 170.537 155.689  1.00  0.00     0.001 A 
ATOM     12  C   UNL     1      35.209 169.794 156.066  1.00  0.00     0.000 A 
ENDBRANCH   5   7
ENDBRANCH   1   5
TORSDOF 4
ENDMDL
MODEL 5
REMARK VINA RESULT:    -4.015      2.931      5.508
REMARK INTER + INTRA:          -5.205
REMARK INTER:                  -4.896
REMARK INTRA:                  -0.308
REMARK UNBOUND:                -0.251
REMARK SMILES CCCCC(=O)c1ccccc1
REMARK SMILES IDX 4 1 3 2 2 3 1 4 5 5 6 6 7 7 8 8 12 9 9 10 11 11 10 12
REMARK H PARENT
REMARK Flexibility Score: inf
ROOT
ATOM      1  C   UNL     1      33.637 170.499 156.855  1.00  0.00     0.081 C 
ENDROOT
BRANCH   1   2
ATOM      2  C   UNL     1      34.129 170.237 155.425  1.00  0.00     0.008 C 
BRANCH   2   3
ATOM      3  C   UNL     1      33.066 170.635 154.395  1.00  0.00    -0.003 C 
ATOM      4  C   UNL     1      32.270 169.421 153.925  1.00  0.00     0.004 C 
ENDBRANCH   2   3
ENDBRANCH   1   2
BRANCH   1   5
ATOM      5  C   UNL     1      33.353 169.231 157.629  1.00  0.00     0.162 C 
ATOM      6  O   UNL     1      33.665 168.115 157.128  1.00  0.00    -0.294 OA
BRANCH   5   7
ATOM      7  C   UNL     1      32.712 169.269 158.972  1.00  0.00     0.017 A 
ATOM      8  C   UNL     1      33.201 168.493 160.044  1.00  0.00     0.012 A 
ATOM      9  C   UNL     1      31.591 170.095 159.195  1.00  0.00     0.012 A 
ATOM     10  C   UNL     1      32.585 168.544 161.298  1.00  0.00     0.001 A 
ATOM     11  C   UNL     1      30.980 170.142 160.451  1.00  0.00     0.001 A 
ATOM     12  C   UNL     1      31.476 169.368 161.501  1.00  0.00     0.000 A 
ENDBRANCH   5   7
ENDBRANCH   1   5
TORSDOF 4
ENDMDL
MODEL 6
REMARK VINA RESULT:    -3.931      2.739      3.992
REMARK INTER + INTRA:          -5.100
REMARK INTER:                  -4.396
REMARK INTRA:                  -0.704
REMARK UNBOUND:                -0.251
REMARK SMILES CCCCC(=O)c1ccccc1
REMARK SMILES IDX 4 1 3 2 2 3 1 4 5 5 6 6 7 7 8 8 12 9 9 10 11 11 10 12
REMARK H PARENT
REMARK Flexibility Score: inf
ROOT
ATOM      1  C   UNL     1      33.261 168.669 158.757  1.00  0.00     0.081 C 
ENDROOT
BRANCH   1   2
ATOM      2  C   UNL     1      32.245 169.794 158.996  1.00  0.00     0.008 C 
BRANCH   2   3
ATOM      3  C   UNL     1      30.817 169.242 159.065  1.00  0.00    -0.003 C 
ATOM      4  C   UNL     1      29.887 169.997 158.119  1.00  0.00     0.004 C 
ENDBRANCH   2   3
ENDBRANCH   1   2
BRANCH   1   5
ATOM      5  C   UNL     1      33.985 168.792 157.434  1.00  0.00     0.162 C 
ATOM      6  O   UNL     1      35.214 168.507 157.370  1.00  0.00    -0.294 OA
BRANCH   5   7
ATOM      7  C   UNL     1      33.280 169.243 156.204  1.00  0.00     0.017 A 
ATOM      8  C   UNL     1      32.237 168.483 155.632  1.00  0.00     0.012 A 
ATOM      9  C   UNL     1      33.648 170.455 155.584  1.00  0.00     0.012 A 
ATOM     10  C   UNL     1      31.587 168.926 154.476  1.00  0.00     0.001 A 
ATOM     11  C   UNL     1      32.993 170.891 154.428  1.00  0.00     0.001 A 
ATOM     12  C   UNL     1      31.965 170.128 153.875  1.00  0.00     0.000 A 
ENDBRANCH   5   7
ENDBRANCH   1   5
TORSDOF 4
ENDMDL
MODEL 7
REMARK VINA RESULT:    -3.919     22.599     23.945
REMARK INTER + INTRA:          -5.086
REMARK INTER:                  -4.603
REMARK INTRA:                  -0.484
REMARK UNBOUND:                -0.251
REMARK SMILES CCCCC(=O)c1ccccc1
REMARK SMILES IDX 4 1 3 2 2 3 1 4 5 5 6 6 7 7 8 8 12 9 9 10 11 11 10 12
REMARK H PARENT
REMARK Flexibility Score: inf
ROOT
ATOM      1  C   UNL     1      38.466 184.668 171.729  1.00  0.00     0.081 C 
ENDROOT
BRANCH   1   2
ATOM      2  C   UNL     1      38.106 186.151 171.567  1.00  0.00     0.008 C 
BRANCH   2   3
ATOM      3  C   UNL     1      38.041 186.853 172.928  1.00  0.00    -0.003 C 
ATOM      4  C   UNL     1      39.180 187.857 173.086  1.00  0.00     0.004 C 
ENDBRANCH   2   3
ENDBRANCH   1   2
BRANCH   1   5
ATOM      5  C   UNL     1      39.813 184.315 171.137  1.00  0.00     0.162 C 
ATOM      6  O   UNL     1      39.944 184.255 169.883  1.00  0.00    -0.294 OA
BRANCH   5   7
ATOM      7  C   UNL     1      40.991 184.036 172.004  1.00  0.00     0.017 A 
ATOM      8  C   UNL     1      41.528 185.024 172.857  1.00  0.00     0.012 A 
ATOM      9  C   UNL     1      41.595 182.763 171.985  1.00  0.00     0.012 A 
ATOM     10  C   UNL     1      42.634 184.742 173.664  1.00  0.00     0.001 A 
ATOM     11  C   UNL     1      42.701 182.487 172.794  1.00  0.00     0.001 A 
ATOM     12  C   UNL     1      43.220 183.474 173.632  1.00  0.00     0.000 A 
ENDBRANCH   5   7
ENDBRANCH   1   5
TORSDOF 4
ENDMDL
MODEL 8
REMARK VINA RESULT:    -3.915      3.477      5.367
REMARK INTER + INTRA:          -5.081
REMARK INTER:                  -4.838
REMARK INTRA:                  -0.243
REMARK UNBOUND:                -0.251
REMARK SMILES CCCCC(=O)c1ccccc1
REMARK SMILES IDX 4 1 3 2 2 3 1 4 5 5 6 6 7 7 8 8 12 9 9 10 11 11 10 12
REMARK H PARENT
REMARK Flexibility Score: inf
ROOT
ATOM      1  C   UNL     1      30.987 169.759 159.278  1.00  0.00     0.081 C 
ENDROOT
BRANCH   1   2
ATOM      2  C   UNL     1      30.910 170.563 160.583  1.00  0.00     0.008 C 
BRANCH   2   3
ATOM      3  C   UNL     1      29.663 171.454 160.609  1.00  0.00    -0.003 C 
ATOM      4  C   UNL     1      29.936 172.765 161.339  1.00  0.00     0.004 C 
ENDBRANCH   2   3
ENDBRANCH   1   2
BRANCH   1   5
ATOM      5  C   UNL     1      32.400 169.382 158.892  1.00  0.00     0.162 C 
ATOM      6  O   UNL     1      33.120 168.748 159.713  1.00  0.00    -0.294 OA
BRANCH   5   7
ATOM      7  C   UNL     1      32.963 169.744 157.563  1.00  0.00     0.017 A 
ATOM      8  C   UNL     1      34.353 169.723 157.321  1.00  0.00     0.012 A 
ATOM      9  C   UNL     1      32.102 170.117 156.510  1.00  0.00     0.012 A 
ATOM     10  C   UNL     1      34.862 170.065 156.064  1.00  0.00     0.001 A 
ATOM     11  C   UNL     1      32.617 170.458 155.256  1.00  0.00     0.001 A 
ATOM     12  C   UNL     1      33.995 170.432 155.034  1.00  0.00     0.000 A 
ENDBRANCH   5   7
ENDBRANCH   1   5
TORSDOF 4
ENDMDL
MODEL 9
REMARK VINA RESULT:    -3.847      3.338      5.412
REMARK INTER + INTRA:          -4.997
REMARK INTER:                  -4.570
REMARK INTRA:                  -0.427
REMARK UNBOUND:                -0.251
REMARK SMILES CCCCC(=O)c1ccccc1
REMARK SMILES IDX 4 1 3 2 2 3 1 4 5 5 6 6 7 7 8 8 12 9 9 10 11 11 10 12
REMARK H PARENT
REMARK Flexibility Score: inf
ROOT
ATOM      1  C   UNL     1      32.695 169.231 156.450  1.00  0.00     0.081 C 
ENDROOT
BRANCH   1   2
ATOM      2  C   UNL     1      33.529 170.425 155.965  1.00  0.00     0.008 C 
BRANCH   2   3
ATOM      3  C   UNL     1      35.028 170.163 156.156  1.00  0.00    -0.003 C 
ATOM      4  C   UNL     1      35.270 168.839 156.876  1.00  0.00     0.004 C 
ENDBRANCH   2   3
ENDBRANCH   1   2
BRANCH   1   5
ATOM      5  C   UNL     1      31.621 169.620 157.442  1.00  0.00     0.162 C 
ATOM      6  O   UNL     1      30.530 170.097 157.021  1.00  0.00    -0.294 OA
BRANCH   5   7
ATOM      7  C   UNL     1      31.821 169.451 158.907  1.00  0.00     0.017 A 
ATOM      8  C   UNL     1      32.895 168.694 159.421  1.00  0.00     0.012 A 
ATOM      9  C   UNL     1      30.929 170.057 159.816  1.00  0.00     0.012 A 
ATOM     10  C   UNL     1      33.066 168.549 160.802  1.00  0.00     0.001 A 
ATOM     11  C   UNL     1      31.106 169.908 161.194  1.00  0.00     0.001 A 
ATOM     12  C   UNL     1      32.173 169.155 161.687  1.00  0.00     0.000 A 
ENDBRANCH   5   7
ENDBRANCH   1   5
TORSDOF 4
ENDMDL
