MODEL 1
REMARK VINA RESULT:    -4.118      0.000      0.000
REMARK INTER + INTRA:         -12.001
REMARK INTER:                  -8.933
REMARK INTRA:                  -3.068
REMARK UNBOUND:                -3.068
REMARK SMILES CCCCCCCCCCCCCCCCCCCCCC(=O)[O-]
REMARK SMILES IDX 12 1 11 2 10 3 9 4 8 5 7 6 6 7 5 8 4 9 3 10 2 11 1 12 13 13
REMARK SMILES IDX 14 14 15 15 16 16 17 17 18 18 19 19 20 20 21 21 22 22 23 23
REMARK SMILES IDX 24 24
REMARK H PARENT
REMARK Flexibility Score: inf
ROOT
ATOM      1  C   UNL     1      28.037  26.651 -15.579  1.00  0.00     0.000 C 
ENDROOT
BRANCH   1   2
ATOM      2  C   UNL     1      27.054  25.645 -16.202  1.00  0.00     0.000 C 
BRANCH   2   3
ATOM      3  C   UNL     1      26.867  25.849 -17.717  1.00  0.00     0.000 C 
BRANCH   3   4
ATOM      4  C   UNL     1      26.079  24.737 -18.434  1.00  0.00    -0.000 C 
BRANCH   4   5
ATOM      5  C   UNL     1      26.139  24.856 -19.967  1.00  0.00    -0.000 C 
BRANCH   5   6
ATOM      6  C   UNL     1      27.202  23.938 -20.601  1.00  0.00    -0.000 C 
BRANCH   6   7
ATOM      7  C   UNL     1      28.100  23.186 -19.602  1.00  0.00    -0.000 C 
BRANCH   7   8
ATOM      8  C   UNL     1      29.528  23.758 -19.530  1.00  0.00    -0.000 C 
BRANCH   8   9
ATOM      9  C   UNL     1      30.067  23.832 -18.090  1.00  0.00    -0.000 C 
BRANCH   9  10
ATOM     10  C   UNL     1      29.288  22.988 -17.060  1.00  0.00    -0.000 C 
BRANCH  10  11
ATOM     11  C   UNL     1      29.718  23.188 -15.595  1.00  0.00    -0.003 C 
ATOM     12  C   UNL     1      31.189  22.858 -15.355  1.00  0.00     0.004 C 
ENDBRANCH  10  11
ENDBRANCH   9  10
ENDBRANCH   8   9
ENDBRANCH   7   8
ENDBRANCH   6   7
ENDBRANCH   5   6
ENDBRANCH   4   5
ENDBRANCH   3   4
ENDBRANCH   2   3
ENDBRANCH   1   2
BRANCH   1  13
ATOM     13  C   UNL     1      28.728  27.530 -16.634  1.00  0.00     0.000 C 
BRANCH  13  14
ATOM     14  C   UNL     1      30.257  27.566 -16.460  1.00  0.00     0.000 C 
BRANCH  14  15
ATOM     15  C   UNL     1      30.718  26.951 -15.129  1.00  0.00     0.000 C 
BRANCH  15  16
ATOM     16  C   UNL     1      32.140  26.372 -15.207  1.00  0.00     0.000 C 
BRANCH  16  17
ATOM     17  C   UNL     1      32.606  26.148 -16.656  1.00  0.00     0.000 C 
BRANCH  17  18
ATOM     18  C   UNL     1      34.134  26.020 -16.775  1.00  0.00     0.000 C 
BRANCH  18  19
ATOM     19  C   UNL     1      34.855  26.173 -15.423  1.00  0.00     0.000 C 
BRANCH  19  20
ATOM     20  C   UNL     1      36.074  25.250 -15.233  1.00  0.00     0.006 C 
BRANCH  20  21
ATOM     21  C   UNL     1      37.356  26.017 -14.882  1.00  0.00     0.053 C 
BRANCH  21  22
ATOM     22  C   UNL     1      37.897  26.718 -16.088  1.00  0.00     0.041 C 
ATOM     23  O   UNL     1      38.018  26.101 -17.180  1.00  0.00    -0.550 OA
ATOM     24  O   UNL     1      38.289  28.049 -16.000  1.00  0.00    -0.550 OA
ENDBRANCH  21  22
ENDBRANCH  20  21
ENDBRANCH  19  20
ENDBRANCH  18  19
ENDBRANCH  17  18
ENDBRANCH  16  17
ENDBRANCH  15  16
ENDBRANCH  14  15
ENDBRANCH  13  14
ENDBRANCH   1  13
TORSDOF 20
ENDMDL
MODEL 2
REMARK VINA RESULT:    -4.036      4.347      7.474
REMARK INTER + INTRA:         -11.822
REMARK INTER:                  -8.461
REMARK INTRA:                  -3.361
REMARK UNBOUND:                -3.068
REMARK SMILES CCCCCCCCCCCCCCCCCCCCCC(=O)[O-]
REMARK SMILES IDX 12 1 11 2 10 3 9 4 8 5 7 6 6 7 5 8 4 9 3 10 2 11 1 12 13 13
REMARK SMILES IDX 14 14 15 15 16 16 17 17 18 18 19 19 20 20 21 21 22 22 23 23
REMARK SMILES IDX 24 24
REMARK H PARENT
REMARK Flexibility Score: inf
ROOT
ATOM      1  C   UNL     1      27.701  26.293 -13.728  1.00  0.00     0.000 C 
ENDROOT
BRANCH   1   2
ATOM      2  C   UNL     1      28.483  26.140 -12.412  1.00  0.00     0.000 C 
BRANCH   2   3
ATOM      3  C   UNL     1      29.846  26.855 -12.438  1.00  0.00     0.000 C 
BRANCH   3   4
ATOM      4  C   UNL     1      31.073  25.924 -12.446  1.00  0.00    -0.000 C 
BRANCH   4   5
ATOM      5  C   UNL     1      31.665  25.728 -13.853  1.00  0.00    -0.000 C 
BRANCH   5   6
ATOM      6  C   UNL     1      31.223  26.818 -14.848  1.00  0.00    -0.000 C 
BRANCH   6   7
ATOM      7  C   UNL     1      31.390  26.456 -16.335  1.00  0.00    -0.000 C 
BRANCH   7   8
ATOM      8  C   UNL     1      30.153  26.810 -17.181  1.00  0.00    -0.000 C 
BRANCH   8   9
ATOM      9  C   UNL     1      29.515  28.149 -16.770  1.00  0.00    -0.000 C 
BRANCH   9  10
ATOM     10  C   UNL     1      27.983  28.219 -16.941  1.00  0.00    -0.000 C 
BRANCH  10  11
ATOM     11  C   UNL     1      27.425  29.621 -17.249  1.00  0.00    -0.003 C 
ATOM     12  C   UNL     1      26.791  29.719 -18.634  1.00  0.00     0.004 C 
ENDBRANCH  10  11
ENDBRANCH   9  10
ENDBRANCH   8   9
ENDBRANCH   7   8
ENDBRANCH   6   7
ENDBRANCH   5   6
ENDBRANCH   4   5
ENDBRANCH   3   4
ENDBRANCH   2   3
ENDBRANCH   1   2
BRANCH   1  13
ATOM     13  C   UNL     1      27.934  25.119 -14.692  1.00  0.00     0.000 C 
BRANCH  13  14
ATOM     14  C   UNL     1      26.981  23.940 -14.425  1.00  0.00     0.000 C 
BRANCH  14  15
ATOM     15  C   UNL     1      27.700  22.582 -14.430  1.00  0.00     0.000 C 
BRANCH  15  16
ATOM     16  C   UNL     1      29.168  22.693 -14.875  1.00  0.00     0.000 C 
BRANCH  16  17
ATOM     17  C   UNL     1      29.636  21.466 -15.674  1.00  0.00     0.000 C 
BRANCH  17  18
ATOM     18  C   UNL     1      29.900  21.787 -17.155  1.00  0.00     0.000 C 
BRANCH  18  19
ATOM     19  C   UNL     1      28.635  22.250 -17.902  1.00  0.00     0.000 C 
BRANCH  19  20
ATOM     20  C   UNL     1      28.721  23.668 -18.499  1.00  0.00     0.006 C 
BRANCH  20  21
ATOM     21  C   UNL     1      27.414  24.458 -18.354  1.00  0.00     0.053 C 
BRANCH  21  22
ATOM     22  C   UNL     1      26.653  24.458 -19.643  1.00  0.00     0.041 C 
ATOM     23  O   UNL     1      25.604  25.145 -19.760  1.00  0.00    -0.550 OA
ATOM     24  O   UNL     1      27.092  23.680 -20.708  1.00  0.00    -0.550 OA
ENDBRANCH  21  22
ENDBRANCH  20  21
ENDBRANCH  19  20
ENDBRANCH  18  19
ENDBRANCH  17  18
ENDBRANCH  16  17
ENDBRANCH  15  16
ENDBRANCH  14  15
ENDBRANCH  13  14
ENDBRANCH   1  13
TORSDOF 20
ENDMDL
MODEL 3
REMARK VINA RESULT:    -4.009      3.894      6.133
REMARK INTER + INTRA:         -11.764
REMARK INTER:                  -8.202
REMARK INTRA:                  -3.562
REMARK UNBOUND:                -3.068
REMARK SMILES CCCCCCCCCCCCCCCCCCCCCC(=O)[O-]
REMARK SMILES IDX 12 1 11 2 10 3 9 4 8 5 7 6 6 7 5 8 4 9 3 10 2 11 1 12 13 13
REMARK SMILES IDX 14 14 15 15 16 16 17 17 18 18 19 19 20 20 21 21 22 22 23 23
REMARK SMILES IDX 24 24
REMARK H PARENT
REMARK Flexibility Score: inf
ROOT
ATOM      1  C   UNL     1      30.447  22.821 -16.545  1.00  0.00     0.000 C 
ENDROOT
BRANCH   1   2
ATOM      2  C   UNL     1      29.349  23.072 -17.593  1.00  0.00     0.000 C 
BRANCH   2   3
ATOM      3  C   UNL     1      29.491  22.176 -18.837  1.00  0.00     0.000 C 
BRANCH   3   4
ATOM      4  C   UNL     1      28.602  22.570 -20.031  1.00  0.00    -0.000 C 
BRANCH   4   5
ATOM      5  C   UNL     1      28.183  24.050 -20.001  1.00  0.00    -0.000 C 
BRANCH   5   6
ATOM      6  C   UNL     1      26.654  24.243 -19.994  1.00  0.00    -0.000 C 
BRANCH   6   7
ATOM      7  C   UNL     1      26.140  25.383 -19.097  1.00  0.00    -0.000 C 
BRANCH   7   8
ATOM      8  C   UNL     1      26.704  25.322 -17.665  1.00  0.00    -0.000 C 
BRANCH   8   9
ATOM      9  C   UNL     1      27.270  26.672 -17.191  1.00  0.00    -0.000 C 
BRANCH   9  10
ATOM     10  C   UNL     1      28.791  26.685 -16.928  1.00  0.00    -0.000 C 
BRANCH  10  11
ATOM     11  C   UNL     1      29.406  28.081 -16.724  1.00  0.00    -0.003 C 
ATOM     12  C   UNL     1      28.525  29.205 -17.266  1.00  0.00     0.004 C 
ENDBRANCH  10  11
ENDBRANCH   9  10
ENDBRANCH   8   9
ENDBRANCH   7   8
ENDBRANCH   6   7
ENDBRANCH   5   6
ENDBRANCH   4   5
ENDBRANCH   3   4
ENDBRANCH   2   3
ENDBRANCH   1   2
BRANCH   1  13
ATOM     13  C   UNL     1      31.772  23.513 -16.903  1.00  0.00     0.000 C 
BRANCH  13  14
ATOM     14  C   UNL     1      31.569  24.734 -17.817  1.00  0.00     0.000 C 
BRANCH  14  15
ATOM     15  C   UNL     1      32.475  25.917 -17.438  1.00  0.00     0.000 C 
BRANCH  15  16
ATOM     16  C   UNL     1      32.976  25.835 -15.987  1.00  0.00     0.000 C 
BRANCH  16  17
ATOM     17  C   UNL     1      32.087  26.624 -15.011  1.00  0.00     0.000 C 
BRANCH  17  18
ATOM     18  C   UNL     1      31.552  25.755 -13.861  1.00  0.00     0.000 C 
BRANCH  18  19
ATOM     19  C   UNL     1      30.123  26.139 -13.435  1.00  0.00     0.000 C 
BRANCH  19  20
ATOM     20  C   UNL     1      29.061  25.050 -13.680  1.00  0.00     0.006 C 
BRANCH  20  21
ATOM     21  C   UNL     1      27.625  25.584 -13.598  1.00  0.00     0.053 C 
BRANCH  21  22
ATOM     22  C   UNL     1      26.650  24.544 -14.050  1.00  0.00     0.041 C 
ATOM     23  O   UNL     1      25.412  24.735 -13.918  1.00  0.00    -0.550 OA
ATOM     24  O   UNL     1      27.109  23.352 -14.598  1.00  0.00    -0.550 OA
ENDBRANCH  21  22
ENDBRANCH  20  21
ENDBRANCH  19  20
ENDBRANCH  18  19
ENDBRANCH  17  18
ENDBRANCH  16  17
ENDBRANCH  15  16
ENDBRANCH  14  15
ENDBRANCH  13  14
ENDBRANCH   1  13
TORSDOF 20
ENDMDL
MODEL 4
REMARK VINA RESULT:    -4.005      3.889      6.509
REMARK INTER + INTRA:         -11.755
REMARK INTER:                  -7.913
REMARK INTRA:                  -3.842
REMARK UNBOUND:                -3.068
REMARK SMILES CCCCCCCCCCCCCCCCCCCCCC(=O)[O-]
REMARK SMILES IDX 12 1 11 2 10 3 9 4 8 5 7 6 6 7 5 8 4 9 3 10 2 11 1 12 13 13
REMARK SMILES IDX 14 14 15 15 16 16 17 17 18 18 19 19 20 20 21 21 22 22 23 23
REMARK SMILES IDX 24 24
REMARK H PARENT
REMARK Flexibility Score: inf
ROOT
ATOM      1  C   UNL     1      27.737  25.377 -12.827  1.00  0.00     0.000 C 
ENDROOT
BRANCH   1   2
ATOM      2  C   UNL     1      26.829  24.823 -13.939  1.00  0.00     0.000 C 
BRANCH   2   3
ATOM      3  C   UNL     1      27.137  23.356 -14.289  1.00  0.00     0.000 C 
BRANCH   3   4
ATOM      4  C   UNL     1      28.507  23.115 -14.950  1.00  0.00    -0.000 C 
BRANCH   4   5
ATOM      5  C   UNL     1      28.601  21.746 -15.646  1.00  0.00    -0.000 C 
BRANCH   5   6
ATOM      6  C   UNL     1      29.780  21.653 -16.634  1.00  0.00    -0.000 C 
BRANCH   6   7
ATOM      7  C   UNL     1      30.596  22.947 -16.806  1.00  0.00    -0.000 C 
BRANCH   7   8
ATOM      8  C   UNL     1      30.662  23.426 -18.267  1.00  0.00    -0.000 C 
BRANCH   8   9
ATOM      9  C   UNL     1      31.809  24.422 -18.515  1.00  0.00    -0.000 C 
BRANCH   9  10
ATOM     10  C   UNL     1      32.561  24.878 -17.248  1.00  0.00    -0.000 C 
BRANCH  10  11
ATOM     11  C   UNL     1      33.915  25.564 -17.504  1.00  0.00    -0.003 C 
ATOM     12  C   UNL     1      34.503  26.208 -16.250  1.00  0.00     0.004 C 
ENDBRANCH  10  11
ENDBRANCH   9  10
ENDBRANCH   8   9
ENDBRANCH   7   8
ENDBRANCH   6   7
ENDBRANCH   5   6
ENDBRANCH   4   5
ENDBRANCH   3   4
ENDBRANCH   2   3
ENDBRANCH   1   2
BRANCH   1  13
ATOM     13  C   UNL     1      28.539  26.608 -13.279  1.00  0.00     0.000 C 
BRANCH  13  14
ATOM     14  C   UNL     1      30.050  26.330 -13.358  1.00  0.00     0.000 C 
BRANCH  14  15
ATOM     15  C   UNL     1      30.540  26.117 -14.799  1.00  0.00     0.000 C 
BRANCH  15  16
ATOM     16  C   UNL     1      30.613  27.429 -15.598  1.00  0.00     0.000 C 
BRANCH  16  17
ATOM     17  C   UNL     1      29.689  27.423 -16.826  1.00  0.00     0.000 C 
BRANCH  17  18
ATOM     18  C   UNL     1      28.851  26.137 -16.932  1.00  0.00     0.000 C 
BRANCH  18  19
ATOM     19  C   UNL     1      27.347  26.416 -17.105  1.00  0.00     0.000 C 
BRANCH  19  20
ATOM     20  C   UNL     1      26.522  25.216 -17.610  1.00  0.00     0.006 C 
BRANCH  20  21
ATOM     21  C   UNL     1      27.297  24.328 -18.592  1.00  0.00     0.053 C 
BRANCH  21  22
ATOM     22  C   UNL     1      26.679  24.386 -19.954  1.00  0.00     0.041 C 
ATOM     23  O   UNL     1      25.738  25.189 -20.191  1.00  0.00    -0.550 OA
ATOM     24  O   UNL     1      27.128  23.534 -20.957  1.00  0.00    -0.550 OA
ENDBRANCH  21  22
ENDBRANCH  20  21
ENDBRANCH  19  20
ENDBRANCH  18  19
ENDBRANCH  17  18
ENDBRANCH  16  17
ENDBRANCH  15  16
ENDBRANCH  14  15
ENDBRANCH  13  14
ENDBRANCH   1  13
TORSDOF 20
ENDMDL
MODEL 5
REMARK VINA RESULT:    -3.944      4.093      7.483
REMARK INTER + INTRA:         -11.624
REMARK INTER:                  -8.836
REMARK INTRA:                  -2.789
REMARK UNBOUND:                -3.068
REMARK SMILES CCCCCCCCCCCCCCCCCCCCCC(=O)[O-]
REMARK SMILES IDX 12 1 11 2 10 3 9 4 8 5 7 6 6 7 5 8 4 9 3 10 2 11 1 12 13 13
REMARK SMILES IDX 14 14 15 15 16 16 17 17 18 18 19 19 20 20 21 21 22 22 23 23
REMARK SMILES IDX 24 24
REMARK H PARENT
REMARK Flexibility Score: inf
ROOT
ATOM      1  C   UNL     1      28.995  23.065 -20.127  1.00  0.00     0.000 C 
ENDROOT
BRANCH   1   2
ATOM      2  C   UNL     1      30.415  22.974 -19.540  1.00  0.00     0.000 C 
BRANCH   2   3
ATOM      3  C   UNL     1      30.482  23.405 -18.063  1.00  0.00     0.000 C 
BRANCH   3   4
ATOM      4  C   UNL     1      30.918  24.863 -17.826  1.00  0.00    -0.000 C 
BRANCH   4   5
ATOM      5  C   UNL     1      31.168  25.177 -16.341  1.00  0.00    -0.000 C 
BRANCH   5   6
ATOM      6  C   UNL     1      30.686  26.582 -15.934  1.00  0.00    -0.000 C 
BRANCH   6   7
ATOM      7  C   UNL     1      30.088  27.427 -17.074  1.00  0.00    -0.000 C 
BRANCH   7   8
ATOM      8  C   UNL     1      29.153  28.541 -16.568  1.00  0.00    -0.000 C 
BRANCH   8   9
ATOM      9  C   UNL     1      28.569  29.391 -17.711  1.00  0.00    -0.000 C 
BRANCH   9  10
ATOM     10  C   UNL     1      27.033  29.340 -17.841  1.00  0.00    -0.000 C 
BRANCH  10  11
ATOM     11  C   UNL     1      26.402  30.525 -18.595  1.00  0.00    -0.003 C 
ATOM     12  C   UNL     1      27.098  30.826 -19.920  1.00  0.00     0.004 C 
ENDBRANCH  10  11
ENDBRANCH   9  10
ENDBRANCH   8   9
ENDBRANCH   7   8
ENDBRANCH   6   7
ENDBRANCH   5   6
ENDBRANCH   4   5
ENDBRANCH   3   4
ENDBRANCH   2   3
ENDBRANCH   1   2
BRANCH   1  13
ATOM     13  C   UNL     1      27.939  23.406 -19.063  1.00  0.00     0.000 C 
BRANCH  13  14
ATOM     14  C   UNL     1      26.807  24.288 -19.619  1.00  0.00     0.000 C 
BRANCH  14  15
ATOM     15  C   UNL     1      26.119  25.128 -18.532  1.00  0.00     0.000 C 
BRANCH  15  16
ATOM     16  C   UNL     1      27.091  25.570 -17.425  1.00  0.00     0.000 C 
BRANCH  16  17
ATOM     17  C   UNL     1      26.658  25.084 -16.032  1.00  0.00     0.000 C 
BRANCH  17  18
ATOM     18  C   UNL     1      26.949  26.114 -14.927  1.00  0.00     0.000 C 
BRANCH  18  19
ATOM     19  C   UNL     1      28.003  25.625 -13.916  1.00  0.00     0.000 C 
BRANCH  19  20
ATOM     20  C   UNL     1      28.410  24.147 -14.071  1.00  0.00     0.006 C 
BRANCH  20  21
ATOM     21  C   UNL     1      27.630  23.211 -13.139  1.00  0.00     0.053 C 
BRANCH  21  22
ATOM     22  C   UNL     1      28.284  21.866 -13.076  1.00  0.00     0.041 C 
ATOM     23  O   UNL     1      29.533  21.773 -12.949  1.00  0.00    -0.550 OA
ATOM     24  O   UNL     1      27.514  20.714 -13.182  1.00  0.00    -0.550 OA
ENDBRANCH  21  22
ENDBRANCH  20  21
ENDBRANCH  19  20
ENDBRANCH  18  19
ENDBRANCH  17  18
ENDBRANCH  16  17
ENDBRANCH  15  16
ENDBRANCH  14  15
ENDBRANCH  13  14
ENDBRANCH   1  13
TORSDOF 20
ENDMDL
MODEL 6
REMARK VINA RESULT:    -3.909      2.141      3.149
REMARK INTER + INTRA:         -11.548
REMARK INTER:                  -7.892
REMARK INTRA:                  -3.657
REMARK UNBOUND:                -3.068
REMARK SMILES CCCCCCCCCCCCCCCCCCCCCC(=O)[O-]
REMARK SMILES IDX 12 1 11 2 10 3 9 4 8 5 7 6 6 7 5 8 4 9 3 10 2 11 1 12 13 13
REMARK SMILES IDX 14 14 15 15 16 16 17 17 18 18 19 19 20 20 21 21 22 22 23 23
REMARK SMILES IDX 24 24
REMARK H PARENT
REMARK Flexibility Score: inf
ROOT
ATOM      1  C   UNL     1      26.895  25.317 -16.523  1.00  0.00     0.000 C 
ENDROOT
BRANCH   1   2
ATOM      2  C   UNL     1      26.716  25.691 -18.005  1.00  0.00     0.000 C 
BRANCH   2   3
ATOM      3  C   UNL     1      26.180  24.527 -18.857  1.00  0.00     0.000 C 
BRANCH   3   4
ATOM      4  C   UNL     1      27.021  24.185 -20.101  1.00  0.00    -0.000 C 
BRANCH   4   5
ATOM      5  C   UNL     1      28.091  23.115 -19.823  1.00  0.00    -0.000 C 
BRANCH   5   6
ATOM      6  C   UNL     1      29.517  23.694 -19.756  1.00  0.00    -0.000 C 
BRANCH   6   7
ATOM      7  C   UNL     1      29.937  24.249 -18.382  1.00  0.00    -0.000 C 
BRANCH   7   8
ATOM      8  C   UNL     1      30.996  23.379 -17.681  1.00  0.00    -0.000 C 
BRANCH   8   9
ATOM      9  C   UNL     1      30.544  22.897 -16.292  1.00  0.00    -0.000 C 
BRANCH   9  10
ATOM     10  C   UNL     1      29.078  22.422 -16.211  1.00  0.00    -0.000 C 
BRANCH  10  11
ATOM     11  C   UNL     1      28.891  20.899 -16.097  1.00  0.00    -0.003 C 
ATOM     12  C   UNL     1      28.914  20.192 -17.450  1.00  0.00     0.004 C 
ENDBRANCH  10  11
ENDBRANCH   9  10
ENDBRANCH   8   9
ENDBRANCH   7   8
ENDBRANCH   6   7
ENDBRANCH   5   6
ENDBRANCH   4   5
ENDBRANCH   3   4
ENDBRANCH   2   3
ENDBRANCH   1   2
BRANCH   1  13
ATOM     13  C   UNL     1      27.701  26.368 -15.744  1.00  0.00     0.000 C 
BRANCH  13  14
ATOM     14  C   UNL     1      28.466  27.329 -16.671  1.00  0.00     0.000 C 
BRANCH  14  15
ATOM     15  C   UNL     1      29.972  27.378 -16.364  1.00  0.00     0.000 C 
BRANCH  15  16
ATOM     16  C   UNL     1      30.309  26.817 -14.972  1.00  0.00     0.000 C 
BRANCH  16  17
ATOM     17  C   UNL     1      31.628  26.029 -14.959  1.00  0.00     0.000 C 
BRANCH  17  18
ATOM     18  C   UNL     1      32.600  26.479 -16.063  1.00  0.00     0.000 C 
BRANCH  18  19
ATOM     19  C   UNL     1      33.657  25.412 -16.402  1.00  0.00     0.000 C 
BRANCH  19  20
ATOM     20  C   UNL     1      34.571  25.763 -17.591  1.00  0.00     0.006 C 
BRANCH  20  21
ATOM     21  C   UNL     1      33.803  26.351 -18.782  1.00  0.00     0.053 C 
BRANCH  21  22
ATOM     22  C   UNL     1      33.840  25.413 -19.947  1.00  0.00     0.041 C 
ATOM     23  O   UNL     1      32.802  24.787 -20.290  1.00  0.00    -0.550 OA
ATOM     24  O   UNL     1      35.028  25.212 -20.641  1.00  0.00    -0.550 OA
ENDBRANCH  21  22
ENDBRANCH  20  21
ENDBRANCH  19  20
ENDBRANCH  18  19
ENDBRANCH  17  18
ENDBRANCH  16  17
ENDBRANCH  15  16
ENDBRANCH  14  15
ENDBRANCH  13  14
ENDBRANCH   1  13
TORSDOF 20
ENDMDL
MODEL 7
REMARK VINA RESULT:    -3.858      4.204      6.155
REMARK INTER + INTRA:         -11.438
REMARK INTER:                  -7.405
REMARK INTRA:                  -4.033
REMARK UNBOUND:                -3.068
REMARK SMILES CCCCCCCCCCCCCCCCCCCCCC(=O)[O-]
REMARK SMILES IDX 12 1 11 2 10 3 9 4 8 5 7 6 6 7 5 8 4 9 3 10 2 11 1 12 13 13
REMARK SMILES IDX 14 14 15 15 16 16 17 17 18 18 19 19 20 20 21 21 22 22 23 23
REMARK SMILES IDX 24 24
REMARK H PARENT
REMARK Flexibility Score: inf
ROOT
ATOM      1  C   UNL     1      28.151  24.682 -17.171  1.00  0.00     0.000 C 
ENDROOT
BRANCH   1   2
ATOM      2  C   UNL     1      27.685  23.785 -18.331  1.00  0.00     0.000 C 
BRANCH   2   3
ATOM      3  C   UNL     1      28.646  23.812 -19.534  1.00  0.00     0.000 C 
BRANCH   3   4
ATOM      4  C   UNL     1      29.233  22.445 -19.933  1.00  0.00    -0.000 C 
BRANCH   4   5
ATOM      5  C   UNL     1      29.313  21.462 -18.752  1.00  0.00    -0.000 C 
BRANCH   5   6
ATOM      6  C   UNL     1      30.758  21.188 -18.294  1.00  0.00    -0.000 C 
BRANCH   6   7
ATOM      7  C   UNL     1      31.103  21.683 -16.878  1.00  0.00    -0.000 C 
BRANCH   7   8
ATOM      8  C   UNL     1      31.375  23.198 -16.821  1.00  0.00    -0.000 C 
BRANCH   8   9
ATOM      9  C   UNL     1      32.451  23.646 -17.826  1.00  0.00    -0.000 C 
BRANCH   9  10
ATOM     10  C   UNL     1      32.072  24.870 -18.684  1.00  0.00    -0.000 C 
BRANCH  10  11
ATOM     11  C   UNL     1      33.135  25.982 -18.742  1.00  0.00    -0.003 C 
ATOM     12  C   UNL     1      34.051  25.994 -17.520  1.00  0.00     0.004 C 
ENDBRANCH  10  11
ENDBRANCH   9  10
ENDBRANCH   8   9
ENDBRANCH   7   8
ENDBRANCH   6   7
ENDBRANCH   5   6
ENDBRANCH   4   5
ENDBRANCH   3   4
ENDBRANCH   2   3
ENDBRANCH   1   2
BRANCH   1  13
ATOM     13  C   UNL     1      27.372  26.005 -17.099  1.00  0.00     0.000 C 
BRANCH  13  14
ATOM     14  C   UNL     1      28.263  27.190 -16.688  1.00  0.00     0.000 C 
BRANCH  14  15
ATOM     15  C   UNL     1      29.761  26.899 -16.872  1.00  0.00     0.000 C 
BRANCH  15  16
ATOM     16  C   UNL     1      30.616  27.454 -15.720  1.00  0.00     0.000 C 
BRANCH  16  17
ATOM     17  C   UNL     1      31.428  26.359 -15.009  1.00  0.00     0.000 C 
BRANCH  17  18
ATOM     18  C   UNL     1      30.647  25.690 -13.864  1.00  0.00     0.000 C 
BRANCH  18  19
ATOM     19  C   UNL     1      29.887  26.702 -12.987  1.00  0.00     0.000 C 
BRANCH  19  20
ATOM     20  C   UNL     1      28.408  26.352 -12.732  1.00  0.00     0.006 C 
BRANCH  20  21
ATOM     21  C   UNL     1      27.945  25.111 -13.506  1.00  0.00     0.053 C 
BRANCH  21  22
ATOM     22  C   UNL     1      26.480  24.881 -13.305  1.00  0.00     0.041 C 
ATOM     23  O   UNL     1      25.995  24.859 -12.142  1.00  0.00    -0.550 OA
ATOM     24  O   UNL     1      25.653  24.669 -14.402  1.00  0.00    -0.550 OA
ENDBRANCH  21  22
ENDBRANCH  20  21
ENDBRANCH  19  20
ENDBRANCH  18  19
ENDBRANCH  17  18
ENDBRANCH  16  17
ENDBRANCH  15  16
ENDBRANCH  14  15
ENDBRANCH  13  14
ENDBRANCH   1  13
TORSDOF 20
ENDMDL
MODEL 8
REMARK VINA RESULT:    -3.850      3.932      5.671
REMARK INTER + INTRA:         -11.419
REMARK INTER:                  -7.719
REMARK INTRA:                  -3.701
REMARK UNBOUND:                -3.068
REMARK SMILES CCCCCCCCCCCCCCCCCCCCCC(=O)[O-]
REMARK SMILES IDX 12 1 11 2 10 3 9 4 8 5 7 6 6 7 5 8 4 9 3 10 2 11 1 12 13 13
REMARK SMILES IDX 14 14 15 15 16 16 17 17 18 18 19 19 20 20 21 21 22 22 23 23
REMARK SMILES IDX 24 24
REMARK H PARENT
REMARK Flexibility Score: inf
ROOT
ATOM      1  C   UNL     1      29.817  27.747 -16.466  1.00  0.00     0.000 C 
ENDROOT
BRANCH   1   2
ATOM      2  C   UNL     1      28.322  27.385 -16.493  1.00  0.00     0.000 C 
BRANCH   2   3
ATOM      3  C   UNL     1      28.048  26.010 -17.129  1.00  0.00     0.000 C 
BRANCH   3   4
ATOM      4  C   UNL     1      26.585  25.757 -17.536  1.00  0.00    -0.000 C 
BRANCH   4   5
ATOM      5  C   UNL     1      26.455  24.813 -18.744  1.00  0.00    -0.000 C 
BRANCH   5   6
ATOM      6  C   UNL     1      27.578  23.760 -18.808  1.00  0.00    -0.000 C 
BRANCH   6   7
ATOM      7  C   UNL     1      27.981  23.316 -20.226  1.00  0.00    -0.000 C 
BRANCH   7   8
ATOM      8  C   UNL     1      29.132  22.293 -20.230  1.00  0.00    -0.000 C 
BRANCH   8   9
ATOM      9  C   UNL     1      29.358  21.646 -18.852  1.00  0.00    -0.000 C 
BRANCH   9  10
ATOM     10  C   UNL     1      29.858  20.187 -18.891  1.00  0.00    -0.000 C 
BRANCH  10  11
ATOM     11  C   UNL     1      29.113  19.217 -17.957  1.00  0.00    -0.003 C 
ATOM     12  C   UNL     1      28.791  19.829 -16.596  1.00  0.00     0.004 C 
ENDBRANCH  10  11
ENDBRANCH   9  10
ENDBRANCH   8   9
ENDBRANCH   7   8
ENDBRANCH   6   7
ENDBRANCH   5   6
ENDBRANCH   4   5
ENDBRANCH   3   4
ENDBRANCH   2   3
ENDBRANCH   1   2
BRANCH   1  13
ATOM     13  C   UNL     1      30.612  26.892 -15.466  1.00  0.00     0.000 C 
BRANCH  13  14
ATOM     14  C   UNL     1      31.946  26.393 -16.048  1.00  0.00     0.000 C 
BRANCH  14  15
ATOM     15  C   UNL     1      31.806  25.862 -17.484  1.00  0.00     0.000 C 
BRANCH  15  16
ATOM     16  C   UNL     1      31.209  24.446 -17.534  1.00  0.00     0.000 C 
BRANCH  16  17
ATOM     17  C   UNL     1      31.955  23.460 -16.621  1.00  0.00     0.000 C 
BRANCH  17  18
ATOM     18  C   UNL     1      31.079  22.938 -15.470  1.00  0.00     0.000 C 
BRANCH  18  19
ATOM     19  C   UNL     1      29.586  23.269 -15.655  1.00  0.00     0.000 C 
BRANCH  19  20
ATOM     20  C   UNL     1      28.771  23.329 -14.349  1.00  0.00     0.006 C 
BRANCH  20  21
ATOM     21  C   UNL     1      27.256  23.336 -14.590  1.00  0.00     0.053 C 
BRANCH  21  22
ATOM     22  C   UNL     1      26.645  24.596 -14.062  1.00  0.00     0.041 C 
ATOM     23  O   UNL     1      25.402  24.781 -14.144  1.00  0.00    -0.550 OA
ATOM     24  O   UNL     1      27.453  25.577 -13.498  1.00  0.00    -0.550 OA
ENDBRANCH  21  22
ENDBRANCH  20  21
ENDBRANCH  19  20
ENDBRANCH  18  19
ENDBRANCH  17  18
ENDBRANCH  16  17
ENDBRANCH  15  16
ENDBRANCH  14  15
ENDBRANCH  13  14
ENDBRANCH   1  13
TORSDOF 20
ENDMDL
MODEL 9
REMARK VINA RESULT:    -3.847      4.037      6.875
REMARK INTER + INTRA:         -11.413
REMARK INTER:                  -8.042
REMARK INTRA:                  -3.371
REMARK UNBOUND:                -3.068
REMARK SMILES CCCCCCCCCCCCCCCCCCCCCC(=O)[O-]
REMARK SMILES IDX 12 1 11 2 10 3 9 4 8 5 7 6 6 7 5 8 4 9 3 10 2 11 1 12 13 13
REMARK SMILES IDX 14 14 15 15 16 16 17 17 18 18 19 19 20 20 21 21 22 22 23 23
REMARK SMILES IDX 24 24
REMARK H PARENT
REMARK Flexibility Score: inf
ROOT
ATOM      1  C   UNL     1      26.514  24.718 -18.093  1.00  0.00     0.000 C 
ENDROOT
BRANCH   1   2
ATOM      2  C   UNL     1      26.863  26.061 -17.427  1.00  0.00     0.000 C 
BRANCH   2   3
ATOM      3  C   UNL     1      28.359  26.193 -17.091  1.00  0.00     0.000 C 
BRANCH   3   4
ATOM      4  C   UNL     1      28.708  27.305 -16.084  1.00  0.00    -0.000 C 
BRANCH   4   5
ATOM      5  C   UNL     1      30.220  27.578 -15.996  1.00  0.00    -0.000 C 
BRANCH   5   6
ATOM      6  C   UNL     1      30.986  26.481 -15.233  1.00  0.00    -0.000 C 
BRANCH   6   7
ATOM      7  C   UNL     1      32.484  26.369 -15.572  1.00  0.00    -0.000 C 
BRANCH   7   8
ATOM      8  C   UNL     1      32.762  25.430 -16.760  1.00  0.00    -0.000 C 
BRANCH   8   9
ATOM      9  C   UNL     1      33.746  26.033 -17.778  1.00  0.00    -0.000 C 
BRANCH   9  10
ATOM     10  C   UNL     1      33.205  26.148 -19.218  1.00  0.00    -0.000 C 
BRANCH  10  11
ATOM     11  C   UNL     1      33.633  25.014 -20.168  1.00  0.00    -0.003 C 
ATOM     12  C   UNL     1      33.816  23.677 -19.455  1.00  0.00     0.004 C 
ENDBRANCH  10  11
ENDBRANCH   9  10
ENDBRANCH   8   9
ENDBRANCH   7   8
ENDBRANCH   6   7
ENDBRANCH   5   6
ENDBRANCH   4   5
ENDBRANCH   3   4
ENDBRANCH   2   3
ENDBRANCH   1   2
BRANCH   1  13
ATOM     13  C   UNL     1      26.151  24.875 -19.579  1.00  0.00     0.000 C 
BRANCH  13  14
ATOM     14  C   UNL     1      27.118  24.115 -20.504  1.00  0.00     0.000 C 
BRANCH  14  15
ATOM     15  C   UNL     1      28.072  23.188 -19.733  1.00  0.00     0.000 C 
BRANCH  15  16
ATOM     16  C   UNL     1      29.532  23.671 -19.784  1.00  0.00     0.000 C 
BRANCH  16  17
ATOM     17  C   UNL     1      30.240  23.547 -18.425  1.00  0.00     0.000 C 
BRANCH  17  18
ATOM     18  C   UNL     1      29.568  22.521 -17.496  1.00  0.00     0.000 C 
BRANCH  18  19
ATOM     19  C   UNL     1      29.663  22.907 -16.009  1.00  0.00     0.000 C 
BRANCH  19  20
ATOM     20  C   UNL     1      28.309  23.014 -15.282  1.00  0.00     0.006 C 
BRANCH  20  21
ATOM     21  C   UNL     1      28.302  24.086 -14.184  1.00  0.00     0.053 C 
BRANCH  21  22
ATOM     22  C   UNL     1      26.941  24.204 -13.572  1.00  0.00     0.041 C 
ATOM     23  O   UNL     1      25.990  24.703 -14.230  1.00  0.00    -0.550 OA
ATOM     24  O   UNL     1      26.729  23.782 -12.265  1.00  0.00    -0.550 OA
ENDBRANCH  21  22
ENDBRANCH  20  21
ENDBRANCH  19  20
ENDBRANCH  18  19
ENDBRANCH  17  18
ENDBRANCH  16  17
ENDBRANCH  15  16
ENDBRANCH  14  15
ENDBRANCH  13  14
ENDBRANCH   1  13
TORSDOF 20
ENDMDL
