MODEL 1
REMARK VINA RESULT:    -2.528      0.000      0.000
REMARK INTER + INTRA:          -2.528
REMARK INTER:                  -2.528
REMARK INTRA:                   0.000
REMARK UNBOUND:                 0.000
REMARK SMILES CC(=O)[O-]
REMARK SMILES IDX 1 1 2 2 3 3 4 4
REMARK H PARENT
REMARK Flexibility Score: inf
ROOT
ATOM      1  C   UNL     1       1.714 -36.972  15.848  1.00  0.00     0.063 C 
ATOM      2  C   UNL     1       2.810 -37.927  16.183  1.00  0.00     0.038 C 
ATOM      3  O   UNL     1       3.128 -38.128  17.383  1.00  0.00    -0.550 OA
ATOM      4  O   UNL     1       3.445 -38.638  15.172  1.00  0.00    -0.550 OA
ENDROOT
TORSDOF 0
ENDMDL
MODEL 2
REMARK VINA RESULT:    -2.522     17.552     17.930
REMARK INTER + INTRA:          -2.522
REMARK INTER:                  -2.522
REMARK INTRA:                   0.000
REMARK UNBOUND:                 0.000
REMARK SMILES CC(=O)[O-]
REMARK SMILES IDX 1 1 2 2 3 3 4 4
REMARK H PARENT
REMARK Flexibility Score: inf
ROOT
ATOM      1  C   UNL     1       5.490 -27.805  29.572  1.00  0.00     0.063 C 
ATOM      2  C   UNL     1       4.959 -26.411  29.567  1.00  0.00     0.038 C 
ATOM      3  O   UNL     1       5.477 -25.541  28.820  1.00  0.00    -0.550 OA
ATOM      4  O   UNL     1       3.858 -26.083  30.348  1.00  0.00    -0.550 OA
ENDROOT
TORSDOF 0
ENDMDL
MODEL 3
REMARK VINA RESULT:    -2.437      1.590      1.942
REMARK INTER + INTRA:          -2.437
REMARK INTER:                  -2.437
REMARK INTRA:                   0.000
REMARK UNBOUND:                 0.000
REMARK SMILES CC(=O)[O-]
REMARK SMILES IDX 1 1 2 2 3 3 4 4
REMARK H PARENT
REMARK Flexibility Score: inf
ROOT
ATOM      1  C   UNL     1       3.187 -37.510  14.612  1.00  0.00     0.063 C 
ATOM      2  C   UNL     1       2.488 -37.396  15.924  1.00  0.00     0.038 C 
ATOM      3  O   UNL     1       1.455 -36.687  16.029  1.00  0.00    -0.550 OA
ATOM      4  O   UNL     1       2.945 -38.116  17.021  1.00  0.00    -0.550 OA
ENDROOT
TORSDOF 0
ENDMDL
MODEL 4
REMARK VINA RESULT:    -2.415      1.597      1.846
REMARK INTER + INTRA:          -2.415
REMARK INTER:                  -2.415
REMARK INTRA:                   0.000
REMARK UNBOUND:                 0.000
REMARK SMILES CC(=O)[O-]
REMARK SMILES IDX 1 1 2 2 3 3 4 4
REMARK H PARENT
REMARK Flexibility Score: inf
ROOT
ATOM      1  C   UNL     1       3.167 -37.491  14.594  1.00  0.00     0.063 C 
ATOM      2  C   UNL     1       2.503 -37.467  15.929  1.00  0.00     0.038 C 
ATOM      3  O   UNL     1       2.986 -38.126  16.885  1.00  0.00    -0.550 OA
ATOM      4  O   UNL     1       1.381 -36.674  16.134  1.00  0.00    -0.550 OA
ENDROOT
TORSDOF 0
ENDMDL
MODEL 5
REMARK VINA RESULT:    -2.346      2.548      2.791
REMARK INTER + INTRA:          -2.346
REMARK INTER:                  -2.346
REMARK INTRA:                   0.000
REMARK UNBOUND:                 0.000
REMARK SMILES CC(=O)[O-]
REMARK SMILES IDX 1 1 2 2 3 3 4 4
REMARK H PARENT
REMARK Flexibility Score: inf
ROOT
ATOM      1  C   UNL     1       2.787 -37.911  16.998  1.00  0.00     0.063 C 
ATOM      2  C   UNL     1       2.642 -37.998  18.480  1.00  0.00     0.038 C 
ATOM      3  O   UNL     1       3.475 -37.427  19.229  1.00  0.00    -0.550 OA
ATOM      4  O   UNL     1       1.557 -38.663  19.035  1.00  0.00    -0.550 OA
ENDROOT
TORSDOF 0
ENDMDL
MODEL 6
REMARK VINA RESULT:    -2.325      2.314      2.529
REMARK INTER + INTRA:          -2.325
REMARK INTER:                  -2.325
REMARK INTRA:                   0.000
REMARK UNBOUND:                 0.000
REMARK SMILES CC(=O)[O-]
REMARK SMILES IDX 1 1 2 2 3 3 4 4
REMARK H PARENT
REMARK Flexibility Score: inf
ROOT
ATOM      1  C   UNL     1       2.778 -37.925  16.643  1.00  0.00     0.063 C 
ATOM      2  C   UNL     1       2.742 -37.953  18.134  1.00  0.00     0.038 C 
ATOM      3  O   UNL     1       1.806 -38.544  18.731  1.00  0.00    -0.550 OA
ATOM      4  O   UNL     1       3.771 -37.374  18.866  1.00  0.00    -0.550 OA
ENDROOT
TORSDOF 0
ENDMDL
MODEL 7
REMARK VINA RESULT:    -2.286      2.367      2.877
REMARK INTER + INTRA:          -2.286
REMARK INTER:                  -2.286
REMARK INTRA:                   0.000
REMARK UNBOUND:                 0.000
REMARK SMILES CC(=O)[O-]
REMARK SMILES IDX 1 1 2 2 3 3 4 4
REMARK H PARENT
REMARK Flexibility Score: inf
ROOT
ATOM      1  C   UNL     1       3.563 -37.859  19.151  1.00  0.00     0.063 C 
ATOM      2  C   UNL     1       2.281 -38.145  18.444  1.00  0.00     0.038 C 
ATOM      3  O   UNL     1       1.313 -38.646  19.072  1.00  0.00    -0.550 OA
ATOM      4  O   UNL     1       2.135 -37.809  17.104  1.00  0.00    -0.550 OA
ENDROOT
TORSDOF 0
ENDMDL
MODEL 8
REMARK VINA RESULT:    -2.270      7.201      7.694
REMARK INTER + INTRA:          -2.270
REMARK INTER:                  -2.270
REMARK INTRA:                   0.000
REMARK UNBOUND:                 0.000
REMARK SMILES CC(=O)[O-]
REMARK SMILES IDX 1 1 2 2 3 3 4 4
REMARK H PARENT
REMARK Flexibility Score: inf
ROOT
ATOM      1  C   UNL     1       6.090 -34.884  23.758  1.00  0.00     0.063 C 
ATOM      2  C   UNL     1       5.659 -36.007  22.876  1.00  0.00     0.038 C 
ATOM      3  O   UNL     1       4.864 -36.880  23.309  1.00  0.00    -0.550 OA
ATOM      4  O   UNL     1       6.094 -36.063  21.558  1.00  0.00    -0.550 OA
ENDROOT
TORSDOF 0
ENDMDL
MODEL 9
REMARK VINA RESULT:    -2.201      8.709      9.042
REMARK INTER + INTRA:          -2.201
REMARK INTER:                  -2.201
REMARK INTRA:                   0.000
REMARK UNBOUND:                 0.000
REMARK SMILES CC(=O)[O-]
REMARK SMILES IDX 1 1 2 2 3 3 4 4
REMARK H PARENT
REMARK Flexibility Score: inf
ROOT
ATOM      1  C   UNL     1       5.032 -37.904  23.301  1.00  0.00     0.063 C 
ATOM      2  C   UNL     1       5.232 -37.567  24.740  1.00  0.00     0.038 C 
ATOM      3  O   UNL     1       4.632 -38.221  25.631  1.00  0.00    -0.550 OA
ATOM      4  O   UNL     1       6.123 -36.564  25.102  1.00  0.00    -0.550 OA
ENDROOT
TORSDOF 0
ENDMDL
