MODEL 1
REMARK VINA RESULT:    -6.687      0.000      0.000
REMARK INTER + INTRA:          -9.863
REMARK INTER:                  -8.837
REMARK INTRA:                  -1.026
REMARK UNBOUND:                -1.026
REMARK SMILES CC[C@@H](C=C[C@H](C)[C@@H]1CC[C@@H]2[C@H]3CC[C@H]4C[C@H](O)CC[C@]4(C)[C@H]3CC[C@]21C)C(C)C
REMARK SMILES IDX 6 1 7 2 5 3 4 4 3 5 2 6 1 7 28 8 29 9 30 10 8 11 9 12 26 13
REMARK SMILES IDX 10 14 11 15 25 16 27 17 12 18 24 19 23 20 13 21 21 22 14 23
REMARK SMILES IDX 15 24 20 25 22 26 16 27 19 28 17 29 18 30
REMARK H PARENT 18 31
REMARK Flexibility Score: inf
ROOT
ATOM      1  C   UNL     1      11.041 -10.011  27.067  1.00  0.00     0.012 C 
ATOM      2  C   UNL     1      10.946 -10.589  28.491  1.00  0.00     0.012 C 
ENDROOT
BRANCH   1   3
ATOM      3  C   UNL     1      10.648  -8.546  27.047  1.00  0.00    -0.028 C 
ATOM      4  C   UNL     1       9.436  -8.088  26.678  1.00  0.00    -0.027 C 
BRANCH   4   5
ATOM      5  C   UNL     1       9.151  -6.599  26.585  1.00  0.00     0.014 C 
BRANCH   5   6
ATOM      6  C   UNL     1       7.716  -6.226  27.063  1.00  0.00     0.004 C 
ATOM      7  C   UNL     1       7.057  -7.195  28.052  1.00  0.00     0.004 C 
ENDBRANCH   5   6
BRANCH   5   8
ATOM      8  C   UNL     1       9.557  -6.048  25.182  1.00  0.00    -0.011 C 
ATOM      9  C   UNL     1      10.316  -4.712  25.280  1.00  0.00     0.008 C 
ATOM     10  C   UNL     1       8.387  -5.922  24.196  1.00  0.00     0.008 C 
ENDBRANCH   5   8
ENDBRANCH   4   5
ENDBRANCH   1   3
BRANCH   1  11
ATOM     11  C   UNL     1      12.412 -10.368  26.401  1.00  0.00     0.002 C 
ATOM     12  C   UNL     1      13.182  -9.212  25.721  1.00  0.00     0.005 C 
ATOM     13  C   UNL     1      12.456 -11.517  25.359  1.00  0.00    -0.026 C 
ATOM     14  C   UNL     1      14.095  -9.872  24.667  1.00  0.00     0.005 C 
ATOM     15  C   UNL     1      13.912 -11.375  24.883  1.00  0.00    -0.001 C 
ATOM     16  C   UNL     1      12.293 -12.932  25.947  1.00  0.00     0.007 C 
ATOM     17  C   UNL     1      11.404 -11.286  24.226  1.00  0.00     0.012 C 
ATOM     18  C   UNL     1      14.286 -12.353  23.745  1.00  0.00    -0.004 C 
ATOM     19  C   UNL     1      12.617 -14.024  24.895  1.00  0.00     0.005 C 
ATOM     20  C   UNL     1      13.985 -13.859  24.141  1.00  0.00    -0.001 C 
ATOM     21  C   UNL     1      15.719 -12.125  23.203  1.00  0.00     0.004 C 
ATOM     22  C   UNL     1      15.184 -14.688  24.785  1.00  0.00    -0.026 C 
ATOM     23  C   UNL     1      16.797 -12.857  23.999  1.00  0.00     0.004 C 
ATOM     24  C   UNL     1      16.493 -14.358  23.997  1.00  0.00    -0.002 C 
ATOM     25  C   UNL     1      14.929 -16.224  24.599  1.00  0.00     0.010 C 
ATOM     26  C   UNL     1      15.327 -14.406  26.311  1.00  0.00     0.012 C 
ATOM     27  C   UNL     1      17.709 -15.193  24.447  1.00  0.00     0.036 C 
ATOM     28  C   UNL     1      16.128 -17.103  25.011  1.00  0.00     0.032 C 
ATOM     29  C   UNL     1      17.428 -16.700  24.296  1.00  0.00     0.114 C 
BRANCH  29  30
ATOM     30  O   UNL     1      17.333 -17.050  22.935  1.00  0.00    -0.393 OA
ATOM     31  H   UNL     1      18.113 -17.635  22.738  1.00  0.00     0.210 HD
ENDBRANCH  29  30
ENDBRANCH   1  11
TORSDOF 6
ENDMDL
MODEL 2
REMARK VINA RESULT:    -6.209      7.791     12.402
REMARK INTER + INTRA:          -9.231
REMARK INTER:                  -8.681
REMARK INTRA:                  -0.550
REMARK UNBOUND:                -1.026
REMARK SMILES CC[C@@H](C=C[C@H](C)[C@@H]1CC[C@@H]2[C@H]3CC[C@H]4C[C@H](O)CC[C@]4(C)[C@H]3CC[C@]21C)C(C)C
REMARK SMILES IDX 6 1 7 2 5 3 4 4 3 5 2 6 1 7 28 8 29 9 30 10 8 11 9 12 26 13
REMARK SMILES IDX 10 14 11 15 25 16 27 17 12 18 24 19 23 20 13 21 21 22 14 23
REMARK SMILES IDX 15 24 20 25 22 26 16 27 19 28 17 29 18 30
REMARK H PARENT 18 31
REMARK Flexibility Score: inf
ROOT
ATOM      1  C   UNL     1      12.946  -3.523  25.552  1.00  0.00     0.012 C 
ATOM      2  C   UNL     1      13.950  -4.617  25.963  1.00  0.00     0.012 C 
ENDROOT
BRANCH   1   3
ATOM      3  C   UNL     1      11.533  -4.074  25.500  1.00  0.00    -0.028 C 
ATOM      4  C   UNL     1      11.213  -5.367  25.702  1.00  0.00    -0.027 C 
BRANCH   4   5
ATOM      5  C   UNL     1       9.787  -5.861  25.531  1.00  0.00     0.014 C 
BRANCH   5   6
ATOM      6  C   UNL     1       8.843  -4.784  24.918  1.00  0.00     0.004 C 
ATOM      7  C   UNL     1       7.896  -5.263  23.810  1.00  0.00     0.004 C 
ENDBRANCH   5   6
BRANCH   5   8
ATOM      8  C   UNL     1       9.277  -6.533  26.845  1.00  0.00    -0.011 C 
ATOM      9  C   UNL     1       9.827  -7.960  27.019  1.00  0.00     0.008 C 
ATOM     10  C   UNL     1       7.749  -6.530  26.998  1.00  0.00     0.008 C 
ENDBRANCH   5   8
ENDBRANCH   4   5
ENDBRANCH   1   3
BRANCH   1  11
ATOM     11  C   UNL     1      13.150  -2.222  26.398  1.00  0.00     0.002 C 
ATOM     12  C   UNL     1      12.006  -1.182  26.369  1.00  0.00     0.005 C 
ATOM     13  C   UNL     1      14.433  -1.379  26.169  1.00  0.00    -0.026 C 
ATOM     14  C   UNL     1      12.656   0.174  26.713  1.00  0.00     0.005 C 
ATOM     15  C   UNL     1      14.105  -0.168  27.058  1.00  0.00    -0.001 C 
ATOM     16  C   UNL     1      15.730  -2.015  26.705  1.00  0.00     0.007 C 
ATOM     17  C   UNL     1      14.602  -1.017  24.658  1.00  0.00     0.012 C 
ATOM     18  C   UNL     1      15.179   0.945  27.002  1.00  0.00    -0.004 C 
ATOM     19  C   UNL     1      16.907  -1.007  26.683  1.00  0.00     0.005 C 
ATOM     20  C   UNL     1      16.623   0.387  27.348  1.00  0.00    -0.001 C 
ATOM     21  C   UNL     1      14.783   2.201  27.816  1.00  0.00     0.004 C 
ATOM     22  C   UNL     1      17.089   0.488  28.868  1.00  0.00    -0.026 C 
ATOM     23  C   UNL     1      15.152   2.112  29.295  1.00  0.00     0.004 C 
ATOM     24  C   UNL     1      16.661   1.884  29.426  1.00  0.00    -0.002 C 
ATOM     25  C   UNL     1      18.654   0.437  28.949  1.00  0.00     0.010 C 
ATOM     26  C   UNL     1      16.526  -0.687  29.723  1.00  0.00     0.012 C 
ATOM     27  C   UNL     1      17.163   2.154  30.859  1.00  0.00     0.036 C 
ATOM     28  C   UNL     1      19.208   0.728  30.359  1.00  0.00     0.032 C 
ATOM     29  C   UNL     1      18.699   2.062  30.930  1.00  0.00     0.114 C 
BRANCH  29  30
ATOM     30  O   UNL     1      19.291   3.124  30.218  1.00  0.00    -0.393 OA
ATOM     31  H   UNL     1      19.863   2.711  29.516  1.00  0.00     0.210 HD
ENDBRANCH  29  30
ENDBRANCH   1  11
TORSDOF 6
ENDMDL
MODEL 3
REMARK VINA RESULT:    -6.044      3.686      6.741
REMARK INTER + INTRA:          -9.013
REMARK INTER:                  -8.160
REMARK INTRA:                  -0.853
REMARK UNBOUND:                -1.026
REMARK SMILES CC[C@@H](C=C[C@H](C)[C@@H]1CC[C@@H]2[C@H]3CC[C@H]4C[C@H](O)CC[C@]4(C)[C@H]3CC[C@]21C)C(C)C
REMARK SMILES IDX 6 1 7 2 5 3 4 4 3 5 2 6 1 7 28 8 29 9 30 10 8 11 9 12 26 13
REMARK SMILES IDX 10 14 11 15 25 16 27 17 12 18 24 19 23 20 13 21 21 22 14 23
REMARK SMILES IDX 15 24 20 25 22 26 16 27 19 28 17 29 18 30
REMARK H PARENT 18 31
REMARK Flexibility Score: inf
ROOT
ATOM      1  C   UNL     1      14.767 -15.758  25.868  1.00  0.00     0.012 C 
ATOM      2  C   UNL     1      15.694 -15.041  26.866  1.00  0.00     0.012 C 
ENDROOT
BRANCH   1   3
ATOM      3  C   UNL     1      13.534 -14.923  25.576  1.00  0.00    -0.028 C 
ATOM      4  C   UNL     1      13.443 -13.597  25.795  1.00  0.00    -0.027 C 
BRANCH   4   5
ATOM      5  C   UNL     1      12.140 -12.850  25.573  1.00  0.00     0.014 C 
BRANCH   5   6
ATOM      6  C   UNL     1      11.434 -13.246  24.243  1.00  0.00     0.004 C 
ATOM      7  C   UNL     1      11.696 -12.334  23.037  1.00  0.00     0.004 C 
ENDBRANCH   5   6
BRANCH   5   8
ATOM      8  C   UNL     1      12.339 -11.318  25.799  1.00  0.00    -0.011 C 
ATOM      9  C   UNL     1      13.814 -10.898  25.662  1.00  0.00     0.008 C 
ATOM     10  C   UNL     1      11.760 -10.799  27.122  1.00  0.00     0.008 C 
ENDBRANCH   5   8
ENDBRANCH   4   5
ENDBRANCH   1   3
BRANCH   1  11
ATOM     11  C   UNL     1      15.564 -16.272  24.623  1.00  0.00     0.002 C 
ATOM     12  C   UNL     1      16.836 -17.107  24.901  1.00  0.00     0.005 C 
ATOM     13  C   UNL     1      16.015 -15.242  23.552  1.00  0.00    -0.026 C 
ATOM     14  C   UNL     1      17.727 -16.954  23.652  1.00  0.00     0.005 C 
ATOM     15  C   UNL     1      16.875 -16.158  22.663  1.00  0.00    -0.001 C 
ATOM     16  C   UNL     1      14.879 -14.676  22.679  1.00  0.00     0.007 C 
ATOM     17  C   UNL     1      16.820 -14.072  24.205  1.00  0.00     0.012 C 
ATOM     18  C   UNL     1      17.566 -15.411  21.498  1.00  0.00    -0.004 C 
ATOM     19  C   UNL     1      15.435 -13.876  21.474  1.00  0.00     0.005 C 
ATOM     20  C   UNL     1      16.523 -14.610  20.612  1.00  0.00    -0.001 C 
ATOM     21  C   UNL     1      18.512 -16.324  20.679  1.00  0.00     0.004 C 
ATOM     22  C   UNL     1      15.940 -15.360  19.333  1.00  0.00    -0.026 C 
ATOM     23  C   UNL     1      17.803 -17.104  19.575  1.00  0.00     0.004 C 
ATOM     24  C   UNL     1      17.109 -16.120  18.628  1.00  0.00    -0.002 C 
ATOM     25  C   UNL     1      15.405 -14.310  18.299  1.00  0.00     0.010 C 
ATOM     26  C   UNL     1      14.761 -16.308  19.708  1.00  0.00     0.012 C 
ATOM     27  C   UNL     1      16.696 -16.790  17.301  1.00  0.00     0.036 C 
ATOM     28  C   UNL     1      15.002 -14.928  16.944  1.00  0.00     0.032 C 
ATOM     29  C   UNL     1      16.136 -15.752  16.311  1.00  0.00     0.114 C 
BRANCH  29  30
ATOM     30  O   UNL     1      17.156 -14.880  15.881  1.00  0.00    -0.393 OA
ATOM     31  H   UNL     1      17.773 -15.420  15.318  1.00  0.00     0.210 HD
ENDBRANCH  29  30
ENDBRANCH   1  11
TORSDOF 6
ENDMDL
MODEL 4
REMARK VINA RESULT:    -6.041      1.718      3.731
REMARK INTER + INTRA:          -9.009
REMARK INTER:                  -8.038
REMARK INTRA:                  -0.970
REMARK UNBOUND:                -1.026
REMARK SMILES CC[C@@H](C=C[C@H](C)[C@@H]1CC[C@@H]2[C@H]3CC[C@H]4C[C@H](O)CC[C@]4(C)[C@H]3CC[C@]21C)C(C)C
REMARK SMILES IDX 6 1 7 2 5 3 4 4 3 5 2 6 1 7 28 8 29 9 30 10 8 11 9 12 26 13
REMARK SMILES IDX 10 14 11 15 25 16 27 17 12 18 24 19 23 20 13 21 21 22 14 23
REMARK SMILES IDX 15 24 20 25 22 26 16 27 19 28 17 29 18 30
REMARK H PARENT 18 31
REMARK Flexibility Score: inf
ROOT
ATOM      1  C   UNL     1      12.129 -11.311  24.075  1.00  0.00     0.012 C 
ATOM      2  C   UNL     1      10.994 -11.578  23.069  1.00  0.00     0.012 C 
ENDROOT
BRANCH   1   3
ATOM      3  C   UNL     1      11.611 -10.578  25.298  1.00  0.00    -0.028 C 
ATOM      4  C   UNL     1      11.843  -9.277  25.561  1.00  0.00    -0.027 C 
BRANCH   4   5
ATOM      5  C   UNL     1      11.377  -8.641  26.858  1.00  0.00     0.014 C 
BRANCH   5   6
ATOM      6  C   UNL     1      10.586  -9.627  27.767  1.00  0.00     0.004 C 
ATOM      7  C   UNL     1       9.622  -8.995  28.779  1.00  0.00     0.004 C 
ENDBRANCH   5   6
BRANCH   5   8
ATOM      8  C   UNL     1      10.676  -7.274  26.579  1.00  0.00    -0.011 C 
ATOM      9  C   UNL     1       9.891  -7.283  25.255  1.00  0.00     0.008 C 
ATOM     10  C   UNL     1      11.619  -6.064  26.630  1.00  0.00     0.008 C 
ENDBRANCH   5   8
ENDBRANCH   4   5
ENDBRANCH   1   3
BRANCH   1  11
ATOM     11  C   UNL     1      12.960 -12.610  24.348  1.00  0.00     0.002 C 
ATOM     12  C   UNL     1      12.459 -13.536  25.481  1.00  0.00     0.005 C 
ATOM     13  C   UNL     1      14.483 -12.477  24.615  1.00  0.00    -0.026 C 
ATOM     14  C   UNL     1      13.692 -14.334  25.955  1.00  0.00     0.005 C 
ATOM     15  C   UNL     1      14.806 -13.934  24.987  1.00  0.00    -0.001 C 
ATOM     16  C   UNL     1      15.327 -12.112  23.378  1.00  0.00     0.007 C 
ATOM     17  C   UNL     1      14.762 -11.461  25.769  1.00  0.00     0.012 C 
ATOM     18  C   UNL     1      16.281 -14.151  25.401  1.00  0.00    -0.004 C 
ATOM     19  C   UNL     1      16.844 -12.264  23.662  1.00  0.00     0.005 C 
ATOM     20  C   UNL     1      17.286 -13.635  24.288  1.00  0.00    -0.001 C 
ATOM     21  C   UNL     1      16.564 -15.597  25.876  1.00  0.00     0.004 C 
ATOM     22  C   UNL     1      17.786 -14.704  23.218  1.00  0.00    -0.026 C 
ATOM     23  C   UNL     1      16.887 -16.562  24.738  1.00  0.00     0.004 C 
ATOM     24  C   UNL     1      18.101 -16.041  23.964  1.00  0.00    -0.002 C 
ATOM     25  C   UNL     1      19.135 -14.224  22.577  1.00  0.00     0.010 C 
ATOM     26  C   UNL     1      16.752 -14.899  22.069  1.00  0.00     0.012 C 
ATOM     27  C   UNL     1      18.713 -17.125  23.053  1.00  0.00     0.036 C 
ATOM     28  C   UNL     1      19.801 -15.284  21.676  1.00  0.00     0.032 C 
ATOM     29  C   UNL     1      20.015 -16.624  22.400  1.00  0.00     0.114 C 
BRANCH  29  30
ATOM     30  O   UNL     1      21.025 -16.468  23.370  1.00  0.00    -0.393 OA
ATOM     31  H   UNL     1      21.844 -16.183  22.882  1.00  0.00     0.210 HD
ENDBRANCH  29  30
ENDBRANCH   1  11
TORSDOF 6
ENDMDL
MODEL 5
REMARK VINA RESULT:    -5.984      2.336      4.009
REMARK INTER + INTRA:          -8.934
REMARK INTER:                  -8.457
REMARK INTRA:                  -0.477
REMARK UNBOUND:                -1.026
REMARK SMILES CC[C@@H](C=C[C@H](C)[C@@H]1CC[C@@H]2[C@H]3CC[C@H]4C[C@H](O)CC[C@]4(C)[C@H]3CC[C@]21C)C(C)C
REMARK SMILES IDX 6 1 7 2 5 3 4 4 3 5 2 6 1 7 28 8 29 9 30 10 8 11 9 12 26 13
REMARK SMILES IDX 10 14 11 15 25 16 27 17 12 18 24 19 23 20 13 21 21 22 14 23
REMARK SMILES IDX 15 24 20 25 22 26 16 27 19 28 17 29 18 30
REMARK H PARENT 18 31
REMARK Flexibility Score: inf
ROOT
ATOM      1  C   UNL     1      12.871 -11.261  25.715  1.00  0.00     0.012 C 
ATOM      2  C   UNL     1      14.173 -10.489  25.999  1.00  0.00     0.012 C 
ENDROOT
BRANCH   1   3
ATOM      3  C   UNL     1      11.687 -10.316  25.629  1.00  0.00    -0.028 C 
ATOM      4  C   UNL     1      11.424  -9.342  26.521  1.00  0.00    -0.027 C 
BRANCH   4   5
ATOM      5  C   UNL     1      10.161  -8.504  26.423  1.00  0.00     0.014 C 
BRANCH   5   6
ATOM      6  C   UNL     1      10.296  -7.322  25.418  1.00  0.00     0.004 C 
ATOM      7  C   UNL     1      10.750  -5.979  26.004  1.00  0.00     0.004 C 
ENDBRANCH   5   6
BRANCH   5   8
ATOM      8  C   UNL     1       9.643  -8.121  27.845  1.00  0.00    -0.011 C 
ATOM      9  C   UNL     1       9.954  -9.208  28.889  1.00  0.00     0.008 C 
ATOM     10  C   UNL     1       8.154  -7.750  27.891  1.00  0.00     0.008 C 
ENDBRANCH   5   8
ENDBRANCH   4   5
ENDBRANCH   1   3
BRANCH   1  11
ATOM     11  C   UNL     1      13.052 -12.253  24.518  1.00  0.00     0.002 C 
ATOM     12  C   UNL     1      11.800 -13.042  24.066  1.00  0.00     0.005 C 
ATOM     13  C   UNL     1      14.166 -13.331  24.607  1.00  0.00    -0.026 C 
ATOM     14  C   UNL     1      12.327 -14.315  23.374  1.00  0.00     0.005 C 
ATOM     15  C   UNL     1      13.845 -14.135  23.336  1.00  0.00    -0.001 C 
ATOM     16  C   UNL     1      15.602 -12.790  24.468  1.00  0.00     0.007 C 
ATOM     17  C   UNL     1      14.034 -14.164  25.923  1.00  0.00     0.012 C 
ATOM     18  C   UNL     1      14.749 -15.377  23.149  1.00  0.00    -0.004 C 
ATOM     19  C   UNL     1      16.626 -13.941  24.296  1.00  0.00     0.005 C 
ATOM     20  C   UNL     1      16.288 -14.994  23.180  1.00  0.00    -0.001 C 
ATOM     21  C   UNL     1      14.344 -16.235  21.926  1.00  0.00     0.004 C 
ATOM     22  C   UNL     1      16.985 -14.699  21.779  1.00  0.00    -0.026 C 
ATOM     23  C   UNL     1      14.963 -15.759  20.614  1.00  0.00     0.004 C 
ATOM     24  C   UNL     1      16.488 -15.761  20.745  1.00  0.00    -0.002 C 
ATOM     25  C   UNL     1      18.536 -14.892  21.904  1.00  0.00     0.010 C 
ATOM     26  C   UNL     1      16.721 -13.240  21.298  1.00  0.00     0.012 C 
ATOM     27  C   UNL     1      17.186 -15.659  19.373  1.00  0.00     0.036 C 
ATOM     28  C   UNL     1      19.278 -14.824  20.554  1.00  0.00     0.032 C 
ATOM     29  C   UNL     1      18.712 -15.811  19.519  1.00  0.00     0.114 C 
BRANCH  29  30
ATOM     30  O   UNL     1      19.042 -17.125  19.906  1.00  0.00    -0.393 OA
ATOM     31  H   UNL     1      19.953 -17.305  19.550  1.00  0.00     0.210 HD
ENDBRANCH  29  30
ENDBRANCH   1  11
TORSDOF 6
ENDMDL
MODEL 6
REMARK VINA RESULT:    -5.940      9.296     13.734
REMARK INTER + INTRA:          -8.876
REMARK INTER:                  -8.281
REMARK INTRA:                  -0.595
REMARK UNBOUND:                -1.026
REMARK SMILES CC[C@@H](C=C[C@H](C)[C@@H]1CC[C@@H]2[C@H]3CC[C@H]4C[C@H](O)CC[C@]4(C)[C@H]3CC[C@]21C)C(C)C
REMARK SMILES IDX 6 1 7 2 5 3 4 4 3 5 2 6 1 7 28 8 29 9 30 10 8 11 9 12 26 13
REMARK SMILES IDX 10 14 11 15 25 16 27 17 12 18 24 19 23 20 13 21 21 22 14 23
REMARK SMILES IDX 15 24 20 25 22 26 16 27 19 28 17 29 18 30
REMARK H PARENT 18 31
REMARK Flexibility Score: inf
ROOT
ATOM      1  C   UNL     1      12.775   1.278  25.905  1.00  0.00     0.012 C 
ATOM      2  C   UNL     1      12.123   2.213  24.869  1.00  0.00     0.012 C 
ENDROOT
BRANCH   1   3
ATOM      3  C   UNL     1      12.752  -0.162  25.428  1.00  0.00    -0.028 C 
ATOM      4  C   UNL     1      11.918  -1.107  25.902  1.00  0.00    -0.027 C 
BRANCH   4   5
ATOM      5  C   UNL     1      12.026  -2.552  25.447  1.00  0.00     0.014 C 
BRANCH   5   6
ATOM      6  C   UNL     1      10.644  -3.182  25.098  1.00  0.00     0.004 C 
ATOM      7  C   UNL     1      10.527  -4.701  25.271  1.00  0.00     0.004 C 
ENDBRANCH   5   6
BRANCH   5   8
ATOM      8  C   UNL     1      12.909  -3.376  26.437  1.00  0.00    -0.011 C 
ATOM      9  C   UNL     1      13.188  -2.609  27.742  1.00  0.00     0.008 C 
ATOM     10  C   UNL     1      14.223  -3.886  25.829  1.00  0.00     0.008 C 
ENDBRANCH   5   8
ENDBRANCH   4   5
ENDBRANCH   1   3
BRANCH   1  11
ATOM     11  C   UNL     1      14.164   1.830  26.369  1.00  0.00     0.002 C 
ATOM     12  C   UNL     1      14.968   2.660  25.342  1.00  0.00     0.005 C 
ATOM     13  C   UNL     1      15.205   0.833  26.947  1.00  0.00    -0.026 C 
ATOM     14  C   UNL     1      16.447   2.546  25.765  1.00  0.00     0.005 C 
ATOM     15  C   UNL     1      16.412   1.777  27.086  1.00  0.00    -0.001 C 
ATOM     16  C   UNL     1      14.873   0.290  28.350  1.00  0.00     0.007 C 
ATOM     17  C   UNL     1      15.451  -0.353  25.959  1.00  0.00     0.012 C 
ATOM     18  C   UNL     1      17.694   1.066  27.581  1.00  0.00    -0.004 C 
ATOM     19  C   UNL     1      16.075  -0.474  28.961  1.00  0.00     0.005 C 
ATOM     20  C   UNL     1      17.448   0.288  28.941  1.00  0.00    -0.001 C 
ATOM     21  C   UNL     1      18.926   2.004  27.612  1.00  0.00     0.004 C 
ATOM     22  C   UNL     1      17.773   1.073  30.289  1.00  0.00    -0.026 C 
ATOM     23  C   UNL     1      19.044   2.814  28.901  1.00  0.00     0.004 C 
ATOM     24  C   UNL     1      19.112   1.857  30.094  1.00  0.00    -0.002 C 
ATOM     25  C   UNL     1      18.021   0.052  31.452  1.00  0.00     0.010 C 
ATOM     26  C   UNL     1      16.599   2.007  30.711  1.00  0.00     0.012 C 
ATOM     27  C   UNL     1      19.602   2.564  31.375  1.00  0.00     0.036 C 
ATOM     28  C   UNL     1      18.539   0.708  32.750  1.00  0.00     0.032 C 
ATOM     29  C   UNL     1      19.802   1.553  32.519  1.00  0.00     0.114 C 
BRANCH  29  30
ATOM     30  O   UNL     1      20.885   0.697  32.238  1.00  0.00    -0.393 OA
ATOM     31  H   UNL     1      21.170   0.305  33.107  1.00  0.00     0.210 HD
ENDBRANCH  29  30
ENDBRANCH   1  11
TORSDOF 6
ENDMDL
MODEL 7
REMARK VINA RESULT:    -5.833      6.943     10.501
REMARK INTER + INTRA:          -8.735
REMARK INTER:                  -7.375
REMARK INTRA:                  -1.360
REMARK UNBOUND:                -1.026
REMARK SMILES CC[C@@H](C=C[C@H](C)[C@@H]1CC[C@@H]2[C@H]3CC[C@H]4C[C@H](O)CC[C@]4(C)[C@H]3CC[C@]21C)C(C)C
REMARK SMILES IDX 6 1 7 2 5 3 4 4 3 5 2 6 1 7 28 8 29 9 30 10 8 11 9 12 26 13
REMARK SMILES IDX 10 14 11 15 25 16 27 17 12 18 24 19 23 20 13 21 21 22 14 23
REMARK SMILES IDX 15 24 20 25 22 26 16 27 19 28 17 29 18 30
REMARK H PARENT 18 31
REMARK Flexibility Score: inf
ROOT
ATOM      1  C   UNL     1      17.453  -8.945  19.019  1.00  0.00     0.012 C 
ATOM      2  C   UNL     1      17.444  -7.794  17.997  1.00  0.00     0.012 C 
ENDROOT
BRANCH   1   3
ATOM      3  C   UNL     1      17.581 -10.288  18.325  1.00  0.00    -0.028 C 
ATOM      4  C   UNL     1      17.113 -11.449  18.822  1.00  0.00    -0.027 C 
BRANCH   4   5
ATOM      5  C   UNL     1      17.371 -12.769  18.116  1.00  0.00     0.014 C 
BRANCH   5   6
ATOM      6  C   UNL     1      16.132 -13.714  18.127  1.00  0.00     0.004 C 
ATOM      7  C   UNL     1      14.788 -13.067  18.482  1.00  0.00     0.004 C 
ENDBRANCH   5   6
BRANCH   5   8
ATOM      8  C   UNL     1      18.706 -13.406  18.612  1.00  0.00    -0.011 C 
ATOM      9  C   UNL     1      18.956 -13.141  20.108  1.00  0.00     0.008 C 
ATOM     10  C   UNL     1      19.938 -13.002  17.789  1.00  0.00     0.008 C 
ENDBRANCH   5   8
ENDBRANCH   4   5
ENDBRANCH   1   3
BRANCH   1  11
ATOM     11  C   UNL     1      18.470  -8.666  20.176  1.00  0.00     0.002 C 
ATOM     12  C   UNL     1      19.781  -9.487  20.171  1.00  0.00     0.005 C 
ATOM     13  C   UNL     1      17.971  -8.761  21.644  1.00  0.00    -0.026 C 
ATOM     14  C   UNL     1      20.276  -9.507  21.631  1.00  0.00     0.005 C 
ATOM     15  C   UNL     1      19.311  -8.588  22.380  1.00  0.00    -0.001 C 
ATOM     16  C   UNL     1      17.043  -7.614  22.088  1.00  0.00     0.007 C 
ATOM     17  C   UNL     1      17.284 -10.138  21.913  1.00  0.00     0.012 C 
ATOM     18  C   UNL     1      19.188  -8.712  23.917  1.00  0.00    -0.004 C 
ATOM     19  C   UNL     1      16.812  -7.633  23.620  1.00  0.00     0.005 C 
ATOM     20  C   UNL     1      18.108  -7.710  24.504  1.00  0.00    -0.001 C 
ATOM     21  C   UNL     1      20.558  -8.645  24.636  1.00  0.00     0.004 C 
ATOM     22  C   UNL     1      18.637  -6.293  25.003  1.00  0.00    -0.026 C 
ATOM     23  C   UNL     1      21.026  -7.222  24.928  1.00  0.00     0.004 C 
ATOM     24  C   UNL     1      19.974  -6.511  25.784  1.00  0.00    -0.002 C 
ATOM     25  C   UNL     1      17.621  -5.675  26.025  1.00  0.00     0.010 C 
ATOM     26  C   UNL     1      18.801  -5.289  23.823  1.00  0.00     0.012 C 
ATOM     27  C   UNL     1      20.528  -5.222  26.427  1.00  0.00     0.036 C 
ATOM     28  C   UNL     1      18.140  -4.397  26.716  1.00  0.00     0.032 C 
ATOM     29  C   UNL     1      19.503  -4.607  27.397  1.00  0.00     0.114 C 
BRANCH  29  30
ATOM     30  O   UNL     1      19.332  -5.434  28.525  1.00  0.00    -0.393 OA
ATOM     31  H   UNL     1      20.214  -5.859  28.701  1.00  0.00     0.210 HD
ENDBRANCH  29  30
ENDBRANCH   1  11
TORSDOF 6
ENDMDL
MODEL 8
REMARK VINA RESULT:    -5.824      1.449      3.103
REMARK INTER + INTRA:          -8.722
REMARK INTER:                  -7.820
REMARK INTRA:                  -0.902
REMARK UNBOUND:                -1.026
REMARK SMILES CC[C@@H](C=C[C@H](C)[C@@H]1CC[C@@H]2[C@H]3CC[C@H]4C[C@H](O)CC[C@]4(C)[C@H]3CC[C@]21C)C(C)C
REMARK SMILES IDX 6 1 7 2 5 3 4 4 3 5 2 6 1 7 28 8 29 9 30 10 8 11 9 12 26 13
REMARK SMILES IDX 10 14 11 15 25 16 27 17 12 18 24 19 23 20 13 21 21 22 14 23
REMARK SMILES IDX 15 24 20 25 22 26 16 27 19 28 17 29 18 30
REMARK H PARENT 18 31
REMARK Flexibility Score: inf
ROOT
ATOM      1  C   UNL     1      12.329  -9.125  25.687  1.00  0.00     0.012 C 
ATOM      2  C   UNL     1      13.094  -7.861  25.253  1.00  0.00     0.012 C 
ENDROOT
BRANCH   1   3
ATOM      3  C   UNL     1      10.875  -8.808  25.981  1.00  0.00    -0.028 C 
ATOM      4  C   UNL     1      10.430  -8.281  27.138  1.00  0.00    -0.027 C 
BRANCH   4   5
ATOM      5  C   UNL     1       8.946  -8.087  27.396  1.00  0.00     0.014 C 
BRANCH   5   6
ATOM      6  C   UNL     1       8.470  -6.629  27.126  1.00  0.00     0.004 C 
ATOM      7  C   UNL     1       8.832  -6.038  25.757  1.00  0.00     0.004 C 
ENDBRANCH   5   6
BRANCH   5   8
ATOM      8  C   UNL     1       8.548  -8.678  28.785  1.00  0.00    -0.011 C 
ATOM      9  C   UNL     1       7.193  -8.139  29.279  1.00  0.00     0.008 C 
ATOM     10  C   UNL     1       9.618  -8.501  29.872  1.00  0.00     0.008 C 
ENDBRANCH   5   8
ENDBRANCH   4   5
ENDBRANCH   1   3
BRANCH   1  11
ATOM     11  C   UNL     1      12.591 -10.311  24.699  1.00  0.00     0.002 C 
ATOM     12  C   UNL     1      11.375 -10.847  23.909  1.00  0.00     0.005 C 
ATOM     13  C   UNL     1      13.283 -11.591  25.240  1.00  0.00    -0.026 C 
ATOM     14  C   UNL     1      11.719 -12.303  23.533  1.00  0.00     0.005 C 
ATOM     15  C   UNL     1      13.163 -12.492  23.999  1.00  0.00    -0.001 C 
ATOM     16  C   UNL     1      14.782 -11.432  25.558  1.00  0.00     0.007 C 
ATOM     17  C   UNL     1      12.529 -12.148  26.491  1.00  0.00     0.012 C 
ATOM     18  C   UNL     1      13.704 -13.923  24.223  1.00  0.00    -0.004 C 
ATOM     19  C   UNL     1      15.453 -12.802  25.830  1.00  0.00     0.005 C 
ATOM     20  C   UNL     1      15.201 -13.911  24.747  1.00  0.00    -0.001 C 
ATOM     21  C   UNL     1      13.477 -14.848  23.001  1.00  0.00     0.004 C 
ATOM     22  C   UNL     1      16.349 -14.017  23.648  1.00  0.00    -0.026 C 
ATOM     23  C   UNL     1      14.576 -14.747  21.946  1.00  0.00     0.004 C 
ATOM     24  C   UNL     1      15.924 -15.085  22.588  1.00  0.00    -0.002 C 
ATOM     25  C   UNL     1      17.670 -14.545  24.307  1.00  0.00     0.010 C 
ATOM     26  C   UNL     1      16.657 -12.633  22.999  1.00  0.00     0.012 C 
ATOM     27  C   UNL     1      17.011 -15.370  21.531  1.00  0.00     0.036 C 
ATOM     28  C   UNL     1      18.782 -14.870  23.288  1.00  0.00     0.032 C 
ATOM     29  C   UNL     1      18.315 -15.850  22.198  1.00  0.00     0.114 C 
BRANCH  29  30
ATOM     30  O   UNL     1      18.136 -17.125  22.770  1.00  0.00    -0.393 OA
ATOM     31  H   UNL     1      17.555 -17.637  22.145  1.00  0.00     0.210 HD
ENDBRANCH  29  30
ENDBRANCH   1  11
TORSDOF 6
ENDMDL
MODEL 9
REMARK VINA RESULT:    -5.748      3.334      6.456
REMARK INTER + INTRA:          -8.621
REMARK INTER:                  -7.557
REMARK INTRA:                  -1.065
REMARK UNBOUND:                -1.026
REMARK SMILES CC[C@@H](C=C[C@H](C)[C@@H]1CC[C@@H]2[C@H]3CC[C@H]4C[C@H](O)CC[C@]4(C)[C@H]3CC[C@]21C)C(C)C
REMARK SMILES IDX 6 1 7 2 5 3 4 4 3 5 2 6 1 7 28 8 29 9 30 10 8 11 9 12 26 13
REMARK SMILES IDX 10 14 11 15 25 16 27 17 12 18 24 19 23 20 13 21 21 22 14 23
REMARK SMILES IDX 15 24 20 25 22 26 16 27 19 28 17 29 18 30
REMARK H PARENT 18 31
REMARK Flexibility Score: inf
ROOT
ATOM      1  C   UNL     1      13.883 -15.263  24.812  1.00  0.00     0.012 C 
ATOM      2  C   UNL     1      14.153 -16.125  26.059  1.00  0.00     0.012 C 
ENDROOT
BRANCH   1   3
ATOM      3  C   UNL     1      13.257 -13.935  25.194  1.00  0.00    -0.028 C 
ATOM      4  C   UNL     1      12.192 -13.389  24.574  1.00  0.00    -0.027 C 
BRANCH   4   5
ATOM      5  C   UNL     1      11.686 -12.007  24.948  1.00  0.00     0.014 C 
BRANCH   5   6
ATOM      6  C   UNL     1      11.368 -11.123  23.706  1.00  0.00     0.004 C 
ATOM      7  C   UNL     1      10.951 -11.866  22.431  1.00  0.00     0.004 C 
ENDBRANCH   5   6
BRANCH   5   8
ATOM      8  C   UNL     1      12.614 -11.353  26.019  1.00  0.00    -0.011 C 
ATOM      9  C   UNL     1      11.817 -10.769  27.200  1.00  0.00     0.008 C 
ATOM     10  C   UNL     1      13.577 -10.298  25.455  1.00  0.00     0.008 C 
ENDBRANCH   5   8
ENDBRANCH   4   5
ENDBRANCH   1   3
BRANCH   1  11
ATOM     11  C   UNL     1      15.146 -15.190  23.890  1.00  0.00     0.002 C 
ATOM     12  C   UNL     1      16.170 -16.343  24.012  1.00  0.00     0.005 C 
ATOM     13  C   UNL     1      16.018 -13.906  23.922  1.00  0.00    -0.026 C 
ATOM     14  C   UNL     1      17.518 -15.768  23.530  1.00  0.00     0.005 C 
ATOM     15  C   UNL     1      17.182 -14.364  23.026  1.00  0.00    -0.001 C 
ATOM     16  C   UNL     1      15.377 -12.671  23.261  1.00  0.00     0.007 C 
ATOM     17  C   UNL     1      16.454 -13.563  25.384  1.00  0.00     0.012 C 
ATOM     18  C   UNL     1      18.312 -13.315  22.901  1.00  0.00    -0.004 C 
ATOM     19  C   UNL     1      16.403 -11.521  23.093  1.00  0.00     0.005 C 
ATOM     20  C   UNL     1      17.760 -11.913  22.407  1.00  0.00    -0.001 C 
ATOM     21  C   UNL     1      19.522 -13.833  22.086  1.00  0.00     0.004 C 
ATOM     22  C   UNL     1      17.796 -11.637  20.838  1.00  0.00    -0.026 C 
ATOM     23  C   UNL     1      19.370 -13.644  20.579  1.00  0.00     0.004 C 
ATOM     24  C   UNL     1      19.158 -12.158  20.275  1.00  0.00    -0.002 C 
ATOM     25  C   UNL     1      17.765 -10.093  20.568  1.00  0.00     0.010 C 
ATOM     26  C   UNL     1      16.574 -12.276  20.111  1.00  0.00     0.012 C 
ATOM     27  C   UNL     1      19.368 -11.839  18.780  1.00  0.00     0.036 C 
ATOM     28  C   UNL     1      17.997  -9.720  19.089  1.00  0.00     0.032 C 
ATOM     29  C   UNL     1      19.295 -10.322  18.526  1.00  0.00     0.114 C 
BRANCH  29  30
ATOM     30  O   UNL     1      20.398  -9.670  19.112  1.00  0.00    -0.393 OA
ATOM     31  H   UNL     1      21.212 -10.138  18.783  1.00  0.00     0.210 HD
ENDBRANCH  29  30
ENDBRANCH   1  11
TORSDOF 6
ENDMDL
