MODEL 1
REMARK VINA RESULT:    -3.400      0.000      0.000
REMARK INTER + INTRA:          -4.859
REMARK INTER:                  -4.592
REMARK INTRA:                  -0.267
REMARK UNBOUND:                -0.267
REMARK SMILES C=C1C(=O)O[C@@H]2[C@H]3O[C@@]3(C)CCC=C(C)CC[C@@H]12
REMARK SMILES IDX 6 1 18 2 2 3 1 4 3 5 4 6 5 7 17 8 16 9 14 10 15 11 13 12
REMARK SMILES IDX 7 14 9 15 8 16 10 17 11 18 12 19
REMARK H PARENT
REMARK Flexibility Score: 70.00
ROOT
ATOM      1  C   UNL     1      45.366  29.952  26.093  1.00  0.00     0.216 C 
ATOM      2  C   UNL     1      44.036  30.213  26.883  1.00  0.00     0.070 C 
ATOM      3  C   UNL     1      44.422  29.976  28.312  1.00  0.00     0.037 C 
ATOM      4  C   UNL     1      43.637  30.151  29.375  1.00  0.00     0.021 C 
ATOM      5  C   UNL     1      45.810  29.595  28.341  1.00  0.00     0.334 C 
ATOM      6  O   UNL     1      46.473  29.316  29.375  1.00  0.00    -0.247 OA
ATOM      7  O   UNL     1      46.339  29.586  27.071  1.00  0.00    -0.455 OA
ENDROOT
BRANCH   2   8
ATOM      8  C   UNL     1      42.872  29.274  26.442  1.00  0.00     0.017 C 
BRANCH   8   9
ATOM      9  C   UNL     1      42.152  29.753  25.159  1.00  0.00     0.031 C 
BRANCH   9  10
ATOM     10  C   UNL     1      42.332  28.781  24.002  1.00  0.00    -0.077 C 
ATOM     11  C   UNL     1      41.666  27.429  24.074  1.00  0.00     0.039 C 
ATOM     12  C   UNL     1      43.058  29.070  22.895  1.00  0.00    -0.028 CG0
ATOM     13  G   UNL     1      43.815  30.353  22.663  1.00  0.00     0.000 G0
ENDBRANCH   9  10
ENDBRANCH   8   9
ENDBRANCH   2   8
BRANCH   1  14
ATOM     14  C   UNL     1      45.852  31.220  25.366  1.00  0.00     0.192 C 
ATOM     15  C   UNL     1      45.825  31.314  23.874  1.00  0.00     0.096 C 
ATOM     16  O   UNL     1      46.993  30.953  24.575  1.00  0.00    -0.362 OA
ATOM     17  C   UNL     1      45.956  32.706  23.253  1.00  0.00     0.045 C 
BRANCH  15  18
ATOM     18  C   UNL     1      45.309  30.167  22.986  1.00  0.00     0.042 C 
BRANCH  18  19
ATOM     19  C   UNL     1      43.820  30.351  22.649  1.00  0.00     0.030 CG0
ATOM     20  G   UNL     1      43.046  29.079  22.887  1.00  0.00     0.000 G0
ENDBRANCH  18  19
ENDBRANCH  15  18
ENDBRANCH   1  14
TORSDOF 0
ENDMDL
MODEL 2
REMARK VINA RESULT:    -3.388     11.575     13.245
REMARK INTER + INTRA:          -4.844
REMARK INTER:                  -4.599
REMARK INTRA:                  -0.245
REMARK UNBOUND:                -0.267
REMARK SMILES C=C1C(=O)O[C@@H]2[C@H]3O[C@@]3(C)CCC=C(C)CC[C@@H]12
REMARK SMILES IDX 6 1 18 2 2 3 1 4 3 5 4 6 5 7 17 8 16 9 14 10 15 11 13 12
REMARK SMILES IDX 7 14 9 15 8 16 10 17 11 18 12 19
REMARK H PARENT
REMARK Flexibility Score: 70.00
ROOT
ATOM      1  C   UNL     1      30.809  29.864  26.726  1.00  0.00     0.216 C 
ATOM      2  C   UNL     1      32.245  29.236  26.804  1.00  0.00     0.070 C 
ATOM      3  C   UNL     1      32.143  28.266  27.943  1.00  0.00     0.037 C 
ATOM      4  C   UNL     1      33.099  27.430  28.347  1.00  0.00     0.021 C 
ATOM      5  C   UNL     1      30.809  28.345  28.478  1.00  0.00     0.334 C 
ATOM      6  O   UNL     1      30.366  27.673  29.446  1.00  0.00    -0.247 OA
ATOM      7  O   UNL     1      30.057  29.259  27.775  1.00  0.00    -0.455 OA
ENDROOT
BRANCH   2   8
ATOM      8  C   UNL     1      33.360  30.297  27.053  1.00  0.00     0.017 C 
BRANCH   8   9
ATOM      9  C   UNL     1      34.145  30.672  25.775  1.00  0.00     0.031 C 
BRANCH   9  10
ATOM     10  C   UNL     1      34.053  32.157  25.458  1.00  0.00    -0.077 C 
ATOM     11  C   UNL     1      34.960  33.116  26.187  1.00  0.00     0.039 C 
ATOM     12  C   UNL     1      33.198  32.670  24.539  1.00  0.00    -0.028 CG0
ATOM     13  G   UNL     1      32.201  31.869  23.740  1.00  0.00     0.000 G0
ENDBRANCH   9  10
ENDBRANCH   8   9
ENDBRANCH   2   8
BRANCH   1  14
ATOM     14  C   UNL     1      30.124  29.547  25.382  1.00  0.00     0.192 C 
ATOM     15  C   UNL     1      30.125  30.537  24.261  1.00  0.00     0.096 C 
ATOM     16  O   UNL     1      29.034  30.415  25.145  1.00  0.00    -0.362 OA
ATOM     17  C   UNL     1      29.772  30.020  22.865  1.00  0.00     0.045 C 
BRANCH  15  18
ATOM     18  C   UNL     1      30.809  31.911  24.377  1.00  0.00     0.042 C 
BRANCH  18  19
ATOM     19  C   UNL     1      32.205  31.894  23.733  1.00  0.00     0.030 CG0
ATOM     20  G   UNL     1      33.196  32.674  24.559  1.00  0.00     0.000 G0
ENDBRANCH  18  19
ENDBRANCH  15  18
ENDBRANCH   1  14
TORSDOF 0
ENDMDL
MODEL 3
REMARK VINA RESULT:    -3.357      2.879      5.179
REMARK INTER + INTRA:          -4.802
REMARK INTER:                  -4.673
REMARK INTRA:                  -0.128
REMARK UNBOUND:                -0.267
REMARK SMILES C=C1C(=O)O[C@@H]2[C@H]3O[C@@]3(C)CCC=C(C)CC[C@@H]12
REMARK SMILES IDX 6 1 18 2 2 3 1 4 3 5 4 6 5 7 17 8 16 9 14 10 15 11 13 12
REMARK SMILES IDX 7 14 9 15 8 16 10 17 11 18 12 19
REMARK H PARENT
REMARK Flexibility Score: 70.00
ROOT
ATOM      1  C   UNL     1      45.890  29.454  25.866  1.00  0.00     0.216 C 
ATOM      2  C   UNL     1      44.399  29.706  25.449  1.00  0.00     0.070 C 
ATOM      3  C   UNL     1      44.493  30.840  24.473  1.00  0.00     0.037 C 
ATOM      4  C   UNL     1      43.481  31.364  23.781  1.00  0.00     0.021 C 
ATOM      5  C   UNL     1      45.878  31.217  24.359  1.00  0.00     0.334 C 
ATOM      6  O   UNL     1      46.331  32.138  23.630  1.00  0.00    -0.247 OA
ATOM      7  O   UNL     1      46.666  30.419  25.157  1.00  0.00    -0.455 OA
ENDROOT
BRANCH   2   8
ATOM      8  C   UNL     1      43.482  30.066  26.658  1.00  0.00     0.017 C 
BRANCH   8   9
ATOM      9  C   UNL     1      43.387  28.938  27.711  1.00  0.00     0.031 C 
BRANCH   9  10
ATOM     10  C   UNL     1      44.213  29.238  28.953  1.00  0.00    -0.077 C 
ATOM     11  C   UNL     1      43.904  30.479  29.752  1.00  0.00     0.039 C 
ATOM     12  C   UNL     1      45.217  28.439  29.389  1.00  0.00    -0.028 CG0
ATOM     13  G   UNL     1      45.684  27.179  28.703  1.00  0.00     0.000 G0
ENDBRANCH   9  10
ENDBRANCH   8   9
ENDBRANCH   2   8
BRANCH   1  14
ATOM     14  C   UNL     1      46.363  28.046  25.456  1.00  0.00     0.192 C 
ATOM     15  C   UNL     1      46.912  27.090  26.466  1.00  0.00     0.096 C 
ATOM     16  O   UNL     1      47.752  27.890  25.665  1.00  0.00    -0.362 OA
ATOM     17  C   UNL     1      47.000  25.616  26.067  1.00  0.00     0.045 C 
BRANCH  15  18
ATOM     18  C   UNL     1      47.031  27.448  27.959  1.00  0.00     0.042 C 
BRANCH  18  19
ATOM     19  C   UNL     1      45.710  27.185  28.701  1.00  0.00     0.030 CG0
ATOM     20  G   UNL     1      45.217  28.429  29.396  1.00  0.00     0.000 G0
ENDBRANCH  18  19
ENDBRANCH  15  18
ENDBRANCH   1  14
TORSDOF 0
ENDMDL
MODEL 4
REMARK VINA RESULT:    -3.266      1.635      2.091
REMARK INTER + INTRA:          -4.678
REMARK INTER:                  -4.441
REMARK INTRA:                  -0.237
REMARK UNBOUND:                -0.267
REMARK SMILES C=C1C(=O)O[C@@H]2[C@H]3O[C@@]3(C)CCC=C(C)CC[C@@H]12
REMARK SMILES IDX 6 1 18 2 2 3 1 4 3 5 4 6 5 7 17 8 16 9 14 10 15 11 13 12
REMARK SMILES IDX 7 14 9 15 8 16 10 17 11 18 12 19
REMARK H PARENT
REMARK Flexibility Score: 70.00
ROOT
ATOM      1  C   UNL     1      46.157  29.331  25.923  1.00  0.00     0.216 C 
ATOM      2  C   UNL     1      45.703  29.304  27.425  1.00  0.00     0.070 C 
ATOM      3  C   UNL     1      46.711  28.411  28.082  1.00  0.00     0.037 C 
ATOM      4  C   UNL     1      46.787  28.141  29.385  1.00  0.00     0.021 C 
ATOM      5  C   UNL     1      47.627  27.952  27.070  1.00  0.00     0.334 C 
ATOM      6  O   UNL     1      48.604  27.180  27.260  1.00  0.00    -0.247 OA
ATOM      7  O   UNL     1      47.302  28.484  25.843  1.00  0.00    -0.455 OA
ENDROOT
BRANCH   2   8
ATOM      8  C   UNL     1      44.252  28.765  27.612  1.00  0.00     0.017 C 
BRANCH   8   9
ATOM      9  C   UNL     1      43.165  29.751  27.123  1.00  0.00     0.031 C 
BRANCH   9  10
ATOM     10  C   UNL     1      42.458  29.253  25.870  1.00  0.00    -0.077 C 
ATOM     11  C   UNL     1      41.640  27.989  25.948  1.00  0.00     0.039 C 
ATOM     12  C   UNL     1      42.518  29.895  24.678  1.00  0.00    -0.028 CG0
ATOM     13  G   UNL     1      43.310  31.150  24.407  1.00  0.00     0.000 G0
ENDBRANCH   9  10
ENDBRANCH   8   9
ENDBRANCH   2   8
BRANCH   1  14
ATOM     14  C   UNL     1      46.562  30.749  25.478  1.00  0.00     0.192 C 
ATOM     15  C   UNL     1      45.819  31.460  24.392  1.00  0.00     0.096 C 
ATOM     16  O   UNL     1      47.014  30.757  24.139  1.00  0.00    -0.362 OA
ATOM     17  C   UNL     1      46.025  32.971  24.270  1.00  0.00     0.045 C 
BRANCH  15  18
ATOM     18  C   UNL     1      44.617  30.829  23.667  1.00  0.00     0.042 C 
BRANCH  18  19
ATOM     19  C   UNL     1      43.299  31.154  24.389  1.00  0.00     0.030 CG0
ATOM     20  G   UNL     1      42.516  29.900  24.687  1.00  0.00     0.000 G0
ENDBRANCH  18  19
ENDBRANCH  15  18
ENDBRANCH   1  14
TORSDOF 0
ENDMDL
MODEL 5
REMARK VINA RESULT:    -3.233      3.239      5.769
REMARK INTER + INTRA:          -4.635
REMARK INTER:                  -4.369
REMARK INTRA:                  -0.266
REMARK UNBOUND:                -0.267
REMARK SMILES C=C1C(=O)O[C@@H]2[C@H]3O[C@@]3(C)CCC=C(C)CC[C@@H]12
REMARK SMILES IDX 6 1 18 2 2 3 1 4 3 5 4 6 5 7 17 8 16 9 14 10 15 11 13 12
REMARK SMILES IDX 7 14 9 15 8 16 10 17 11 18 12 19
REMARK H PARENT
REMARK Flexibility Score: 70.00
ROOT
ATOM      1  C   UNL     1      44.394  29.203  25.974  1.00  0.00     0.216 C 
ATOM      2  C   UNL     1      45.877  29.450  25.523  1.00  0.00     0.070 C 
ATOM      3  C   UNL     1      45.740  29.949  24.116  1.00  0.00     0.037 C 
ATOM      4  C   UNL     1      46.734  30.369  23.334  1.00  0.00     0.021 C 
ATOM      5  C   UNL     1      44.339  29.964  23.783  1.00  0.00     0.334 C 
ATOM      6  O   UNL     1      43.851  30.323  22.680  1.00  0.00    -0.247 OA
ATOM      7  O   UNL     1      43.582  29.538  24.850  1.00  0.00    -0.455 OA
ENDROOT
BRANCH   2   8
ATOM      8  C   UNL     1      46.755  28.163  25.591  1.00  0.00     0.017 C 
BRANCH   8   9
ATOM      9  C   UNL     1      47.467  27.979  26.952  1.00  0.00     0.031 C 
BRANCH   9  10
ATOM     10  C   UNL     1      47.047  26.694  27.651  1.00  0.00    -0.077 C 
ATOM     11  C   UNL     1      47.575  25.378  27.138  1.00  0.00     0.039 C 
ATOM     12  C   UNL     1      46.222  26.669  28.726  1.00  0.00    -0.028 CG0
ATOM     13  G   UNL     1      45.577  27.879  29.354  1.00  0.00     0.000 G0
ENDBRANCH   9  10
ENDBRANCH   8   9
ENDBRANCH   2   8
BRANCH   1  14
ATOM     14  C   UNL     1      44.002  30.113  27.154  1.00  0.00     0.192 C 
ATOM     15  C   UNL     1      43.878  29.569  28.541  1.00  0.00     0.096 C 
ATOM     16  O   UNL     1      42.756  29.732  27.703  1.00  0.00    -0.362 OA
ATOM     17  C   UNL     1      43.862  30.575  29.693  1.00  0.00     0.045 C 
BRANCH  15  18
ATOM     18  C   UNL     1      44.139  28.089  28.871  1.00  0.00     0.042 C 
BRANCH  18  19
ATOM     19  C   UNL     1      45.576  27.875  29.374  1.00  0.00     0.030 CG0
ATOM     20  G   UNL     1      46.213  26.678  28.714  1.00  0.00     0.000 G0
ENDBRANCH  18  19
ENDBRANCH  15  18
ENDBRANCH   1  14
TORSDOF 0
ENDMDL
MODEL 6
REMARK VINA RESULT:    -3.178      2.588      3.733
REMARK INTER + INTRA:          -4.560
REMARK INTER:                  -4.312
REMARK INTRA:                  -0.249
REMARK UNBOUND:                -0.267
REMARK SMILES C=C1C(=O)O[C@@H]2[C@H]3O[C@@]3(C)CCC=C(C)CC[C@@H]12
REMARK SMILES IDX 6 1 18 2 2 3 1 4 3 5 4 6 5 7 17 8 16 9 14 10 15 11 13 12
REMARK SMILES IDX 7 14 9 15 8 16 10 17 11 18 12 19
REMARK H PARENT
REMARK Flexibility Score: 70.00
ROOT
ATOM      1  C   UNL     1      44.986  28.129  26.618  1.00  0.00     0.216 C 
ATOM      2  C   UNL     1      45.055  29.528  27.325  1.00  0.00     0.070 C 
ATOM      3  C   UNL     1      44.055  29.411  28.436  1.00  0.00     0.037 C 
ATOM      4  C   UNL     1      43.810  30.331  29.368  1.00  0.00     0.021 C 
ATOM      5  C   UNL     1      43.458  28.103  28.362  1.00  0.00     0.334 C 
ATOM      6  O   UNL     1      42.572  27.656  29.137  1.00  0.00    -0.247 OA
ATOM      7  O   UNL     1      43.998  27.380  27.322  1.00  0.00    -0.455 OA
ENDROOT
BRANCH   2   8
ATOM      8  C   UNL     1      44.712  30.710  26.368  1.00  0.00     0.017 C 
BRANCH   8   9
ATOM      9  C   UNL     1      45.875  31.091  25.423  1.00  0.00     0.031 C 
BRANCH   9  10
ATOM     10  C   UNL     1      45.546  30.809  23.963  1.00  0.00    -0.077 C 
ATOM     11  C   UNL     1      44.468  31.620  23.289  1.00  0.00     0.039 C 
ATOM     12  C   UNL     1      46.183  29.866  23.227  1.00  0.00    -0.028 CG0
ATOM     13  G   UNL     1      47.260  28.945  23.740  1.00  0.00     0.000 G0
ENDBRANCH   9  10
ENDBRANCH   8   9
ENDBRANCH   2   8
BRANCH   1  14
ATOM     14  C   UNL     1      46.330  27.380  26.710  1.00  0.00     0.192 C 
ATOM     15  C   UNL     1      47.148  27.106  25.489  1.00  0.00     0.096 C 
ATOM     16  O   UNL     1      46.275  26.142  26.032  1.00  0.00    -0.362 OA
ATOM     17  C   UNL     1      48.612  26.711  25.696  1.00  0.00     0.045 C 
BRANCH  15  18
ATOM     18  C   UNL     1      46.707  27.556  24.085  1.00  0.00     0.042 C 
BRANCH  18  19
ATOM     19  C   UNL     1      47.272  28.944  23.742  1.00  0.00     0.030 CG0
ATOM     20  G   UNL     1      46.192  29.861  23.225  1.00  0.00     0.000 G0
ENDBRANCH  18  19
ENDBRANCH  15  18
ENDBRANCH   1  14
TORSDOF 0
ENDMDL
MODEL 7
REMARK VINA RESULT:    -3.150     11.532     13.569
REMARK INTER + INTRA:          -4.522
REMARK INTER:                  -4.291
REMARK INTRA:                  -0.231
REMARK UNBOUND:                -0.267
REMARK SMILES C=C1C(=O)O[C@@H]2[C@H]3O[C@@]3(C)CCC=C(C)CC[C@@H]12
REMARK SMILES IDX 6 1 18 2 2 3 1 4 3 5 4 6 5 7 17 8 16 9 14 10 15 11 13 12
REMARK SMILES IDX 7 14 9 15 8 16 10 17 11 18 12 19
REMARK H PARENT
REMARK Flexibility Score: 70.00
ROOT
ATOM      1  C   UNL     1      31.148  28.917  27.151  1.00  0.00     0.216 C 
ATOM      2  C   UNL     1      32.374  29.879  27.338  1.00  0.00     0.070 C 
ATOM      3  C   UNL     1      31.814  31.230  27.011  1.00  0.00     0.037 C 
ATOM      4  C   UNL     1      32.464  32.390  27.102  1.00  0.00     0.021 C 
ATOM      5  C   UNL     1      30.430  31.064  26.651  1.00  0.00     0.334 C 
ATOM      6  O   UNL     1      29.643  31.988  26.313  1.00  0.00    -0.247 OA
ATOM      7  O   UNL     1      30.061  29.741  26.736  1.00  0.00    -0.455 OA
ENDROOT
BRANCH   2   8
ATOM      8  C   UNL     1      33.576  29.519  26.413  1.00  0.00     0.017 C 
BRANCH   8   9
ATOM      9  C   UNL     1      34.289  28.207  26.818  1.00  0.00     0.031 C 
BRANCH   9  10
ATOM     10  C   UNL     1      34.048  27.088  25.814  1.00  0.00    -0.077 C 
ATOM     11  C   UNL     1      34.563  27.249  24.406  1.00  0.00     0.039 C 
ATOM     12  C   UNL     1      33.398  25.940  26.123  1.00  0.00    -0.028 CG0
ATOM     13  G   UNL     1      32.791  25.620  27.466  1.00  0.00     0.000 G0
ENDBRANCH   9  10
ENDBRANCH   8   9
ENDBRANCH   2   8
BRANCH   1  14
ATOM     14  C   UNL     1      30.764  28.224  28.473  1.00  0.00     0.192 C 
ATOM     15  C   UNL     1      30.822  26.737  28.612  1.00  0.00     0.096 C 
ATOM     16  O   UNL     1      29.621  27.410  28.313  1.00  0.00    -0.362 OA
ATOM     17  C   UNL     1      30.799  26.160  30.029  1.00  0.00     0.045 C 
BRANCH  15  18
ATOM     18  C   UNL     1      31.269  25.819  27.460  1.00  0.00     0.042 C 
BRANCH  18  19
ATOM     19  C   UNL     1      32.792  25.606  27.477  1.00  0.00     0.030 CG0
ATOM     20  G   UNL     1      33.404  25.936  26.139  1.00  0.00     0.000 G0
ENDBRANCH  18  19
ENDBRANCH  15  18
ENDBRANCH   1  14
TORSDOF 0
ENDMDL
MODEL 8
REMARK VINA RESULT:    -3.093     10.665     12.065
REMARK INTER + INTRA:          -4.444
REMARK INTER:                  -4.173
REMARK INTRA:                  -0.271
REMARK UNBOUND:                -0.267
REMARK SMILES C=C1C(=O)O[C@@H]2[C@H]3O[C@@]3(C)CCC=C(C)CC[C@@H]12
REMARK SMILES IDX 6 1 18 2 2 3 1 4 3 5 4 6 5 7 17 8 16 9 14 10 15 11 13 12
REMARK SMILES IDX 7 14 9 15 8 16 10 17 11 18 12 19
REMARK H PARENT
REMARK Flexibility Score: 70.00
ROOT
ATOM      1  C   UNL     1      33.068  29.136  26.306  1.00  0.00     0.216 C 
ATOM      2  C   UNL     1      32.222  29.616  27.538  1.00  0.00     0.070 C 
ATOM      3  C   UNL     1      31.923  28.346  28.276  1.00  0.00     0.037 C 
ATOM      4  C   UNL     1      31.286  28.250  29.442  1.00  0.00     0.021 C 
ATOM      5  C   UNL     1      32.507  27.255  27.541  1.00  0.00     0.334 C 
ATOM      6  O   UNL     1      32.452  26.039  27.864  1.00  0.00    -0.247 OA
ATOM      7  O   UNL     1      33.158  27.717  26.420  1.00  0.00    -0.455 OA
ENDROOT
BRANCH   2   8
ATOM      8  C   UNL     1      30.916  30.359  27.125  1.00  0.00     0.017 C 
BRANCH   8   9
ATOM      9  C   UNL     1      31.152  31.831  26.713  1.00  0.00     0.031 C 
BRANCH   9  10
ATOM     10  C   UNL     1      30.838  32.076  25.244  1.00  0.00    -0.077 C 
ATOM     11  C   UNL     1      29.405  31.992  24.781  1.00  0.00     0.039 C 
ATOM     12  C   UNL     1      31.785  32.377  24.322  1.00  0.00    -0.028 CG0
ATOM     13  G   UNL     1      33.264  32.473  24.596  1.00  0.00     0.000 G0
ENDBRANCH   9  10
ENDBRANCH   8   9
ENDBRANCH   2   8
BRANCH   1  14
ATOM     14  C   UNL     1      34.492  29.724  26.333  1.00  0.00     0.192 C 
ATOM     15  C   UNL     1      34.940  30.713  25.305  1.00  0.00     0.096 C 
ATOM     16  O   UNL     1      35.228  29.338  25.190  1.00  0.00    -0.362 OA
ATOM     17  C   UNL     1      36.202  31.523  25.609  1.00  0.00     0.045 C 
BRANCH  15  18
ATOM     18  C   UNL     1      34.015  31.203  24.177  1.00  0.00     0.042 C 
BRANCH  18  19
ATOM     19  C   UNL     1      33.278  32.490  24.581  1.00  0.00     0.030 CG0
ATOM     20  G   UNL     1      31.795  32.370  24.335  1.00  0.00     0.000 G0
ENDBRANCH  18  19
ENDBRANCH  15  18
ENDBRANCH   1  14
TORSDOF 0
ENDMDL
MODEL 9
REMARK VINA RESULT:    -2.933      3.974      5.822
REMARK INTER + INTRA:          -4.229
REMARK INTER:                  -4.018
REMARK INTRA:                  -0.211
REMARK UNBOUND:                -0.267
REMARK SMILES C=C1C(=O)O[C@@H]2[C@H]3O[C@@]3(C)CCC=C(C)CC[C@@H]12
REMARK SMILES IDX 6 1 18 2 2 3 1 4 3 5 4 6 5 7 17 8 16 9 14 10 15 11 13 12
REMARK SMILES IDX 7 14 9 15 8 16 10 17 11 18 12 19
REMARK H PARENT
REMARK Flexibility Score: 70.00
ROOT
ATOM      1  C   UNL     1      45.380  28.080  26.530  1.00  0.00     0.216 C 
ATOM      2  C   UNL     1      46.461  27.157  27.195  1.00  0.00     0.070 C 
ATOM      3  C   UNL     1      47.593  27.178  26.213  1.00  0.00     0.037 C 
ATOM      4  C   UNL     1      48.781  26.595  26.375  1.00  0.00     0.021 C 
ATOM      5  C   UNL     1      47.201  27.998  25.097  1.00  0.00     0.334 C 
ATOM      6  O   UNL     1      47.903  28.238  24.079  1.00  0.00    -0.247 OA
ATOM      7  O   UNL     1      45.937  28.508  25.289  1.00  0.00    -0.455 OA
ENDROOT
BRANCH   2   8
ATOM      8  C   UNL     1      45.949  25.706  27.448  1.00  0.00     0.017 C 
BRANCH   8   9
ATOM      9  C   UNL     1      45.724  25.388  28.945  1.00  0.00     0.031 C 
BRANCH   9  10
ATOM     10  C   UNL     1      44.290  24.968  29.234  1.00  0.00    -0.077 C 
ATOM     11  C   UNL     1      43.905  23.521  29.057  1.00  0.00     0.039 C 
ATOM     12  C   UNL     1      43.333  25.831  29.654  1.00  0.00    -0.028 CG0
ATOM     13  G   UNL     1      43.528  27.313  29.855  1.00  0.00     0.000 G0
ENDBRANCH   9  10
ENDBRANCH   8   9
ENDBRANCH   2   8
BRANCH   1  14
ATOM     14  C   UNL     1      45.087  29.323  27.393  1.00  0.00     0.192 C 
ATOM     15  C   UNL     1      43.976  29.325  28.393  1.00  0.00     0.096 C 
ATOM     16  O   UNL     1      43.814  29.862  27.100  1.00  0.00    -0.362 OA
ATOM     17  C   UNL     1      43.987  30.426  29.456  1.00  0.00     0.045 C 
BRANCH  15  18
ATOM     18  C   UNL     1      43.073  28.100  28.624  1.00  0.00     0.042 C 
BRANCH  18  19
ATOM     19  C   UNL     1      43.522  27.302  29.859  1.00  0.00     0.030 CG0
ATOM     20  G   UNL     1      43.342  25.820  29.646  1.00  0.00     0.000 G0
ENDBRANCH  18  19
ENDBRANCH  15  18
ENDBRANCH   1  14
TORSDOF 0
ENDMDL
