MODEL 1
REMARK VINA RESULT:    10.767      0.000      0.000
REMARK INTER + INTRA:          16.368
REMARK INTER:                  16.432
REMARK INTRA:                  -0.064
REMARK UNBOUND:                -0.064
REMARK SMILES O=C([O-])CCCCCCCCC(=O)[O-]
REMARK SMILES IDX 7 1 6 2 5 3 4 4 2 5 1 6 3 7 8 8 9 9 10 10 11 11 12 12 13 13
REMARK SMILES IDX 14 14
REMARK H PARENT
REMARK Flexibility Score: inf
ROOT
ATOM      1  C   UNL     1      53.392  55.585  24.421  1.00  0.00     0.000 C 
ENDROOT
BRANCH   1   2
ATOM      2  C   UNL     1      54.318  56.596  23.721  1.00  0.00     0.000 C 
BRANCH   2   3
ATOM      3  C   UNL     1      55.797  56.389  24.083  1.00  0.00     0.006 C 
BRANCH   3   4
ATOM      4  C   UNL     1      56.088  56.681  25.561  1.00  0.00     0.053 C 
BRANCH   4   5
ATOM      5  C   UNL     1      57.485  56.274  25.909  1.00  0.00     0.041 C 
ATOM      6  O   UNL     1      58.301  57.125  26.351  1.00  0.00    -0.550 OA
ATOM      7  O   UNL     1      57.901  54.966  25.699  1.00  0.00    -0.550 OA
ENDBRANCH   4   5
ENDBRANCH   3   4
ENDBRANCH   2   3
ENDBRANCH   1   2
BRANCH   1   8
ATOM      8  C   UNL     1      52.751  56.159  25.695  1.00  0.00     0.000 C 
BRANCH   8   9
ATOM      9  C   UNL     1      53.309  55.517  26.976  1.00  0.00     0.000 C 
BRANCH   9  10
ATOM     10  C   UNL     1      52.202  54.987  27.902  1.00  0.00     0.006 C 
BRANCH  10  11
ATOM     11  C   UNL     1      52.453  53.542  28.351  1.00  0.00     0.053 C 
BRANCH  11  12
ATOM     12  C   UNL     1      51.161  52.871  28.696  1.00  0.00     0.041 C 
ATOM     13  O   UNL     1      50.758  52.846  29.889  1.00  0.00    -0.550 OA
ATOM     14  O   UNL     1      50.376  52.317  27.693  1.00  0.00    -0.550 OA
ENDBRANCH  11  12
ENDBRANCH  10  11
ENDBRANCH   9  10
ENDBRANCH   8   9
ENDBRANCH   1   8
TORSDOF 9
ENDMDL
MODEL 2
REMARK VINA RESULT:    11.060      0.702      6.447
REMARK INTER + INTRA:          16.815
REMARK INTER:                  17.160
REMARK INTRA:                  -0.345
REMARK UNBOUND:                -0.064
REMARK SMILES O=C([O-])CCCCCCCCC(=O)[O-]
REMARK SMILES IDX 7 1 6 2 5 3 4 4 2 5 1 6 3 7 8 8 9 9 10 10 11 11 12 12 13 13
REMARK SMILES IDX 14 14
REMARK H PARENT
REMARK Flexibility Score: inf
ROOT
ATOM      1  C   UNL     1      53.630  55.454  26.296  1.00  0.00     0.000 C 
ENDROOT
BRANCH   1   2
ATOM      2  C   UNL     1      52.473  55.616  27.297  1.00  0.00     0.000 C 
BRANCH   2   3
ATOM      3  C   UNL     1      52.635  54.723  28.537  1.00  0.00     0.006 C 
BRANCH   3   4
ATOM      4  C   UNL     1      52.434  53.235  28.220  1.00  0.00     0.053 C 
BRANCH   4   5
ATOM      5  C   UNL     1      51.114  52.763  28.742  1.00  0.00     0.041 C 
ATOM      6  O   UNL     1      50.793  52.981  29.940  1.00  0.00    -0.550 OA
ATOM      7  O   UNL     1      50.259  52.041  27.920  1.00  0.00    -0.550 OA
ENDBRANCH   4   5
ENDBRANCH   3   4
ENDBRANCH   2   3
ENDBRANCH   1   2
BRANCH   1   8
ATOM      8  C   UNL     1      53.500  56.396  25.088  1.00  0.00     0.000 C 
BRANCH   8   9
ATOM      9  C   UNL     1      54.025  55.764  23.787  1.00  0.00     0.000 C 
BRANCH   9  10
ATOM     10  C   UNL     1      55.541  55.511  23.823  1.00  0.00     0.006 C 
BRANCH  10  11
ATOM     11  C   UNL     1      56.324  56.707  24.379  1.00  0.00     0.053 C 
BRANCH  11  12
ATOM     12  C   UNL     1      57.175  56.283  25.534  1.00  0.00     0.041 C 
ATOM     13  O   UNL     1      57.536  57.124  26.399  1.00  0.00    -0.550 OA
ATOM     14  O   UNL     1      57.530  54.948  25.683  1.00  0.00    -0.550 OA
ENDBRANCH  11  12
ENDBRANCH  10  11
ENDBRANCH   9  10
ENDBRANCH   8   9
ENDBRANCH   1   8
TORSDOF 9
ENDMDL
MODEL 3
REMARK VINA RESULT:    12.401     10.266     11.797
REMARK INTER + INTRA:          18.862
REMARK INTER:                  18.790
REMARK INTRA:                   0.071
REMARK UNBOUND:                -0.064
REMARK SMILES O=C([O-])CCCCCCCCC(=O)[O-]
REMARK SMILES IDX 7 1 6 2 5 3 4 4 2 5 1 6 3 7 8 8 9 9 10 10 11 11 12 12 13 13
REMARK SMILES IDX 14 14
REMARK H PARENT
REMARK Flexibility Score: inf
ROOT
ATOM      1  C   UNL     1      57.127  47.823  18.276  1.00  0.00     0.000 C 
ENDROOT
BRANCH   1   2
ATOM      2  C   UNL     1      55.880  47.953  19.169  1.00  0.00     0.000 C 
BRANCH   2   3
ATOM      3  C   UNL     1      56.060  47.276  20.536  1.00  0.00     0.006 C 
BRANCH   3   4
ATOM      4  C   UNL     1      56.851  48.144  21.524  1.00  0.00     0.053 C 
BRANCH   4   5
ATOM      5  C   UNL     1      57.569  47.285  22.516  1.00  0.00     0.041 C 
ATOM      6  O   UNL     1      58.827  47.238  22.520  1.00  0.00    -0.550 OA
ATOM      7  O   UNL     1      56.848  46.500  23.406  1.00  0.00    -0.550 OA
ENDBRANCH   4   5
ENDBRANCH   3   4
ENDBRANCH   2   3
ENDBRANCH   1   2
BRANCH   1   8
ATOM      8  C   UNL     1      56.940  48.491  16.904  1.00  0.00     0.000 C 
BRANCH   8   9
ATOM      9  C   UNL     1      55.717  49.422  16.863  1.00  0.00     0.000 C 
BRANCH   9  10
ATOM     10  C   UNL     1      55.929  50.637  15.946  1.00  0.00     0.006 C 
BRANCH  10  11
ATOM     11  C   UNL     1      54.838  50.764  14.875  1.00  0.00     0.053 C 
BRANCH  11  12
ATOM     12  C   UNL     1      53.694  49.851  15.184  1.00  0.00     0.041 C 
ATOM     13  O   UNL     1      52.610  50.319  15.622  1.00  0.00    -0.550 OA
ATOM     14  O   UNL     1      53.806  48.489  14.942  1.00  0.00    -0.550 OA
ENDBRANCH  11  12
ENDBRANCH  10  11
ENDBRANCH   9  10
ENDBRANCH   8   9
ENDBRANCH   1   8
TORSDOF 9
ENDMDL
MODEL 4
REMARK VINA RESULT:    12.993     13.133     14.410
REMARK INTER + INTRA:          19.765
REMARK INTER:                  20.072
REMARK INTRA:                  -0.306
REMARK UNBOUND:                -0.064
REMARK SMILES O=C([O-])CCCCCCCCC(=O)[O-]
REMARK SMILES IDX 7 1 6 2 5 3 4 4 2 5 1 6 3 7 8 8 9 9 10 10 11 11 12 12 13 13
REMARK SMILES IDX 14 14
REMARK H PARENT
REMARK Flexibility Score: inf
ROOT
ATOM      1  C   UNL     1      56.243  43.005  20.878  1.00  0.00     0.000 C 
ENDROOT
BRANCH   1   2
ATOM      2  C   UNL     1      55.113  41.961  20.825  1.00  0.00     0.000 C 
BRANCH   2   3
ATOM      3  C   UNL     1      55.469  40.667  21.573  1.00  0.00     0.006 C 
BRANCH   3   4
ATOM      4  C   UNL     1      55.631  39.467  20.629  1.00  0.00     0.053 C 
BRANCH   4   5
ATOM      5  C   UNL     1      56.882  38.713  20.954  1.00  0.00     0.041 C 
ATOM      6  O   UNL     1      58.008  39.249  20.782  1.00  0.00    -0.550 OA
ATOM      7  O   UNL     1      56.806  37.400  21.401  1.00  0.00    -0.550 OA
ENDBRANCH   4   5
ENDBRANCH   3   4
ENDBRANCH   2   3
ENDBRANCH   1   2
BRANCH   1   8
ATOM      8  C   UNL     1      56.021  44.163  19.892  1.00  0.00     0.000 C 
BRANCH   8   9
ATOM      9  C   UNL     1      55.578  45.458  20.593  1.00  0.00     0.000 C 
BRANCH   9  10
ATOM     10  C   UNL     1      56.305  46.700  20.054  1.00  0.00     0.006 C 
BRANCH  10  11
ATOM     11  C   UNL     1      56.352  47.845  21.074  1.00  0.00     0.053 C 
BRANCH  11  12
ATOM     12  C   UNL     1      57.139  47.439  22.279  1.00  0.00     0.041 C 
ATOM     13  O   UNL     1      58.381  47.250  22.192  1.00  0.00    -0.550 OA
ATOM     14  O   UNL     1      56.511  47.317  23.512  1.00  0.00    -0.550 OA
ENDBRANCH  11  12
ENDBRANCH  10  11
ENDBRANCH   9  10
ENDBRANCH   8   9
ENDBRANCH   1   8
TORSDOF 9
ENDMDL
MODEL 5
REMARK VINA RESULT:    13.021     10.321     11.611
REMARK INTER + INTRA:          19.808
REMARK INTER:                  19.978
REMARK INTRA:                  -0.170
REMARK UNBOUND:                -0.064
REMARK SMILES O=C([O-])CCCCCCCCC(=O)[O-]
REMARK SMILES IDX 7 1 6 2 5 3 4 4 2 5 1 6 3 7 8 8 9 9 10 10 11 11 12 12 13 13
REMARK SMILES IDX 14 14
REMARK H PARENT
REMARK Flexibility Score: inf
ROOT
ATOM      1  C   UNL     1      57.109  48.881  16.713  1.00  0.00     0.000 C 
ENDROOT
BRANCH   1   2
ATOM      2  C   UNL     1      55.747  49.587  16.588  1.00  0.00     0.000 C 
BRANCH   2   3
ATOM      3  C   UNL     1      55.208  49.581  15.149  1.00  0.00     0.006 C 
BRANCH   3   4
ATOM      4  C   UNL     1      54.245  50.744  14.876  1.00  0.00     0.053 C 
BRANCH   4   5
ATOM      5  C   UNL     1      52.846  50.362  15.245  1.00  0.00     0.041 C 
ATOM      6  O   UNL     1      52.624  49.281  15.851  1.00  0.00    -0.550 OA
ATOM      7  O   UNL     1      51.783  51.175  14.877  1.00  0.00    -0.550 OA
ENDBRANCH   4   5
ENDBRANCH   3   4
ENDBRANCH   2   3
ENDBRANCH   1   2
BRANCH   1   8
ATOM      8  C   UNL     1      57.125  47.829  17.834  1.00  0.00     0.000 C 
BRANCH   8   9
ATOM      9  C   UNL     1      56.141  48.161  18.969  1.00  0.00     0.000 C 
BRANCH   9  10
ATOM     10  C   UNL     1      56.342  47.271  20.205  1.00  0.00     0.006 C 
BRANCH  10  11
ATOM     11  C   UNL     1      56.457  48.081  21.503  1.00  0.00     0.053 C 
BRANCH  11  12
ATOM     12  C   UNL     1      57.241  47.321  22.525  1.00  0.00     0.041 C 
ATOM     13  O   UNL     1      58.461  47.078  22.336  1.00  0.00    -0.550 OA
ATOM     14  O   UNL     1      56.636  46.924  23.711  1.00  0.00    -0.550 OA
ENDBRANCH  11  12
ENDBRANCH  10  11
ENDBRANCH   9  10
ENDBRANCH   8   9
ENDBRANCH   1   8
TORSDOF 9
ENDMDL
MODEL 6
REMARK VINA RESULT:    13.180     13.140     13.767
REMARK INTER + INTRA:          20.050
REMARK INTER:                  20.011
REMARK INTRA:                   0.040
REMARK UNBOUND:                -0.064
REMARK SMILES O=C([O-])CCCCCCCCC(=O)[O-]
REMARK SMILES IDX 7 1 6 2 5 3 4 4 2 5 1 6 3 7 8 8 9 9 10 10 11 11 12 12 13 13
REMARK SMILES IDX 14 14
REMARK H PARENT
REMARK Flexibility Score: inf
ROOT
ATOM      1  C   UNL     1      55.634  44.190  20.144  1.00  0.00     0.000 C 
ENDROOT
BRANCH   1   2
ATOM      2  C   UNL     1      56.465  45.380  20.658  1.00  0.00     0.000 C 
BRANCH   2   3
ATOM      3  C   UNL     1      55.926  46.732  20.167  1.00  0.00     0.006 C 
BRANCH   3   4
ATOM      4  C   UNL     1      56.314  47.892  21.094  1.00  0.00     0.053 C 
BRANCH   4   5
ATOM      5  C   UNL     1      57.141  47.394  22.236  1.00  0.00     0.041 C 
ATOM      6  O   UNL     1      56.588  47.031  23.308  1.00  0.00    -0.550 OA
ATOM      7  O   UNL     1      58.526  47.375  22.137  1.00  0.00    -0.550 OA
ENDBRANCH   4   5
ENDBRANCH   3   4
ENDBRANCH   2   3
ENDBRANCH   1   2
BRANCH   1   8
ATOM      8  C   UNL     1      56.029  42.864  20.815  1.00  0.00     0.000 C 
BRANCH   8   9
ATOM      9  C   UNL     1      54.857  41.869  20.889  1.00  0.00     0.000 C 
BRANCH   9  10
ATOM     10  C   UNL     1      55.259  40.530  21.525  1.00  0.00     0.006 C 
BRANCH  10  11
ATOM     11  C   UNL     1      55.656  39.477  20.483  1.00  0.00     0.053 C 
BRANCH  11  12
ATOM     12  C   UNL     1      56.869  38.727  20.934  1.00  0.00     0.041 C 
ATOM     13  O   UNL     1      58.011  39.248  20.834  1.00  0.00    -0.550 OA
ATOM     14  O   UNL     1      56.735  37.471  21.512  1.00  0.00    -0.550 OA
ENDBRANCH  11  12
ENDBRANCH  10  11
ENDBRANCH   9  10
ENDBRANCH   8   9
ENDBRANCH   1   8
TORSDOF 9
ENDMDL
