MODEL 1
REMARK VINA RESULT:    18.226      0.000      0.000
REMARK INTER + INTRA:          45.734
REMARK INTER:                  45.928
REMARK INTRA:                  -0.195
REMARK UNBOUND:                -0.195
REMARK SMILES CCCCCCCCCCCCCCCCCCCCCCCCCCCC(=O)[O-]
REMARK SMILES IDX 15 1 16 2 17 3 18 4 19 5 20 6 21 7 22 8 23 9 24 10 25 11
REMARK SMILES IDX 26 12 27 13 28 14 29 15 30 16 14 17 13 18 12 19 11 20 10 21
REMARK SMILES IDX 9 22 8 23 7 24 6 25 5 26 4 27 3 28 2 29 1 30
REMARK H PARENT
REMARK Flexibility Score: inf
ROOT
ATOM      1  C   UNL     1      12.049 -10.325   4.492  1.00  0.00     0.000 C 
ENDROOT
BRANCH   1   2
ATOM      2  C   UNL     1      13.574 -10.261   4.305  1.00  0.00     0.000 C 
BRANCH   2   3
ATOM      3  C   UNL     1      14.012 -10.751   2.913  1.00  0.00     0.000 C 
BRANCH   3   4
ATOM      4  C   UNL     1      15.450 -10.342   2.561  1.00  0.00     0.000 C 
BRANCH   4   5
ATOM      5  C   UNL     1      15.527  -8.966   1.877  1.00  0.00     0.000 C 
BRANCH   5   6
ATOM      6  C   UNL     1      16.802  -8.193   2.252  1.00  0.00     0.000 C 
BRANCH   6   7
ATOM      7  C   UNL     1      16.533  -6.706   2.546  1.00  0.00     0.000 C 
BRANCH   7   8
ATOM      8  C   UNL     1      17.052  -6.287   3.939  1.00  0.00     0.000 C 
BRANCH   8   9
ATOM      9  C   UNL     1      16.004  -6.434   5.055  1.00  0.00     0.000 C 
BRANCH   9  10
ATOM     10  C   UNL     1      16.547  -6.043   6.439  1.00  0.00     0.000 C 
BRANCH  10  11
ATOM     11  C   UNL     1      16.563  -4.523   6.659  1.00  0.00     0.000 C 
BRANCH  11  12
ATOM     12  C   UNL     1      15.154  -3.939   6.867  1.00  0.00     0.006 C 
BRANCH  12  13
ATOM     13  C   UNL     1      15.052  -2.485   6.387  1.00  0.00     0.053 C 
BRANCH  13  14
ATOM     14  C   UNL     1      16.134  -1.630   6.971  1.00  0.00     0.041 C 
ATOM     15  O   UNL     1      16.118  -1.334   8.195  1.00  0.00    -0.550 OA
ATOM     16  O   UNL     1      17.180  -1.191   6.170  1.00  0.00    -0.550 OA
ENDBRANCH  13  14
ENDBRANCH  12  13
ENDBRANCH  11  12
ENDBRANCH  10  11
ENDBRANCH   9  10
ENDBRANCH   8   9
ENDBRANCH   7   8
ENDBRANCH   6   7
ENDBRANCH   5   6
ENDBRANCH   4   5
ENDBRANCH   3   4
ENDBRANCH   2   3
ENDBRANCH   1   2
BRANCH   1  17
ATOM     17  C   UNL     1      11.646 -11.229   5.671  1.00  0.00     0.000 C 
BRANCH  17  18
ATOM     18  C   UNL     1      10.123 -11.396   5.799  1.00  0.00     0.000 C 
BRANCH  18  19
ATOM     19  C   UNL     1       9.635 -12.781   5.345  1.00  0.00     0.000 C 
BRANCH  19  20
ATOM     20  C   UNL     1      10.578 -13.882   5.847  1.00  0.00     0.000 C 
BRANCH  20  21
ATOM     21  C   UNL     1      12.020 -13.628   5.381  1.00  0.00     0.000 C 
BRANCH  21  22
ATOM     22  C   UNL     1      13.054 -14.440   6.178  1.00  0.00    -0.000 C 
BRANCH  22  23
ATOM     23  C   UNL     1      13.727 -15.584   5.393  1.00  0.00    -0.000 C 
BRANCH  23  24
ATOM     24  C   UNL     1      14.853 -16.295   6.172  1.00  0.00    -0.000 C 
BRANCH  24  25
ATOM     25  C   UNL     1      15.584 -15.350   7.138  1.00  0.00    -0.000 C 
BRANCH  25  26
ATOM     26  C   UNL     1      16.979 -14.998   6.609  1.00  0.00    -0.000 C 
BRANCH  26  27
ATOM     27  C   UNL     1      18.067 -15.783   7.353  1.00  0.00    -0.000 C 
BRANCH  27  28
ATOM     28  C   UNL     1      19.048 -16.429   6.365  1.00  0.00    -0.000 C 
BRANCH  28  29
ATOM     29  C   UNL     1      18.345 -17.014   5.130  1.00  0.00    -0.003 C 
ATOM     30  C   UNL     1      19.116 -18.175   4.503  1.00  0.00     0.004 C 
ENDBRANCH  28  29
ENDBRANCH  27  28
ENDBRANCH  26  27
ENDBRANCH  25  26
ENDBRANCH  24  25
ENDBRANCH  23  24
ENDBRANCH  22  23
ENDBRANCH  21  22
ENDBRANCH  20  21
ENDBRANCH  19  20
ENDBRANCH  18  19
ENDBRANCH  17  18
ENDBRANCH   1  17
TORSDOF 26
ENDMDL
MODEL 2
REMARK VINA RESULT:    18.904      6.467      9.370
REMARK INTER + INTRA:          47.442
REMARK INTER:                  47.609
REMARK INTRA:                  -0.167
REMARK UNBOUND:                -0.195
REMARK SMILES CCCCCCCCCCCCCCCCCCCCCCCCCCCC(=O)[O-]
REMARK SMILES IDX 15 1 16 2 17 3 18 4 19 5 20 6 21 7 22 8 23 9 24 10 25 11
REMARK SMILES IDX 26 12 27 13 28 14 29 15 30 16 14 17 13 18 12 19 11 20 10 21
REMARK SMILES IDX 9 22 8 23 7 24 6 25 5 26 4 27 3 28 2 29 1 30
REMARK H PARENT
REMARK Flexibility Score: inf
ROOT
ATOM      1  C   UNL     1      11.660 -12.897   6.002  1.00  0.00     0.000 C 
ENDROOT
BRANCH   1   2
ATOM      2  C   UNL     1      11.958 -11.783   4.984  1.00  0.00     0.000 C 
BRANCH   2   3
ATOM      3  C   UNL     1      11.266 -10.458   5.352  1.00  0.00     0.000 C 
BRANCH   3   4
ATOM      4  C   UNL     1       9.942 -10.663   6.104  1.00  0.00     0.000 C 
BRANCH   4   5
ATOM      5  C   UNL     1       9.171 -11.905   5.623  1.00  0.00     0.000 C 
BRANCH   5   6
ATOM      6  C   UNL     1       7.806 -11.551   5.013  1.00  0.00     0.000 C 
BRANCH   6   7
ATOM      7  C   UNL     1       6.670 -11.548   6.051  1.00  0.00     0.000 C 
BRANCH   7   8
ATOM      8  C   UNL     1       6.091 -10.133   6.274  1.00  0.00     0.000 C 
BRANCH   8   9
ATOM      9  C   UNL     1       5.287  -9.998   7.579  1.00  0.00     0.000 C 
BRANCH   9  10
ATOM     10  C   UNL     1       4.691 -11.333   8.054  1.00  0.00     0.000 C 
BRANCH  10  11
ATOM     11  C   UNL     1       3.280 -11.173   8.641  1.00  0.00     0.000 C 
BRANCH  11  12
ATOM     12  C   UNL     1       3.259 -10.287   9.900  1.00  0.00     0.006 C 
BRANCH  12  13
ATOM     13  C   UNL     1       1.833 -10.041  10.411  1.00  0.00     0.053 C 
BRANCH  13  14
ATOM     14  C   UNL     1       1.786  -9.959  11.906  1.00  0.00     0.041 C 
ATOM     15  O   UNL     1       1.831  -8.840  12.482  1.00  0.00    -0.550 OA
ATOM     16  O   UNL     1       1.651 -11.118  12.660  1.00  0.00    -0.550 OA
ENDBRANCH  13  14
ENDBRANCH  12  13
ENDBRANCH  11  12
ENDBRANCH  10  11
ENDBRANCH   9  10
ENDBRANCH   8   9
ENDBRANCH   7   8
ENDBRANCH   6   7
ENDBRANCH   5   6
ENDBRANCH   4   5
ENDBRANCH   3   4
ENDBRANCH   2   3
ENDBRANCH   1   2
BRANCH   1  17
ATOM     17  C   UNL     1      11.529 -14.276   5.333  1.00  0.00     0.000 C 
BRANCH  17  18
ATOM     18  C   UNL     1      10.067 -14.699   5.120  1.00  0.00     0.000 C 
BRANCH  18  19
ATOM     19  C   UNL     1       9.923 -16.187   4.763  1.00  0.00     0.000 C 
BRANCH  19  20
ATOM     20  C   UNL     1      11.299 -16.839   4.580  1.00  0.00     0.000 C 
BRANCH  20  21
ATOM     21  C   UNL     1      11.530 -17.942   5.624  1.00  0.00     0.000 C 
BRANCH  21  22
ATOM     22  C   UNL     1      11.914 -19.290   4.989  1.00  0.00    -0.000 C 
BRANCH  22  23
ATOM     23  C   UNL     1      12.357 -20.376   5.990  1.00  0.00    -0.000 C 
BRANCH  23  24
ATOM     24  C   UNL     1      12.749 -19.822   7.376  1.00  0.00    -0.000 C 
BRANCH  24  25
ATOM     25  C   UNL     1      14.257 -19.551   7.493  1.00  0.00    -0.000 C 
BRANCH  25  26
ATOM     26  C   UNL     1      14.538 -18.047   7.578  1.00  0.00    -0.000 C 
BRANCH  26  27
ATOM     27  C   UNL     1      15.953 -17.720   7.082  1.00  0.00    -0.000 C 
BRANCH  27  28
ATOM     28  C   UNL     1      16.241 -16.216   7.203  1.00  0.00    -0.000 C 
BRANCH  28  29
ATOM     29  C   UNL     1      17.521 -15.798   6.462  1.00  0.00    -0.003 C 
ATOM     30  C   UNL     1      18.763 -16.534   6.963  1.00  0.00     0.004 C 
ENDBRANCH  28  29
ENDBRANCH  27  28
ENDBRANCH  26  27
ENDBRANCH  25  26
ENDBRANCH  24  25
ENDBRANCH  23  24
ENDBRANCH  22  23
ENDBRANCH  21  22
ENDBRANCH  20  21
ENDBRANCH  19  20
ENDBRANCH  18  19
ENDBRANCH  17  18
ENDBRANCH   1  17
TORSDOF 26
ENDMDL
MODEL 3
REMARK VINA RESULT:    19.279      2.326      4.059
REMARK INTER + INTRA:          48.388
REMARK INTER:                  49.221
REMARK INTRA:                  -0.833
REMARK UNBOUND:                -0.195
REMARK SMILES CCCCCCCCCCCCCCCCCCCCCCCCCCCC(=O)[O-]
REMARK SMILES IDX 15 1 16 2 17 3 18 4 19 5 20 6 21 7 22 8 23 9 24 10 25 11
REMARK SMILES IDX 26 12 27 13 28 14 29 15 30 16 14 17 13 18 12 19 11 20 10 21
REMARK SMILES IDX 9 22 8 23 7 24 6 25 5 26 4 27 3 28 2 29 1 30
REMARK H PARENT
REMARK Flexibility Score: inf
ROOT
ATOM      1  C   UNL     1       9.316 -13.627   5.350  1.00  0.00     0.000 C 
ENDROOT
BRANCH   1   2
ATOM      2  C   UNL     1       9.623 -12.145   5.071  1.00  0.00     0.000 C 
BRANCH   2   3
ATOM      3  C   UNL     1      10.880 -11.661   5.815  1.00  0.00     0.000 C 
BRANCH   3   4
ATOM      4  C   UNL     1      12.177 -11.933   5.036  1.00  0.00     0.000 C 
BRANCH   4   5
ATOM      5  C   UNL     1      12.756 -10.666   4.383  1.00  0.00     0.000 C 
BRANCH   5   6
ATOM      6  C   UNL     1      13.516 -10.968   3.082  1.00  0.00     0.000 C 
BRANCH   6   7
ATOM      7  C   UNL     1      14.934 -10.369   3.065  1.00  0.00     0.000 C 
BRANCH   7   8
ATOM      8  C   UNL     1      15.137  -9.392   1.886  1.00  0.00     0.000 C 
BRANCH   8   9
ATOM      9  C   UNL     1      15.271  -7.923   2.323  1.00  0.00     0.000 C 
BRANCH   9  10
ATOM     10  C   UNL     1      16.734  -7.456   2.403  1.00  0.00     0.000 C 
BRANCH  10  11
ATOM     11  C   UNL     1      16.941  -6.342   3.441  1.00  0.00     0.000 C 
BRANCH  11  12
ATOM     12  C   UNL     1      16.249  -6.646   4.782  1.00  0.00     0.006 C 
BRANCH  12  13
ATOM     13  C   UNL     1      16.880  -5.872   5.948  1.00  0.00     0.053 C 
BRANCH  13  14
ATOM     14  C   UNL     1      15.929  -4.870   6.528  1.00  0.00     0.041 C 
ATOM     15  O   UNL     1      16.356  -3.945   7.267  1.00  0.00    -0.550 OA
ATOM     16  O   UNL     1      14.576  -4.937   6.218  1.00  0.00    -0.550 OA
ENDBRANCH  13  14
ENDBRANCH  12  13
ENDBRANCH  11  12
ENDBRANCH  10  11
ENDBRANCH   9  10
ENDBRANCH   8   9
ENDBRANCH   7   8
ENDBRANCH   6   7
ENDBRANCH   5   6
ENDBRANCH   4   5
ENDBRANCH   3   4
ENDBRANCH   2   3
ENDBRANCH   1   2
BRANCH   1  17
ATOM     17  C   UNL     1      10.527 -14.534   5.067  1.00  0.00     0.000 C 
BRANCH  17  18
ATOM     18  C   UNL     1      10.123 -15.981   4.742  1.00  0.00     0.000 C 
BRANCH  18  19
ATOM     19  C   UNL     1      11.333 -16.894   4.487  1.00  0.00     0.000 C 
BRANCH  19  20
ATOM     20  C   UNL     1      11.153 -18.246   5.190  1.00  0.00     0.000 C 
BRANCH  20  21
ATOM     21  C   UNL     1      12.265 -19.228   4.790  1.00  0.00     0.000 C 
BRANCH  21  22
ATOM     22  C   UNL     1      12.372 -20.427   5.747  1.00  0.00    -0.000 C 
BRANCH  22  23
ATOM     23  C   UNL     1      11.957 -20.136   7.203  1.00  0.00    -0.000 C 
BRANCH  23  24
ATOM     24  C   UNL     1      13.043 -19.412   8.026  1.00  0.00    -0.000 C 
BRANCH  24  25
ATOM     25  C   UNL     1      14.274 -19.049   7.181  1.00  0.00    -0.000 C 
BRANCH  25  26
ATOM     26  C   UNL     1      14.883 -17.720   7.643  1.00  0.00    -0.000 C 
BRANCH  26  27
ATOM     27  C   UNL     1      16.107 -17.349   6.795  1.00  0.00    -0.000 C 
BRANCH  27  28
ATOM     28  C   UNL     1      16.584 -15.925   7.118  1.00  0.00    -0.000 C 
BRANCH  28  29
ATOM     29  C   UNL     1      18.017 -15.657   6.632  1.00  0.00    -0.003 C 
ATOM     30  C   UNL     1      18.768 -16.938   6.268  1.00  0.00     0.004 C 
ENDBRANCH  28  29
ENDBRANCH  27  28
ENDBRANCH  26  27
ENDBRANCH  25  26
ENDBRANCH  24  25
ENDBRANCH  23  24
ENDBRANCH  22  23
ENDBRANCH  21  22
ENDBRANCH  20  21
ENDBRANCH  19  20
ENDBRANCH  18  19
ENDBRANCH  17  18
ENDBRANCH   1  17
TORSDOF 26
ENDMDL
MODEL 4
REMARK VINA RESULT:    19.394      4.279     10.883
REMARK INTER + INTRA:          48.677
REMARK INTER:                  48.523
REMARK INTRA:                   0.154
REMARK UNBOUND:                -0.195
REMARK SMILES CCCCCCCCCCCCCCCCCCCCCCCCCCCC(=O)[O-]
REMARK SMILES IDX 15 1 16 2 17 3 18 4 19 5 20 6 21 7 22 8 23 9 24 10 25 11
REMARK SMILES IDX 26 12 27 13 28 14 29 15 30 16 14 17 13 18 12 19 11 20 10 21
REMARK SMILES IDX 9 22 8 23 7 24 6 25 5 26 4 27 3 28 2 29 1 30
REMARK H PARENT
REMARK Flexibility Score: inf
ROOT
ATOM      1  C   UNL     1      12.335 -10.450   4.648  1.00  0.00     0.000 C 
ENDROOT
BRANCH   1   2
ATOM      2  C   UNL     1      11.998 -11.679   5.510  1.00  0.00     0.000 C 
BRANCH   2   3
ATOM      3  C   UNL     1      10.533 -11.677   5.979  1.00  0.00     0.000 C 
BRANCH   3   4
ATOM      4  C   UNL     1       9.720 -12.847   5.404  1.00  0.00     0.000 C 
BRANCH   4   5
ATOM      5  C   UNL     1      10.527 -14.155   5.332  1.00  0.00     0.000 C 
BRANCH   5   6
ATOM      6  C   UNL     1       9.764 -15.279   4.614  1.00  0.00     0.000 C 
BRANCH   6   7
ATOM      7  C   UNL     1      10.433 -16.655   4.779  1.00  0.00     0.000 C 
BRANCH   7   8
ATOM      8  C   UNL     1      11.966 -16.580   4.605  1.00  0.00     0.000 C 
BRANCH   8   9
ATOM      9  C   UNL     1      12.611 -15.394   5.342  1.00  0.00     0.000 C 
BRANCH   9  10
ATOM     10  C   UNL     1      14.126 -15.566   5.537  1.00  0.00     0.000 C 
BRANCH  10  11
ATOM     11  C   UNL     1      14.662 -14.757   6.729  1.00  0.00     0.000 C 
BRANCH  11  12
ATOM     12  C   UNL     1      15.852 -15.443   7.424  1.00  0.00     0.006 C 
BRANCH  12  13
ATOM     13  C   UNL     1      17.144 -15.336   6.602  1.00  0.00     0.053 C 
BRANCH  13  14
ATOM     14  C   UNL     1      17.904 -16.626   6.591  1.00  0.00     0.041 C 
ATOM     15  O   UNL     1      17.426 -17.650   7.146  1.00  0.00    -0.550 OA
ATOM     16  O   UNL     1      19.124 -16.707   5.931  1.00  0.00    -0.550 OA
ENDBRANCH  13  14
ENDBRANCH  12  13
ENDBRANCH  11  12
ENDBRANCH  10  11
ENDBRANCH   9  10
ENDBRANCH   8   9
ENDBRANCH   7   8
ENDBRANCH   6   7
ENDBRANCH   5   6
ENDBRANCH   4   5
ENDBRANCH   3   4
ENDBRANCH   2   3
ENDBRANCH   1   2
BRANCH   1  17
ATOM     17  C   UNL     1      13.335 -10.783   3.526  1.00  0.00     0.000 C 
BRANCH  17  18
ATOM     18  C   UNL     1      14.537  -9.827   3.497  1.00  0.00     0.000 C 
BRANCH  18  19
ATOM     19  C   UNL     1      15.022  -9.523   2.071  1.00  0.00     0.000 C 
BRANCH  19  20
ATOM     20  C   UNL     1      16.304  -8.680   2.099  1.00  0.00     0.000 C 
BRANCH  20  21
ATOM     21  C   UNL     1      16.001  -7.229   2.503  1.00  0.00     0.000 C 
BRANCH  21  22
ATOM     22  C   UNL     1      15.864  -7.052   4.024  1.00  0.00    -0.000 C 
BRANCH  22  23
ATOM     23  C   UNL     1      16.677  -5.885   4.618  1.00  0.00    -0.000 C 
BRANCH  23  24
ATOM     24  C   UNL     1      16.918  -6.005   6.138  1.00  0.00    -0.000 C 
BRANCH  24  25
ATOM     25  C   UNL     1      15.993  -5.087   6.952  1.00  0.00    -0.000 C 
BRANCH  25  26
ATOM     26  C   UNL     1      14.846  -4.557   6.084  1.00  0.00    -0.000 C 
BRANCH  26  27
ATOM     27  C   UNL     1      14.237  -3.286   6.690  1.00  0.00    -0.000 C 
BRANCH  27  28
ATOM     28  C   UNL     1      14.483  -2.073   5.780  1.00  0.00    -0.000 C 
BRANCH  28  29
ATOM     29  C   UNL     1      15.553  -1.122   6.338  1.00  0.00    -0.003 C 
ATOM     30  C   UNL     1      15.745  -1.267   7.848  1.00  0.00     0.004 C 
ENDBRANCH  28  29
ENDBRANCH  27  28
ENDBRANCH  26  27
ENDBRANCH  25  26
ENDBRANCH  24  25
ENDBRANCH  23  24
ENDBRANCH  22  23
ENDBRANCH  21  22
ENDBRANCH  20  21
ENDBRANCH  19  20
ENDBRANCH  18  19
ENDBRANCH  17  18
ENDBRANCH   1  17
TORSDOF 26
ENDMDL
MODEL 5
REMARK VINA RESULT:    19.689      4.305     10.635
REMARK INTER + INTRA:          49.422
REMARK INTER:                  50.983
REMARK INTRA:                  -1.561
REMARK UNBOUND:                -0.195
REMARK SMILES CCCCCCCCCCCCCCCCCCCCCCCCCCCC(=O)[O-]
REMARK SMILES IDX 15 1 16 2 17 3 18 4 19 5 20 6 21 7 22 8 23 9 24 10 25 11
REMARK SMILES IDX 26 12 27 13 28 14 29 15 30 16 14 17 13 18 12 19 11 20 10 21
REMARK SMILES IDX 9 22 8 23 7 24 6 25 5 26 4 27 3 28 2 29 1 30
REMARK H PARENT
REMARK Flexibility Score: inf
ROOT
ATOM      1  C   UNL     1       9.732 -12.695   5.280  1.00  0.00     0.000 C 
ENDROOT
BRANCH   1   2
ATOM      2  C   UNL     1      10.228 -14.134   5.504  1.00  0.00     0.000 C 
BRANCH   2   3
ATOM      3  C   UNL     1       9.420 -15.162   4.693  1.00  0.00     0.000 C 
BRANCH   3   4
ATOM      4  C   UNL     1       9.930 -16.600   4.874  1.00  0.00     0.000 C 
BRANCH   4   5
ATOM      5  C   UNL     1      11.339 -16.809   4.294  1.00  0.00     0.000 C 
BRANCH   5   6
ATOM      6  C   UNL     1      11.952 -18.157   4.707  1.00  0.00     0.000 C 
BRANCH   6   7
ATOM      7  C   UNL     1      11.384 -18.691   6.034  1.00  0.00     0.000 C 
BRANCH   7   8
ATOM      8  C   UNL     1      11.915 -20.102   6.367  1.00  0.00     0.000 C 
BRANCH   8   9
ATOM      9  C   UNL     1      12.966 -20.114   7.489  1.00  0.00     0.000 C 
BRANCH   9  10
ATOM     10  C   UNL     1      14.335 -19.586   7.030  1.00  0.00     0.000 C 
BRANCH  10  11
ATOM     11  C   UNL     1      14.574 -18.127   7.447  1.00  0.00     0.000 C 
BRANCH  11  12
ATOM     12  C   UNL     1      16.058 -17.723   7.369  1.00  0.00     0.006 C 
BRANCH  12  13
ATOM     13  C   UNL     1      16.238 -16.216   7.145  1.00  0.00     0.053 C 
BRANCH  13  14
ATOM     14  C   UNL     1      17.595 -15.893   6.600  1.00  0.00     0.041 C 
ATOM     15  O   UNL     1      17.760 -14.888   5.860  1.00  0.00    -0.550 OA
ATOM     16  O   UNL     1      18.686 -16.683   6.943  1.00  0.00    -0.550 OA
ENDBRANCH  13  14
ENDBRANCH  12  13
ENDBRANCH  11  12
ENDBRANCH  10  11
ENDBRANCH   9  10
ENDBRANCH   8   9
ENDBRANCH   7   8
ENDBRANCH   6   7
ENDBRANCH   5   6
ENDBRANCH   4   5
ENDBRANCH   3   4
ENDBRANCH   2   3
ENDBRANCH   1   2
BRANCH   1  17
ATOM     17  C   UNL     1      10.668 -11.652   5.916  1.00  0.00     0.000 C 
BRANCH  17  18
ATOM     18  C   UNL     1      12.125 -11.795   5.448  1.00  0.00     0.000 C 
BRANCH  18  19
ATOM     19  C   UNL     1      12.553 -10.677   4.484  1.00  0.00     0.000 C 
BRANCH  19  20
ATOM     20  C   UNL     1      13.070 -11.263   3.164  1.00  0.00     0.000 C 
BRANCH  20  21
ATOM     21  C   UNL     1      14.518 -10.823   2.895  1.00  0.00     0.000 C 
BRANCH  21  22
ATOM     22  C   UNL     1      14.622  -9.346   2.479  1.00  0.00    -0.000 C 
BRANCH  22  23
ATOM     23  C   UNL     1      16.020  -8.902   2.005  1.00  0.00    -0.000 C 
BRANCH  23  24
ATOM     24  C   UNL     1      16.176  -7.372   1.875  1.00  0.00    -0.000 C 
BRANCH  24  25
ATOM     25  C   UNL     1      17.352  -6.831   2.703  1.00  0.00    -0.000 C 
BRANCH  25  26
ATOM     26  C   UNL     1      16.851  -5.988   3.881  1.00  0.00    -0.000 C 
BRANCH  26  27
ATOM     27  C   UNL     1      17.218  -6.638   5.222  1.00  0.00    -0.000 C 
BRANCH  27  28
ATOM     28  C   UNL     1      16.983  -5.663   6.385  1.00  0.00    -0.000 C 
BRANCH  28  29
ATOM     29  C   UNL     1      15.860  -4.654   6.093  1.00  0.00    -0.003 C 
ATOM     30  C   UNL     1      14.513  -5.084   6.672  1.00  0.00     0.004 C 
ENDBRANCH  28  29
ENDBRANCH  27  28
ENDBRANCH  26  27
ENDBRANCH  25  26
ENDBRANCH  24  25
ENDBRANCH  23  24
ENDBRANCH  22  23
ENDBRANCH  21  22
ENDBRANCH  20  21
ENDBRANCH  19  20
ENDBRANCH  18  19
ENDBRANCH  17  18
ENDBRANCH   1  17
TORSDOF 26
ENDMDL
MODEL 6
REMARK VINA RESULT:    19.714      6.402     12.427
REMARK INTER + INTRA:          49.483
REMARK INTER:                  49.770
REMARK INTRA:                  -0.287
REMARK UNBOUND:                -0.195
REMARK SMILES CCCCCCCCCCCCCCCCCCCCCCCCCCCC(=O)[O-]
REMARK SMILES IDX 15 1 16 2 17 3 18 4 19 5 20 6 21 7 22 8 23 9 24 10 25 11
REMARK SMILES IDX 26 12 27 13 28 14 29 15 30 16 14 17 13 18 12 19 11 20 10 21
REMARK SMILES IDX 9 22 8 23 7 24 6 25 5 26 4 27 3 28 2 29 1 30
REMARK H PARENT
REMARK Flexibility Score: inf
ROOT
ATOM      1  C   UNL     1      11.929 -13.132   6.103  1.00  0.00     0.000 C 
ENDROOT
BRANCH   1   2
ATOM      2  C   UNL     1      11.650 -14.325   5.173  1.00  0.00     0.000 C 
BRANCH   2   3
ATOM      3  C   UNL     1      10.166 -14.734   5.179  1.00  0.00     0.000 C 
BRANCH   3   4
ATOM      4  C   UNL     1       9.949 -16.203   4.786  1.00  0.00     0.000 C 
BRANCH   4   5
ATOM      5  C   UNL     1      11.199 -16.842   4.158  1.00  0.00     0.000 C 
BRANCH   5   6
ATOM      6  C   UNL     1      11.934 -17.779   5.130  1.00  0.00     0.000 C 
BRANCH   6   7
ATOM      7  C   UNL     1      11.399 -19.222   5.089  1.00  0.00     0.000 C 
BRANCH   7   8
ATOM      8  C   UNL     1      12.309 -20.201   5.863  1.00  0.00     0.000 C 
BRANCH   8   9
ATOM      9  C   UNL     1      12.681 -19.709   7.273  1.00  0.00     0.000 C 
BRANCH   9  10
ATOM     10  C   UNL     1      14.183 -19.416   7.425  1.00  0.00     0.000 C 
BRANCH  10  11
ATOM     11  C   UNL     1      14.500 -17.914   7.365  1.00  0.00     0.000 C 
BRANCH  11  12
ATOM     12  C   UNL     1      16.011 -17.624   7.429  1.00  0.00     0.006 C 
BRANCH  12  13
ATOM     13  C   UNL     1      16.349 -16.205   6.955  1.00  0.00     0.053 C 
BRANCH  13  14
ATOM     14  C   UNL     1      17.776 -16.091   6.514  1.00  0.00     0.041 C 
ATOM     15  O   UNL     1      18.681 -16.712   7.130  1.00  0.00    -0.550 OA
ATOM     16  O   UNL     1      18.099 -15.328   5.399  1.00  0.00    -0.550 OA
ENDBRANCH  13  14
ENDBRANCH  12  13
ENDBRANCH  11  12
ENDBRANCH  10  11
ENDBRANCH   9  10
ENDBRANCH   8   9
ENDBRANCH   7   8
ENDBRANCH   6   7
ENDBRANCH   5   6
ENDBRANCH   4   5
ENDBRANCH   3   4
ENDBRANCH   2   3
ENDBRANCH   1   2
BRANCH   1  17
ATOM     17  C   UNL     1      11.793 -11.783   5.374  1.00  0.00     0.000 C 
BRANCH  17  18
ATOM     18  C   UNL     1      10.418 -11.130   5.581  1.00  0.00     0.000 C 
BRANCH  18  19
ATOM     19  C   UNL     1       9.277 -12.157   5.661  1.00  0.00     0.000 C 
BRANCH  19  20
ATOM     20  C   UNL     1       8.018 -11.628   4.961  1.00  0.00     0.000 C 
BRANCH  20  21
ATOM     21  C   UNL     1       6.776 -11.812   5.847  1.00  0.00     0.000 C 
BRANCH  21  22
ATOM     22  C   UNL     1       6.305 -10.498   6.491  1.00  0.00    -0.000 C 
BRANCH  22  23
ATOM     23  C   UNL     1       4.788 -10.407   6.746  1.00  0.00    -0.000 C 
BRANCH  23  24
ATOM     24  C   UNL     1       4.345 -11.024   8.089  1.00  0.00    -0.000 C 
BRANCH  24  25
ATOM     25  C   UNL     1       4.154  -9.965   9.186  1.00  0.00    -0.000 C 
BRANCH  25  26
ATOM     26  C   UNL     1       2.816 -10.159   9.908  1.00  0.00    -0.000 C 
BRANCH  26  27
ATOM     27  C   UNL     1       2.986 -11.027  11.162  1.00  0.00    -0.000 C 
BRANCH  27  28
ATOM     28  C   UNL     1       1.829 -10.799  12.146  1.00  0.00    -0.000 C 
BRANCH  28  29
ATOM     29  C   UNL     1       1.493  -9.311  12.330  1.00  0.00    -0.003 C 
ATOM     30  C   UNL     1       0.058  -8.973  11.928  1.00  0.00     0.004 C 
ENDBRANCH  28  29
ENDBRANCH  27  28
ENDBRANCH  26  27
ENDBRANCH  25  26
ENDBRANCH  24  25
ENDBRANCH  23  24
ENDBRANCH  22  23
ENDBRANCH  21  22
ENDBRANCH  20  21
ENDBRANCH  19  20
ENDBRANCH  18  19
ENDBRANCH  17  18
ENDBRANCH   1  17
TORSDOF 26
ENDMDL
MODEL 7
REMARK VINA RESULT:    19.845      4.450     10.786
REMARK INTER + INTRA:          49.814
REMARK INTER:                  49.536
REMARK INTRA:                   0.278
REMARK UNBOUND:                -0.195
REMARK SMILES CCCCCCCCCCCCCCCCCCCCCCCCCCCC(=O)[O-]
REMARK SMILES IDX 15 1 16 2 17 3 18 4 19 5 20 6 21 7 22 8 23 9 24 10 25 11
REMARK SMILES IDX 26 12 27 13 28 14 29 15 30 16 14 17 13 18 12 19 11 20 10 21
REMARK SMILES IDX 9 22 8 23 7 24 6 25 5 26 4 27 3 28 2 29 1 30
REMARK H PARENT
REMARK Flexibility Score: inf
ROOT
ATOM      1  C   UNL     1      12.914 -10.042   4.720  1.00  0.00     0.000 C 
ENDROOT
BRANCH   1   2
ATOM      2  C   UNL     1      11.425 -10.270   5.033  1.00  0.00     0.000 C 
BRANCH   2   3
ATOM      3  C   UNL     1      11.216 -11.323   6.136  1.00  0.00     0.000 C 
BRANCH   3   4
ATOM      4  C   UNL     1      11.328 -12.765   5.615  1.00  0.00     0.000 C 
BRANCH   4   5
ATOM      5  C   UNL     1      12.786 -13.244   5.497  1.00  0.00     0.000 C 
BRANCH   5   6
ATOM      6  C   UNL     1      12.889 -14.716   5.069  1.00  0.00     0.000 C 
BRANCH   6   7
ATOM      7  C   UNL     1      13.958 -15.494   5.856  1.00  0.00     0.000 C 
BRANCH   7   8
ATOM      8  C   UNL     1      14.594 -14.637   6.973  1.00  0.00     0.000 C 
BRANCH   8   9
ATOM      9  C   UNL     1      16.132 -14.675   6.976  1.00  0.00     0.000 C 
BRANCH   9  10
ATOM     10  C   UNL     1      16.699 -15.846   7.794  1.00  0.00     0.000 C 
BRANCH  10  11
ATOM     11  C   UNL     1      16.924 -17.106   6.944  1.00  0.00     0.000 C 
BRANCH  11  12
ATOM     12  C   UNL     1      18.306 -17.127   6.268  1.00  0.00     0.006 C 
BRANCH  12  13
ATOM     13  C   UNL     1      18.317 -16.349   4.945  1.00  0.00     0.053 C 
BRANCH  13  14
ATOM     14  C   UNL     1      18.564 -17.249   3.774  1.00  0.00     0.041 C 
ATOM     15  O   UNL     1      18.301 -16.859   2.607  1.00  0.00    -0.550 OA
ATOM     16  O   UNL     1      19.122 -18.507   3.971  1.00  0.00    -0.550 OA
ENDBRANCH  13  14
ENDBRANCH  12  13
ENDBRANCH  11  12
ENDBRANCH  10  11
ENDBRANCH   9  10
ENDBRANCH   8   9
ENDBRANCH   7   8
ENDBRANCH   6   7
ENDBRANCH   5   6
ENDBRANCH   4   5
ENDBRANCH   3   4
ENDBRANCH   2   3
ENDBRANCH   1   2
BRANCH   1  17
ATOM     17  C   UNL     1      13.313 -10.612   3.347  1.00  0.00     0.000 C 
BRANCH  17  18
ATOM     18  C   UNL     1      14.796 -10.383   3.016  1.00  0.00     0.000 C 
BRANCH  18  19
ATOM     19  C   UNL     1      15.004  -9.363   1.885  1.00  0.00     0.000 C 
BRANCH  19  20
ATOM     20  C   UNL     1      16.448  -8.846   1.876  1.00  0.00     0.000 C 
BRANCH  20  21
ATOM     21  C   UNL     1      16.483  -7.310   1.879  1.00  0.00     0.000 C 
BRANCH  21  22
ATOM     22  C   UNL     1      15.882  -6.704   3.159  1.00  0.00    -0.000 C 
BRANCH  22  23
ATOM     23  C   UNL     1      16.871  -6.550   4.331  1.00  0.00    -0.000 C 
BRANCH  23  24
ATOM     24  C   UNL     1      16.201  -6.589   5.720  1.00  0.00    -0.000 C 
BRANCH  24  25
ATOM     25  C   UNL     1      16.792  -5.551   6.686  1.00  0.00    -0.000 C 
BRANCH  25  26
ATOM     26  C   UNL     1      15.991  -4.245   6.644  1.00  0.00    -0.000 C 
BRANCH  26  27
ATOM     27  C   UNL     1      14.532  -4.504   6.247  1.00  0.00    -0.000 C 
BRANCH  27  28
ATOM     28  C   UNL     1      13.875  -3.224   5.712  1.00  0.00    -0.000 C 
BRANCH  28  29
ATOM     29  C   UNL     1      14.275  -1.974   6.512  1.00  0.00    -0.003 C 
ATOM     30  C   UNL     1      15.749  -1.979   6.919  1.00  0.00     0.004 C 
ENDBRANCH  28  29
ENDBRANCH  27  28
ENDBRANCH  26  27
ENDBRANCH  25  26
ENDBRANCH  24  25
ENDBRANCH  23  24
ENDBRANCH  22  23
ENDBRANCH  21  22
ENDBRANCH  20  21
ENDBRANCH  19  20
ENDBRANCH  18  19
ENDBRANCH  17  18
ENDBRANCH   1  17
TORSDOF 26
ENDMDL
MODEL 8
REMARK VINA RESULT:    19.852      5.345     11.566
REMARK INTER + INTRA:          49.832
REMARK INTER:                  50.848
REMARK INTRA:                  -1.016
REMARK UNBOUND:                -0.195
REMARK SMILES CCCCCCCCCCCCCCCCCCCCCCCCCCCC(=O)[O-]
REMARK SMILES IDX 15 1 16 2 17 3 18 4 19 5 20 6 21 7 22 8 23 9 24 10 25 11
REMARK SMILES IDX 26 12 27 13 28 14 29 15 30 16 14 17 13 18 12 19 11 20 10 21
REMARK SMILES IDX 9 22 8 23 7 24 6 25 5 26 4 27 3 28 2 29 1 30
REMARK H PARENT
REMARK Flexibility Score: inf
ROOT
ATOM      1  C   UNL     1      12.360 -10.255   5.081  1.00  0.00     0.000 C 
ENDROOT
BRANCH   1   2
ATOM      2  C   UNL     1      10.863 -10.565   5.254  1.00  0.00     0.000 C 
BRANCH   2   3
ATOM      3  C   UNL     1      10.624 -11.955   5.869  1.00  0.00     0.000 C 
BRANCH   3   4
ATOM      4  C   UNL     1      11.373 -13.074   5.127  1.00  0.00     0.000 C 
BRANCH   4   5
ATOM      5  C   UNL     1      12.274 -13.905   6.057  1.00  0.00     0.000 C 
BRANCH   5   6
ATOM      6  C   UNL     1      13.233 -13.033   6.882  1.00  0.00     0.000 C 
BRANCH   6   7
ATOM      7  C   UNL     1      14.236 -13.861   7.704  1.00  0.00     0.000 C 
BRANCH   7   8
ATOM      8  C   UNL     1      15.299 -14.538   6.811  1.00  0.00     0.000 C 
BRANCH   8   9
ATOM      9  C   UNL     1      15.062 -16.045   6.610  1.00  0.00     0.000 C 
BRANCH   9  10
ATOM     10  C   UNL     1      16.047 -16.916   7.407  1.00  0.00     0.000 C 
BRANCH  10  11
ATOM     11  C   UNL     1      15.624 -18.392   7.454  1.00  0.00     0.000 C 
BRANCH  11  12
ATOM     12  C   UNL     1      14.105 -18.579   7.286  1.00  0.00     0.006 C 
BRANCH  12  13
ATOM     13  C   UNL     1      13.688 -20.053   7.379  1.00  0.00     0.053 C 
BRANCH  13  14
ATOM     14  C   UNL     1      12.293 -20.269   6.880  1.00  0.00     0.041 C 
ATOM     15  O   UNL     1      11.316 -20.185   7.669  1.00  0.00    -0.550 OA
ATOM     16  O   UNL     1      12.070 -20.524   5.532  1.00  0.00    -0.550 OA
ENDBRANCH  13  14
ENDBRANCH  12  13
ENDBRANCH  11  12
ENDBRANCH  10  11
ENDBRANCH   9  10
ENDBRANCH   8   9
ENDBRANCH   7   8
ENDBRANCH   6   7
ENDBRANCH   5   6
ENDBRANCH   4   5
ENDBRANCH   3   4
ENDBRANCH   2   3
ENDBRANCH   1   2
BRANCH   1  17
ATOM     17  C   UNL     1      12.906 -10.762   3.734  1.00  0.00     0.000 C 
BRANCH  17  18
ATOM     18  C   UNL     1      14.374 -10.369   3.502  1.00  0.00     0.000 C 
BRANCH  18  19
ATOM     19  C   UNL     1      14.615  -9.762   2.111  1.00  0.00     0.000 C 
BRANCH  19  20
ATOM     20  C   UNL     1      16.041  -9.207   1.999  1.00  0.00     0.000 C 
BRANCH  20  21
ATOM     21  C   UNL     1      16.069  -7.697   2.284  1.00  0.00     0.000 C 
BRANCH  21  22
ATOM     22  C   UNL     1      15.687  -7.359   3.735  1.00  0.00    -0.000 C 
BRANCH  22  23
ATOM     23  C   UNL     1      16.393  -6.121   4.321  1.00  0.00    -0.000 C 
BRANCH  23  24
ATOM     24  C   UNL     1      16.952  -6.338   5.742  1.00  0.00    -0.000 C 
BRANCH  24  25
ATOM     25  C   UNL     1      16.884  -5.065   6.600  1.00  0.00    -0.000 C 
BRANCH  25  26
ATOM     26  C   UNL     1      15.534  -4.960   7.318  1.00  0.00    -0.000 C 
BRANCH  26  27
ATOM     27  C   UNL     1      14.461  -4.368   6.393  1.00  0.00    -0.000 C 
BRANCH  27  28
ATOM     28  C   UNL     1      14.851  -2.955   5.938  1.00  0.00    -0.000 C 
BRANCH  28  29
ATOM     29  C   UNL     1      13.799  -1.900   6.317  1.00  0.00    -0.003 C 
ATOM     30  C   UNL     1      13.560  -0.876   5.208  1.00  0.00     0.004 C 
ENDBRANCH  28  29
ENDBRANCH  27  28
ENDBRANCH  26  27
ENDBRANCH  25  26
ENDBRANCH  24  25
ENDBRANCH  23  24
ENDBRANCH  22  23
ENDBRANCH  21  22
ENDBRANCH  20  21
ENDBRANCH  19  20
ENDBRANCH  18  19
ENDBRANCH  17  18
ENDBRANCH   1  17
TORSDOF 26
ENDMDL
MODEL 9
REMARK VINA RESULT:    20.197      4.417     11.299
REMARK INTER + INTRA:          50.702
REMARK INTER:                  51.857
REMARK INTRA:                  -1.155
REMARK UNBOUND:                -0.195
REMARK SMILES CCCCCCCCCCCCCCCCCCCCCCCCCCCC(=O)[O-]
REMARK SMILES IDX 15 1 16 2 17 3 18 4 19 5 20 6 21 7 22 8 23 9 24 10 25 11
REMARK SMILES IDX 26 12 27 13 28 14 29 15 30 16 14 17 13 18 12 19 11 20 10 21
REMARK SMILES IDX 9 22 8 23 7 24 6 25 5 26 4 27 3 28 2 29 1 30
REMARK H PARENT
REMARK Flexibility Score: inf
ROOT
ATOM      1  C   UNL     1      11.642 -12.520   6.240  1.00  0.00     0.000 C 
ENDROOT
BRANCH   1   2
ATOM      2  C   UNL     1      11.417 -13.879   5.556  1.00  0.00     0.000 C 
BRANCH   2   3
ATOM      3  C   UNL     1       9.947 -14.092   5.154  1.00  0.00     0.000 C 
BRANCH   3   4
ATOM      4  C   UNL     1       9.706 -15.443   4.463  1.00  0.00     0.000 C 
BRANCH   4   5
ATOM      5  C   UNL     1      10.419 -16.609   5.171  1.00  0.00     0.000 C 
BRANCH   5   6
ATOM      6  C   UNL     1      11.563 -17.197   4.330  1.00  0.00     0.000 C 
BRANCH   6   7
ATOM      7  C   UNL     1      11.812 -18.688   4.620  1.00  0.00     0.000 C 
BRANCH   7   8
ATOM      8  C   UNL     1      11.412 -19.074   6.062  1.00  0.00     0.000 C 
BRANCH   8   9
ATOM      9  C   UNL     1      12.219 -20.255   6.627  1.00  0.00     0.000 C 
BRANCH   9  10
ATOM     10  C   UNL     1      13.673 -19.882   6.957  1.00  0.00     0.000 C 
BRANCH  10  11
ATOM     11  C   UNL     1      13.841 -18.388   7.273  1.00  0.00     0.000 C 
BRANCH  11  12
ATOM     12  C   UNL     1      15.310 -17.994   7.510  1.00  0.00     0.006 C 
BRANCH  12  13
ATOM     13  C   UNL     1      15.604 -16.555   7.065  1.00  0.00     0.053 C 
BRANCH  13  14
ATOM     14  C   UNL     1      17.059 -16.348   6.778  1.00  0.00     0.041 C 
ATOM     15  O   UNL     1      17.508 -15.188   6.580  1.00  0.00    -0.550 OA
ATOM     16  O   UNL     1      17.926 -17.434   6.769  1.00  0.00    -0.550 OA
ENDBRANCH  13  14
ENDBRANCH  12  13
ENDBRANCH  11  12
ENDBRANCH  10  11
ENDBRANCH   9  10
ENDBRANCH   8   9
ENDBRANCH   7   8
ENDBRANCH   6   7
ENDBRANCH   5   6
ENDBRANCH   4   5
ENDBRANCH   3   4
ENDBRANCH   2   3
ENDBRANCH   1   2
BRANCH   1  17
ATOM     17  C   UNL     1      10.763 -11.411   5.633  1.00  0.00     0.000 C 
BRANCH  17  18
ATOM     18  C   UNL     1      11.581 -10.211   5.131  1.00  0.00     0.000 C 
BRANCH  18  19
ATOM     19  C   UNL     1      12.920 -10.625   4.500  1.00  0.00     0.000 C 
BRANCH  19  20
ATOM     20  C   UNL     1      13.589  -9.430   3.808  1.00  0.00     0.000 C 
BRANCH  20  21
ATOM     21  C   UNL     1      13.901  -8.313   4.816  1.00  0.00     0.000 C 
BRANCH  21  22
ATOM     22  C   UNL     1      14.609  -7.110   4.170  1.00  0.00    -0.000 C 
BRANCH  22  23
ATOM     23  C   UNL     1      16.058  -6.878   4.643  1.00  0.00    -0.000 C 
BRANCH  23  24
ATOM     24  C   UNL     1      16.172  -6.489   6.131  1.00  0.00    -0.000 C 
BRANCH  24  25
ATOM     25  C   UNL     1      17.051  -5.247   6.347  1.00  0.00    -0.000 C 
BRANCH  25  26
ATOM     26  C   UNL     1      16.262  -4.131   7.041  1.00  0.00    -0.000 C 
BRANCH  26  27
ATOM     27  C   UNL     1      14.757  -4.277   6.784  1.00  0.00    -0.000 C 
BRANCH  27  28
ATOM     28  C   UNL     1      14.267  -3.215   5.788  1.00  0.00    -0.000 C 
BRANCH  28  29
ATOM     29  C   UNL     1      14.123  -1.825   6.429  1.00  0.00    -0.003 C 
ATOM     30  C   UNL     1      15.430  -1.315   7.035  1.00  0.00     0.004 C 
ENDBRANCH  28  29
ENDBRANCH  27  28
ENDBRANCH  26  27
ENDBRANCH  25  26
ENDBRANCH  24  25
ENDBRANCH  23  24
ENDBRANCH  22  23
ENDBRANCH  21  22
ENDBRANCH  20  21
ENDBRANCH  19  20
ENDBRANCH  18  19
ENDBRANCH  17  18
ENDBRANCH   1  17
TORSDOF 26
ENDMDL
