MODEL 1
REMARK VINA RESULT:    -3.379      0.000      0.000
REMARK INTER + INTRA:          -8.518
REMARK INTER:                  -7.330
REMARK INTRA:                  -1.188
REMARK UNBOUND:                -1.188
REMARK SMILES CCCCCCCCCCCCCCCCCCCCCC(=O)[O-]
REMARK SMILES IDX 12 1 11 2 10 3 9 4 8 5 7 6 6 7 5 8 4 9 3 10 2 11 1 12 13 13
REMARK SMILES IDX 14 14 15 15 16 16 17 17 18 18 19 19 20 20 21 21 22 22 23 23
REMARK SMILES IDX 24 24
REMARK H PARENT
REMARK Flexibility Score: inf
ROOT
ATOM      1  C   UNL     1      17.542  12.355 -15.535  1.00  0.00     0.000 C 
ENDROOT
BRANCH   1   2
ATOM      2  C   UNL     1      17.928  13.721 -16.123  1.00  0.00     0.000 C 
BRANCH   2   3
ATOM      3  C   UNL     1      19.154  14.333 -15.424  1.00  0.00     0.000 C 
BRANCH   3   4
ATOM      4  C   UNL     1      20.256  13.292 -15.158  1.00  0.00    -0.000 C 
BRANCH   4   5
ATOM      5  C   UNL     1      20.506  13.060 -13.659  1.00  0.00    -0.000 C 
BRANCH   5   6
ATOM      6  C   UNL     1      21.976  13.259 -13.258  1.00  0.00    -0.000 C 
BRANCH   6   7
ATOM      7  C   UNL     1      22.778  13.881 -14.411  1.00  0.00    -0.000 C 
BRANCH   7   8
ATOM      8  C   UNL     1      22.487  15.381 -14.599  1.00  0.00    -0.000 C 
BRANCH   8   9
ATOM      9  C   UNL     1      23.125  16.306 -13.542  1.00  0.00    -0.000 C 
BRANCH   9  10
ATOM     10  C   UNL     1      22.893  17.814 -13.764  1.00  0.00    -0.000 C 
BRANCH  10  11
ATOM     11  C   UNL     1      22.794  18.243 -15.238  1.00  0.00    -0.003 C 
ATOM     12  C   UNL     1      21.432  18.838 -15.595  1.00  0.00     0.004 C 
ENDBRANCH  10  11
ENDBRANCH   9  10
ENDBRANCH   8   9
ENDBRANCH   7   8
ENDBRANCH   6   7
ENDBRANCH   5   6
ENDBRANCH   4   5
ENDBRANCH   3   4
ENDBRANCH   2   3
ENDBRANCH   1   2
BRANCH   1  13
ATOM     13  C   UNL     1      16.104  12.372 -14.995  1.00  0.00     0.000 C 
BRANCH  13  14
ATOM     14  C   UNL     1      15.943  11.571 -13.686  1.00  0.00     0.000 C 
BRANCH  14  15
ATOM     15  C   UNL     1      14.839  10.499 -13.735  1.00  0.00     0.000 C 
BRANCH  15  16
ATOM     16  C   UNL     1      15.374   9.110 -14.139  1.00  0.00     0.000 C 
BRANCH  16  17
ATOM     17  C   UNL     1      15.524   8.952 -15.664  1.00  0.00     0.000 C 
BRANCH  17  18
ATOM     18  C   UNL     1      16.932   8.525 -16.125  1.00  0.00     0.000 C 
BRANCH  18  19
ATOM     19  C   UNL     1      18.048   9.565 -15.902  1.00  0.00     0.000 C 
BRANCH  19  20
ATOM     20  C   UNL     1      19.474   8.986 -16.017  1.00  0.00     0.006 C 
BRANCH  20  21
ATOM     21  C   UNL     1      20.452   9.629 -15.023  1.00  0.00     0.053 C 
BRANCH  21  22
ATOM     22  C   UNL     1      21.847   9.590 -15.563  1.00  0.00     0.041 C 
ATOM     23  O   UNL     1      22.561  10.627 -15.555  1.00  0.00    -0.550 OA
ATOM     24  O   UNL     1      22.346   8.413 -16.112  1.00  0.00    -0.550 OA
ENDBRANCH  21  22
ENDBRANCH  20  21
ENDBRANCH  19  20
ENDBRANCH  18  19
ENDBRANCH  17  18
ENDBRANCH  16  17
ENDBRANCH  15  16
ENDBRANCH  14  15
ENDBRANCH  13  14
ENDBRANCH   1  13
TORSDOF 20
ENDMDL
MODEL 2
REMARK VINA RESULT:    -3.193      2.718      6.160
REMARK INTER + INTRA:          -8.113
REMARK INTER:                  -6.419
REMARK INTRA:                  -1.694
REMARK UNBOUND:                -1.188
REMARK SMILES CCCCCCCCCCCCCCCCCCCCCC(=O)[O-]
REMARK SMILES IDX 12 1 11 2 10 3 9 4 8 5 7 6 6 7 5 8 4 9 3 10 2 11 1 12 13 13
REMARK SMILES IDX 14 14 15 15 16 16 17 17 18 18 19 19 20 20 21 21 22 22 23 23
REMARK SMILES IDX 24 24
REMARK H PARENT
REMARK Flexibility Score: inf
ROOT
ATOM      1  C   UNL     1      14.690  11.820 -14.356  1.00  0.00     0.000 C 
ENDROOT
BRANCH   1   2
ATOM      2  C   UNL     1      14.403  10.387 -14.829  1.00  0.00     0.000 C 
BRANCH   2   3
ATOM      3  C   UNL     1      15.429   9.377 -14.289  1.00  0.00     0.000 C 
BRANCH   3   4
ATOM      4  C   UNL     1      15.955   8.433 -15.384  1.00  0.00    -0.000 C 
BRANCH   4   5
ATOM      5  C   UNL     1      17.227   8.963 -16.065  1.00  0.00    -0.000 C 
BRANCH   5   6
ATOM      6  C   UNL     1      18.429   9.044 -15.111  1.00  0.00    -0.000 C 
BRANCH   6   7
ATOM      7  C   UNL     1      19.707   9.427 -15.872  1.00  0.00    -0.000 C 
BRANCH   7   8
ATOM      8  C   UNL     1      20.950   9.479 -14.963  1.00  0.00    -0.000 C 
BRANCH   8   9
ATOM      9  C   UNL     1      22.059  10.443 -15.431  1.00  0.00    -0.000 C 
BRANCH   9  10
ATOM     10  C   UNL     1      22.800  11.186 -14.301  1.00  0.00    -0.000 C 
BRANCH  10  11
ATOM     11  C   UNL     1      21.997  12.315 -13.634  1.00  0.00    -0.003 C 
ATOM     12  C   UNL     1      22.824  13.123 -12.634  1.00  0.00     0.004 C 
ENDBRANCH  10  11
ENDBRANCH   9  10
ENDBRANCH   8   9
ENDBRANCH   7   8
ENDBRANCH   6   7
ENDBRANCH   5   6
ENDBRANCH   4   5
ENDBRANCH   3   4
ENDBRANCH   2   3
ENDBRANCH   1   2
BRANCH   1  13
ATOM     13  C   UNL     1      15.374  12.640 -15.461  1.00  0.00     0.000 C 
BRANCH  13  14
ATOM     14  C   UNL     1      16.687  13.302 -14.994  1.00  0.00     0.000 C 
BRANCH  14  15
ATOM     15  C   UNL     1      17.506  12.449 -14.009  1.00  0.00     0.000 C 
BRANCH  15  16
ATOM     16  C   UNL     1      19.028  12.612 -14.201  1.00  0.00     0.000 C 
BRANCH  16  17
ATOM     17  C   UNL     1      19.388  13.804 -15.107  1.00  0.00     0.000 C 
BRANCH  17  18
ATOM     18  C   UNL     1      20.511  13.516 -16.125  1.00  0.00     0.000 C 
BRANCH  18  19
ATOM     19  C   UNL     1      21.777  14.383 -15.979  1.00  0.00     0.000 C 
BRANCH  19  20
ATOM     20  C   UNL     1      21.487  15.869 -15.681  1.00  0.00     0.006 C 
BRANCH  20  21
ATOM     21  C   UNL     1      22.764  16.671 -15.393  1.00  0.00     0.053 C 
BRANCH  21  22
ATOM     22  C   UNL     1      22.523  17.657 -14.293  1.00  0.00     0.041 C 
ATOM     23  O   UNL     1      23.060  17.495 -13.166  1.00  0.00    -0.550 OA
ATOM     24  O   UNL     1      21.673  18.738 -14.504  1.00  0.00    -0.550 OA
ENDBRANCH  21  22
ENDBRANCH  20  21
ENDBRANCH  19  20
ENDBRANCH  18  19
ENDBRANCH  17  18
ENDBRANCH  16  17
ENDBRANCH  15  16
ENDBRANCH  14  15
ENDBRANCH  13  14
ENDBRANCH   1  13
TORSDOF 20
ENDMDL
MODEL 3
REMARK VINA RESULT:    -3.084      2.782      6.604
REMARK INTER + INTRA:          -7.877
REMARK INTER:                  -5.737
REMARK INTRA:                  -2.140
REMARK UNBOUND:                -1.188
REMARK SMILES CCCCCCCCCCCCCCCCCCCCCC(=O)[O-]
REMARK SMILES IDX 12 1 11 2 10 3 9 4 8 5 7 6 6 7 5 8 4 9 3 10 2 11 1 12 13 13
REMARK SMILES IDX 14 14 15 15 16 16 17 17 18 18 19 19 20 20 21 21 22 22 23 23
REMARK SMILES IDX 24 24
REMARK H PARENT
REMARK Flexibility Score: inf
ROOT
ATOM      1  C   UNL     1      14.166  11.640 -13.893  1.00  0.00     0.000 C 
ENDROOT
BRANCH   1   2
ATOM      2  C   UNL     1      14.030  10.667 -15.075  1.00  0.00     0.000 C 
BRANCH   2   3
ATOM      3  C   UNL     1      14.215   9.201 -14.649  1.00  0.00     0.000 C 
BRANCH   3   4
ATOM      4  C   UNL     1      14.988   8.380 -15.696  1.00  0.00    -0.000 C 
BRANCH   4   5
ATOM      5  C   UNL     1      16.343   9.007 -16.062  1.00  0.00    -0.000 C 
BRANCH   5   6
ATOM      6  C   UNL     1      17.483   7.978 -16.124  1.00  0.00    -0.000 C 
BRANCH   6   7
ATOM      7  C   UNL     1      18.676   8.431 -15.270  1.00  0.00    -0.000 C 
BRANCH   7   8
ATOM      8  C   UNL     1      19.466   9.586 -15.914  1.00  0.00    -0.000 C 
BRANCH   8   9
ATOM      9  C   UNL     1      20.546  10.219 -15.013  1.00  0.00    -0.000 C 
BRANCH   9  10
ATOM     10  C   UNL     1      21.497  11.204 -15.722  1.00  0.00    -0.000 C 
BRANCH  10  11
ATOM     11  C   UNL     1      22.869  11.377 -15.049  1.00  0.00    -0.003 C 
ATOM     12  C   UNL     1      22.839  12.362 -13.881  1.00  0.00     0.004 C 
ENDBRANCH  10  11
ENDBRANCH   9  10
ENDBRANCH   8   9
ENDBRANCH   7   8
ENDBRANCH   6   7
ENDBRANCH   5   6
ENDBRANCH   4   5
ENDBRANCH   3   4
ENDBRANCH   2   3
ENDBRANCH   1   2
BRANCH   1  13
ATOM     13  C   UNL     1      15.312  12.637 -14.128  1.00  0.00     0.000 C 
BRANCH  13  14
ATOM     14  C   UNL     1      15.526  12.966 -15.620  1.00  0.00     0.000 C 
BRANCH  14  15
ATOM     15  C   UNL     1      16.978  13.320 -15.985  1.00  0.00     0.000 C 
BRANCH  15  16
ATOM     16  C   UNL     1      18.009  12.619 -15.076  1.00  0.00     0.000 C 
BRANCH  16  17
ATOM     17  C   UNL     1      19.217  13.518 -14.748  1.00  0.00     0.000 C 
BRANCH  17  18
ATOM     18  C   UNL     1      19.609  14.496 -15.874  1.00  0.00     0.000 C 
BRANCH  18  19
ATOM     19  C   UNL     1      21.123  14.647 -16.125  1.00  0.00     0.000 C 
BRANCH  19  20
ATOM     20  C   UNL     1      21.783  15.776 -15.305  1.00  0.00     0.006 C 
BRANCH  20  21
ATOM     21  C   UNL     1      21.446  17.171 -15.850  1.00  0.00     0.053 C 
BRANCH  21  22
ATOM     22  C   UNL     1      21.904  18.229 -14.894  1.00  0.00     0.041 C 
ATOM     23  O   UNL     1      22.439  17.907 -13.800  1.00  0.00    -0.550 OA
ATOM     24  O   UNL     1      21.703  19.571 -15.197  1.00  0.00    -0.550 OA
ENDBRANCH  21  22
ENDBRANCH  20  21
ENDBRANCH  19  20
ENDBRANCH  18  19
ENDBRANCH  17  18
ENDBRANCH  16  17
ENDBRANCH  15  16
ENDBRANCH  14  15
ENDBRANCH  13  14
ENDBRANCH   1  13
TORSDOF 20
ENDMDL
MODEL 4
REMARK VINA RESULT:    -3.017      1.555      2.573
REMARK INTER + INTRA:          -7.732
REMARK INTER:                  -6.343
REMARK INTRA:                  -1.389
REMARK UNBOUND:                -1.188
REMARK SMILES CCCCCCCCCCCCCCCCCCCCCC(=O)[O-]
REMARK SMILES IDX 12 1 11 2 10 3 9 4 8 5 7 6 6 7 5 8 4 9 3 10 2 11 1 12 13 13
REMARK SMILES IDX 14 14 15 15 16 16 17 17 18 18 19 19 20 20 21 21 22 22 23 23
REMARK SMILES IDX 24 24
REMARK H PARENT
REMARK Flexibility Score: inf
ROOT
ATOM      1  C   UNL     1      15.076  11.816 -13.212  1.00  0.00     0.000 C 
ENDROOT
BRANCH   1   2
ATOM      2  C   UNL     1      15.863  12.919 -13.937  1.00  0.00     0.000 C 
BRANCH   2   3
ATOM      3  C   UNL     1      15.929  12.686 -15.456  1.00  0.00     0.000 C 
BRANCH   3   4
ATOM      4  C   UNL     1      17.089  13.452 -16.116  1.00  0.00    -0.000 C 
BRANCH   4   5
ATOM      5  C   UNL     1      18.454  12.788 -15.875  1.00  0.00    -0.000 C 
BRANCH   5   6
ATOM      6  C   UNL     1      19.478  13.738 -15.233  1.00  0.00    -0.000 C 
BRANCH   6   7
ATOM      7  C   UNL     1      19.718  14.966 -16.124  1.00  0.00    -0.000 C 
BRANCH   7   8
ATOM      8  C   UNL     1      21.175  15.462 -16.076  1.00  0.00    -0.000 C 
BRANCH   8   9
ATOM      9  C   UNL     1      21.465  16.528 -14.999  1.00  0.00    -0.000 C 
BRANCH   9  10
ATOM     10  C   UNL     1      22.524  17.580 -15.386  1.00  0.00    -0.000 C 
BRANCH  10  11
ATOM     11  C   UNL     1      22.408  18.919 -14.639  1.00  0.00    -0.003 C 
ATOM     12  C   UNL     1      22.087  20.092 -15.566  1.00  0.00     0.004 C 
ENDBRANCH  10  11
ENDBRANCH   9  10
ENDBRANCH   8   9
ENDBRANCH   7   8
ENDBRANCH   6   7
ENDBRANCH   5   6
ENDBRANCH   4   5
ENDBRANCH   3   4
ENDBRANCH   2   3
ENDBRANCH   1   2
BRANCH   1  13
ATOM     13  C   UNL     1      13.906  11.316 -14.073  1.00  0.00     0.000 C 
BRANCH  13  14
ATOM     14  C   UNL     1      14.331  10.252 -15.106  1.00  0.00     0.000 C 
BRANCH  14  15
ATOM     15  C   UNL     1      14.913   8.969 -14.486  1.00  0.00     0.000 C 
BRANCH  15  16
ATOM     16  C   UNL     1      16.000   8.320 -15.367  1.00  0.00     0.000 C 
BRANCH  16  17
ATOM     17  C   UNL     1      17.179   9.270 -15.651  1.00  0.00     0.000 C 
BRANCH  17  18
ATOM     18  C   UNL     1      18.569   8.607 -15.559  1.00  0.00     0.000 C 
BRANCH  18  19
ATOM     19  C   UNL     1      19.756   9.491 -15.992  1.00  0.00     0.000 C 
BRANCH  19  20
ATOM     20  C   UNL     1      20.518  10.135 -14.814  1.00  0.00     0.006 C 
BRANCH  20  21
ATOM     21  C   UNL     1      21.987  10.424 -15.152  1.00  0.00     0.053 C 
BRANCH  21  22
ATOM     22  C   UNL     1      22.382  11.777 -14.650  1.00  0.00     0.041 C 
ATOM     23  O   UNL     1      22.952  12.597 -15.417  1.00  0.00    -0.550 OA
ATOM     24  O   UNL     1      22.153  12.118 -13.322  1.00  0.00    -0.550 OA
ENDBRANCH  21  22
ENDBRANCH  20  21
ENDBRANCH  19  20
ENDBRANCH  18  19
ENDBRANCH  17  18
ENDBRANCH  16  17
ENDBRANCH  15  16
ENDBRANCH  14  15
ENDBRANCH  13  14
ENDBRANCH   1  13
TORSDOF 20
ENDMDL
MODEL 5
REMARK VINA RESULT:    -2.942      1.953      3.621
REMARK INTER + INTRA:          -7.570
REMARK INTER:                  -6.801
REMARK INTRA:                  -0.769
REMARK UNBOUND:                -1.188
REMARK SMILES CCCCCCCCCCCCCCCCCCCCCC(=O)[O-]
REMARK SMILES IDX 12 1 11 2 10 3 9 4 8 5 7 6 6 7 5 8 4 9 3 10 2 11 1 12 13 13
REMARK SMILES IDX 14 14 15 15 16 16 17 17 18 18 19 19 20 20 21 21 22 22 23 23
REMARK SMILES IDX 24 24
REMARK H PARENT
REMARK Flexibility Score: inf
ROOT
ATOM      1  C   UNL     1      19.040   9.556 -15.693  1.00  0.00     0.000 C 
ENDROOT
BRANCH   1   2
ATOM      2  C   UNL     1      20.141   8.525 -15.989  1.00  0.00     0.000 C 
BRANCH   2   3
ATOM      3  C   UNL     1      21.538   9.167 -16.056  1.00  0.00     0.000 C 
BRANCH   3   4
ATOM      4  C   UNL     1      21.474  10.703 -16.117  1.00  0.00    -0.000 C 
BRANCH   4   5
ATOM      5  C   UNL     1      22.594  11.376 -15.307  1.00  0.00    -0.000 C 
BRANCH   5   6
ATOM      6  C   UNL     1      22.120  11.890 -13.939  1.00  0.00    -0.000 C 
BRANCH   6   7
ATOM      7  C   UNL     1      23.088  12.948 -13.387  1.00  0.00    -0.000 C 
BRANCH   7   8
ATOM      8  C   UNL     1      22.647  14.387 -13.713  1.00  0.00    -0.000 C 
BRANCH   8   9
ATOM      9  C   UNL     1      21.966  14.566 -15.086  1.00  0.00    -0.000 C 
BRANCH   9  10
ATOM     10  C   UNL     1      22.163  15.947 -15.741  1.00  0.00    -0.000 C 
BRANCH  10  11
ATOM     11  C   UNL     1      21.955  17.145 -14.799  1.00  0.00    -0.003 C 
ATOM     12  C   UNL     1      23.124  18.129 -14.820  1.00  0.00     0.004 C 
ENDBRANCH  10  11
ENDBRANCH   9  10
ENDBRANCH   8   9
ENDBRANCH   7   8
ENDBRANCH   6   7
ENDBRANCH   5   6
ENDBRANCH   4   5
ENDBRANCH   3   4
ENDBRANCH   2   3
ENDBRANCH   1   2
BRANCH   1  13
ATOM     13  C   UNL     1      17.646   8.916 -15.787  1.00  0.00     0.000 C 
BRANCH  13  14
ATOM     14  C   UNL     1      17.031   8.609 -14.405  1.00  0.00     0.000 C 
BRANCH  14  15
ATOM     15  C   UNL     1      15.498   8.734 -14.357  1.00  0.00     0.000 C 
BRANCH  15  16
ATOM     16  C   UNL     1      14.879   9.027 -15.738  1.00  0.00     0.000 C 
BRANCH  16  17
ATOM     17  C   UNL     1      14.095  10.353 -15.768  1.00  0.00     0.000 C 
BRANCH  17  18
ATOM     18  C   UNL     1      14.395  11.297 -14.585  1.00  0.00     0.000 C 
BRANCH  18  19
ATOM     19  C   UNL     1      15.315  12.492 -14.907  1.00  0.00     0.000 C 
BRANCH  19  20
ATOM     20  C   UNL     1      16.234  12.263 -16.125  1.00  0.00     0.006 C 
BRANCH  20  21
ATOM     21  C   UNL     1      17.559  13.031 -16.014  1.00  0.00     0.053 C 
BRANCH  21  22
ATOM     22  C   UNL     1      18.217  12.748 -14.700  1.00  0.00     0.041 C 
ATOM     23  O   UNL     1      19.309  13.303 -14.405  1.00  0.00    -0.550 OA
ATOM     24  O   UNL     1      17.643  11.842 -13.816  1.00  0.00    -0.550 OA
ENDBRANCH  21  22
ENDBRANCH  20  21
ENDBRANCH  19  20
ENDBRANCH  18  19
ENDBRANCH  17  18
ENDBRANCH  16  17
ENDBRANCH  15  16
ENDBRANCH  14  15
ENDBRANCH  13  14
ENDBRANCH   1  13
TORSDOF 20
ENDMDL
MODEL 6
REMARK VINA RESULT:    -2.411      2.412      4.024
REMARK INTER + INTRA:          -6.417
REMARK INTER:                  -5.933
REMARK INTRA:                  -0.484
REMARK UNBOUND:                -1.188
REMARK SMILES CCCCCCCCCCCCCCCCCCCCCC(=O)[O-]
REMARK SMILES IDX 12 1 11 2 10 3 9 4 8 5 7 6 6 7 5 8 4 9 3 10 2 11 1 12 13 13
REMARK SMILES IDX 14 14 15 15 16 16 17 17 18 18 19 19 20 20 21 21 22 22 23 23
REMARK SMILES IDX 24 24
REMARK H PARENT
REMARK Flexibility Score: inf
ROOT
ATOM      1  C   UNL     1      19.440  10.110 -15.696  1.00  0.00     0.000 C 
ENDROOT
BRANCH   1   2
ATOM      2  C   UNL     1      20.686  10.268 -14.811  1.00  0.00     0.000 C 
BRANCH   2   3
ATOM      3  C   UNL     1      20.878  11.715 -14.327  1.00  0.00     0.000 C 
BRANCH   3   4
ATOM      4  C   UNL     1      22.352  12.154 -14.364  1.00  0.00    -0.000 C 
BRANCH   4   5
ATOM      5  C   UNL     1      22.579  13.403 -15.231  1.00  0.00    -0.000 C 
BRANCH   5   6
ATOM      6  C   UNL     1      21.337  13.802 -16.045  1.00  0.00    -0.000 C 
BRANCH   6   7
ATOM      7  C   UNL     1      20.921  15.247 -15.735  1.00  0.00    -0.000 C 
BRANCH   7   8
ATOM      8  C   UNL     1      22.000  16.275 -16.125  1.00  0.00    -0.000 C 
BRANCH   8   9
ATOM      9  C   UNL     1      22.097  17.502 -15.195  1.00  0.00    -0.000 C 
BRANCH   9  10
ATOM     10  C   UNL     1      21.711  18.847 -15.842  1.00  0.00    -0.000 C 
BRANCH  10  11
ATOM     11  C   UNL     1      22.171  20.094 -15.068  1.00  0.00    -0.003 C 
ATOM     12  C   UNL     1      22.437  21.294 -15.976  1.00  0.00     0.004 C 
ENDBRANCH  10  11
ENDBRANCH   9  10
ENDBRANCH   8   9
ENDBRANCH   7   8
ENDBRANCH   6   7
ENDBRANCH   5   6
ENDBRANCH   4   5
ENDBRANCH   3   4
ENDBRANCH   2   3
ENDBRANCH   1   2
BRANCH   1  13
ATOM     13  C   UNL     1      19.242   8.645 -16.116  1.00  0.00     0.000 C 
BRANCH  13  14
ATOM     14  C   UNL     1      17.946   8.027 -15.550  1.00  0.00     0.000 C 
BRANCH  14  15
ATOM     15  C   UNL     1      16.777   9.020 -15.427  1.00  0.00     0.000 C 
BRANCH  15  16
ATOM     16  C   UNL     1      15.651   8.504 -14.508  1.00  0.00     0.000 C 
BRANCH  16  17
ATOM     17  C   UNL     1      14.378   8.123 -15.286  1.00  0.00     0.000 C 
BRANCH  17  18
ATOM     18  C   UNL     1      13.746   9.282 -16.085  1.00  0.00     0.000 C 
BRANCH  18  19
ATOM     19  C   UNL     1      13.997  10.693 -15.516  1.00  0.00     0.000 C 
BRANCH  19  20
ATOM     20  C   UNL     1      15.224  11.403 -16.125  1.00  0.00     0.006 C 
BRANCH  20  21
ATOM     21  C   UNL     1      15.578  12.702 -15.387  1.00  0.00     0.053 C 
BRANCH  21  22
ATOM     22  C   UNL     1      16.064  12.400 -14.004  1.00  0.00     0.041 C 
ATOM     23  O   UNL     1      15.266  12.427 -13.030  1.00  0.00    -0.550 OA
ATOM     24  O   UNL     1      17.410  12.128 -13.786  1.00  0.00    -0.550 OA
ENDBRANCH  21  22
ENDBRANCH  20  21
ENDBRANCH  19  20
ENDBRANCH  18  19
ENDBRANCH  17  18
ENDBRANCH  16  17
ENDBRANCH  15  16
ENDBRANCH  14  15
ENDBRANCH  13  14
ENDBRANCH   1  13
TORSDOF 20
ENDMDL
MODEL 7
REMARK VINA RESULT:    -2.204      2.832      7.732
REMARK INTER + INTRA:          -5.969
REMARK INTER:                  -4.289
REMARK INTRA:                  -1.680
REMARK UNBOUND:                -1.188
REMARK SMILES CCCCCCCCCCCCCCCCCCCCCC(=O)[O-]
REMARK SMILES IDX 12 1 11 2 10 3 9 4 8 5 7 6 6 7 5 8 4 9 3 10 2 11 1 12 13 13
REMARK SMILES IDX 14 14 15 15 16 16 17 17 18 18 19 19 20 20 21 21 22 22 23 23
REMARK SMILES IDX 24 24
REMARK H PARENT
REMARK Flexibility Score: inf
ROOT
ATOM      1  C   UNL     1      17.206  12.253 -13.844  1.00  0.00     0.000 C 
ENDROOT
BRANCH   1   2
ATOM      2  C   UNL     1      17.049  12.057 -15.360  1.00  0.00     0.000 C 
BRANCH   2   3
ATOM      3  C   UNL     1      15.575  12.039 -15.796  1.00  0.00     0.000 C 
BRANCH   3   4
ATOM      4  C   UNL     1      14.614  11.867 -14.607  1.00  0.00    -0.000 C 
BRANCH   4   5
ATOM      5  C   UNL     1      14.610  10.435 -14.048  1.00  0.00    -0.000 C 
BRANCH   5   6
ATOM      6  C   UNL     1      14.185   9.387 -15.088  1.00  0.00    -0.000 C 
BRANCH   6   7
ATOM      7  C   UNL     1      15.218   8.253 -15.175  1.00  0.00    -0.000 C 
BRANCH   7   8
ATOM      8  C   UNL     1      16.427   8.614 -16.057  1.00  0.00    -0.000 C 
BRANCH   8   9
ATOM      9  C   UNL     1      17.758   8.791 -15.298  1.00  0.00    -0.000 C 
BRANCH   9  10
ATOM     10  C   UNL     1      19.028   8.506 -16.125  1.00  0.00    -0.000 C 
BRANCH  10  11
ATOM     11  C   UNL     1      20.201   9.465 -15.861  1.00  0.00    -0.003 C 
ATOM     12  C   UNL     1      21.553   8.754 -15.817  1.00  0.00     0.004 C 
ENDBRANCH  10  11
ENDBRANCH   9  10
ENDBRANCH   8   9
ENDBRANCH   7   8
ENDBRANCH   6   7
ENDBRANCH   5   6
ENDBRANCH   4   5
ENDBRANCH   3   4
ENDBRANCH   2   3
ENDBRANCH   1   2
BRANCH   1  13
ATOM     13  C   UNL     1      18.433  13.122 -13.524  1.00  0.00     0.000 C 
BRANCH  13  14
ATOM     14  C   UNL     1      19.750  12.524 -14.062  1.00  0.00     0.000 C 
BRANCH  14  15
ATOM     15  C   UNL     1      20.920  12.579 -13.065  1.00  0.00     0.000 C 
BRANCH  15  16
ATOM     16  C   UNL     1      22.156  13.306 -13.634  1.00  0.00     0.000 C 
BRANCH  16  17
ATOM     17  C   UNL     1      22.613  12.729 -14.987  1.00  0.00     0.000 C 
BRANCH  17  18
ATOM     18  C   UNL     1      22.703  13.766 -16.125  1.00  0.00     0.000 C 
BRANCH  18  19
ATOM     19  C   UNL     1      23.074  15.198 -15.690  1.00  0.00     0.000 C 
BRANCH  19  20
ATOM     20  C   UNL     1      21.860  16.141 -15.545  1.00  0.00     0.006 C 
BRANCH  20  21
ATOM     21  C   UNL     1      22.167  17.570 -16.012  1.00  0.00     0.053 C 
BRANCH  21  22
ATOM     22  C   UNL     1      22.168  18.511 -14.847  1.00  0.00     0.041 C 
ATOM     23  O   UNL     1      21.998  19.745 -15.029  1.00  0.00    -0.550 OA
ATOM     24  O   UNL     1      22.397  18.026 -13.564  1.00  0.00    -0.550 OA
ENDBRANCH  21  22
ENDBRANCH  20  21
ENDBRANCH  19  20
ENDBRANCH  18  19
ENDBRANCH  17  18
ENDBRANCH  16  17
ENDBRANCH  15  16
ENDBRANCH  14  15
ENDBRANCH  13  14
ENDBRANCH   1  13
TORSDOF 20
ENDMDL
