MODEL 1
REMARK VINA RESULT:    -5.469      0.000      0.000
REMARK INTER + INTRA:          -6.375
REMARK INTER:                  -6.268
REMARK INTRA:                  -0.107
REMARK UNBOUND:                -0.107
REMARK SMILES COc1ccc(C(C)=O)cc1O
REMARK SMILES IDX 6 1 10 2 11 3 3 4 4 5 5 6 7 7 8 8 9 9 12 10 2 12 1 13
REMARK H PARENT 12 11
REMARK Flexibility Score: inf
ROOT
ATOM      1  C   UNL     1       0.549  26.872  53.742  1.00  0.00     0.021 A 
ATOM      2  C   UNL     1       0.783  28.246  53.549  1.00  0.00     0.062 A 
ATOM      3  C   UNL     1      -0.246  29.096  53.119  1.00  0.00     0.158 A 
ATOM      4  C   UNL     1      -1.527  28.585  52.875  1.00  0.00     0.160 A 
ATOM      5  C   UNL     1      -1.767  27.212  53.065  1.00  0.00     0.051 A 
ATOM      6  C   UNL     1      -0.741  26.367  53.494  1.00  0.00     0.016 A 
ENDROOT
BRANCH   1   7
ATOM      7  C   UNL     1       1.653  25.985  54.199  1.00  0.00     0.159 C 
ATOM      8  C   UNL     1       2.957  25.897  53.462  1.00  0.00     0.093 C 
ATOM      9  O   UNL     1       1.503  25.283  55.236  1.00  0.00    -0.295 OA
ENDBRANCH   1   7
BRANCH   3  10
ATOM     10  O   UNL     1      -0.001  30.455  52.932  1.00  0.00    -0.504 OA
ATOM     11  H   UNL     1      -0.544  31.008  52.277  1.00  0.00     0.293 HD
ENDBRANCH   3  10
BRANCH   4  12
ATOM     12  O   UNL     1      -2.530  29.468  52.446  1.00  0.00    -0.493 OA
ATOM     13  C   UNL     1      -2.894  29.673  51.083  1.00  0.00     0.278 C 
ENDBRANCH   4  12
TORSDOF 3
ENDMDL
MODEL 2
REMARK VINA RESULT:    -5.213      1.417      4.650
REMARK INTER + INTRA:          -6.082
REMARK INTER:                  -6.057
REMARK INTRA:                  -0.025
REMARK UNBOUND:                -0.107
REMARK SMILES COc1ccc(C(C)=O)cc1O
REMARK SMILES IDX 6 1 10 2 11 3 3 4 4 5 5 6 7 7 8 8 9 9 12 10 2 12 1 13
REMARK H PARENT 12 11
REMARK Flexibility Score: inf
ROOT
ATOM      1  C   UNL     1      -1.041  28.470  52.453  1.00  0.00     0.021 A 
ATOM      2  C   UNL     1       0.251  28.857  52.854  1.00  0.00     0.062 A 
ATOM      3  C   UNL     1       1.093  27.960  53.527  1.00  0.00     0.158 A 
ATOM      4  C   UNL     1       0.658  26.660  53.810  1.00  0.00     0.160 A 
ATOM      5  C   UNL     1      -0.633  26.266  53.412  1.00  0.00     0.051 A 
ATOM      6  C   UNL     1      -1.471  27.161  52.742  1.00  0.00     0.016 A 
ENDROOT
BRANCH   1   7
ATOM      7  C   UNL     1      -1.921  29.434  51.740  1.00  0.00     0.159 C 
ATOM      8  C   UNL     1      -1.585  30.893  51.645  1.00  0.00     0.093 C 
ATOM      9  O   UNL     1      -2.982  29.027  51.193  1.00  0.00    -0.295 OA
ENDBRANCH   1   7
BRANCH   3  10
ATOM     10  O   UNL     1       2.371  28.357  53.919  1.00  0.00    -0.504 OA
ATOM     11  H   UNL     1       2.522  29.196  54.468  1.00  0.00     0.293 HD
ENDBRANCH   3  10
BRANCH   4  12
ATOM     12  O   UNL     1       1.530  25.793  54.485  1.00  0.00    -0.493 OA
ATOM     13  C   UNL     1       1.747  25.803  55.894  1.00  0.00     0.278 C 
ENDBRANCH   4  12
TORSDOF 3
ENDMDL
MODEL 3
REMARK VINA RESULT:    -5.062      1.239      2.224
REMARK INTER + INTRA:          -5.909
REMARK INTER:                  -5.812
REMARK INTRA:                  -0.097
REMARK UNBOUND:                -0.107
REMARK SMILES COc1ccc(C(C)=O)cc1O
REMARK SMILES IDX 6 1 10 2 11 3 3 4 4 5 5 6 7 7 8 8 9 9 12 10 2 12 1 13
REMARK H PARENT 12 11
REMARK Flexibility Score: inf
ROOT
ATOM      1  C   UNL     1       0.679  27.168  53.639  1.00  0.00     0.021 A 
ATOM      2  C   UNL     1      -0.601  26.603  53.484  1.00  0.00     0.062 A 
ATOM      3  C   UNL     1      -1.642  27.334  52.895  1.00  0.00     0.158 A 
ATOM      4  C   UNL     1      -1.421  28.643  52.450  1.00  0.00     0.160 A 
ATOM      5  C   UNL     1      -0.145  29.214  52.602  1.00  0.00     0.051 A 
ATOM      6  C   UNL     1       0.892  28.485  53.190  1.00  0.00     0.016 A 
ENDROOT
BRANCH   1   7
ATOM      7  C   UNL     1       1.772  26.378  54.267  1.00  0.00     0.159 C 
ATOM      8  C   UNL     1       1.922  26.274  55.756  1.00  0.00     0.093 C 
ATOM      9  O   UNL     1       2.603  25.771  53.538  1.00  0.00    -0.295 OA
ENDBRANCH   1   7
BRANCH   3  10
ATOM     10  O   UNL     1      -2.904  26.762  52.747  1.00  0.00    -0.504 OA
ATOM     11  H   UNL     1      -3.629  26.886  53.445  1.00  0.00     0.293 HD
ENDBRANCH   3  10
BRANCH   4  12
ATOM     12  O   UNL     1      -2.489  29.341  51.865  1.00  0.00    -0.493 OA
ATOM     13  C   UNL     1      -2.574  30.761  51.782  1.00  0.00     0.278 C 
ENDBRANCH   4  12
TORSDOF 3
ENDMDL
MODEL 4
REMARK VINA RESULT:    -4.983      2.718      4.857
REMARK INTER + INTRA:          -5.818
REMARK INTER:                  -5.722
REMARK INTRA:                  -0.097
REMARK UNBOUND:                -0.107
REMARK SMILES COc1ccc(C(C)=O)cc1O
REMARK SMILES IDX 6 1 10 2 11 3 3 4 4 5 5 6 7 7 8 8 9 9 12 10 2 12 1 13
REMARK H PARENT 12 11
REMARK Flexibility Score: inf
ROOT
ATOM      1  C   UNL     1      -1.065  30.168  50.704  1.00  0.00     0.021 A 
ATOM      2  C   UNL     1       0.072  29.778  51.434  1.00  0.00     0.062 A 
ATOM      3  C   UNL     1      -0.045  29.314  52.752  1.00  0.00     0.158 A 
ATOM      4  C   UNL     1      -1.303  29.233  53.363  1.00  0.00     0.160 A 
ATOM      5  C   UNL     1      -2.444  29.622  52.638  1.00  0.00     0.051 A 
ATOM      6  C   UNL     1      -2.326  30.084  51.324  1.00  0.00     0.016 A 
ENDROOT
BRANCH   1   7
ATOM      7  C   UNL     1      -0.922  30.657  49.305  1.00  0.00     0.159 C 
ATOM      8  C   UNL     1       0.290  30.346  48.477  1.00  0.00     0.093 C 
ATOM      9  O   UNL     1      -1.838  31.352  48.789  1.00  0.00    -0.295 OA
ENDBRANCH   1   7
BRANCH   3  10
ATOM     10  O   UNL     1       1.090  28.931  53.465  1.00  0.00    -0.504 OA
ATOM     11  H   UNL     1       1.980  28.776  53.004  1.00  0.00     0.293 HD
ENDBRANCH   3  10
BRANCH   4  12
ATOM     12  O   UNL     1      -1.378  28.765  54.683  1.00  0.00    -0.493 OA
ATOM     13  C   UNL     1      -2.551  28.816  55.491  1.00  0.00     0.278 C 
ENDBRANCH   4  12
TORSDOF 3
ENDMDL
MODEL 5
REMARK VINA RESULT:    -4.870      1.976      5.406
REMARK INTER + INTRA:          -5.688
REMARK INTER:                  -5.561
REMARK INTRA:                  -0.127
REMARK UNBOUND:                -0.107
REMARK SMILES COc1ccc(C(C)=O)cc1O
REMARK SMILES IDX 6 1 10 2 11 3 3 4 4 5 5 6 7 7 8 8 9 9 12 10 2 12 1 13
REMARK H PARENT 12 11
REMARK Flexibility Score: inf
ROOT
ATOM      1  C   UNL     1      -1.842  29.937  50.987  1.00  0.00     0.021 A 
ATOM      2  C   UNL     1      -2.531  28.824  51.502  1.00  0.00     0.062 A 
ATOM      3  C   UNL     1      -1.984  28.057  52.540  1.00  0.00     0.158 A 
ATOM      4  C   UNL     1      -0.737  28.392  53.082  1.00  0.00     0.160 A 
ATOM      5  C   UNL     1      -0.042  29.504  52.572  1.00  0.00     0.051 A 
ATOM      6  C   UNL     1      -0.589  30.266  51.537  1.00  0.00     0.016 A 
ENDROOT
BRANCH   1   7
ATOM      7  C   UNL     1      -2.439  30.740  49.885  1.00  0.00     0.159 C 
ATOM      8  C   UNL     1      -1.648  31.135  48.674  1.00  0.00     0.093 C 
ATOM      9  O   UNL     1      -3.644  31.103  49.958  1.00  0.00    -0.295 OA
ENDBRANCH   1   7
BRANCH   3  10
ATOM     10  O   UNL     1      -2.677  26.957  53.041  1.00  0.00    -0.504 OA
ATOM     11  H   UNL     1      -2.886  26.151  52.461  1.00  0.00     0.293 HD
ENDBRANCH   3  10
BRANCH   4  12
ATOM     12  O   UNL     1      -0.223  27.600  54.121  1.00  0.00    -0.493 OA
ATOM     13  C   UNL     1       0.746  26.570  53.945  1.00  0.00     0.278 C 
ENDBRANCH   4  12
TORSDOF 3
ENDMDL
MODEL 6
REMARK VINA RESULT:    -4.724      2.726      3.925
REMARK INTER + INTRA:          -5.522
REMARK INTER:                  -5.420
REMARK INTRA:                  -0.102
REMARK UNBOUND:                -0.107
REMARK SMILES COc1ccc(C(C)=O)cc1O
REMARK SMILES IDX 6 1 10 2 11 3 3 4 4 5 5 6 7 7 8 8 9 9 12 10 2 12 1 13
REMARK H PARENT 12 11
REMARK Flexibility Score: inf
ROOT
ATOM      1  C   UNL     1      -1.256  29.258  53.071  1.00  0.00     0.021 A 
ATOM      2  C   UNL     1      -2.490  29.248  52.395  1.00  0.00     0.062 A 
ATOM      3  C   UNL     1      -2.612  29.811  51.116  1.00  0.00     0.158 A 
ATOM      4  C   UNL     1      -1.502  30.394  50.493  1.00  0.00     0.160 A 
ATOM      5  C   UNL     1      -0.266  30.408  51.164  1.00  0.00     0.051 A 
ATOM      6  C   UNL     1      -0.146  29.847  52.438  1.00  0.00     0.016 A 
ENDROOT
BRANCH   1   7
ATOM      7  C   UNL     1      -1.144  28.655  54.427  1.00  0.00     0.159 C 
ATOM      8  C   UNL     1      -2.247  28.767  55.438  1.00  0.00     0.093 C 
ATOM      9  O   UNL     1      -0.098  28.029  54.749  1.00  0.00    -0.295 OA
ENDBRANCH   1   7
BRANCH   3  10
ATOM     10  O   UNL     1      -3.840  29.793  50.457  1.00  0.00    -0.504 OA
ATOM     11  H   UNL     1      -4.012  29.179  49.669  1.00  0.00     0.293 HD
ENDBRANCH   3  10
BRANCH   4  12
ATOM     12  O   UNL     1      -1.666  30.947  49.214  1.00  0.00    -0.493 OA
ATOM     13  C   UNL     1      -0.754  30.764  48.134  1.00  0.00     0.278 C 
ENDBRANCH   4  12
TORSDOF 3
ENDMDL
MODEL 7
REMARK VINA RESULT:    -4.674      1.828      4.909
REMARK INTER + INTRA:          -5.464
REMARK INTER:                  -5.366
REMARK INTRA:                  -0.097
REMARK UNBOUND:                -0.107
REMARK SMILES COc1ccc(C(C)=O)cc1O
REMARK SMILES IDX 6 1 10 2 11 3 3 4 4 5 5 6 7 7 8 8 9 9 12 10 2 12 1 13
REMARK H PARENT 12 11
REMARK Flexibility Score: inf
ROOT
ATOM      1  C   UNL     1      -1.504  29.038  52.669  1.00  0.00     0.021 A 
ATOM      2  C   UNL     1      -1.867  29.021  54.028  1.00  0.00     0.062 A 
ATOM      3  C   UNL     1      -1.038  28.419  54.985  1.00  0.00     0.158 A 
ATOM      4  C   UNL     1       0.168  27.823  54.599  1.00  0.00     0.160 A 
ATOM      5  C   UNL     1       0.538  27.836  53.241  1.00  0.00     0.051 A 
ATOM      6  C   UNL     1      -0.289  28.437  52.289  1.00  0.00     0.016 A 
ENDROOT
BRANCH   1   7
ATOM      7  C   UNL     1      -2.395  29.683  51.667  1.00  0.00     0.159 C 
ATOM      8  C   UNL     1      -2.352  31.159  51.400  1.00  0.00     0.093 C 
ATOM      9  O   UNL     1      -3.214  28.980  51.014  1.00  0.00    -0.295 OA
ENDBRANCH   1   7
BRANCH   3  10
ATOM     10  O   UNL     1      -1.410  28.409  56.328  1.00  0.00    -0.504 OA
ATOM     11  H   UNL     1      -2.249  27.934  56.644  1.00  0.00     0.293 HD
ENDBRANCH   3  10
BRANCH   4  12
ATOM     12  O   UNL     1       0.969  27.230  55.587  1.00  0.00    -0.493 OA
ATOM     13  C   UNL     1       1.948  26.225  55.336  1.00  0.00     0.278 C 
ENDBRANCH   4  12
TORSDOF 3
ENDMDL
MODEL 8
REMARK VINA RESULT:    -4.606      3.222      5.332
REMARK INTER + INTRA:          -5.386
REMARK INTER:                  -5.266
REMARK INTRA:                  -0.120
REMARK UNBOUND:                -0.107
REMARK SMILES COc1ccc(C(C)=O)cc1O
REMARK SMILES IDX 6 1 10 2 11 3 3 4 4 5 5 6 7 7 8 8 9 9 12 10 2 12 1 13
REMARK H PARENT 12 11
REMARK Flexibility Score: inf
ROOT
ATOM      1  C   UNL     1      -1.275  30.383  50.057  1.00  0.00     0.021 A 
ATOM      2  C   UNL     1      -2.454  30.907  50.617  1.00  0.00     0.062 A 
ATOM      3  C   UNL     1      -2.871  30.526  51.901  1.00  0.00     0.158 A 
ATOM      4  C   UNL     1      -2.114  29.615  52.647  1.00  0.00     0.160 A 
ATOM      5  C   UNL     1      -0.934  29.087  52.093  1.00  0.00     0.051 A 
ATOM      6  C   UNL     1      -0.520  29.467  50.814  1.00  0.00     0.016 A 
ENDROOT
BRANCH   1   7
ATOM      7  C   UNL     1      -0.847  30.798  48.694  1.00  0.00     0.159 C 
ATOM      8  C   UNL     1       0.480  30.397  48.122  1.00  0.00     0.093 C 
ATOM      9  O   UNL     1      -1.614  31.507  47.987  1.00  0.00    -0.295 OA
ENDBRANCH   1   7
BRANCH   3  10
ATOM     10  O   UNL     1      -4.042  31.053  52.443  1.00  0.00    -0.504 OA
ATOM     11  H   UNL     1      -4.020  31.776  53.154  1.00  0.00     0.293 HD
ENDBRANCH   3  10
BRANCH   4  12
ATOM     12  O   UNL     1      -2.565  29.260  53.927  1.00  0.00    -0.493 OA
ATOM     13  C   UNL     1      -1.763  28.618  54.915  1.00  0.00     0.278 C 
ENDBRANCH   4  12
TORSDOF 3
ENDMDL
MODEL 9
REMARK VINA RESULT:    -4.568      2.830      3.656
REMARK INTER + INTRA:          -5.342
REMARK INTER:                  -5.224
REMARK INTRA:                  -0.118
REMARK UNBOUND:                -0.107
REMARK SMILES COc1ccc(C(C)=O)cc1O
REMARK SMILES IDX 6 1 10 2 11 3 3 4 4 5 5 6 7 7 8 8 9 9 12 10 2 12 1 13
REMARK H PARENT 12 11
REMARK Flexibility Score: inf
ROOT
ATOM      1  C   UNL     1      -1.470  29.294  53.418  1.00  0.00     0.021 A 
ATOM      2  C   UNL     1      -0.162  29.425  52.917  1.00  0.00     0.062 A 
ATOM      3  C   UNL     1       0.066  29.925  51.627  1.00  0.00     0.158 A 
ATOM      4  C   UNL     1      -1.011  30.303  50.816  1.00  0.00     0.160 A 
ATOM      5  C   UNL     1      -2.321  30.175  51.311  1.00  0.00     0.051 A 
ATOM      6  C   UNL     1      -2.547  29.676  52.596  1.00  0.00     0.016 A 
ENDROOT
BRANCH   1   7
ATOM      7  C   UNL     1      -1.693  28.762  54.790  1.00  0.00     0.159 C 
ATOM      8  C   UNL     1      -2.995  28.948  55.510  1.00  0.00     0.093 C 
ATOM      9  O   UNL     1      -0.769  28.134  55.375  1.00  0.00    -0.295 OA
ENDBRANCH   1   7
BRANCH   3  10
ATOM     10  O   UNL     1       1.368  30.049  51.142  1.00  0.00    -0.504 OA
ATOM     11  H   UNL     1       1.672  29.564  50.305  1.00  0.00     0.293 HD
ENDBRANCH   3  10
BRANCH   4  12
ATOM     12  O   UNL     1      -0.741  30.799  49.531  1.00  0.00    -0.493 OA
ATOM     13  C   UNL     1      -1.739  31.174  48.586  1.00  0.00     0.278 C 
ENDBRANCH   4  12
TORSDOF 3
ENDMDL
