MODEL 1
REMARK VINA RESULT:    -4.760      0.000      0.000
REMARK INTER + INTRA:          -8.966
REMARK INTER:                  -8.656
REMARK INTRA:                  -0.311
REMARK UNBOUND:                -0.311
REMARK SMILES CCCCCCCCCCCCCC[C@@H](C)C(=O)[O-]
REMARK SMILES IDX 9 1 10 2 11 3 12 4 13 5 14 6 15 7 16 8 17 9 18 10 19 11 8 12
REMARK SMILES IDX 7 13 6 14 5 15 4 16 3 17 2 18 1 19
REMARK H PARENT
REMARK Flexibility Score: inf
ROOT
ATOM      1  C   UNL     1      30.069  -6.444 -15.617  1.00  0.00     0.000 C 
ENDROOT
BRANCH   1   2
ATOM      2  C   UNL     1      31.373  -5.688 -15.338  1.00  0.00     0.000 C 
BRANCH   2   3
ATOM      3  C   UNL     1      32.009  -5.186 -16.640  1.00  0.00     0.000 C 
BRANCH   3   4
ATOM      4  C   UNL     1      33.499  -5.544 -16.699  1.00  0.00     0.000 C 
BRANCH   4   5
ATOM      5  C   UNL     1      34.134  -5.046 -18.004  1.00  0.00     0.001 C 
BRANCH   5   6
ATOM      6  C   UNL     1      35.373  -5.885 -18.366  1.00  0.00     0.009 C 
BRANCH   6   7
ATOM      7  C   UNL     1      36.718  -5.235 -17.974  1.00  0.00     0.032 C 
ATOM      8  C   UNL     1      36.671  -3.701 -18.019  1.00  0.00     0.014 C 
BRANCH   7   9
ATOM      9  C   UNL     1      37.210  -5.735 -16.641  1.00  0.00     0.044 C 
ATOM     10  O   UNL     1      36.776  -5.216 -15.578  1.00  0.00    -0.550 OA
ATOM     11  O   UNL     1      38.179  -6.729 -16.566  1.00  0.00    -0.550 OA
ENDBRANCH   7   9
ENDBRANCH   6   7
ENDBRANCH   5   6
ENDBRANCH   4   5
ENDBRANCH   3   4
ENDBRANCH   2   3
ENDBRANCH   1   2
BRANCH   1  12
ATOM     12  C   UNL     1      29.971  -7.709 -14.751  1.00  0.00     0.000 C 
BRANCH  12  13
ATOM     13  C   UNL     1      29.579  -7.405 -13.296  1.00  0.00    -0.000 C 
BRANCH  13  14
ATOM     14  C   UNL     1      28.846  -6.060 -13.151  1.00  0.00    -0.000 C 
BRANCH  14  15
ATOM     15  C   UNL     1      29.788  -4.902 -12.774  1.00  0.00    -0.000 C 
BRANCH  15  16
ATOM     16  C   UNL     1      30.714  -5.176 -11.574  1.00  0.00    -0.000 C 
BRANCH  16  17
ATOM     17  C   UNL     1      32.133  -5.587 -11.994  1.00  0.00    -0.000 C 
BRANCH  17  18
ATOM     18  C   UNL     1      32.627  -6.780 -11.166  1.00  0.00    -0.003 C 
ATOM     19  C   UNL     1      32.911  -6.370  -9.724  1.00  0.00     0.004 C 
ENDBRANCH  17  18
ENDBRANCH  16  17
ENDBRANCH  15  16
ENDBRANCH  14  15
ENDBRANCH  13  14
ENDBRANCH  12  13
ENDBRANCH   1  12
TORSDOF 14
ENDMDL
MODEL 2
REMARK VINA RESULT:    -4.489      2.426      6.906
REMARK INTER + INTRA:          -8.474
REMARK INTER:                  -7.168
REMARK INTRA:                  -1.306
REMARK UNBOUND:                -0.311
REMARK SMILES CCCCCCCCCCCCCC[C@@H](C)C(=O)[O-]
REMARK SMILES IDX 9 1 10 2 11 3 12 4 13 5 14 6 15 7 16 8 17 9 18 10 19 11 8 12
REMARK SMILES IDX 7 13 6 14 5 15 4 16 3 17 2 18 1 19
REMARK H PARENT
REMARK Flexibility Score: inf
ROOT
ATOM      1  C   UNL     1      31.062  -5.152 -15.557  1.00  0.00     0.000 C 
ENDROOT
BRANCH   1   2
ATOM      2  C   UNL     1      29.811  -5.992 -15.273  1.00  0.00     0.000 C 
BRANCH   2   3
ATOM      3  C   UNL     1      30.095  -7.488 -15.464  1.00  0.00     0.000 C 
BRANCH   3   4
ATOM      4  C   UNL     1      29.705  -8.286 -14.214  1.00  0.00     0.000 C 
BRANCH   4   5
ATOM      5  C   UNL     1      29.821  -7.423 -12.951  1.00  0.00     0.001 C 
BRANCH   5   6
ATOM      6  C   UNL     1      31.253  -7.463 -12.389  1.00  0.00     0.009 C 
BRANCH   6   7
ATOM      7  C   UNL     1      31.811  -6.086 -11.968  1.00  0.00     0.032 C 
ATOM      8  C   UNL     1      30.736  -4.990 -11.954  1.00  0.00     0.014 C 
BRANCH   7   9
ATOM      9  C   UNL     1      32.543  -6.160 -10.653  1.00  0.00     0.044 C 
ATOM     10  O   UNL     1      33.444  -7.025 -10.485  1.00  0.00    -0.550 OA
ATOM     11  O   UNL     1      32.202  -5.320  -9.599  1.00  0.00    -0.550 OA
ENDBRANCH   7   9
ENDBRANCH   6   7
ENDBRANCH   5   6
ENDBRANCH   4   5
ENDBRANCH   3   4
ENDBRANCH   2   3
ENDBRANCH   1   2
BRANCH   1  12
ATOM     12  C   UNL     1      32.058  -5.930 -16.430  1.00  0.00     0.000 C 
BRANCH  12  13
ATOM     13  C   UNL     1      33.353  -5.144 -16.697  1.00  0.00    -0.000 C 
BRANCH  13  14
ATOM     14  C   UNL     1      33.972  -5.474 -18.066  1.00  0.00    -0.000 C 
BRANCH  14  15
ATOM     15  C   UNL     1      35.316  -6.216 -17.953  1.00  0.00    -0.000 C 
BRANCH  15  16
ATOM     16  C   UNL     1      36.129  -5.907 -16.682  1.00  0.00    -0.000 C 
BRANCH  16  17
ATOM     17  C   UNL     1      37.245  -4.878 -16.919  1.00  0.00    -0.000 C 
BRANCH  17  18
ATOM     18  C   UNL     1      36.686  -3.600 -17.555  1.00  0.00    -0.003 C 
ATOM     19  C   UNL     1      37.442  -3.243 -18.831  1.00  0.00     0.004 C 
ENDBRANCH  17  18
ENDBRANCH  16  17
ENDBRANCH  15  16
ENDBRANCH  14  15
ENDBRANCH  13  14
ENDBRANCH  12  13
ENDBRANCH   1  12
TORSDOF 14
ENDMDL
MODEL 3
REMARK VINA RESULT:    -4.315      1.869      4.141
REMARK INTER + INTRA:          -8.157
REMARK INTER:                  -7.450
REMARK INTRA:                  -0.707
REMARK UNBOUND:                -0.311
REMARK SMILES CCCCCCCCCCCCCC[C@@H](C)C(=O)[O-]
REMARK SMILES IDX 9 1 10 2 11 3 12 4 13 5 14 6 15 7 16 8 17 9 18 10 19 11 8 12
REMARK SMILES IDX 7 13 6 14 5 15 4 16 3 17 2 18 1 19
REMARK H PARENT
REMARK Flexibility Score: inf
ROOT
ATOM      1  C   UNL     1      30.373  -5.129 -14.617  1.00  0.00     0.000 C 
ENDROOT
BRANCH   1   2
ATOM      2  C   UNL     1      31.105  -5.876 -15.739  1.00  0.00     0.000 C 
BRANCH   2   3
ATOM      3  C   UNL     1      32.049  -4.938 -16.502  1.00  0.00     0.000 C 
BRANCH   3   4
ATOM      4  C   UNL     1      33.446  -5.554 -16.636  1.00  0.00     0.000 C 
BRANCH   4   5
ATOM      5  C   UNL     1      34.147  -5.057 -17.907  1.00  0.00     0.001 C 
BRANCH   5   6
ATOM      6  C   UNL     1      35.381  -5.920 -18.226  1.00  0.00     0.009 C 
BRANCH   6   7
ATOM      7  C   UNL     1      36.733  -5.235 -17.926  1.00  0.00     0.032 C 
ATOM      8  C   UNL     1      36.652  -3.704 -18.010  1.00  0.00     0.014 C 
BRANCH   7   9
ATOM      9  C   UNL     1      37.305  -5.688 -16.608  1.00  0.00     0.044 C 
ATOM     10  O   UNL     1      38.104  -6.661 -16.573  1.00  0.00    -0.550 OA
ATOM     11  O   UNL     1      36.924  -5.077 -15.418  1.00  0.00    -0.550 OA
ENDBRANCH   7   9
ENDBRANCH   6   7
ENDBRANCH   5   6
ENDBRANCH   4   5
ENDBRANCH   3   4
ENDBRANCH   2   3
ENDBRANCH   1   2
BRANCH   1  12
ATOM     12  C   UNL     1      29.068  -5.846 -14.240  1.00  0.00     0.000 C 
BRANCH  12  13
ATOM     13  C   UNL     1      29.286  -6.990 -13.236  1.00  0.00    -0.000 C 
BRANCH  13  14
ATOM     14  C   UNL     1      30.224  -8.081 -13.779  1.00  0.00    -0.000 C 
BRANCH  14  15
ATOM     15  C   UNL     1      29.491  -9.129 -14.636  1.00  0.00    -0.000 C 
BRANCH  15  16
ATOM     16  C   UNL     1      29.921  -9.183 -16.113  1.00  0.00    -0.000 C 
BRANCH  16  17
ATOM     17  C   UNL     1      28.890  -8.550 -17.061  1.00  0.00    -0.000 C 
BRANCH  17  18
ATOM     18  C   UNL     1      28.870  -9.274 -18.412  1.00  0.00    -0.003 C 
ATOM     19  C   UNL     1      27.464  -9.300 -19.003  1.00  0.00     0.004 C 
ENDBRANCH  17  18
ENDBRANCH  16  17
ENDBRANCH  15  16
ENDBRANCH  14  15
ENDBRANCH  13  14
ENDBRANCH  12  13
ENDBRANCH   1  12
TORSDOF 14
ENDMDL
MODEL 4
REMARK VINA RESULT:    -4.016      2.556      6.472
REMARK INTER + INTRA:          -7.613
REMARK INTER:                  -6.970
REMARK INTRA:                  -0.643
REMARK UNBOUND:                -0.311
REMARK SMILES CCCCCCCCCCCCCC[C@@H](C)C(=O)[O-]
REMARK SMILES IDX 9 1 10 2 11 3 12 4 13 5 14 6 15 7 16 8 17 9 18 10 19 11 8 12
REMARK SMILES IDX 7 13 6 14 5 15 4 16 3 17 2 18 1 19
REMARK H PARENT
REMARK Flexibility Score: inf
ROOT
ATOM      1  C   UNL     1      29.489  -7.234 -15.357  1.00  0.00     0.000 C 
ENDROOT
BRANCH   1   2
ATOM      2  C   UNL     1      29.757  -8.117 -14.132  1.00  0.00     0.000 C 
BRANCH   2   3
ATOM      3  C   UNL     1      29.245  -7.451 -12.848  1.00  0.00     0.000 C 
BRANCH   3   4
ATOM      4  C   UNL     1      28.991  -5.955 -13.069  1.00  0.00     0.000 C 
BRANCH   4   5
ATOM      5  C   UNL     1      30.291  -5.151 -12.944  1.00  0.00     0.001 C 
BRANCH   5   6
ATOM      6  C   UNL     1      30.847  -5.226 -11.511  1.00  0.00     0.009 C 
BRANCH   6   7
ATOM      7  C   UNL     1      31.843  -6.383 -11.273  1.00  0.00     0.032 C 
ATOM      8  C   UNL     1      32.780  -6.612 -12.468  1.00  0.00     0.014 C 
BRANCH   7   9
ATOM      9  C   UNL     1      32.613  -6.200  -9.992  1.00  0.00     0.044 C 
ATOM     10  O   UNL     1      32.305  -5.267  -9.203  1.00  0.00    -0.550 OA
ATOM     11  O   UNL     1      33.697  -7.017  -9.688  1.00  0.00    -0.550 OA
ENDBRANCH   7   9
ENDBRANCH   6   7
ENDBRANCH   5   6
ENDBRANCH   4   5
ENDBRANCH   3   4
ENDBRANCH   2   3
ENDBRANCH   1   2
BRANCH   1  12
ATOM     12  C   UNL     1      30.782  -6.986 -16.148  1.00  0.00     0.000 C 
BRANCH  12  13
ATOM     13  C   UNL     1      31.478  -5.673 -15.753  1.00  0.00    -0.000 C 
BRANCH  13  14
ATOM     14  C   UNL     1      32.359  -5.110 -16.881  1.00  0.00    -0.000 C 
BRANCH  14  15
ATOM     15  C   UNL     1      33.852  -5.435 -16.695  1.00  0.00    -0.000 C 
BRANCH  15  16
ATOM     16  C   UNL     1      34.732  -5.204 -17.938  1.00  0.00    -0.000 C 
BRANCH  16  17
ATOM     17  C   UNL     1      36.026  -4.438 -17.622  1.00  0.00    -0.000 C 
BRANCH  17  18
ATOM     18  C   UNL     1      36.730  -5.032 -16.397  1.00  0.00    -0.003 C 
ATOM     19  C   UNL     1      37.493  -6.302 -16.761  1.00  0.00     0.004 C 
ENDBRANCH  17  18
ENDBRANCH  16  17
ENDBRANCH  15  16
ENDBRANCH  14  15
ENDBRANCH  13  14
ENDBRANCH  12  13
ENDBRANCH   1  12
TORSDOF 14
ENDMDL
MODEL 5
REMARK VINA RESULT:    -3.722      1.399      1.846
REMARK INTER + INTRA:          -7.079
REMARK INTER:                  -6.237
REMARK INTRA:                  -0.842
REMARK UNBOUND:                -0.311
REMARK SMILES CCCCCCCCCCCCCC[C@@H](C)C(=O)[O-]
REMARK SMILES IDX 9 1 10 2 11 3 12 4 13 5 14 6 15 7 16 8 17 9 18 10 19 11 8 12
REMARK SMILES IDX 7 13 6 14 5 15 4 16 3 17 2 18 1 19
REMARK H PARENT
REMARK Flexibility Score: inf
ROOT
ATOM      1  C   UNL     1      30.241  -6.343 -15.453  1.00  0.00     0.000 C 
ENDROOT
BRANCH   1   2
ATOM      2  C   UNL     1      31.133  -5.157 -15.838  1.00  0.00     0.000 C 
BRANCH   2   3
ATOM      3  C   UNL     1      32.571  -5.614 -16.111  1.00  0.00     0.000 C 
BRANCH   3   4
ATOM      4  C   UNL     1      33.099  -5.016 -17.420  1.00  0.00     0.000 C 
BRANCH   4   5
ATOM      5  C   UNL     1      34.512  -5.527 -17.728  1.00  0.00     0.001 C 
BRANCH   5   6
ATOM      6  C   UNL     1      35.342  -5.659 -16.438  1.00  0.00     0.009 C 
BRANCH   6   7
ATOM      7  C   UNL     1      36.801  -5.170 -16.566  1.00  0.00     0.032 C 
ATOM      8  C   UNL     1      37.815  -6.323 -16.550  1.00  0.00     0.014 C 
BRANCH   7   9
ATOM      9  C   UNL     1      36.988  -4.286 -17.771  1.00  0.00     0.044 C 
ATOM     10  O   UNL     1      36.679  -3.066 -17.708  1.00  0.00    -0.550 OA
ATOM     11  O   UNL     1      37.451  -4.808 -18.974  1.00  0.00    -0.550 OA
ENDBRANCH   7   9
ENDBRANCH   6   7
ENDBRANCH   5   6
ENDBRANCH   4   5
ENDBRANCH   3   4
ENDBRANCH   2   3
ENDBRANCH   1   2
BRANCH   1  12
ATOM     12  C   UNL     1      28.997  -5.869 -14.686  1.00  0.00     0.000 C 
BRANCH  12  13
ATOM     13  C   UNL     1      29.093  -6.134 -13.175  1.00  0.00    -0.000 C 
BRANCH  13  14
ATOM     14  C   UNL     1      29.759  -7.483 -12.853  1.00  0.00    -0.000 C 
BRANCH  14  15
ATOM     15  C   UNL     1      31.240  -7.342 -12.461  1.00  0.00    -0.000 C 
BRANCH  15  16
ATOM     16  C   UNL     1      31.711  -5.901 -12.187  1.00  0.00    -0.000 C 
BRANCH  16  17
ATOM     17  C   UNL     1      32.287  -5.717 -10.775  1.00  0.00    -0.000 C 
BRANCH  17  18
ATOM     18  C   UNL     1      32.712  -7.063 -10.176  1.00  0.00    -0.003 C 
ATOM     19  C   UNL     1      33.762  -6.874  -9.085  1.00  0.00     0.004 C 
ENDBRANCH  17  18
ENDBRANCH  16  17
ENDBRANCH  15  16
ENDBRANCH  14  15
ENDBRANCH  13  14
ENDBRANCH  12  13
ENDBRANCH   1  12
TORSDOF 14
ENDMDL
MODEL 6
REMARK VINA RESULT:    -3.658      2.548      6.864
REMARK INTER + INTRA:          -6.962
REMARK INTER:                  -5.737
REMARK INTRA:                  -1.225
REMARK UNBOUND:                -0.311
REMARK SMILES CCCCCCCCCCCCCC[C@@H](C)C(=O)[O-]
REMARK SMILES IDX 9 1 10 2 11 3 12 4 13 5 14 6 15 7 16 8 17 9 18 10 19 11 8 12
REMARK SMILES IDX 7 13 6 14 5 15 4 16 3 17 2 18 1 19
REMARK H PARENT
REMARK Flexibility Score: inf
ROOT
ATOM      1  C   UNL     1      31.526  -5.710 -15.379  1.00  0.00     0.000 C 
ENDROOT
BRANCH   1   2
ATOM      2  C   UNL     1      30.350  -6.615 -15.766  1.00  0.00     0.000 C 
BRANCH   2   3
ATOM      3  C   UNL     1      29.272  -6.615 -14.675  1.00  0.00     0.000 C 
BRANCH   3   4
ATOM      4  C   UNL     1      29.460  -7.796 -13.715  1.00  0.00     0.000 C 
BRANCH   4   5
ATOM      5  C   UNL     1      29.910  -7.314 -12.330  1.00  0.00     0.001 C 
BRANCH   5   6
ATOM      6  C   UNL     1      31.445  -7.236 -12.249  1.00  0.00     0.009 C 
BRANCH   6   7
ATOM      7  C   UNL     1      31.988  -5.893 -11.713  1.00  0.00     0.032 C 
ATOM      8  C   UNL     1      30.981  -4.744 -11.865  1.00  0.00     0.014 C 
BRANCH   7   9
ATOM      9  C   UNL     1      32.475  -6.018 -10.292  1.00  0.00     0.044 C 
ATOM     10  O   UNL     1      32.003  -5.265  -9.399  1.00  0.00    -0.550 OA
ATOM     11  O   UNL     1      33.480  -6.920  -9.960  1.00  0.00    -0.550 OA
ENDBRANCH   7   9
ENDBRANCH   6   7
ENDBRANCH   5   6
ENDBRANCH   4   5
ENDBRANCH   3   4
ENDBRANCH   2   3
ENDBRANCH   1   2
BRANCH   1  12
ATOM     12  C   UNL     1      32.178  -5.094 -16.626  1.00  0.00     0.000 C 
BRANCH  12  13
ATOM     13  C   UNL     1      33.653  -5.495 -16.785  1.00  0.00    -0.000 C 
BRANCH  13  14
ATOM     14  C   UNL     1      34.121  -5.455 -18.250  1.00  0.00    -0.000 C 
BRANCH  14  15
ATOM     15  C   UNL     1      35.654  -5.447 -18.389  1.00  0.00    -0.000 C 
BRANCH  15  16
ATOM     16  C   UNL     1      36.378  -4.344 -17.595  1.00  0.00    -0.000 C 
BRANCH  16  17
ATOM     17  C   UNL     1      37.306  -4.900 -16.504  1.00  0.00    -0.000 C 
BRANCH  17  18
ATOM     18  C   UNL     1      37.217  -6.429 -16.437  1.00  0.00    -0.003 C 
ATOM     19  C   UNL     1      38.590  -7.070 -16.615  1.00  0.00     0.004 C 
ENDBRANCH  17  18
ENDBRANCH  16  17
ENDBRANCH  15  16
ENDBRANCH  14  15
ENDBRANCH  13  14
ENDBRANCH  12  13
ENDBRANCH   1  12
TORSDOF 14
ENDMDL
MODEL 7
REMARK VINA RESULT:    -3.130      2.231      4.577
REMARK INTER + INTRA:          -6.003
REMARK INTER:                  -5.033
REMARK INTRA:                  -0.971
REMARK UNBOUND:                -0.311
REMARK SMILES CCCCCCCCCCCCCC[C@@H](C)C(=O)[O-]
REMARK SMILES IDX 9 1 10 2 11 3 12 4 13 5 14 6 15 7 16 8 17 9 18 10 19 11 8 12
REMARK SMILES IDX 7 13 6 14 5 15 4 16 3 17 2 18 1 19
REMARK H PARENT
REMARK Flexibility Score: inf
ROOT
ATOM      1  C   UNL     1      29.859  -5.330 -13.338  1.00  0.00     0.000 C 
ENDROOT
BRANCH   1   2
ATOM      2  C   UNL     1      31.210  -5.519 -14.037  1.00  0.00     0.000 C 
BRANCH   2   3
ATOM      3  C   UNL     1      31.172  -4.972 -15.470  1.00  0.00     0.000 C 
BRANCH   3   4
ATOM      4  C   UNL     1      31.971  -5.868 -16.423  1.00  0.00     0.000 C 
BRANCH   4   5
ATOM      5  C   UNL     1      33.099  -5.081 -17.103  1.00  0.00     0.001 C 
BRANCH   5   6
ATOM      6  C   UNL     1      34.464  -5.436 -16.486  1.00  0.00     0.009 C 
BRANCH   6   7
ATOM      7  C   UNL     1      35.558  -5.788 -17.518  1.00  0.00     0.032 C 
ATOM      8  C   UNL     1      35.033  -5.783 -18.961  1.00  0.00     0.014 C 
BRANCH   7   9
ATOM      9  C   UNL     1      36.770  -4.906 -17.367  1.00  0.00     0.044 C 
ATOM     10  O   UNL     1      36.869  -3.853 -18.051  1.00  0.00    -0.550 OA
ATOM     11  O   UNL     1      37.811  -5.265 -16.517  1.00  0.00    -0.550 OA
ENDBRANCH   7   9
ENDBRANCH   6   7
ENDBRANCH   5   6
ENDBRANCH   4   5
ENDBRANCH   3   4
ENDBRANCH   2   3
ENDBRANCH   1   2
BRANCH   1  12
ATOM     12  C   UNL     1      28.940  -6.536 -13.583  1.00  0.00     0.000 C 
BRANCH  12  13
ATOM     13  C   UNL     1      29.626  -7.877 -13.274  1.00  0.00    -0.000 C 
BRANCH  13  14
ATOM     14  C   UNL     1      29.482  -8.892 -14.420  1.00  0.00    -0.000 C 
BRANCH  14  15
ATOM     15  C   UNL     1      30.106  -8.398 -15.739  1.00  0.00    -0.000 C 
BRANCH  15  16
ATOM     16  C   UNL     1      29.115  -8.219 -16.904  1.00  0.00    -0.000 C 
BRANCH  16  17
ATOM     17  C   UNL     1      28.969  -9.482 -17.767  1.00  0.00    -0.000 C 
BRANCH  17  18
ATOM     18  C   UNL     1      28.291  -9.157 -19.103  1.00  0.00    -0.003 C 
ATOM     19  C   UNL     1      26.848  -9.653 -19.124  1.00  0.00     0.004 C 
ENDBRANCH  17  18
ENDBRANCH  16  17
ENDBRANCH  15  16
ENDBRANCH  14  15
ENDBRANCH  13  14
ENDBRANCH  12  13
ENDBRANCH   1  12
TORSDOF 14
ENDMDL
MODEL 8
REMARK VINA RESULT:    -2.098      1.041      3.044
REMARK INTER + INTRA:          -4.126
REMARK INTER:                  -2.879
REMARK INTRA:                  -1.247
REMARK UNBOUND:                -0.311
REMARK SMILES CCCCCCCCCCCCCC[C@@H](C)C(=O)[O-]
REMARK SMILES IDX 9 1 10 2 11 3 12 4 13 5 14 6 15 7 16 8 17 9 18 10 19 11 8 12
REMARK SMILES IDX 7 13 6 14 5 15 4 16 3 17 2 18 1 19
REMARK H PARENT
REMARK Flexibility Score: inf
ROOT
ATOM      1  C   UNL     1      32.580  -6.227 -13.170  1.00  0.00     0.000 C 
ENDROOT
BRANCH   1   2
ATOM      2  C   UNL     1      32.140  -5.788 -14.572  1.00  0.00     0.000 C 
BRANCH   2   3
ATOM      3  C   UNL     1      33.349  -5.609 -15.499  1.00  0.00     0.000 C 
BRANCH   3   4
ATOM      4  C   UNL     1      32.912  -5.547 -16.967  1.00  0.00     0.000 C 
BRANCH   4   5
ATOM      5  C   UNL     1      34.016  -4.944 -17.845  1.00  0.00     0.001 C 
BRANCH   5   6
ATOM      6  C   UNL     1      35.162  -5.951 -18.053  1.00  0.00     0.009 C 
BRANCH   6   7
ATOM      7  C   UNL     1      36.576  -5.353 -17.877  1.00  0.00     0.032 C 
ATOM      8  C   UNL     1      36.589  -3.821 -17.989  1.00  0.00     0.014 C 
BRANCH   7   9
ATOM      9  C   UNL     1      37.223  -5.820 -16.599  1.00  0.00     0.044 C 
ATOM     10  O   UNL     1      36.998  -5.206 -15.523  1.00  0.00    -0.550 OA
ATOM     11  O   UNL     1      38.108  -6.892 -16.599  1.00  0.00    -0.550 OA
ENDBRANCH   7   9
ENDBRANCH   6   7
ENDBRANCH   5   6
ENDBRANCH   4   5
ENDBRANCH   3   4
ENDBRANCH   2   3
ENDBRANCH   1   2
BRANCH   1  12
ATOM     12  C   UNL     1      31.518  -5.862 -12.122  1.00  0.00     0.000 C 
BRANCH  12  13
ATOM     13  C   UNL     1      30.521  -4.807 -12.629  1.00  0.00    -0.000 C 
BRANCH  13  14
ATOM     14  C   UNL     1      29.072  -5.323 -12.644  1.00  0.00    -0.000 C 
BRANCH  14  15
ATOM     15  C   UNL     1      28.840  -6.429 -13.689  1.00  0.00    -0.000 C 
BRANCH  15  16
ATOM     16  C   UNL     1      29.199  -7.853 -13.226  1.00  0.00    -0.000 C 
BRANCH  16  17
ATOM     17  C   UNL     1      29.845  -8.700 -14.333  1.00  0.00    -0.000 C 
BRANCH  17  18
ATOM     18  C   UNL     1      29.747  -7.994 -15.691  1.00  0.00    -0.003 C 
ATOM     19  C   UNL     1      29.169  -8.922 -16.755  1.00  0.00     0.004 C 
ENDBRANCH  17  18
ENDBRANCH  16  17
ENDBRANCH  15  16
ENDBRANCH  14  15
ENDBRANCH  13  14
ENDBRANCH  12  13
ENDBRANCH   1  12
TORSDOF 14
ENDMDL
