MODEL 1
REMARK VINA RESULT:    -6.368      0.000      0.000
REMARK INTER + INTRA:          -8.588
REMARK INTER:                  -8.043
REMARK INTRA:                  -0.545
REMARK UNBOUND:                -0.545
REMARK SMILES Oc1ccc(CCc2cc(O)cc(O)c2)cc1
REMARK SMILES IDX 6 1 5 2 4 3 3 4 2 5 16 6 17 7 1 8 7 10 8 11 15 12 9 13 13 14
REMARK SMILES IDX 10 15 12 16 14 17 11 19
REMARK H PARENT 1 9 14 18 11 20
REMARK Flexibility Score: inf
ROOT
ATOM      1  C   UNL     1      16.209  -0.811 -15.790  1.00  0.00     0.040 C 
ENDROOT
BRANCH   1   2
ATOM      2  C   UNL     1      15.714  -0.521 -14.399  1.00  0.00    -0.047 A 
ATOM      3  C   UNL     1      16.529   0.168 -13.486  1.00  0.00     0.007 A 
ATOM      4  C   UNL     1      16.057   0.466 -12.203  1.00  0.00     0.046 A 
ATOM      5  C   UNL     1      14.761   0.088 -11.826  1.00  0.00     0.115 A 
ATOM      6  C   UNL     1      14.412  -0.887 -14.019  1.00  0.00     0.007 A 
ATOM      7  C   UNL     1      13.942  -0.587 -12.737  1.00  0.00     0.046 A 
BRANCH   5   8
ATOM      8  O   UNL     1      14.279   0.378 -10.552  1.00  0.00    -0.508 OA
ATOM      9  H   UNL     1      13.295   0.287 -10.325  1.00  0.00     0.293 HD
ENDBRANCH   5   8
ENDBRANCH   1   2
BRANCH   1  10
ATOM     10  C   UNL     1      17.038   0.363 -16.321  1.00  0.00     0.040 C 
BRANCH  10  11
ATOM     11  C   UNL     1      16.165   1.326 -17.079  1.00  0.00    -0.040 A 
ATOM     12  C   UNL     1      16.702   2.521 -17.585  1.00  0.00     0.050 A 
ATOM     13  C   UNL     1      14.793   1.066 -17.238  1.00  0.00     0.050 A 
ATOM     14  C   UNL     1      15.883   3.435 -18.263  1.00  0.00     0.119 A 
ATOM     15  C   UNL     1      13.975   1.975 -17.914  1.00  0.00     0.119 A 
ATOM     16  C   UNL     1      14.522   3.158 -18.429  1.00  0.00     0.092 A 
BRANCH  14  17
ATOM     17  O   UNL     1      16.411   4.619 -18.772  1.00  0.00    -0.508 OA
ATOM     18  H   UNL     1      17.406   4.731 -18.928  1.00  0.00     0.293 HD
ENDBRANCH  14  17
BRANCH  15  19
ATOM     19  O   UNL     1      12.619   1.696 -18.068  1.00  0.00    -0.508 OA
ATOM     20  H   UNL     1      11.939   2.433 -18.220  1.00  0.00     0.293 HD
ENDBRANCH  15  19
ENDBRANCH  10  11
ENDBRANCH   1  10
TORSDOF 6
ENDMDL
MODEL 2
REMARK VINA RESULT:    -6.358      0.068      2.036
REMARK INTER + INTRA:          -8.575
REMARK INTER:                  -8.023
REMARK INTRA:                  -0.552
REMARK UNBOUND:                -0.545
REMARK SMILES Oc1ccc(CCc2cc(O)cc(O)c2)cc1
REMARK SMILES IDX 6 1 5 2 4 3 3 4 2 5 16 6 17 7 1 8 7 10 8 11 15 12 9 13 13 14
REMARK SMILES IDX 10 15 12 16 14 17 11 19
REMARK H PARENT 1 9 14 18 11 20
REMARK Flexibility Score: inf
ROOT
ATOM      1  C   UNL     1      16.225  -0.807 -15.778  1.00  0.00     0.040 C 
ENDROOT
BRANCH   1   2
ATOM      2  C   UNL     1      15.724  -0.520 -14.388  1.00  0.00    -0.047 A 
ATOM      3  C   UNL     1      16.538   0.166 -13.470  1.00  0.00     0.007 A 
ATOM      4  C   UNL     1      16.061   0.462 -12.189  1.00  0.00     0.046 A 
ATOM      5  C   UNL     1      14.763   0.087 -11.818  1.00  0.00     0.115 A 
ATOM      6  C   UNL     1      14.420  -0.883 -14.014  1.00  0.00     0.007 A 
ATOM      7  C   UNL     1      13.946  -0.584 -12.734  1.00  0.00     0.046 A 
BRANCH   5   8
ATOM      8  O   UNL     1      14.276   0.376 -10.545  1.00  0.00    -0.508 OA
ATOM      9  H   UNL     1      13.357   0.781 -10.410  1.00  0.00     0.293 HD
ENDBRANCH   5   8
ENDBRANCH   1   2
BRANCH   1  10
ATOM     10  C   UNL     1      17.071   0.359 -16.298  1.00  0.00     0.040 C 
BRANCH  10  11
ATOM     11  C   UNL     1      16.208   1.355 -17.023  1.00  0.00    -0.040 A 
ATOM     12  C   UNL     1      14.846   1.088 -17.240  1.00  0.00     0.050 A 
ATOM     13  C   UNL     1      16.768   2.535 -17.540  1.00  0.00     0.050 A 
ATOM     14  C   UNL     1      14.047   2.000 -17.944  1.00  0.00     0.119 A 
ATOM     15  C   UNL     1      15.975   3.447 -18.242  1.00  0.00     0.119 A 
ATOM     16  C   UNL     1      14.613   3.179 -18.441  1.00  0.00     0.092 A 
BRANCH  14  17
ATOM     17  O   UNL     1      12.695   1.744 -18.156  1.00  0.00    -0.508 OA
ATOM     18  H   UNL     1      12.358   0.810 -18.359  1.00  0.00     0.293 HD
ENDBRANCH  14  17
BRANCH  15  19
ATOM     19  O   UNL     1      16.547   4.614 -18.741  1.00  0.00    -0.508 OA
ATOM     20  H   UNL     1      17.531   4.821 -18.611  1.00  0.00     0.293 HD
ENDBRANCH  15  19
ENDBRANCH  10  11
ENDBRANCH   1  10
TORSDOF 6
ENDMDL
MODEL 3
REMARK VINA RESULT:    -6.299      3.471      5.549
REMARK INTER + INTRA:          -8.501
REMARK INTER:                  -7.872
REMARK INTRA:                  -0.630
REMARK UNBOUND:                -0.545
REMARK SMILES Oc1ccc(CCc2cc(O)cc(O)c2)cc1
REMARK SMILES IDX 6 1 5 2 4 3 3 4 2 5 16 6 17 7 1 8 7 10 8 11 15 12 9 13 13 14
REMARK SMILES IDX 10 15 12 16 14 17 11 19
REMARK H PARENT 1 9 14 18 11 20
REMARK Flexibility Score: inf
ROOT
ATOM      1  C   UNL     1      18.533  -0.779 -14.401  1.00  0.00     0.040 C 
ENDROOT
BRANCH   1   2
ATOM      2  C   UNL     1      19.381  -1.003 -13.179  1.00  0.00    -0.047 A 
ATOM      3  C   UNL     1      20.647  -0.403 -13.075  1.00  0.00     0.007 A 
ATOM      4  C   UNL     1      21.422  -0.585 -11.925  1.00  0.00     0.046 A 
ATOM      5  C   UNL     1      20.934  -1.358 -10.863  1.00  0.00     0.115 A 
ATOM      6  C   UNL     1      18.892  -1.767 -12.106  1.00  0.00     0.007 A 
ATOM      7  C   UNL     1      19.668  -1.946 -10.958  1.00  0.00     0.046 A 
BRANCH   5   8
ATOM      8  O   UNL     1      21.696  -1.547  -9.713  1.00  0.00    -0.508 OA
ATOM      9  H   UNL     1      22.507  -2.156  -9.709  1.00  0.00     0.293 HD
ENDBRANCH   5   8
ENDBRANCH   1   2
BRANCH   1  10
ATOM     10  C   UNL     1      17.672   0.477 -14.237  1.00  0.00     0.040 C 
BRANCH  10  11
ATOM     11  C   UNL     1      16.295   0.115 -13.750  1.00  0.00    -0.040 A 
ATOM     12  C   UNL     1      15.913   0.401 -12.429  1.00  0.00     0.050 A 
ATOM     13  C   UNL     1      15.401  -0.564 -14.594  1.00  0.00     0.050 A 
ATOM     14  C   UNL     1      14.642   0.034 -11.964  1.00  0.00     0.119 A 
ATOM     15  C   UNL     1      14.133  -0.930 -14.134  1.00  0.00     0.119 A 
ATOM     16  C   UNL     1      13.753  -0.627 -12.818  1.00  0.00     0.092 A 
BRANCH  14  17
ATOM     17  O   UNL     1      14.254   0.321 -10.658  1.00  0.00    -0.508 OA
ATOM     18  H   UNL     1      13.649   1.106 -10.445  1.00  0.00     0.293 HD
ENDBRANCH  14  17
BRANCH  15  19
ATOM     19  O   UNL     1      13.257  -1.597 -14.988  1.00  0.00    -0.508 OA
ATOM     20  H   UNL     1      13.354  -1.542 -15.995  1.00  0.00     0.293 HD
ENDBRANCH  15  19
ENDBRANCH  10  11
ENDBRANCH   1  10
TORSDOF 6
ENDMDL
MODEL 4
REMARK VINA RESULT:    -6.289      3.455      5.646
REMARK INTER + INTRA:          -8.489
REMARK INTER:                  -7.861
REMARK INTRA:                  -0.628
REMARK UNBOUND:                -0.545
REMARK SMILES Oc1ccc(CCc2cc(O)cc(O)c2)cc1
REMARK SMILES IDX 6 1 5 2 4 3 3 4 2 5 16 6 17 7 1 8 7 10 8 11 15 12 9 13 13 14
REMARK SMILES IDX 10 15 12 16 14 17 11 19
REMARK H PARENT 1 9 14 18 11 20
REMARK Flexibility Score: inf
ROOT
ATOM      1  C   UNL     1      18.545  -0.778 -14.385  1.00  0.00     0.040 C 
ENDROOT
BRANCH   1   2
ATOM      2  C   UNL     1      19.397  -0.999 -13.165  1.00  0.00    -0.047 A 
ATOM      3  C   UNL     1      20.644  -0.363 -13.046  1.00  0.00     0.007 A 
ATOM      4  C   UNL     1      21.421  -0.543 -11.898  1.00  0.00     0.046 A 
ATOM      5  C   UNL     1      20.954  -1.349 -10.851  1.00  0.00     0.115 A 
ATOM      6  C   UNL     1      18.928  -1.796 -12.108  1.00  0.00     0.007 A 
ATOM      7  C   UNL     1      19.707  -1.973 -10.960  1.00  0.00     0.046 A 
BRANCH   5   8
ATOM      8  O   UNL     1      21.718  -1.536  -9.702  1.00  0.00    -0.508 OA
ATOM      9  H   UNL     1      22.721  -1.389  -9.704  1.00  0.00     0.293 HD
ENDBRANCH   5   8
ENDBRANCH   1   2
BRANCH   1  10
ATOM     10  C   UNL     1      17.660   0.459 -14.208  1.00  0.00     0.040 C 
BRANCH  10  11
ATOM     11  C   UNL     1      16.289   0.064 -13.729  1.00  0.00    -0.040 A 
ATOM     12  C   UNL     1      15.380  -0.546 -14.610  1.00  0.00     0.050 A 
ATOM     13  C   UNL     1      15.886   0.353 -12.415  1.00  0.00     0.050 A 
ATOM     14  C   UNL     1      14.091  -0.885 -14.175  1.00  0.00     0.119 A 
ATOM     15  C   UNL     1      14.602   0.016 -11.978  1.00  0.00     0.119 A 
ATOM     16  C   UNL     1      13.706  -0.606 -12.859  1.00  0.00     0.092 A 
BRANCH  14  17
ATOM     17  O   UNL     1      13.188  -1.496 -15.040  1.00  0.00    -0.508 OA
ATOM     18  H   UNL     1      12.469  -2.124 -14.699  1.00  0.00     0.293 HD
ENDBRANCH  14  17
BRANCH  15  19
ATOM     19  O   UNL     1      14.223   0.304 -10.669  1.00  0.00    -0.508 OA
ATOM     20  H   UNL     1      14.250   1.250 -10.305  1.00  0.00     0.293 HD
ENDBRANCH  15  19
ENDBRANCH  10  11
ENDBRANCH   1  10
TORSDOF 6
ENDMDL
MODEL 5
REMARK VINA RESULT:    -6.275     17.528     18.473
REMARK INTER + INTRA:          -8.471
REMARK INTER:                  -7.943
REMARK INTRA:                  -0.528
REMARK UNBOUND:                -0.545
REMARK SMILES Oc1ccc(CCc2cc(O)cc(O)c2)cc1
REMARK SMILES IDX 6 1 5 2 4 3 3 4 2 5 16 6 17 7 1 8 7 10 8 11 15 12 9 13 13 14
REMARK SMILES IDX 10 15 12 16 14 17 11 19
REMARK H PARENT 1 9 14 18 11 20
REMARK Flexibility Score: inf
ROOT
ATOM      1  C   UNL     1      30.123  10.865 -14.797  1.00  0.00     0.040 C 
ENDROOT
BRANCH   1   2
ATOM      2  C   UNL     1      30.074  10.406 -13.365  1.00  0.00    -0.047 A 
ATOM      3  C   UNL     1      30.770   9.252 -12.967  1.00  0.00     0.007 A 
ATOM      4  C   UNL     1      30.751   8.843 -11.629  1.00  0.00     0.046 A 
ATOM      5  C   UNL     1      30.046   9.589 -10.676  1.00  0.00     0.115 A 
ATOM      6  C   UNL     1      29.380  11.156 -12.402  1.00  0.00     0.007 A 
ATOM      7  C   UNL     1      29.363  10.745 -11.066  1.00  0.00     0.046 A 
BRANCH   5   8
ATOM      8  O   UNL     1      30.020   9.192  -9.341  1.00  0.00    -0.508 OA
ATOM      9  H   UNL     1      29.182   8.803  -8.921  1.00  0.00     0.293 HD
ENDBRANCH   5   8
ENDBRANCH   1   2
BRANCH   1  10
ATOM     10  C   UNL     1      28.849  11.633 -15.160  1.00  0.00     0.040 C 
BRANCH  10  11
ATOM     11  C   UNL     1      29.191  12.968 -15.766  1.00  0.00    -0.040 A 
ATOM     12  C   UNL     1      28.999  13.192 -17.139  1.00  0.00     0.050 A 
ATOM     13  C   UNL     1      29.759  13.981 -14.975  1.00  0.00     0.050 A 
ATOM     14  C   UNL     1      29.348  14.424 -17.711  1.00  0.00     0.119 A 
ATOM     15  C   UNL     1      30.107  15.210 -15.542  1.00  0.00     0.119 A 
ATOM     16  C   UNL     1      29.897  15.431 -16.911  1.00  0.00     0.092 A 
BRANCH  14  17
ATOM     17  O   UNL     1      29.154  14.655 -19.070  1.00  0.00    -0.508 OA
ATOM     18  H   UNL     1      28.358  15.183 -19.409  1.00  0.00     0.293 HD
ENDBRANCH  14  17
BRANCH  15  19
ATOM     19  O   UNL     1      30.662  16.205 -14.741  1.00  0.00    -0.508 OA
ATOM     20  H   UNL     1      30.816  17.143 -15.091  1.00  0.00     0.293 HD
ENDBRANCH  15  19
ENDBRANCH  10  11
ENDBRANCH   1  10
TORSDOF 6
ENDMDL
MODEL 6
REMARK VINA RESULT:    -6.264      2.824      6.322
REMARK INTER + INTRA:          -8.457
REMARK INTER:                  -7.948
REMARK INTRA:                  -0.509
REMARK UNBOUND:                -0.545
REMARK SMILES Oc1ccc(CCc2cc(O)cc(O)c2)cc1
REMARK SMILES IDX 6 1 5 2 4 3 3 4 2 5 16 6 17 7 1 8 7 10 8 11 15 12 9 13 13 14
REMARK SMILES IDX 10 15 12 16 14 17 11 19
REMARK H PARENT 1 9 14 18 11 20
REMARK Flexibility Score: inf
ROOT
ATOM      1  C   UNL     1      17.333   0.994 -15.944  1.00  0.00     0.040 C 
ENDROOT
BRANCH   1   2
ATOM      2  C   UNL     1      17.928   0.256 -17.112  1.00  0.00    -0.047 A 
ATOM      3  C   UNL     1      17.319   0.324 -18.377  1.00  0.00     0.007 A 
ATOM      4  C   UNL     1      17.890  -0.335 -19.471  1.00  0.00     0.046 A 
ATOM      5  C   UNL     1      19.080  -1.058 -19.313  1.00  0.00     0.115 A 
ATOM      6  C   UNL     1      19.127  -0.459 -16.964  1.00  0.00     0.007 A 
ATOM      7  C   UNL     1      19.695  -1.116 -18.059  1.00  0.00     0.046 A 
BRANCH   5   8
ATOM      8  O   UNL     1      19.658  -1.718 -20.395  1.00  0.00    -0.508 OA
ATOM      9  H   UNL     1      20.644  -1.620 -20.609  1.00  0.00     0.293 HD
ENDBRANCH   5   8
ENDBRANCH   1   2
BRANCH   1  10
ATOM     10  C   UNL     1      17.490   0.181 -14.656  1.00  0.00     0.040 C 
BRANCH  10  11
ATOM     11  C   UNL     1      16.153  -0.035 -14.000  1.00  0.00    -0.040 A 
ATOM     12  C   UNL     1      15.984   0.234 -12.631  1.00  0.00     0.050 A 
ATOM     13  C   UNL     1      15.079  -0.562 -14.736  1.00  0.00     0.050 A 
ATOM     14  C   UNL     1      14.749   0.003 -12.011  1.00  0.00     0.119 A 
ATOM     15  C   UNL     1      13.846  -0.793 -14.120  1.00  0.00     0.119 A 
ATOM     16  C   UNL     1      13.681  -0.507 -12.758  1.00  0.00     0.092 A 
BRANCH  14  17
ATOM     17  O   UNL     1      14.572   0.274 -10.657  1.00  0.00    -0.508 OA
ATOM     18  H   UNL     1      14.386  -0.464  -9.989  1.00  0.00     0.293 HD
ENDBRANCH  14  17
BRANCH  15  19
ATOM     19  O   UNL     1      12.790  -1.309 -14.868  1.00  0.00    -0.508 OA
ATOM     20  H   UNL     1      12.100  -1.927 -14.456  1.00  0.00     0.293 HD
ENDBRANCH  15  19
ENDBRANCH  10  11
ENDBRANCH   1  10
TORSDOF 6
ENDMDL
MODEL 7
REMARK VINA RESULT:    -6.259     17.317     18.747
REMARK INTER + INTRA:          -8.451
REMARK INTER:                  -7.929
REMARK INTRA:                  -0.522
REMARK UNBOUND:                -0.545
REMARK SMILES Oc1ccc(CCc2cc(O)cc(O)c2)cc1
REMARK SMILES IDX 6 1 5 2 4 3 3 4 2 5 16 6 17 7 1 8 7 10 8 11 15 12 9 13 13 14
REMARK SMILES IDX 10 15 12 16 14 17 11 19
REMARK H PARENT 1 9 14 18 11 20
REMARK Flexibility Score: inf
ROOT
ATOM      1  C   UNL     1      29.631  10.380 -15.159  1.00  0.00     0.040 C 
ENDROOT
BRANCH   1   2
ATOM      2  C   UNL     1      29.548  11.445 -16.219  1.00  0.00    -0.047 A 
ATOM      3  C   UNL     1      30.404  11.404 -17.332  1.00  0.00     0.007 A 
ATOM      4  C   UNL     1      30.305  12.375 -18.334  1.00  0.00     0.046 A 
ATOM      5  C   UNL     1      29.342  13.389 -18.238  1.00  0.00     0.115 A 
ATOM      6  C   UNL     1      28.577  12.456 -16.135  1.00  0.00     0.007 A 
ATOM      7  C   UNL     1      28.480  13.424 -17.138  1.00  0.00     0.046 A 
BRANCH   5   8
ATOM      8  O   UNL     1      29.233  14.362 -19.229  1.00  0.00    -0.508 OA
ATOM      9  H   UNL     1      29.917  14.437 -19.974  1.00  0.00     0.293 HD
ENDBRANCH   5   8
ENDBRANCH   1   2
BRANCH   1  10
ATOM     10  C   UNL     1      30.667  10.757 -14.096  1.00  0.00     0.040 C 
BRANCH  10  11
ATOM     11  C   UNL     1      30.025  10.841 -12.738  1.00  0.00    -0.040 A 
ATOM     12  C   UNL     1      30.416   9.962 -11.714  1.00  0.00     0.050 A 
ATOM     13  C   UNL     1      28.989  11.759 -12.499  1.00  0.00     0.050 A 
ATOM     14  C   UNL     1      29.796  10.016 -10.458  1.00  0.00     0.119 A 
ATOM     15  C   UNL     1      28.369  11.816 -11.247  1.00  0.00     0.119 A 
ATOM     16  C   UNL     1      28.777  10.945 -10.226  1.00  0.00     0.092 A 
BRANCH  14  17
ATOM     17  O   UNL     1      30.184   9.153  -9.437  1.00  0.00    -0.508 OA
ATOM     18  H   UNL     1      31.099   8.717  -9.431  1.00  0.00     0.293 HD
ENDBRANCH  14  17
BRANCH  15  19
ATOM     19  O   UNL     1      27.348  12.738 -11.026  1.00  0.00    -0.508 OA
ATOM     20  H   UNL     1      27.217  13.539 -11.634  1.00  0.00     0.293 HD
ENDBRANCH  15  19
ENDBRANCH  10  11
ENDBRANCH   1  10
TORSDOF 6
ENDMDL
MODEL 8
REMARK VINA RESULT:    -6.258      2.824      6.435
REMARK INTER + INTRA:          -8.450
REMARK INTER:                  -7.940
REMARK INTRA:                  -0.510
REMARK UNBOUND:                -0.545
REMARK SMILES Oc1ccc(CCc2cc(O)cc(O)c2)cc1
REMARK SMILES IDX 6 1 5 2 4 3 3 4 2 5 16 6 17 7 1 8 7 10 8 11 15 12 9 13 13 14
REMARK SMILES IDX 10 15 12 16 14 17 11 19
REMARK H PARENT 1 9 14 18 11 20
REMARK Flexibility Score: inf
ROOT
ATOM      1  C   UNL     1      17.336   0.916 -15.848  1.00  0.00     0.040 C 
ENDROOT
BRANCH   1   2
ATOM      2  C   UNL     1      17.934   0.216 -17.038  1.00  0.00    -0.047 A 
ATOM      3  C   UNL     1      17.311   0.296 -18.294  1.00  0.00     0.007 A 
ATOM      4  C   UNL     1      17.885  -0.327 -19.407  1.00  0.00     0.046 A 
ATOM      5  C   UNL     1      19.092  -1.026 -19.277  1.00  0.00     0.115 A 
ATOM      6  C   UNL     1      19.150  -0.476 -16.916  1.00  0.00     0.007 A 
ATOM      7  C   UNL     1      19.722  -1.097 -18.030  1.00  0.00     0.046 A 
BRANCH   5   8
ATOM      8  O   UNL     1      19.673  -1.651 -20.378  1.00  0.00    -0.508 OA
ATOM      9  H   UNL     1      19.350  -1.469 -21.322  1.00  0.00     0.293 HD
ENDBRANCH   5   8
ENDBRANCH   1   2
BRANCH   1  10
ATOM     10  C   UNL     1      17.477   0.055 -14.589  1.00  0.00     0.040 C 
BRANCH  10  11
ATOM     11  C   UNL     1      16.136  -0.161 -13.942  1.00  0.00    -0.040 A 
ATOM     12  C   UNL     1      15.049  -0.624 -14.703  1.00  0.00     0.050 A 
ATOM     13  C   UNL     1      15.943   0.154 -12.587  1.00  0.00     0.050 A 
ATOM     14  C   UNL     1      13.791  -0.795 -14.110  1.00  0.00     0.119 A 
ATOM     15  C   UNL     1      14.689  -0.015 -11.993  1.00  0.00     0.119 A 
ATOM     16  C   UNL     1      13.614  -0.493 -12.756  1.00  0.00     0.092 A 
BRANCH  14  17
ATOM     17  O   UNL     1      12.712  -1.261 -14.856  1.00  0.00    -0.508 OA
ATOM     18  H   UNL     1      12.424  -2.232 -14.822  1.00  0.00     0.293 HD
ENDBRANCH  14  17
BRANCH  15  19
ATOM     19  O   UNL     1      14.519   0.296 -10.646  1.00  0.00    -0.508 OA
ATOM     20  H   UNL     1      13.598   0.430 -10.245  1.00  0.00     0.293 HD
ENDBRANCH  15  19
ENDBRANCH  10  11
ENDBRANCH   1  10
TORSDOF 6
ENDMDL
MODEL 9
REMARK VINA RESULT:    -6.234     17.541     18.487
REMARK INTER + INTRA:          -8.420
REMARK INTER:                  -7.892
REMARK INTRA:                  -0.527
REMARK UNBOUND:                -0.545
REMARK SMILES Oc1ccc(CCc2cc(O)cc(O)c2)cc1
REMARK SMILES IDX 6 1 5 2 4 3 3 4 2 5 16 6 17 7 1 8 7 10 8 11 15 12 9 13 13 14
REMARK SMILES IDX 10 15 12 16 14 17 11 19
REMARK H PARENT 1 9 14 18 11 20
REMARK Flexibility Score: inf
ROOT
ATOM      1  C   UNL     1      30.113  10.861 -14.771  1.00  0.00     0.040 C 
ENDROOT
BRANCH   1   2
ATOM      2  C   UNL     1      30.108  10.447 -13.325  1.00  0.00    -0.047 A 
ATOM      3  C   UNL     1      29.274  11.101 -12.403  1.00  0.00     0.007 A 
ATOM      4  C   UNL     1      29.244  10.694 -11.065  1.00  0.00     0.046 A 
ATOM      5  C   UNL     1      30.040   9.622 -10.639  1.00  0.00     0.115 A 
ATOM      6  C   UNL     1      30.894   9.366 -12.893  1.00  0.00     0.007 A 
ATOM      7  C   UNL     1      30.863   8.961 -11.556  1.00  0.00     0.046 A 
BRANCH   5   8
ATOM      8  O   UNL     1      30.021   9.208  -9.309  1.00  0.00    -0.508 OA
ATOM      9  H   UNL     1      29.354   9.589  -8.646  1.00  0.00     0.293 HD
ENDBRANCH   5   8
ENDBRANCH   1   2
BRANCH   1  10
ATOM     10  C   UNL     1      28.871  11.696 -15.096  1.00  0.00     0.040 C 
BRANCH  10  11
ATOM     11  C   UNL     1      29.264  13.009 -15.718  1.00  0.00    -0.040 A 
ATOM     12  C   UNL     1      29.793  14.039 -14.922  1.00  0.00     0.050 A 
ATOM     13  C   UNL     1      29.051  13.237 -17.087  1.00  0.00     0.050 A 
ATOM     14  C   UNL     1      30.129  15.274 -15.493  1.00  0.00     0.119 A 
ATOM     15  C   UNL     1      29.386  14.468 -17.660  1.00  0.00     0.119 A 
ATOM     16  C   UNL     1      29.928  15.485 -16.861  1.00  0.00     0.092 A 
BRANCH  14  17
ATOM     17  O   UNL     1      30.661  16.296 -14.711  1.00  0.00    -0.508 OA
ATOM     18  H   UNL     1      30.735  17.245 -15.059  1.00  0.00     0.293 HD
ENDBRANCH  14  17
BRANCH  15  19
ATOM     19  O   UNL     1      29.174  14.673 -19.021  1.00  0.00    -0.508 OA
ATOM     20  H   UNL     1      28.711  15.506 -19.366  1.00  0.00     0.293 HD
ENDBRANCH  15  19
ENDBRANCH  10  11
ENDBRANCH   1  10
TORSDOF 6
ENDMDL
