MODEL 1
REMARK VINA RESULT:    -3.087      0.000      0.000
REMARK INTER + INTRA:          -3.941
REMARK INTER:                  -3.719
REMARK INTRA:                  -0.222
REMARK UNBOUND:                -0.222
REMARK SMILES OCC(O)CO
REMARK SMILES IDX 3 1 5 2 6 3 2 5 1 6 4 8
REMARK H PARENT 6 4 1 7 4 9
REMARK Flexibility Score: inf
ROOT
ATOM      1  C   UNL     1     114.199  96.464 116.459  1.00  0.00     0.165 C 
ENDROOT
BRANCH   1   2
ATOM      2  C   UNL     1     113.182  95.422 116.948  1.00  0.00     0.190 C 
BRANCH   2   3
ATOM      3  O   UNL     1     112.029  96.060 117.423  1.00  0.00    -0.394 OA
ATOM      4  H   UNL     1     112.308  96.566 118.231  1.00  0.00     0.210 HD
ENDBRANCH   2   3
ENDBRANCH   1   2
BRANCH   1   5
ATOM      5  C   UNL     1     115.049  96.995 117.622  1.00  0.00     0.190 C 
BRANCH   5   6
ATOM      6  O   UNL     1     114.477  96.629 118.850  1.00  0.00    -0.394 OA
ATOM      7  H   UNL     1     113.999  95.772 118.699  1.00  0.00     0.210 HD
ENDBRANCH   5   6
ENDBRANCH   1   5
BRANCH   1   8
ATOM      8  O   UNL     1     115.044  95.879 115.501  1.00  0.00    -0.388 OA
ATOM      9  H   UNL     1     115.920  95.727 115.943  1.00  0.00     0.211 HD
ENDBRANCH   1   8
TORSDOF 5
ENDMDL
MODEL 2
REMARK VINA RESULT:    -3.066      1.191      2.742
REMARK INTER + INTRA:          -3.915
REMARK INTER:                  -3.701
REMARK INTRA:                  -0.214
REMARK UNBOUND:                -0.222
REMARK SMILES OCC(O)CO
REMARK SMILES IDX 3 1 5 2 6 3 2 5 1 6 4 8
REMARK H PARENT 6 4 1 7 4 9
REMARK Flexibility Score: inf
ROOT
ATOM      1  C   UNL     1     113.924  96.670 117.500  1.00  0.00     0.165 C 
ENDROOT
BRANCH   1   2
ATOM      2  C   UNL     1     115.125  96.482 116.561  1.00  0.00     0.190 C 
BRANCH   2   3
ATOM      3  O   UNL     1     114.686  96.122 115.281  1.00  0.00    -0.394 OA
ATOM      4  H   UNL     1     113.998  96.792 115.028  1.00  0.00     0.210 HD
ENDBRANCH   2   3
ENDBRANCH   1   2
BRANCH   1   5
ATOM      5  C   UNL     1     112.941  95.497 117.380  1.00  0.00     0.190 C 
BRANCH   5   6
ATOM      6  O   UNL     1     113.627  94.276 117.457  1.00  0.00    -0.394 OA
ATOM      7  H   UNL     1     113.794  94.102 118.420  1.00  0.00     0.210 HD
ENDBRANCH   5   6
ENDBRANCH   1   5
BRANCH   1   8
ATOM      8  O   UNL     1     114.376  96.759 118.826  1.00  0.00    -0.388 OA
ATOM      9  H   UNL     1     115.180  96.180 118.896  1.00  0.00     0.211 HD
ENDBRANCH   1   8
TORSDOF 5
ENDMDL
MODEL 3
REMARK VINA RESULT:    -2.985      1.927      3.364
REMARK INTER + INTRA:          -3.817
REMARK INTER:                  -3.598
REMARK INTRA:                  -0.219
REMARK UNBOUND:                -0.222
REMARK SMILES OCC(O)CO
REMARK SMILES IDX 3 1 5 2 6 3 2 5 1 6 4 8
REMARK H PARENT 6 4 1 7 4 9
REMARK Flexibility Score: inf
ROOT
ATOM      1  C   UNL     1     112.183  94.995 117.280  1.00  0.00     0.165 C 
ENDROOT
BRANCH   1   2
ATOM      2  C   UNL     1     113.390  95.893 117.589  1.00  0.00     0.190 C 
BRANCH   2   3
ATOM      3  O   UNL     1     114.537  95.396 116.957  1.00  0.00    -0.394 OA
ATOM      4  H   UNL     1     115.129  96.179 116.806  1.00  0.00     0.210 HD
ENDBRANCH   2   3
ENDBRANCH   1   2
BRANCH   1   5
ATOM      5  C   UNL     1     112.141  93.784 118.222  1.00  0.00     0.190 C 
BRANCH   5   6
ATOM      6  O   UNL     1     113.362  93.095 118.186  1.00  0.00    -0.394 OA
ATOM      7  H   UNL     1     114.064  93.742 118.462  1.00  0.00     0.210 HD
ENDBRANCH   5   6
ENDBRANCH   1   5
BRANCH   1   8
ATOM      8  O   UNL     1     110.999  95.736 117.428  1.00  0.00    -0.388 OA
ATOM      9  H   UNL     1     111.267  96.668 117.642  1.00  0.00     0.211 HD
ENDBRANCH   1   8
TORSDOF 5
ENDMDL
MODEL 4
REMARK VINA RESULT:    -2.977     13.263     14.040
REMARK INTER + INTRA:          -3.809
REMARK INTER:                  -3.596
REMARK INTRA:                  -0.213
REMARK UNBOUND:                -0.222
REMARK SMILES OCC(O)CO
REMARK SMILES IDX 3 1 5 2 6 3 2 5 1 6 4 8
REMARK H PARENT 6 4 1 7 4 9
REMARK Flexibility Score: inf
ROOT
ATOM      1  C   UNL     1     103.853  92.027 125.898  1.00  0.00     0.165 C 
ENDROOT
BRANCH   1   2
ATOM      2  C   UNL     1     102.329  92.017 125.714  1.00  0.00     0.190 C 
BRANCH   2   3
ATOM      3  O   UNL     1     101.924  93.139 124.979  1.00  0.00    -0.394 OA
ATOM      4  H   UNL     1     101.638  92.798 124.091  1.00  0.00     0.210 HD
ENDBRANCH   2   3
ENDBRANCH   1   2
BRANCH   1   5
ATOM      5  C   UNL     1     104.544  91.156 124.840  1.00  0.00     0.190 C 
BRANCH   5   6
ATOM      6  O   UNL     1     103.752  91.072 123.685  1.00  0.00    -0.394 OA
ATOM      7  H   UNL     1     103.535  92.004 123.419  1.00  0.00     0.210 HD
ENDBRANCH   5   6
ENDBRANCH   1   5
BRANCH   1   8
ATOM      8  O   UNL     1     104.329  93.344 125.792  1.00  0.00    -0.388 OA
ATOM      9  H   UNL     1     103.533  93.938 125.782  1.00  0.00     0.211 HD
ENDBRANCH   1   8
TORSDOF 5
ENDMDL
MODEL 5
REMARK VINA RESULT:    -2.961     13.993     15.352
REMARK INTER + INTRA:          -3.789
REMARK INTER:                  -3.786
REMARK INTRA:                  -0.002
REMARK UNBOUND:                -0.222
REMARK SMILES OCC(O)CO
REMARK SMILES IDX 3 1 5 2 6 3 2 5 1 6 4 8
REMARK H PARENT 6 4 1 7 4 9
REMARK Flexibility Score: inf
ROOT
ATOM      1  C   UNL     1     102.429  91.850 125.422  1.00  0.00     0.165 C 
ENDROOT
BRANCH   1   2
ATOM      2  C   UNL     1     103.839  92.067 125.990  1.00  0.00     0.190 C 
BRANCH   2   3
ATOM      3  O   UNL     1     104.237  93.396 125.800  1.00  0.00    -0.394 OA
ATOM      4  H   UNL     1     103.875  93.904 126.573  1.00  0.00     0.210 HD
ENDBRANCH   2   3
ENDBRANCH   1   2
BRANCH   1   5
ATOM      5  C   UNL     1     101.554  91.057 126.402  1.00  0.00     0.190 C 
BRANCH   5   6
ATOM      6  O   UNL     1     100.251  91.577 126.424  1.00  0.00    -0.394 OA
ATOM      7  H   UNL     1      99.969  91.603 127.375  1.00  0.00     0.210 HD
ENDBRANCH   5   6
ENDBRANCH   1   5
BRANCH   1   8
ATOM      8  O   UNL     1     101.828  93.095 125.172  1.00  0.00    -0.388 OA
ATOM      9  H   UNL     1     100.898  92.912 124.875  1.00  0.00     0.211 HD
ENDBRANCH   1   8
TORSDOF 5
ENDMDL
MODEL 6
REMARK VINA RESULT:    -2.915     13.806     14.945
REMARK INTER + INTRA:          -3.734
REMARK INTER:                  -3.732
REMARK INTRA:                  -0.003
REMARK UNBOUND:                -0.222
REMARK SMILES OCC(O)CO
REMARK SMILES IDX 3 1 5 2 6 3 2 5 1 6 4 8
REMARK H PARENT 6 4 1 7 4 9
REMARK Flexibility Score: inf
ROOT
ATOM      1  C   UNL     1     102.545  91.920 125.388  1.00  0.00     0.165 C 
ENDROOT
BRANCH   1   2
ATOM      2  C   UNL     1     101.597  91.121 126.295  1.00  0.00     0.190 C 
BRANCH   2   3
ATOM      3  O   UNL     1     100.338  91.733 126.338  1.00  0.00    -0.394 OA
ATOM      4  H   UNL     1      99.937  91.477 127.209  1.00  0.00     0.210 HD
ENDBRANCH   2   3
ENDBRANCH   1   2
BRANCH   1   5
ATOM      5  C   UNL     1     103.888  92.177 126.084  1.00  0.00     0.190 C 
BRANCH   5   6
ATOM      6  O   UNL     1     104.333  93.481 125.819  1.00  0.00    -0.394 OA
ATOM      7  H   UNL     1     103.766  94.092 126.358  1.00  0.00     0.210 HD
ENDBRANCH   5   6
ENDBRANCH   1   5
BRANCH   1   8
ATOM      8  O   UNL     1     102.770  91.205 124.201  1.00  0.00    -0.388 OA
ATOM      9  H   UNL     1     103.718  90.910 124.218  1.00  0.00     0.211 HD
ENDBRANCH   1   8
TORSDOF 5
ENDMDL
MODEL 7
REMARK VINA RESULT:    -2.902      7.871      8.119
REMARK INTER + INTRA:          -3.718
REMARK INTER:                  -3.498
REMARK INTRA:                  -0.220
REMARK UNBOUND:                -0.222
REMARK SMILES OCC(O)CO
REMARK SMILES IDX 3 1 5 2 6 3 2 5 1 6 4 8
REMARK H PARENT 6 4 1 7 4 9
REMARK Flexibility Score: inf
ROOT
ATOM      1  C   UNL     1     107.549  92.287 117.276  1.00  0.00     0.165 C 
ENDROOT
BRANCH   1   2
ATOM      2  C   UNL     1     106.883  93.545 117.854  1.00  0.00     0.190 C 
BRANCH   2   3
ATOM      3  O   UNL     1     106.611  93.365 119.216  1.00  0.00    -0.394 OA
ATOM      4  H   UNL     1     106.720  94.257 119.638  1.00  0.00     0.210 HD
ENDBRANCH   2   3
ENDBRANCH   1   2
BRANCH   1   5
ATOM      5  C   UNL     1     107.164  91.039 118.081  1.00  0.00     0.190 C 
BRANCH   5   6
ATOM      6  O   UNL     1     108.029  90.876 119.173  1.00  0.00    -0.394 OA
ATOM      7  H   UNL     1     107.989  91.717 119.698  1.00  0.00     0.210 HD
ENDBRANCH   5   6
ENDBRANCH   1   5
BRANCH   1   8
ATOM      8  O   UNL     1     107.149  92.117 115.941  1.00  0.00    -0.388 OA
ATOM      9  H   UNL     1     106.858  93.007 115.611  1.00  0.00     0.211 HD
ENDBRANCH   1   8
TORSDOF 5
ENDMDL
MODEL 8
REMARK VINA RESULT:    -2.862      2.098      3.512
REMARK INTER + INTRA:          -3.670
REMARK INTER:                  -3.667
REMARK INTRA:                  -0.003
REMARK UNBOUND:                -0.222
REMARK SMILES OCC(O)CO
REMARK SMILES IDX 3 1 5 2 6 3 2 5 1 6 4 8
REMARK H PARENT 6 4 1 7 4 9
REMARK Flexibility Score: inf
ROOT
ATOM      1  C   UNL     1     112.607  94.681 118.088  1.00  0.00     0.165 C 
ENDROOT
BRANCH   1   2
ATOM      2  C   UNL     1     113.222  95.639 117.057  1.00  0.00     0.190 C 
BRANCH   2   3
ATOM      3  O   UNL     1     114.591  95.376 116.911  1.00  0.00    -0.394 OA
ATOM      4  H   UNL     1     114.660  94.424 116.637  1.00  0.00     0.210 HD
ENDBRANCH   2   3
ENDBRANCH   1   2
BRANCH   1   5
ATOM      5  C   UNL     1     111.119  94.438 117.796  1.00  0.00     0.190 C 
BRANCH   5   6
ATOM      6  O   UNL     1     110.351  94.687 118.943  1.00  0.00    -0.394 OA
ATOM      7  H   UNL     1     110.473  93.907 119.545  1.00  0.00     0.210 HD
ENDBRANCH   5   6
ENDBRANCH   1   5
BRANCH   1   8
ATOM      8  O   UNL     1     113.289  93.454 118.053  1.00  0.00    -0.388 OA
ATOM      9  H   UNL     1     112.697  92.808 117.586  1.00  0.00     0.211 HD
ENDBRANCH   1   8
TORSDOF 5
ENDMDL
MODEL 9
REMARK VINA RESULT:    -2.859      5.995      7.529
REMARK INTER + INTRA:          -3.666
REMARK INTER:                  -3.444
REMARK INTRA:                  -0.222
REMARK UNBOUND:                -0.222
REMARK SMILES OCC(O)CO
REMARK SMILES IDX 3 1 5 2 6 3 2 5 1 6 4 8
REMARK H PARENT 6 4 1 7 4 9
REMARK Flexibility Score: inf
ROOT
ATOM      1  C   UNL     1     107.351  92.651 117.453  1.00  0.00     0.165 C 
ENDROOT
BRANCH   1   2
ATOM      2  C   UNL     1     108.811  93.107 117.324  1.00  0.00     0.190 C 
BRANCH   2   3
ATOM      3  O   UNL     1     109.133  93.997 118.357  1.00  0.00    -0.394 OA
ATOM      4  H   UNL     1     108.277  94.421 118.630  1.00  0.00     0.210 HD
ENDBRANCH   2   3
ENDBRANCH   1   2
BRANCH   1   5
ATOM      5  C   UNL     1     106.462  93.787 117.976  1.00  0.00     0.190 C 
BRANCH   5   6
ATOM      6  O   UNL     1     106.343  93.709 119.372  1.00  0.00    -0.394 OA
ATOM      7  H   UNL     1     105.808  92.897 119.569  1.00  0.00     0.210 HD
ENDBRANCH   5   6
ENDBRANCH   1   5
BRANCH   1   8
ATOM      8  O   UNL     1     106.877  92.236 116.197  1.00  0.00    -0.388 OA
ATOM      9  H   UNL     1     107.670  92.150 115.605  1.00  0.00     0.211 HD
ENDBRANCH   1   8
TORSDOF 5
ENDMDL
