MODEL 1
REMARK VINA RESULT:    -4.167      0.000      0.000
REMARK INTER + INTRA:          -7.313
REMARK INTER:                  -6.360
REMARK INTRA:                  -0.953
REMARK UNBOUND:                -0.953
REMARK SMILES O=C([O-])CCCCCCCCC(=O)[O-]
REMARK SMILES IDX 7 1 6 2 5 3 4 4 2 5 1 6 3 7 8 8 9 9 10 10 11 11 12 12 13 13
REMARK SMILES IDX 14 14
REMARK H PARENT
REMARK Flexibility Score: inf
ROOT
ATOM      1  C   UNL     1     -23.313  17.735 -22.126  1.00  0.00     0.000 C 
ENDROOT
BRANCH   1   2
ATOM      2  C   UNL     1     -22.678  19.035 -21.595  1.00  0.00     0.000 C 
BRANCH   2   3
ATOM      3  C   UNL     1     -23.107  20.279 -22.391  1.00  0.00     0.006 C 
BRANCH   3   4
ATOM      4  C   UNL     1     -22.882  20.106 -23.900  1.00  0.00     0.053 C 
BRANCH   4   5
ATOM      5  C   UNL     1     -22.404  21.371 -24.542  1.00  0.00     0.041 C 
ATOM      6  O   UNL     1     -22.739  22.489 -24.067  1.00  0.00    -0.550 OA
ATOM      7  O   UNL     1     -21.613  21.319 -25.682  1.00  0.00    -0.550 OA
ENDBRANCH   4   5
ENDBRANCH   3   4
ENDBRANCH   2   3
ENDBRANCH   1   2
BRANCH   1   8
ATOM      8  C   UNL     1     -22.396  16.498 -22.089  1.00  0.00     0.000 C 
BRANCH   8   9
ATOM      9  C   UNL     1     -20.904  16.854 -22.171  1.00  0.00     0.000 C 
BRANCH   9  10
ATOM     10  C   UNL     1     -20.328  16.495 -23.548  1.00  0.00     0.006 C 
BRANCH  10  11
ATOM     11  C   UNL     1     -20.187  17.724 -24.456  1.00  0.00     0.053 C 
BRANCH  11  12
ATOM     12  C   UNL     1     -21.064  17.623 -25.666  1.00  0.00     0.041 C 
ATOM     13  O   UNL     1     -20.739  18.205 -26.735  1.00  0.00    -0.550 OA
ATOM     14  O   UNL     1     -22.223  16.860 -25.624  1.00  0.00    -0.550 OA
ENDBRANCH  11  12
ENDBRANCH  10  11
ENDBRANCH   9  10
ENDBRANCH   8   9
ENDBRANCH   1   8
TORSDOF 9
ENDMDL
MODEL 2
REMARK VINA RESULT:    -4.133      2.109      4.332
REMARK INTER + INTRA:          -7.261
REMARK INTER:                  -6.320
REMARK INTRA:                  -0.941
REMARK UNBOUND:                -0.953
REMARK SMILES O=C([O-])CCCCCCCCC(=O)[O-]
REMARK SMILES IDX 7 1 6 2 5 3 4 4 2 5 1 6 3 7 8 8 9 9 10 10 11 11 12 12 13 13
REMARK SMILES IDX 14 14
REMARK H PARENT
REMARK Flexibility Score: inf
ROOT
ATOM      1  C   UNL     1     -22.830  19.384 -21.971  1.00  0.00     0.000 C 
ENDROOT
BRANCH   1   2
ATOM      2  C   UNL     1     -23.828  18.216 -22.089  1.00  0.00     0.000 C 
BRANCH   2   3
ATOM      3  C   UNL     1     -23.136  16.852 -22.255  1.00  0.00     0.006 C 
BRANCH   3   4
ATOM      4  C   UNL     1     -21.618  16.944 -22.042  1.00  0.00     0.053 C 
BRANCH   4   5
ATOM      5  C   UNL     1     -20.981  15.591 -21.974  1.00  0.00     0.041 C 
ATOM      6  O   UNL     1     -20.419  15.103 -22.990  1.00  0.00    -0.550 OA
ATOM      7  O   UNL     1     -21.033  14.854 -20.797  1.00  0.00    -0.550 OA
ENDBRANCH   4   5
ENDBRANCH   3   4
ENDBRANCH   2   3
ENDBRANCH   1   2
BRANCH   1   8
ATOM      8  C   UNL     1     -22.874  20.400 -23.127  1.00  0.00     0.000 C 
BRANCH   8   9
ATOM      9  C   UNL     1     -22.807  19.738 -24.511  1.00  0.00     0.000 C 
BRANCH   9  10
ATOM     10  C   UNL     1     -21.420  19.924 -25.144  1.00  0.00     0.006 C 
BRANCH  10  11
ATOM     11  C   UNL     1     -20.657  18.599 -25.272  1.00  0.00     0.053 C 
BRANCH  11  12
ATOM     12  C   UNL     1     -21.375  17.630 -26.159  1.00  0.00     0.041 C 
ATOM     13  O   UNL     1     -21.848  16.564 -25.682  1.00  0.00    -0.550 OA
ATOM     14  O   UNL     1     -21.552  17.918 -27.506  1.00  0.00    -0.550 OA
ENDBRANCH  11  12
ENDBRANCH  10  11
ENDBRANCH   9  10
ENDBRANCH   8   9
ENDBRANCH   1   8
TORSDOF 9
ENDMDL
MODEL 3
REMARK VINA RESULT:    -4.108      2.095      4.047
REMARK INTER + INTRA:          -7.223
REMARK INTER:                  -6.361
REMARK INTRA:                  -0.862
REMARK UNBOUND:                -0.953
REMARK SMILES O=C([O-])CCCCCCCCC(=O)[O-]
REMARK SMILES IDX 7 1 6 2 5 3 4 4 2 5 1 6 3 7 8 8 9 9 10 10 11 11 12 12 13 13
REMARK SMILES IDX 14 14
REMARK H PARENT
REMARK Flexibility Score: inf
ROOT
ATOM      1  C   UNL     1     -23.010  20.456 -23.101  1.00  0.00     0.000 C 
ENDROOT
BRANCH   1   2
ATOM      2  C   UNL     1     -22.843  19.814 -24.491  1.00  0.00     0.000 C 
BRANCH   2   3
ATOM      3  C   UNL     1     -21.423  19.976 -25.059  1.00  0.00     0.006 C 
BRANCH   3   4
ATOM      4  C   UNL     1     -20.705  18.628 -25.214  1.00  0.00     0.053 C 
BRANCH   4   5
ATOM      5  C   UNL     1     -21.467  17.689 -26.098  1.00  0.00     0.041 C 
ATOM      6  O   UNL     1     -21.529  17.896 -27.339  1.00  0.00    -0.550 OA
ATOM      7  O   UNL     1     -22.133  16.601 -25.549  1.00  0.00    -0.550 OA
ENDBRANCH   4   5
ENDBRANCH   3   4
ENDBRANCH   2   3
ENDBRANCH   1   2
BRANCH   1   8
ATOM      8  C   UNL     1     -22.799  19.502 -21.911  1.00  0.00     0.000 C 
BRANCH   8   9
ATOM      9  C   UNL     1     -23.876  18.410 -21.819  1.00  0.00     0.000 C 
BRANCH   9  10
ATOM     10  C   UNL     1     -23.285  17.027 -22.129  1.00  0.00     0.006 C 
BRANCH  10  11
ATOM     11  C   UNL     1     -21.755  17.012 -22.020  1.00  0.00     0.053 C 
BRANCH  11  12
ATOM     12  C   UNL     1     -21.243  15.673 -21.586  1.00  0.00     0.041 C 
ATOM     13  O   UNL     1     -20.076  15.310 -21.892  1.00  0.00    -0.550 OA
ATOM     14  O   UNL     1     -22.043  14.838 -20.817  1.00  0.00    -0.550 OA
ENDBRANCH  11  12
ENDBRANCH  10  11
ENDBRANCH   9  10
ENDBRANCH   8   9
ENDBRANCH   1   8
TORSDOF 9
ENDMDL
MODEL 4
REMARK VINA RESULT:    -4.101      2.338      4.383
REMARK INTER + INTRA:          -7.211
REMARK INTER:                  -6.378
REMARK INTRA:                  -0.834
REMARK UNBOUND:                -0.953
REMARK SMILES O=C([O-])CCCCCCCCC(=O)[O-]
REMARK SMILES IDX 7 1 6 2 5 3 4 4 2 5 1 6 3 7 8 8 9 9 10 10 11 11 12 12 13 13
REMARK SMILES IDX 14 14
REMARK H PARENT
REMARK Flexibility Score: inf
ROOT
ATOM      1  C   UNL     1     -22.881  20.832 -23.360  1.00  0.00     0.000 C 
ENDROOT
BRANCH   1   2
ATOM      2  C   UNL     1     -22.819  20.625 -24.885  1.00  0.00     0.000 C 
BRANCH   2   3
ATOM      3  C   UNL     1     -21.385  20.416 -25.403  1.00  0.00     0.006 C 
BRANCH   3   4
ATOM      4  C   UNL     1     -20.906  18.970 -25.211  1.00  0.00     0.053 C 
BRANCH   4   5
ATOM      5  C   UNL     1     -21.608  18.023 -26.134  1.00  0.00     0.041 C 
ATOM      6  O   UNL     1     -21.367  18.046 -27.370  1.00  0.00    -0.550 OA
ATOM      7  O   UNL     1     -22.550  17.133 -25.634  1.00  0.00    -0.550 OA
ENDBRANCH   4   5
ENDBRANCH   3   4
ENDBRANCH   2   3
ENDBRANCH   1   2
BRANCH   1   8
ATOM      8  C   UNL     1     -23.500  19.666 -22.567  1.00  0.00     0.000 C 
BRANCH   8   9
ATOM      9  C   UNL     1     -22.501  18.987 -21.619  1.00  0.00     0.000 C 
BRANCH   9  10
ATOM     10  C   UNL     1     -22.242  17.533 -22.042  1.00  0.00     0.006 C 
BRANCH  10  11
ATOM     11  C   UNL     1     -23.543  16.746 -22.242  1.00  0.00     0.053 C 
BRANCH  11  12
ATOM     12  C   UNL     1     -23.751  15.734 -21.156  1.00  0.00     0.041 C 
ATOM     13  O   UNL     1     -23.022  14.709 -21.098  1.00  0.00    -0.550 OA
ATOM     14  O   UNL     1     -24.727  15.941 -20.190  1.00  0.00    -0.550 OA
ENDBRANCH  11  12
ENDBRANCH  10  11
ENDBRANCH   9  10
ENDBRANCH   8   9
ENDBRANCH   1   8
TORSDOF 9
ENDMDL
MODEL 5
REMARK VINA RESULT:    -4.075      2.587      3.937
REMARK INTER + INTRA:          -7.173
REMARK INTER:                  -6.236
REMARK INTRA:                  -0.937
REMARK UNBOUND:                -0.953
REMARK SMILES O=C([O-])CCCCCCCCC(=O)[O-]
REMARK SMILES IDX 7 1 6 2 5 3 4 4 2 5 1 6 3 7 8 8 9 9 10 10 11 11 12 12 13 13
REMARK SMILES IDX 14 14
REMARK H PARENT
REMARK Flexibility Score: inf
ROOT
ATOM      1  C   UNL     1     -23.540  17.985 -23.546  1.00  0.00     0.000 C 
ENDROOT
BRANCH   1   2
ATOM      2  C   UNL     1     -22.781  19.325 -23.532  1.00  0.00     0.000 C 
BRANCH   2   3
ATOM      3  C   UNL     1     -22.291  19.752 -24.927  1.00  0.00     0.006 C 
BRANCH   3   4
ATOM      4  C   UNL     1     -20.960  19.084 -25.301  1.00  0.00     0.053 C 
BRANCH   4   5
ATOM      5  C   UNL     1     -21.129  18.081 -26.400  1.00  0.00     0.041 C 
ATOM      6  O   UNL     1     -21.098  18.450 -27.605  1.00  0.00    -0.550 OA
ATOM      7  O   UNL     1     -21.348  16.744 -26.096  1.00  0.00    -0.550 OA
ENDBRANCH   4   5
ENDBRANCH   3   4
ENDBRANCH   2   3
ENDBRANCH   1   2
BRANCH   1   8
ATOM      8  C   UNL     1     -22.836  16.828 -22.813  1.00  0.00     0.000 C 
BRANCH   8   9
ATOM      9  C   UNL     1     -21.560  17.269 -22.081  1.00  0.00     0.000 C 
BRANCH   9  10
ATOM     10  C   UNL     1     -20.344  16.464 -22.562  1.00  0.00     0.006 C 
BRANCH  10  11
ATOM     11  C   UNL     1     -20.681  14.985 -22.793  1.00  0.00     0.053 C 
BRANCH  11  12
ATOM     12  C   UNL     1     -20.351  14.148 -21.595  1.00  0.00     0.041 C 
ATOM     13  O   UNL     1     -19.355  13.377 -21.615  1.00  0.00    -0.550 OA
ATOM     14  O   UNL     1     -21.124  14.243 -20.446  1.00  0.00    -0.550 OA
ENDBRANCH  11  12
ENDBRANCH  10  11
ENDBRANCH   9  10
ENDBRANCH   8   9
ENDBRANCH   1   8
TORSDOF 9
ENDMDL
MODEL 6
REMARK VINA RESULT:    -4.065      2.430      5.081
REMARK INTER + INTRA:          -7.158
REMARK INTER:                  -6.287
REMARK INTRA:                  -0.870
REMARK UNBOUND:                -0.953
REMARK SMILES O=C([O-])CCCCCCCCC(=O)[O-]
REMARK SMILES IDX 7 1 6 2 5 3 4 4 2 5 1 6 3 7 8 8 9 9 10 10 11 11 12 12 13 13
REMARK SMILES IDX 14 14
REMARK H PARENT
REMARK Flexibility Score: inf
ROOT
ATOM      1  C   UNL     1     -19.991  17.030 -23.579  1.00  0.00     0.000 C 
ENDROOT
BRANCH   1   2
ATOM      2  C   UNL     1     -21.016  16.015 -23.040  1.00  0.00     0.000 C 
BRANCH   2   3
ATOM      3  C   UNL     1     -21.748  16.514 -21.782  1.00  0.00     0.006 C 
BRANCH   3   4
ATOM      4  C   UNL     1     -23.274  16.422 -21.927  1.00  0.00     0.053 C 
BRANCH   4   5
ATOM      5  C   UNL     1     -23.872  15.470 -20.937  1.00  0.00     0.041 C 
ATOM      6  O   UNL     1     -23.469  14.277 -20.883  1.00  0.00    -0.550 OA
ATOM      7  O   UNL     1     -24.892  15.890 -20.094  1.00  0.00    -0.550 OA
ENDBRANCH   4   5
ENDBRANCH   3   4
ENDBRANCH   2   3
ENDBRANCH   1   2
BRANCH   1   8
ATOM      8  C   UNL     1     -20.530  17.999 -24.648  1.00  0.00     0.000 C 
BRANCH   8   9
ATOM      9  C   UNL     1     -21.865  17.542 -25.254  1.00  0.00     0.000 C 
BRANCH   9  10
ATOM     10  C   UNL     1     -22.966  18.585 -25.011  1.00  0.00     0.006 C 
BRANCH  10  11
ATOM     11  C   UNL     1     -22.486  19.739 -24.121  1.00  0.00     0.053 C 
BRANCH  11  12
ATOM     12  C   UNL     1     -22.460  21.039 -24.866  1.00  0.00     0.041 C 
ATOM     13  O   UNL     1     -21.601  21.237 -25.765  1.00  0.00    -0.550 OA
ATOM     14  O   UNL     1     -23.405  22.018 -24.588  1.00  0.00    -0.550 OA
ENDBRANCH  11  12
ENDBRANCH  10  11
ENDBRANCH   9  10
ENDBRANCH   8   9
ENDBRANCH   1   8
TORSDOF 9
ENDMDL
MODEL 7
REMARK VINA RESULT:    -4.055      1.568      2.061
REMARK INTER + INTRA:          -7.142
REMARK INTER:                  -6.305
REMARK INTRA:                  -0.837
REMARK UNBOUND:                -0.953
REMARK SMILES O=C([O-])CCCCCCCCC(=O)[O-]
REMARK SMILES IDX 7 1 6 2 5 3 4 4 2 5 1 6 3 7 8 8 9 9 10 10 11 11 12 12 13 13
REMARK SMILES IDX 14 14
REMARK H PARENT
REMARK Flexibility Score: inf
ROOT
ATOM      1  C   UNL     1     -22.767  19.164 -21.770  1.00  0.00     0.000 C 
ENDROOT
BRANCH   1   2
ATOM      2  C   UNL     1     -23.236  20.538 -21.258  1.00  0.00     0.000 C 
BRANCH   2   3
ATOM      3  C   UNL     1     -23.315  21.597 -22.372  1.00  0.00     0.006 C 
BRANCH   3   4
ATOM      4  C   UNL     1     -22.877  21.038 -23.733  1.00  0.00     0.053 C 
BRANCH   4   5
ATOM      5  C   UNL     1     -22.487  22.128 -24.684  1.00  0.00     0.041 C 
ATOM      6  O   UNL     1     -21.414  22.042 -25.339  1.00  0.00    -0.550 OA
ATOM      7  O   UNL     1     -23.292  23.250 -24.825  1.00  0.00    -0.550 OA
ENDBRANCH   4   5
ENDBRANCH   3   4
ENDBRANCH   2   3
ENDBRANCH   1   2
BRANCH   1   8
ATOM      8  C   UNL     1     -23.875  18.102 -21.900  1.00  0.00     0.000 C 
BRANCH   8   9
ATOM      9  C   UNL     1     -23.988  17.523 -23.318  1.00  0.00     0.000 C 
BRANCH   9  10
ATOM     10  C   UNL     1     -22.600  17.339 -23.949  1.00  0.00     0.006 C 
BRANCH  10  11
ATOM     11  C   UNL     1     -22.605  17.623 -25.457  1.00  0.00     0.053 C 
BRANCH  11  12
ATOM     12  C   UNL     1     -21.407  18.420 -25.875  1.00  0.00     0.041 C 
ATOM     13  O   UNL     1     -20.523  18.724 -25.031  1.00  0.00    -0.550 OA
ATOM     14  O   UNL     1     -21.250  18.796 -27.202  1.00  0.00    -0.550 OA
ENDBRANCH  11  12
ENDBRANCH  10  11
ENDBRANCH   9  10
ENDBRANCH   8   9
ENDBRANCH   1   8
TORSDOF 9
ENDMDL
MODEL 8
REMARK VINA RESULT:    -4.030      1.702      4.805
REMARK INTER + INTRA:          -7.103
REMARK INTER:                  -6.169
REMARK INTRA:                  -0.934
REMARK UNBOUND:                -0.953
REMARK SMILES O=C([O-])CCCCCCCCC(=O)[O-]
REMARK SMILES IDX 7 1 6 2 5 3 4 4 2 5 1 6 3 7 8 8 9 9 10 10 11 11 12 12 13 13
REMARK SMILES IDX 14 14
REMARK H PARENT
REMARK Flexibility Score: inf
ROOT
ATOM      1  C   UNL     1     -20.140  17.903 -24.477  1.00  0.00     0.000 C 
ENDROOT
BRANCH   1   2
ATOM      2  C   UNL     1     -20.384  16.575 -23.737  1.00  0.00     0.000 C 
BRANCH   2   3
ATOM      3  C   UNL     1     -20.865  16.775 -22.289  1.00  0.00     0.006 C 
BRANCH   3   4
ATOM      4  C   UNL     1     -22.047  17.752 -22.203  1.00  0.00     0.053 C 
BRANCH   4   5
ATOM      5  C   UNL     1     -23.321  17.131 -22.685  1.00  0.00     0.041 C 
ATOM      6  O   UNL     1     -23.924  16.286 -21.971  1.00  0.00    -0.550 OA
ATOM      7  O   UNL     1     -23.828  17.462 -23.934  1.00  0.00    -0.550 OA
ENDBRANCH   4   5
ENDBRANCH   3   4
ENDBRANCH   2   3
ENDBRANCH   1   2
BRANCH   1   8
ATOM      8  C   UNL     1     -20.721  17.975 -25.901  1.00  0.00     0.000 C 
BRANCH   8   9
ATOM      9  C   UNL     1     -21.477  19.283 -26.176  1.00  0.00     0.000 C 
BRANCH   9  10
ATOM     10  C   UNL     1     -21.278  20.285 -25.028  1.00  0.00     0.006 C 
BRANCH  10  11
ATOM     11  C   UNL     1     -22.610  20.807 -24.475  1.00  0.00     0.053 C 
BRANCH  11  12
ATOM     12  C   UNL     1     -22.724  22.294 -24.616  1.00  0.00     0.041 C 
ATOM     13  O   UNL     1     -23.854  22.849 -24.584  1.00  0.00    -0.550 OA
ATOM     14  O   UNL     1     -21.580  23.070 -24.751  1.00  0.00    -0.550 OA
ENDBRANCH  11  12
ENDBRANCH  10  11
ENDBRANCH   9  10
ENDBRANCH   8   9
ENDBRANCH   1   8
TORSDOF 9
ENDMDL
MODEL 9
REMARK VINA RESULT:    -3.959      1.281      2.011
REMARK INTER + INTRA:          -6.995
REMARK INTER:                  -6.140
REMARK INTRA:                  -0.854
REMARK UNBOUND:                -0.953
REMARK SMILES O=C([O-])CCCCCCCCC(=O)[O-]
REMARK SMILES IDX 7 1 6 2 5 3 4 4 2 5 1 6 3 7 8 8 9 9 10 10 11 11 12 12 13 13
REMARK SMILES IDX 14 14
REMARK H PARENT
REMARK Flexibility Score: inf
ROOT
ATOM      1  C   UNL     1     -22.720  18.366 -21.647  1.00  0.00     0.000 C 
ENDROOT
BRANCH   1   2
ATOM      2  C   UNL     1     -23.420  19.713 -21.908  1.00  0.00     0.000 C 
BRANCH   2   3
ATOM      3  C   UNL     1     -22.864  20.447 -23.141  1.00  0.00     0.006 C 
BRANCH   3   4
ATOM      4  C   UNL     1     -22.598  19.491 -24.312  1.00  0.00     0.053 C 
BRANCH   4   5
ATOM      5  C   UNL     1     -21.731  20.120 -25.360  1.00  0.00     0.041 C 
ATOM      6  O   UNL     1     -21.433  21.342 -25.286  1.00  0.00    -0.550 OA
ATOM      7  O   UNL     1     -21.276  19.364 -26.432  1.00  0.00    -0.550 OA
ENDBRANCH   4   5
ENDBRANCH   3   4
ENDBRANCH   2   3
ENDBRANCH   1   2
BRANCH   1   8
ATOM      8  C   UNL     1     -23.652  17.140 -21.617  1.00  0.00     0.000 C 
BRANCH   8   9
ATOM      9  C   UNL     1     -22.890  15.808 -21.561  1.00  0.00     0.000 C 
BRANCH   9  10
ATOM     10  C   UNL     1     -21.375  16.036 -21.672  1.00  0.00     0.006 C 
BRANCH  10  11
ATOM     11  C   UNL     1     -20.776  15.367 -22.916  1.00  0.00     0.053 C 
BRANCH  11  12
ATOM     12  C   UNL     1     -20.618  16.339 -24.046  1.00  0.00     0.041 C 
ATOM     13  O   UNL     1     -21.306  16.210 -25.093  1.00  0.00    -0.550 OA
ATOM     14  O   UNL     1     -19.736  17.405 -23.928  1.00  0.00    -0.550 OA
ENDBRANCH  11  12
ENDBRANCH  10  11
ENDBRANCH   9  10
ENDBRANCH   8   9
ENDBRANCH   1   8
TORSDOF 9
ENDMDL
