MODEL 1
REMARK VINA RESULT:    -3.917      0.000      0.000
REMARK INTER + INTRA:          -6.085
REMARK INTER:                  -5.406
REMARK INTRA:                  -0.679
REMARK UNBOUND:                -0.679
REMARK SMILES OC[C@H](O)C(O)[C@@H](O)CO
REMARK SMILES IDX 5 1 7 2 9 3 10 4 8 6 3 8 2 9 1 10 4 12 6 14
REMARK H PARENT 10 5 8 7 1 11 4 13 6 15
REMARK Flexibility Score: inf
ROOT
ATOM      1  C   UNL     1      26.414  27.722  23.965  1.00  0.00     0.176 C 
ENDROOT
BRANCH   1   2
ATOM      2  C   UNL     1      26.777  26.347  23.327  1.00  0.00     0.171 C 
BRANCH   2   3
ATOM      3  C   UNL     1      27.679  26.466  22.083  1.00  0.00     0.190 C 
BRANCH   3   4
ATOM      4  O   UNL     1      26.930  26.886  20.973  1.00  0.00    -0.394 OA
ATOM      5  H   UNL     1      27.375  27.698  20.615  1.00  0.00     0.210 HD
ENDBRANCH   3   4
ENDBRANCH   2   3
BRANCH   2   6
ATOM      6  O   UNL     1      25.600  25.648  23.000  1.00  0.00    -0.388 OA
ATOM      7  H   UNL     1      25.599  24.805  23.526  1.00  0.00     0.211 HD
ENDBRANCH   2   6
ENDBRANCH   1   2
BRANCH   1   8
ATOM      8  C   UNL     1      24.889  28.037  23.939  1.00  0.00     0.171 C 
BRANCH   8   9
ATOM      9  C   UNL     1      24.606  29.541  24.132  1.00  0.00     0.190 C 
BRANCH   9  10
ATOM     10  O   UNL     1      24.302  30.146  22.905  1.00  0.00    -0.394 OA
ATOM     11  H   UNL     1      24.597  29.516  22.196  1.00  0.00     0.210 HD
ENDBRANCH   9  10
ENDBRANCH   8   9
BRANCH   8  12
ATOM     12  O   UNL     1      24.199  27.300  24.918  1.00  0.00    -0.388 OA
ATOM     13  H   UNL     1      24.667  27.440  25.784  1.00  0.00     0.211 HD
ENDBRANCH   8  12
ENDBRANCH   1   8
BRANCH   1  14
ATOM     14  O   UNL     1      27.132  28.740  23.310  1.00  0.00    -0.388 OA
ATOM     15  H   UNL     1      27.350  29.435  23.987  1.00  0.00     0.211 HD
ENDBRANCH   1  14
TORSDOF 9
ENDMDL
MODEL 2
REMARK VINA RESULT:    -3.875      1.254      1.839
REMARK INTER + INTRA:          -6.026
REMARK INTER:                  -5.572
REMARK INTRA:                  -0.454
REMARK UNBOUND:                -0.679
REMARK SMILES OC[C@H](O)C(O)[C@@H](O)CO
REMARK SMILES IDX 5 1 7 2 9 3 10 4 8 6 3 8 2 9 1 10 4 12 6 14
REMARK H PARENT 10 5 8 7 1 11 4 13 6 15
REMARK Flexibility Score: inf
ROOT
ATOM      1  C   UNL     1      27.046  27.023  23.195  1.00  0.00     0.176 C 
ENDROOT
BRANCH   1   2
ATOM      2  C   UNL     1      27.685  26.272  21.988  1.00  0.00     0.171 C 
BRANCH   2   3
ATOM      3  C   UNL     1      29.225  26.236  22.033  1.00  0.00     0.190 C 
BRANCH   3   4
ATOM      4  O   UNL     1      29.758  27.431  21.525  1.00  0.00    -0.394 OA
ATOM      5  H   UNL     1      30.742  27.386  21.655  1.00  0.00     0.210 HD
ENDBRANCH   3   4
ENDBRANCH   2   3
BRANCH   2   6
ATOM      6  O   UNL     1      27.255  26.855  20.781  1.00  0.00    -0.388 OA
ATOM      7  H   UNL     1      28.066  27.052  20.241  1.00  0.00     0.211 HD
ENDBRANCH   2   6
ENDBRANCH   1   2
BRANCH   1   8
ATOM      8  C   UNL     1      25.493  27.121  23.114  1.00  0.00     0.171 C 
BRANCH   8   9
ATOM      9  C   UNL     1      24.937  28.236  24.023  1.00  0.00     0.190 C 
BRANCH   9  10
ATOM     10  O   UNL     1      24.591  29.362  23.263  1.00  0.00    -0.394 OA
ATOM     11  H   UNL     1      23.720  29.158  22.832  1.00  0.00     0.210 HD
ENDBRANCH   9  10
ENDBRANCH   8   9
BRANCH   8  12
ATOM     12  O   UNL     1      24.887  25.897  23.450  1.00  0.00    -0.388 OA
ATOM     13  H   UNL     1      23.908  26.000  23.318  1.00  0.00     0.211 HD
ENDBRANCH   8  12
ENDBRANCH   1   8
BRANCH   1  14
ATOM     14  O   UNL     1      27.610  28.309  23.291  1.00  0.00    -0.388 OA
ATOM     15  H   UNL     1      27.910  28.572  22.381  1.00  0.00     0.211 HD
ENDBRANCH   1  14
TORSDOF 9
ENDMDL
MODEL 3
REMARK VINA RESULT:    -3.785      1.615      2.639
REMARK INTER + INTRA:          -5.902
REMARK INTER:                  -5.332
REMARK INTRA:                  -0.571
REMARK UNBOUND:                -0.679
REMARK SMILES OC[C@H](O)C(O)[C@@H](O)CO
REMARK SMILES IDX 5 1 7 2 9 3 10 4 8 6 3 8 2 9 1 10 4 12 6 14
REMARK H PARENT 10 5 8 7 1 11 4 13 6 15
REMARK Flexibility Score: inf
ROOT
ATOM      1  C   UNL     1      27.346  26.955  23.399  1.00  0.00     0.176 C 
ENDROOT
BRANCH   1   2
ATOM      2  C   UNL     1      27.581  26.209  22.050  1.00  0.00     0.171 C 
BRANCH   2   3
ATOM      3  C   UNL     1      29.070  25.985  21.724  1.00  0.00     0.190 C 
BRANCH   3   4
ATOM      4  O   UNL     1      29.695  27.206  21.423  1.00  0.00    -0.394 OA
ATOM      5  H   UNL     1      29.727  27.277  20.434  1.00  0.00     0.210 HD
ENDBRANCH   3   4
ENDBRANCH   2   3
BRANCH   2   6
ATOM      6  O   UNL     1      26.962  26.914  21.001  1.00  0.00    -0.388 OA
ATOM      7  H   UNL     1      26.193  26.367  20.690  1.00  0.00     0.211 HD
ENDBRANCH   2   6
ENDBRANCH   1   2
BRANCH   1   8
ATOM      8  C   UNL     1      25.880  26.858  23.916  1.00  0.00     0.171 C 
BRANCH   8   9
ATOM      9  C   UNL     1      25.352  25.409  23.885  1.00  0.00     0.190 C 
BRANCH   9  10
ATOM     10  O   UNL     1      24.241  25.309  23.035  1.00  0.00    -0.394 OA
ATOM     11  H   UNL     1      24.579  24.973  22.164  1.00  0.00     0.210 HD
ENDBRANCH   9  10
ENDBRANCH   8   9
BRANCH   8  12
ATOM     12  O   UNL     1      25.021  27.686  23.171  1.00  0.00    -0.388 OA
ATOM     13  H   UNL     1      24.306  27.112  22.790  1.00  0.00     0.211 HD
ENDBRANCH   8  12
ENDBRANCH   1   8
BRANCH   1  14
ATOM     14  O   UNL     1      27.723  28.303  23.254  1.00  0.00    -0.388 OA
ATOM     15  H   UNL     1      28.696  28.364  23.452  1.00  0.00     0.211 HD
ENDBRANCH   1  14
TORSDOF 9
ENDMDL
MODEL 4
REMARK VINA RESULT:    -3.733      2.094      4.755
REMARK INTER + INTRA:          -5.830
REMARK INTER:                  -5.354
REMARK INTRA:                  -0.475
REMARK UNBOUND:                -0.679
REMARK SMILES OC[C@H](O)C(O)[C@@H](O)CO
REMARK SMILES IDX 5 1 7 2 9 3 10 4 8 6 3 8 2 9 1 10 4 12 6 14
REMARK H PARENT 10 5 8 7 1 11 4 13 6 15
REMARK Flexibility Score: inf
ROOT
ATOM      1  C   UNL     1      27.632  26.281  21.876  1.00  0.00     0.176 C 
ENDROOT
BRANCH   1   2
ATOM      2  C   UNL     1      27.179  26.935  23.216  1.00  0.00     0.171 C 
BRANCH   2   3
ATOM      3  C   UNL     1      25.983  26.219  23.875  1.00  0.00     0.190 C 
BRANCH   3   4
ATOM      4  O   UNL     1      24.895  26.168  22.990  1.00  0.00    -0.394 OA
ATOM      5  H   UNL     1      25.165  26.663  22.172  1.00  0.00     0.210 HD
ENDBRANCH   3   4
ENDBRANCH   2   3
BRANCH   2   6
ATOM      6  O   UNL     1      26.867  28.290  23.004  1.00  0.00    -0.388 OA
ATOM      7  H   UNL     1      26.863  28.737  23.892  1.00  0.00     0.211 HD
ENDBRANCH   2   6
ENDBRANCH   1   2
BRANCH   1   8
ATOM      8  C   UNL     1      29.167  26.379  21.624  1.00  0.00     0.171 C 
BRANCH   8   9
ATOM      9  C   UNL     1      29.906  25.096  22.056  1.00  0.00     0.190 C 
BRANCH   9  10
ATOM     10  O   UNL     1      31.087  25.415  22.740  1.00  0.00    -0.394 OA
ATOM     11  H   UNL     1      31.207  26.398  22.658  1.00  0.00     0.210 HD
ENDBRANCH   9  10
ENDBRANCH   8   9
BRANCH   8  12
ATOM     12  O   UNL     1      29.723  27.486  22.290  1.00  0.00    -0.388 OA
ATOM     13  H   UNL     1      30.574  27.190  22.708  1.00  0.00     0.211 HD
ENDBRANCH   8  12
ENDBRANCH   1   8
BRANCH   1  14
ATOM     14  O   UNL     1      26.926  26.869  20.810  1.00  0.00    -0.388 OA
ATOM     15  H   UNL     1      27.016  27.855  20.901  1.00  0.00     0.211 HD
ENDBRANCH   1  14
TORSDOF 9
ENDMDL
MODEL 5
REMARK VINA RESULT:    -3.680      1.177      3.932
REMARK INTER + INTRA:          -5.757
REMARK INTER:                  -5.069
REMARK INTRA:                  -0.688
REMARK UNBOUND:                -0.679
REMARK SMILES OC[C@H](O)C(O)[C@@H](O)CO
REMARK SMILES IDX 5 1 7 2 9 3 10 4 8 6 3 8 2 9 1 10 4 12 6 14
REMARK H PARENT 10 5 8 7 1 11 4 13 6 15
REMARK Flexibility Score: inf
ROOT
ATOM      1  C   UNL     1      26.061  27.603  23.866  1.00  0.00     0.176 C 
ENDROOT
BRANCH   1   2
ATOM      2  C   UNL     1      25.738  28.975  24.531  1.00  0.00     0.171 C 
BRANCH   2   3
ATOM      3  C   UNL     1      24.315  29.483  24.230  1.00  0.00     0.190 C 
BRANCH   3   4
ATOM      4  O   UNL     1      24.279  30.133  22.986  1.00  0.00    -0.394 OA
ATOM      5  H   UNL     1      24.288  29.424  22.291  1.00  0.00     0.210 HD
ENDBRANCH   3   4
ENDBRANCH   2   3
BRANCH   2   6
ATOM      6  O   UNL     1      26.684  29.935  24.127  1.00  0.00    -0.388 OA
ATOM      7  H   UNL     1      26.187  30.767  23.905  1.00  0.00     0.211 HD
ENDBRANCH   2   6
ENDBRANCH   1   2
BRANCH   1   8
ATOM      8  C   UNL     1      27.468  27.551  23.198  1.00  0.00     0.171 C 
BRANCH   8   9
ATOM      9  C   UNL     1      27.560  26.440  22.133  1.00  0.00     0.190 C 
BRANCH   9  10
ATOM     10  O   UNL     1      27.092  26.903  20.896  1.00  0.00    -0.394 OA
ATOM     11  H   UNL     1      27.244  27.885  20.884  1.00  0.00     0.210 HD
ENDBRANCH   9  10
ENDBRANCH   8   9
BRANCH   8  12
ATOM     12  O   UNL     1      28.481  27.369  24.156  1.00  0.00    -0.388 OA
ATOM     13  H   UNL     1      28.440  28.135  24.787  1.00  0.00     0.211 HD
ENDBRANCH   8  12
ENDBRANCH   1   8
BRANCH   1  14
ATOM     14  O   UNL     1      25.063  27.298  22.923  1.00  0.00    -0.388 OA
ATOM     15  H   UNL     1      25.317  27.736  22.067  1.00  0.00     0.211 HD
ENDBRANCH   1  14
TORSDOF 9
ENDMDL
MODEL 6
REMARK VINA RESULT:    -3.674      1.592      3.644
REMARK INTER + INTRA:          -5.749
REMARK INTER:                  -5.344
REMARK INTRA:                  -0.405
REMARK UNBOUND:                -0.679
REMARK SMILES OC[C@H](O)C(O)[C@@H](O)CO
REMARK SMILES IDX 5 1 7 2 9 3 10 4 8 6 3 8 2 9 1 10 4 12 6 14
REMARK H PARENT 10 5 8 7 1 11 4 13 6 15
REMARK Flexibility Score: inf
ROOT
ATOM      1  C   UNL     1      25.570  26.776  23.237  1.00  0.00     0.176 C 
ENDROOT
BRANCH   1   2
ATOM      2  C   UNL     1      24.952  26.439  24.628  1.00  0.00     0.171 C 
BRANCH   2   3
ATOM      3  C   UNL     1      24.325  25.033  24.697  1.00  0.00     0.190 C 
BRANCH   3   4
ATOM      4  O   UNL     1      23.895  24.625  23.425  1.00  0.00    -0.394 OA
ATOM      5  H   UNL     1      23.089  24.061  23.560  1.00  0.00     0.210 HD
ENDBRANCH   3   4
ENDBRANCH   2   3
BRANCH   2   6
ATOM      6  O   UNL     1      23.991  27.408  24.970  1.00  0.00    -0.388 OA
ATOM      7  H   UNL     1      23.600  27.143  25.844  1.00  0.00     0.211 HD
ENDBRANCH   2   6
ENDBRANCH   1   2
BRANCH   1   8
ATOM      8  C   UNL     1      26.938  26.076  22.979  1.00  0.00     0.171 C 
BRANCH   8   9
ATOM      9  C   UNL     1      27.819  26.875  21.997  1.00  0.00     0.190 C 
BRANCH   9  10
ATOM     10  O   UNL     1      27.210  26.945  20.736  1.00  0.00    -0.394 OA
ATOM     11  H   UNL     1      26.233  27.021  20.895  1.00  0.00     0.210 HD
ENDBRANCH   9  10
ENDBRANCH   8   9
BRANCH   8  12
ATOM     12  O   UNL     1      26.759  24.770  22.492  1.00  0.00    -0.388 OA
ATOM     13  H   UNL     1      27.499  24.212  22.848  1.00  0.00     0.211 HD
ENDBRANCH   8  12
ENDBRANCH   1   8
BRANCH   1  14
ATOM     14  O   UNL     1      25.707  28.171  23.116  1.00  0.00    -0.388 OA
ATOM     15  H   UNL     1      24.904  28.509  22.636  1.00  0.00     0.211 HD
ENDBRANCH   1  14
TORSDOF 9
ENDMDL
MODEL 7
REMARK VINA RESULT:    -3.635      1.689      3.873
REMARK INTER + INTRA:          -5.695
REMARK INTER:                  -5.158
REMARK INTRA:                  -0.537
REMARK UNBOUND:                -0.679
REMARK SMILES OC[C@H](O)C(O)[C@@H](O)CO
REMARK SMILES IDX 5 1 7 2 9 3 10 4 8 6 3 8 2 9 1 10 4 12 6 14
REMARK H PARENT 10 5 8 7 1 11 4 13 6 15
REMARK Flexibility Score: inf
ROOT
ATOM      1  C   UNL     1      27.369  27.285  23.249  1.00  0.00     0.176 C 
ENDROOT
BRANCH   1   2
ATOM      2  C   UNL     1      25.943  27.096  23.849  1.00  0.00     0.171 C 
BRANCH   2   3
ATOM      3  C   UNL     1      25.491  25.624  23.908  1.00  0.00     0.190 C 
BRANCH   3   4
ATOM      4  O   UNL     1      24.368  25.423  23.091  1.00  0.00    -0.394 OA
ATOM      5  H   UNL     1      24.241  24.441  23.013  1.00  0.00     0.210 HD
ENDBRANCH   3   4
ENDBRANCH   2   3
BRANCH   2   6
ATOM      6  O   UNL     1      25.012  27.853  23.113  1.00  0.00    -0.388 OA
ATOM      7  H   UNL     1      24.895  27.406  22.233  1.00  0.00     0.211 HD
ENDBRANCH   2   6
ENDBRANCH   1   2
BRANCH   1   8
ATOM      8  C   UNL     1      27.647  26.379  22.012  1.00  0.00     0.171 C 
BRANCH   8   9
ATOM      9  C   UNL     1      29.157  26.232  21.733  1.00  0.00     0.190 C 
BRANCH   9  10
ATOM     10  O   UNL     1      29.777  27.489  21.707  1.00  0.00    -0.394 OA
ATOM     11  H   UNL     1      29.426  27.963  20.909  1.00  0.00     0.210 HD
ENDBRANCH   9  10
ENDBRANCH   8   9
BRANCH   8  12
ATOM     12  O   UNL     1      27.004  26.873  20.863  1.00  0.00    -0.388 OA
ATOM     13  H   UNL     1      26.180  27.343  21.158  1.00  0.00     0.211 HD
ENDBRANCH   8  12
ENDBRANCH   1   8
BRANCH   1  14
ATOM     14  O   UNL     1      28.328  27.048  24.251  1.00  0.00    -0.388 OA
ATOM     15  H   UNL     1      28.394  27.874  24.801  1.00  0.00     0.211 HD
ENDBRANCH   1  14
TORSDOF 9
ENDMDL
MODEL 8
REMARK VINA RESULT:    -3.573      1.636      4.095
REMARK INTER + INTRA:          -5.609
REMARK INTER:                  -5.118
REMARK INTRA:                  -0.491
REMARK UNBOUND:                -0.679
REMARK SMILES OC[C@H](O)C(O)[C@@H](O)CO
REMARK SMILES IDX 5 1 7 2 9 3 10 4 8 6 3 8 2 9 1 10 4 12 6 14
REMARK H PARENT 10 5 8 7 1 11 4 13 6 15
REMARK Flexibility Score: inf
ROOT
ATOM      1  C   UNL     1      27.044  25.965  22.917  1.00  0.00     0.176 C 
ENDROOT
BRANCH   1   2
ATOM      2  C   UNL     1      26.258  27.292  23.144  1.00  0.00     0.171 C 
BRANCH   2   3
ATOM      3  C   UNL     1      26.913  28.224  24.182  1.00  0.00     0.190 C 
BRANCH   3   4
ATOM      4  O   UNL     1      27.936  28.979  23.588  1.00  0.00    -0.394 OA
ATOM      5  H   UNL     1      28.492  28.346  23.061  1.00  0.00     0.210 HD
ENDBRANCH   3   4
ENDBRANCH   2   3
BRANCH   2   6
ATOM      6  O   UNL     1      24.935  27.004  23.526  1.00  0.00    -0.388 OA
ATOM      7  H   UNL     1      24.964  26.212  24.125  1.00  0.00     0.211 HD
ENDBRANCH   2   6
ENDBRANCH   1   2
BRANCH   1   8
ATOM      8  C   UNL     1      27.874  25.951  21.599  1.00  0.00     0.171 C 
BRANCH   8   9
ATOM      9  C   UNL     1      29.374  26.201  21.859  1.00  0.00     0.190 C 
BRANCH   9  10
ATOM     10  O   UNL     1      29.677  27.563  21.721  1.00  0.00    -0.394 OA
ATOM     11  H   UNL     1      29.520  27.980  22.609  1.00  0.00     0.210 HD
ENDBRANCH   9  10
ENDBRANCH   8   9
BRANCH   8  12
ATOM     12  O   UNL     1      27.393  26.903  20.683  1.00  0.00    -0.388 OA
ATOM     13  H   UNL     1      27.830  27.770  20.892  1.00  0.00     0.211 HD
ENDBRANCH   8  12
ENDBRANCH   1   8
BRANCH   1  14
ATOM     14  O   UNL     1      26.143  24.884  22.936  1.00  0.00    -0.388 OA
ATOM     15  H   UNL     1      26.111  24.507  22.017  1.00  0.00     0.211 HD
ENDBRANCH   1  14
TORSDOF 9
ENDMDL
MODEL 9
REMARK VINA RESULT:    -3.495      3.506      5.018
REMARK INTER + INTRA:          -5.501
REMARK INTER:                  -4.771
REMARK INTRA:                  -0.731
REMARK UNBOUND:                -0.679
REMARK SMILES OC[C@H](O)C(O)[C@@H](O)CO
REMARK SMILES IDX 5 1 7 2 9 3 10 4 8 6 3 8 2 9 1 10 4 12 6 14
REMARK H PARENT 10 5 8 7 1 11 4 13 6 15
REMARK Flexibility Score: inf
ROOT
ATOM      1  C   UNL     1      29.718  27.130  23.001  1.00  0.00     0.176 C 
ENDROOT
BRANCH   1   2
ATOM      2  C   UNL     1      31.161  27.712  22.910  1.00  0.00     0.171 C 
BRANCH   2   3
ATOM      3  C   UNL     1      31.373  28.641  21.698  1.00  0.00     0.190 C 
BRANCH   3   4
ATOM      4  O   UNL     1      30.770  29.888  21.927  1.00  0.00    -0.394 OA
ATOM      5  H   UNL     1      31.239  30.298  22.701  1.00  0.00     0.210 HD
ENDBRANCH   3   4
ENDBRANCH   2   3
BRANCH   2   6
ATOM      6  O   UNL     1      32.098  26.663  22.877  1.00  0.00    -0.388 OA
ATOM      7  H   UNL     1      32.866  26.966  22.324  1.00  0.00     0.211 HD
ENDBRANCH   2   6
ENDBRANCH   1   2
BRANCH   1   8
ATOM      8  C   UNL     1      29.358  26.175  21.825  1.00  0.00     0.171 C 
BRANCH   8   9
ATOM      9  C   UNL     1      27.836  25.951  21.709  1.00  0.00     0.190 C 
BRANCH   9  10
ATOM     10  O   UNL     1      27.265  26.896  20.845  1.00  0.00    -0.394 OA
ATOM     11  H   UNL     1      26.978  26.403  20.033  1.00  0.00     0.210 HD
ENDBRANCH   9  10
ENDBRANCH   8   9
BRANCH   8  12
ATOM     12  O   UNL     1      30.005  24.933  21.960  1.00  0.00    -0.388 OA
ATOM     13  H   UNL     1      30.983  25.103  21.963  1.00  0.00     0.211 HD
ENDBRANCH   8  12
ENDBRANCH   1   8
BRANCH   1  14
ATOM     14  O   UNL     1      28.795  28.190  23.068  1.00  0.00    -0.388 OA
ATOM     15  H   UNL     1      29.314  29.037  23.090  1.00  0.00     0.211 HD
ENDBRANCH   1  14
TORSDOF 9
ENDMDL
