MODEL 1
REMARK VINA RESULT:    -4.826      0.000      0.000
REMARK INTER + INTRA:          -5.962
REMARK INTER:                  -5.672
REMARK INTRA:                  -0.290
REMARK UNBOUND:                -0.290
REMARK SMILES O=c1c(O)c(-c2ccc(O)cc2)oc2cc(O)cc(O)c12
REMARK SMILES IDX 5 1 3 2 2 3 1 4 21 5 19 6 18 7 16 8 15 9 14 10 13 11 6 12
REMARK SMILES IDX 7 13 8 14 9 15 12 16 11 17 10 18 4 20 20 22 17 24
REMARK H PARENT 10 19 4 21 20 23 17 25
REMARK Flexibility Score: inf
ROOT
ATOM      1  C   UNL     1     221.329 216.484 224.513  1.00  0.00     0.180 A 
ATOM      2  C   UNL     1     219.926 216.504 224.387  1.00  0.00     0.208 A 
ATOM      3  C   UNL     1     219.259 217.738 224.410  1.00  0.00     0.238 A 
ATOM      4  O   UNL     1     218.005 217.769 224.287  1.00  0.00    -0.285 OA
ATOM      5  C   UNL     1     220.000 218.927 224.579  1.00  0.00     0.111 A 
ATOM      6  C   UNL     1     219.405 220.211 224.617  1.00  0.00     0.134 A 
ATOM      7  C   UNL     1     220.210 221.346 224.796  1.00  0.00     0.093 A 
ATOM      8  C   UNL     1     221.593 221.222 224.940  1.00  0.00     0.123 A 
ATOM      9  C   UNL     1     222.187 219.957 224.901  1.00  0.00     0.094 A 
ATOM     10  C   UNL     1     221.403 218.813 224.722  1.00  0.00     0.146 A 
ATOM     11  O   UNL     1     221.992 217.624 224.685  1.00  0.00    -0.452 OA
ENDROOT
BRANCH   1  12
ATOM     12  C   UNL     1     222.104 215.224 224.479  1.00  0.00     0.021 A 
ATOM     13  C   UNL     1     222.350 214.482 225.650  1.00  0.00     0.016 A 
ATOM     14  C   UNL     1     223.065 213.282 225.589  1.00  0.00     0.047 A 
ATOM     15  C   UNL     1     223.530 212.801 224.361  1.00  0.00     0.115 A 
ATOM     16  C   UNL     1     222.557 214.724 223.247  1.00  0.00     0.016 A 
ATOM     17  C   UNL     1     223.273 213.524 223.190  1.00  0.00     0.047 A 
BRANCH  15  18
ATOM     18  O   UNL     1     224.242 211.604 224.316  1.00  0.00    -0.508 OA
ATOM     19  H   UNL     1     223.973 210.807 224.879  1.00  0.00     0.293 HD
ENDBRANCH  15  18
ENDBRANCH   1  12
BRANCH   2  20
ATOM     20  O   UNL     1     219.211 215.309 224.271  1.00  0.00    -0.502 OA
ATOM     21  H   UNL     1     218.215 215.253 224.449  1.00  0.00     0.293 HD
ENDBRANCH   2  20
BRANCH   6  22
ATOM     22  O   UNL     1     218.025 220.368 224.477  1.00  0.00    -0.507 OA
ATOM     23  H   UNL     1     217.471 219.733 223.914  1.00  0.00     0.293 HD
ENDBRANCH   6  22
BRANCH   8  24
ATOM     24  O   UNL     1     222.370 222.365 225.118  1.00  0.00    -0.508 OA
ATOM     25  H   UNL     1     222.557 222.740 226.040  1.00  0.00     0.293 HD
ENDBRANCH   8  24
TORSDOF 5
ENDMDL
MODEL 2
REMARK VINA RESULT:    -4.815      5.247      7.618
REMARK INTER + INTRA:          -5.950
REMARK INTER:                  -5.658
REMARK INTRA:                  -0.291
REMARK UNBOUND:                -0.290
REMARK SMILES O=c1c(O)c(-c2ccc(O)cc2)oc2cc(O)cc(O)c12
REMARK SMILES IDX 5 1 3 2 2 3 1 4 21 5 19 6 18 7 16 8 15 9 14 10 13 11 6 12
REMARK SMILES IDX 7 13 8 14 9 15 12 16 11 17 10 18 4 20 20 22 17 24
REMARK H PARENT 10 19 4 21 20 23 17 25
REMARK Flexibility Score: inf
ROOT
ATOM      1  C   UNL     1     216.452 213.037 224.517  1.00  0.00     0.180 A 
ATOM      2  C   UNL     1     216.478 214.441 224.407  1.00  0.00     0.208 A 
ATOM      3  C   UNL     1     217.715 215.102 224.441  1.00  0.00     0.238 A 
ATOM      4  O   UNL     1     217.752 216.357 224.332  1.00  0.00    -0.285 OA
ATOM      5  C   UNL     1     218.900 214.355 224.607  1.00  0.00     0.111 A 
ATOM      6  C   UNL     1     220.187 214.943 224.657  1.00  0.00     0.134 A 
ATOM      7  C   UNL     1     221.317 214.132 224.832  1.00  0.00     0.093 A 
ATOM      8  C   UNL     1     221.187 212.747 224.960  1.00  0.00     0.123 A 
ATOM      9  C   UNL     1     219.919 212.159 224.910  1.00  0.00     0.094 A 
ATOM     10  C   UNL     1     218.780 212.950 224.734  1.00  0.00     0.146 A 
ATOM     11  O   UNL     1     217.588 212.367 224.687  1.00  0.00    -0.452 OA
ENDROOT
BRANCH   1  12
ATOM     12  C   UNL     1     215.188 212.267 224.469  1.00  0.00     0.021 A 
ATOM     13  C   UNL     1     214.449 211.998 225.636  1.00  0.00     0.016 A 
ATOM     14  C   UNL     1     213.246 211.289 225.563  1.00  0.00     0.047 A 
ATOM     15  C   UNL     1     212.759 210.854 224.326  1.00  0.00     0.115 A 
ATOM     16  C   UNL     1     214.683 211.845 223.228  1.00  0.00     0.016 A 
ATOM     17  C   UNL     1     213.480 211.135 223.159  1.00  0.00     0.047 A 
BRANCH  15  18
ATOM     18  O   UNL     1     211.560 210.147 224.269  1.00  0.00    -0.508 OA
ATOM     19  H   UNL     1     211.502 209.179 224.560  1.00  0.00     0.293 HD
ENDBRANCH  15  18
ENDBRANCH   1  12
BRANCH   2  20
ATOM     20  O   UNL     1     215.286 215.162 224.293  1.00  0.00    -0.502 OA
ATOM     21  H   UNL     1     214.380 214.744 224.467  1.00  0.00     0.293 HD
ENDBRANCH   2  20
BRANCH   6  22
ATOM     22  O   UNL     1     220.350 216.324 224.533  1.00  0.00    -0.507 OA
ATOM     23  H   UNL     1     220.659 216.749 223.666  1.00  0.00     0.293 HD
ENDBRANCH   6  22
BRANCH   8  24
ATOM     24  O   UNL     1     222.325 211.964 225.134  1.00  0.00    -0.508 OA
ATOM     25  H   UNL     1     223.019 212.186 225.839  1.00  0.00     0.293 HD
ENDBRANCH   8  24
TORSDOF 5
ENDMDL
MODEL 3
REMARK VINA RESULT:    -4.775      6.549     10.651
REMARK INTER + INTRA:          -5.903
REMARK INTER:                  -5.613
REMARK INTRA:                  -0.290
REMARK UNBOUND:                -0.290
REMARK SMILES O=c1c(O)c(-c2ccc(O)cc2)oc2cc(O)cc(O)c12
REMARK SMILES IDX 5 1 3 2 2 3 1 4 21 5 19 6 18 7 16 8 15 9 14 10 13 11 6 12
REMARK SMILES IDX 7 13 8 14 9 15 12 16 11 17 10 18 4 20 20 22 17 24
REMARK H PARENT 10 19 4 21 20 23 17 25
REMARK Flexibility Score: inf
ROOT
ATOM      1  C   UNL     1     213.155 217.833 224.507  1.00  0.00     0.180 A 
ATOM      2  C   UNL     1     214.557 217.802 224.379  1.00  0.00     0.208 A 
ATOM      3  C   UNL     1     215.213 216.562 224.400  1.00  0.00     0.238 A 
ATOM      4  O   UNL     1     216.467 216.521 224.275  1.00  0.00    -0.285 OA
ATOM      5  C   UNL     1     214.464 215.380 224.572  1.00  0.00     0.111 A 
ATOM      6  C   UNL     1     215.048 214.090 224.609  1.00  0.00     0.134 A 
ATOM      7  C   UNL     1     214.235 212.963 224.790  1.00  0.00     0.093 A 
ATOM      8  C   UNL     1     212.852 213.098 224.937  1.00  0.00     0.123 A 
ATOM      9  C   UNL     1     212.268 214.368 224.899  1.00  0.00     0.094 A 
ATOM     10  C   UNL     1     213.062 215.505 224.717  1.00  0.00     0.146 A 
ATOM     11  O   UNL     1     212.483 216.699 224.682  1.00  0.00    -0.452 OA
ENDROOT
BRANCH   1  12
ATOM     12  C   UNL     1     212.389 219.100 224.475  1.00  0.00     0.021 A 
ATOM     13  C   UNL     1     212.158 219.848 225.644  1.00  0.00     0.016 A 
ATOM     14  C   UNL     1     211.453 221.053 225.584  1.00  0.00     0.047 A 
ATOM     15  C   UNL     1     210.983 221.535 224.358  1.00  0.00     0.115 A 
ATOM     16  C   UNL     1     211.932 219.600 223.243  1.00  0.00     0.016 A 
ATOM     17  C   UNL     1     211.226 220.805 223.187  1.00  0.00     0.047 A 
BRANCH  15  18
ATOM     18  O   UNL     1     210.281 222.737 224.314  1.00  0.00    -0.508 OA
ATOM     19  H   UNL     1     209.820 223.050 223.467  1.00  0.00     0.293 HD
ENDBRANCH  15  18
ENDBRANCH   1  12
BRANCH   2  20
ATOM     20  O   UNL     1     215.281 218.991 224.261  1.00  0.00    -0.502 OA
ATOM     21  H   UNL     1     215.241 219.571 223.431  1.00  0.00     0.293 HD
ENDBRANCH   2  20
BRANCH   6  22
ATOM     22  O   UNL     1     216.426 213.922 224.467  1.00  0.00    -0.507 OA
ATOM     23  H   UNL     1     216.817 213.245 223.822  1.00  0.00     0.293 HD
ENDBRANCH   6  22
BRANCH   8  24
ATOM     24  O   UNL     1     212.066 211.962 225.117  1.00  0.00    -0.508 OA
ATOM     25  H   UNL     1     211.690 211.717 226.025  1.00  0.00     0.293 HD
ENDBRANCH   8  24
TORSDOF 5
ENDMDL
MODEL 4
REMARK VINA RESULT:    -4.738      5.224      7.575
REMARK INTER + INTRA:          -5.859
REMARK INTER:                  -5.569
REMARK INTRA:                  -0.290
REMARK UNBOUND:                -0.290
REMARK SMILES O=c1c(O)c(-c2ccc(O)cc2)oc2cc(O)cc(O)c12
REMARK SMILES IDX 5 1 3 2 2 3 1 4 21 5 19 6 18 7 16 8 15 9 14 10 13 11 6 12
REMARK SMILES IDX 7 13 8 14 9 15 12 16 11 17 10 18 4 20 20 22 17 24
REMARK H PARENT 10 19 4 21 20 23 17 25
REMARK Flexibility Score: inf
ROOT
ATOM      1  C   UNL     1     217.783 221.223 224.520  1.00  0.00     0.180 A 
ATOM      2  C   UNL     1     217.749 219.821 224.395  1.00  0.00     0.208 A 
ATOM      3  C   UNL     1     216.508 219.167 224.414  1.00  0.00     0.238 A 
ATOM      4  O   UNL     1     216.464 217.913 224.291  1.00  0.00    -0.285 OA
ATOM      5  C   UNL     1     215.326 219.920 224.580  1.00  0.00     0.111 A 
ATOM      6  C   UNL     1     214.036 219.340 224.614  1.00  0.00     0.134 A 
ATOM      7  C   UNL     1     212.909 220.156 224.791  1.00  0.00     0.093 A 
ATOM      8  C   UNL     1     213.047 221.539 224.934  1.00  0.00     0.123 A 
ATOM      9  C   UNL     1     214.319 222.119 224.899  1.00  0.00     0.094 A 
ATOM     10  C   UNL     1     215.455 221.322 224.723  1.00  0.00     0.146 A 
ATOM     11  O   UNL     1     216.651 221.898 224.690  1.00  0.00    -0.452 OA
ENDROOT
BRANCH   1  12
ATOM     12  C   UNL     1     219.052 221.985 224.490  1.00  0.00     0.021 A 
ATOM     13  C   UNL     1     219.791 222.228 225.663  1.00  0.00     0.016 A 
ATOM     14  C   UNL     1     220.998 222.930 225.605  1.00  0.00     0.047 A 
ATOM     15  C   UNL     1     221.491 223.385 224.378  1.00  0.00     0.115 A 
ATOM     16  C   UNL     1     219.563 222.427 223.258  1.00  0.00     0.016 A 
ATOM     17  C   UNL     1     220.771 223.130 223.204  1.00  0.00     0.047 A 
BRANCH  15  18
ATOM     18  O   UNL     1     222.695 224.084 224.336  1.00  0.00    -0.508 OA
ATOM     19  H   UNL     1     223.364 224.032 225.094  1.00  0.00     0.293 HD
ENDBRANCH  15  18
ENDBRANCH   1  12
BRANCH   2  20
ATOM     20  O   UNL     1     218.937 219.093 224.282  1.00  0.00    -0.502 OA
ATOM     21  H   UNL     1     219.431 218.731 225.089  1.00  0.00     0.293 HD
ENDBRANCH   2  20
BRANCH   6  22
ATOM     22  O   UNL     1     213.864 217.962 224.475  1.00  0.00    -0.507 OA
ATOM     23  H   UNL     1     214.551 217.384 224.004  1.00  0.00     0.293 HD
ENDBRANCH   6  22
BRANCH   8  24
ATOM     24  O   UNL     1     211.913 222.328 225.109  1.00  0.00    -0.508 OA
ATOM     25  H   UNL     1     211.932 223.327 224.945  1.00  0.00     0.293 HD
ENDBRANCH   8  24
TORSDOF 5
ENDMDL
MODEL 5
REMARK VINA RESULT:    -4.493      5.692      7.998
REMARK INTER + INTRA:          -5.571
REMARK INTER:                  -5.273
REMARK INTRA:                  -0.298
REMARK UNBOUND:                -0.290
REMARK SMILES O=c1c(O)c(-c2ccc(O)cc2)oc2cc(O)cc(O)c12
REMARK SMILES IDX 5 1 3 2 2 3 1 4 21 5 19 6 18 7 16 8 15 9 14 10 13 11 6 12
REMARK SMILES IDX 7 13 8 14 9 15 12 16 11 17 10 18 4 20 20 22 17 24
REMARK H PARENT 10 19 4 21 20 23 17 25
REMARK Flexibility Score: inf
ROOT
ATOM      1  C   UNL     1     217.020 221.785 225.010  1.00  0.00     0.180 A 
ATOM      2  C   UNL     1     216.222 222.911 225.290  1.00  0.00     0.208 A 
ATOM      3  C   UNL     1     214.826 222.791 225.207  1.00  0.00     0.238 A 
ATOM      4  O   UNL     1     214.100 223.788 225.467  1.00  0.00    -0.285 OA
ATOM      5  C   UNL     1     214.254 221.559 224.825  1.00  0.00     0.111 A 
ATOM      6  C   UNL     1     212.858 221.355 224.712  1.00  0.00     0.134 A 
ATOM      7  C   UNL     1     212.367 220.101 224.319  1.00  0.00     0.093 A 
ATOM      8  C   UNL     1     213.242 219.051 224.035  1.00  0.00     0.123 A 
ATOM      9  C   UNL     1     214.623 219.245 224.145  1.00  0.00     0.094 A 
ATOM     10  C   UNL     1     215.132 220.487 224.538  1.00  0.00     0.146 A 
ATOM     11  O   UNL     1     216.447 220.644 224.639  1.00  0.00    -0.452 OA
ENDROOT
BRANCH   1  12
ATOM     12  C   UNL     1     218.498 221.827 225.095  1.00  0.00     0.021 A 
ATOM     13  C   UNL     1     219.171 221.544 226.298  1.00  0.00     0.016 A 
ATOM     14  C   UNL     1     220.568 221.567 226.348  1.00  0.00     0.047 A 
ATOM     15  C   UNL     1     221.310 221.858 225.198  1.00  0.00     0.115 A 
ATOM     16  C   UNL     1     219.249 222.098 223.940  1.00  0.00     0.016 A 
ATOM     17  C   UNL     1     220.646 222.122 223.993  1.00  0.00     0.047 A 
BRANCH  15  18
ATOM     18  O   UNL     1     222.701 221.879 225.263  1.00  0.00    -0.508 OA
ATOM     19  H   UNL     1     223.259 221.115 224.903  1.00  0.00     0.293 HD
ENDBRANCH  15  18
ENDBRANCH   1  12
BRANCH   2  20
ATOM     20  O   UNL     1     216.814 224.133 225.618  1.00  0.00    -0.502 OA
ATOM     21  H   UNL     1     217.694 224.193 226.118  1.00  0.00     0.293 HD
ENDBRANCH   2  20
BRANCH   6  22
ATOM     22  O   UNL     1     211.957 222.384 224.988  1.00  0.00    -0.507 OA
ATOM     23  H   UNL     1     211.065 222.455 224.512  1.00  0.00     0.293 HD
ENDBRANCH   6  22
BRANCH   8  24
ATOM     24  O   UNL     1     212.730 217.816 223.645  1.00  0.00    -0.508 OA
ATOM     25  H   UNL     1     211.810 217.507 223.939  1.00  0.00     0.293 HD
ENDBRANCH   8  24
TORSDOF 5
ENDMDL
MODEL 6
REMARK VINA RESULT:    -4.475      1.530      3.078
REMARK INTER + INTRA:          -5.550
REMARK INTER:                  -5.252
REMARK INTRA:                  -0.298
REMARK UNBOUND:                -0.290
REMARK SMILES O=c1c(O)c(-c2ccc(O)cc2)oc2cc(O)cc(O)c12
REMARK SMILES IDX 5 1 3 2 2 3 1 4 21 5 19 6 18 7 16 8 15 9 14 10 13 11 6 12
REMARK SMILES IDX 7 13 8 14 9 15 12 16 11 17 10 18 4 20 20 22 17 24
REMARK H PARENT 10 19 4 21 20 23 17 25
REMARK Flexibility Score: inf
ROOT
ATOM      1  C   UNL     1     221.789 217.415 225.008  1.00  0.00     0.180 A 
ATOM      2  C   UNL     1     222.904 218.223 225.307  1.00  0.00     0.208 A 
ATOM      3  C   UNL     1     222.774 219.617 225.221  1.00  0.00     0.238 A 
ATOM      4  O   UNL     1     223.762 220.351 225.497  1.00  0.00    -0.285 OA
ATOM      5  C   UNL     1     221.545 220.180 224.818  1.00  0.00     0.111 A 
ATOM      6  C   UNL     1     221.332 221.575 224.702  1.00  0.00     0.134 A 
ATOM      7  C   UNL     1     220.082 222.056 224.288  1.00  0.00     0.093 A 
ATOM      8  C   UNL     1     219.043 221.172 223.986  1.00  0.00     0.123 A 
ATOM      9  C   UNL     1     219.246 219.793 224.101  1.00  0.00     0.094 A 
ATOM     10  C   UNL     1     220.485 219.294 224.514  1.00  0.00     0.146 A 
ATOM     11  O   UNL     1     220.650 217.980 224.618  1.00  0.00    -0.452 OA
ENDROOT
BRANCH   1  12
ATOM     12  C   UNL     1     221.842 215.938 225.095  1.00  0.00     0.021 A 
ATOM     13  C   UNL     1     221.542 215.263 226.293  1.00  0.00     0.016 A 
ATOM     14  C   UNL     1     221.575 213.866 226.343  1.00  0.00     0.047 A 
ATOM     15  C   UNL     1     221.892 213.127 225.199  1.00  0.00     0.115 A 
ATOM     16  C   UNL     1     222.139 215.189 223.944  1.00  0.00     0.016 A 
ATOM     17  C   UNL     1     222.172 213.792 223.999  1.00  0.00     0.047 A 
BRANCH  15  18
ATOM     18  O   UNL     1     221.923 211.736 225.265  1.00  0.00    -0.508 OA
ATOM     19  H   UNL     1     221.222 211.215 225.779  1.00  0.00     0.293 HD
ENDBRANCH  15  18
ENDBRANCH   1  12
BRANCH   2  20
ATOM     20  O   UNL     1     224.125 217.640 225.655  1.00  0.00    -0.502 OA
ATOM     21  H   UNL     1     224.719 217.178 224.977  1.00  0.00     0.293 HD
ENDBRANCH   2  20
BRANCH   6  22
ATOM     22  O   UNL     1     222.350 222.483 224.995  1.00  0.00    -0.507 OA
ATOM     23  H   UNL     1     222.877 222.948 224.264  1.00  0.00     0.293 HD
ENDBRANCH   6  22
BRANCH   8  24
ATOM     24  O   UNL     1     217.811 221.675 223.576  1.00  0.00    -0.508 OA
ATOM     25  H   UNL     1     217.720 222.236 222.737  1.00  0.00     0.293 HD
ENDBRANCH   8  24
TORSDOF 5
ENDMDL
MODEL 7
REMARK VINA RESULT:    -4.473      7.237     10.582
REMARK INTER + INTRA:          -5.548
REMARK INTER:                  -5.250
REMARK INTRA:                  -0.298
REMARK UNBOUND:                -0.290
REMARK SMILES O=c1c(O)c(-c2ccc(O)cc2)oc2cc(O)cc(O)c12
REMARK SMILES IDX 5 1 3 2 2 3 1 4 21 5 19 6 18 7 16 8 15 9 14 10 13 11 6 12
REMARK SMILES IDX 7 13 8 14 9 15 12 16 11 17 10 18 4 20 20 22 17 24
REMARK H PARENT 10 19 4 21 20 23 17 25
REMARK Flexibility Score: inf
ROOT
ATOM      1  C   UNL     1     212.575 216.953 225.002  1.00  0.00     0.180 A 
ATOM      2  C   UNL     1     211.465 216.143 225.306  1.00  0.00     0.208 A 
ATOM      3  C   UNL     1     211.598 214.748 225.222  1.00  0.00     0.238 A 
ATOM      4  O   UNL     1     210.614 214.012 225.502  1.00  0.00    -0.285 OA
ATOM      5  C   UNL     1     212.828 214.189 224.815  1.00  0.00     0.111 A 
ATOM      6  C   UNL     1     213.045 212.795 224.699  1.00  0.00     0.134 A 
ATOM      7  C   UNL     1     214.295 212.318 224.281  1.00  0.00     0.093 A 
ATOM      8  C   UNL     1     215.330 213.204 223.974  1.00  0.00     0.123 A 
ATOM      9  C   UNL     1     215.123 214.583 224.088  1.00  0.00     0.094 A 
ATOM     10  C   UNL     1     213.884 215.079 224.505  1.00  0.00     0.146 A 
ATOM     11  O   UNL     1     213.714 216.391 224.608  1.00  0.00    -0.452 OA
ENDROOT
BRANCH   1  12
ATOM     12  C   UNL     1     212.519 218.430 225.087  1.00  0.00     0.021 A 
ATOM     13  C   UNL     1     212.766 219.105 226.297  1.00  0.00     0.016 A 
ATOM     14  C   UNL     1     212.730 220.502 226.347  1.00  0.00     0.047 A 
ATOM     15  C   UNL     1     212.462 221.242 225.191  1.00  0.00     0.115 A 
ATOM     16  C   UNL     1     212.270 219.180 223.925  1.00  0.00     0.016 A 
ATOM     17  C   UNL     1     212.233 220.577 223.979  1.00  0.00     0.047 A 
BRANCH  15  18
ATOM     18  O   UNL     1     212.427 222.633 225.256  1.00  0.00    -0.508 OA
ATOM     19  H   UNL     1     212.998 223.205 224.646  1.00  0.00     0.293 HD
ENDBRANCH  15  18
ENDBRANCH   1  12
BRANCH   2  20
ATOM     20  O   UNL     1     210.243 216.722 225.659  1.00  0.00    -0.502 OA
ATOM     21  H   UNL     1     209.987 217.662 225.379  1.00  0.00     0.293 HD
ENDBRANCH   2  20
BRANCH   6  22
ATOM     22  O   UNL     1     212.031 211.883 224.997  1.00  0.00    -0.507 OA
ATOM     23  H   UNL     1     212.236 210.938 225.302  1.00  0.00     0.293 HD
ENDBRANCH   6  22
BRANCH   8  24
ATOM     24  O   UNL     1     216.562 212.705 223.559  1.00  0.00    -0.508 OA
ATOM     25  H   UNL     1     217.277 212.437 224.226  1.00  0.00     0.293 HD
ENDBRANCH   8  24
TORSDOF 5
ENDMDL
MODEL 8
REMARK VINA RESULT:    -4.471      3.647      6.110
REMARK INTER + INTRA:          -5.546
REMARK INTER:                  -5.279
REMARK INTRA:                  -0.267
REMARK UNBOUND:                -0.290
REMARK SMILES O=c1c(O)c(-c2ccc(O)cc2)oc2cc(O)cc(O)c12
REMARK SMILES IDX 5 1 3 2 2 3 1 4 21 5 19 6 18 7 16 8 15 9 14 10 13 11 6 12
REMARK SMILES IDX 7 13 8 14 9 15 12 16 11 17 10 18 4 20 20 22 17 24
REMARK H PARENT 10 19 4 21 20 23 17 25
REMARK Flexibility Score: inf
ROOT
ATOM      1  C   UNL     1     220.033 213.161 224.635  1.00  0.00     0.180 A 
ATOM      2  C   UNL     1     219.860 214.510 224.270  1.00  0.00     0.208 A 
ATOM      3  C   UNL     1     220.990 215.278 223.952  1.00  0.00     0.238 A 
ATOM      4  O   UNL     1     220.847 216.483 223.613  1.00  0.00    -0.285 OA
ATOM      5  C   UNL     1     222.272 214.694 224.025  1.00  0.00     0.111 A 
ATOM      6  C   UNL     1     223.463 215.399 223.726  1.00  0.00     0.134 A 
ATOM      7  C   UNL     1     224.702 214.749 223.830  1.00  0.00     0.093 A 
ATOM      8  C   UNL     1     224.774 213.413 224.228  1.00  0.00     0.123 A 
ATOM      9  C   UNL     1     223.601 212.710 224.524  1.00  0.00     0.094 A 
ATOM     10  C   UNL     1     222.356 213.339 224.424  1.00  0.00     0.146 A 
ATOM     11  O   UNL     1     221.258 212.648 224.707  1.00  0.00    -0.452 OA
ENDROOT
BRANCH   1  12
ATOM     12  C   UNL     1     218.889 212.281 224.965  1.00  0.00     0.021 A 
ATOM     13  C   UNL     1     218.497 212.056 226.298  1.00  0.00     0.016 A 
ATOM     14  C   UNL     1     217.398 211.241 226.584  1.00  0.00     0.047 A 
ATOM     15  C   UNL     1     216.668 210.653 225.546  1.00  0.00     0.115 A 
ATOM     16  C   UNL     1     218.138 211.705 223.927  1.00  0.00     0.016 A 
ATOM     17  C   UNL     1     217.040 210.889 224.216  1.00  0.00     0.047 A 
BRANCH  15  18
ATOM     18  O   UNL     1     215.576 209.842 225.845  1.00  0.00    -0.508 OA
ATOM     19  H   UNL     1     214.636 210.216 225.892  1.00  0.00     0.293 HD
ENDBRANCH  15  18
ENDBRANCH   1  12
BRANCH   2  20
ATOM     20  O   UNL     1     218.583 215.078 224.253  1.00  0.00    -0.502 OA
ATOM     21  H   UNL     1     217.816 214.675 223.728  1.00  0.00     0.293 HD
ENDBRANCH   2  20
BRANCH   6  22
ATOM     22  O   UNL     1     223.425 216.735 223.326  1.00  0.00    -0.507 OA
ATOM     23  H   UNL     1     222.599 217.308 223.458  1.00  0.00     0.293 HD
ENDBRANCH   6  22
BRANCH   8  24
ATOM     24  O   UNL     1     226.016 212.791 224.325  1.00  0.00    -0.508 OA
ATOM     25  H   UNL     1     226.129 211.801 224.141  1.00  0.00     0.293 HD
ENDBRANCH   8  24
TORSDOF 5
ENDMDL
MODEL 9
REMARK VINA RESULT:    -4.471      4.848      7.525
REMARK INTER + INTRA:          -5.545
REMARK INTER:                  -5.248
REMARK INTRA:                  -0.297
REMARK UNBOUND:                -0.290
REMARK SMILES O=c1c(O)c(-c2ccc(O)cc2)oc2cc(O)cc(O)c12
REMARK SMILES IDX 5 1 3 2 2 3 1 4 21 5 19 6 18 7 16 8 15 9 14 10 13 11 6 12
REMARK SMILES IDX 7 13 8 14 9 15 12 16 11 17 10 18 4 20 20 22 17 24
REMARK H PARENT 10 19 4 21 20 23 17 25
REMARK Flexibility Score: inf
ROOT
ATOM      1  C   UNL     1     217.406 212.603 225.028  1.00  0.00     0.180 A 
ATOM      2  C   UNL     1     218.211 211.487 225.326  1.00  0.00     0.208 A 
ATOM      3  C   UNL     1     219.606 211.614 225.238  1.00  0.00     0.238 A 
ATOM      4  O   UNL     1     220.338 210.625 225.514  1.00  0.00    -0.285 OA
ATOM      5  C   UNL     1     220.171 212.841 224.833  1.00  0.00     0.111 A 
ATOM      6  C   UNL     1     221.566 213.052 224.715  1.00  0.00     0.134 A 
ATOM      7  C   UNL     1     222.049 214.301 224.298  1.00  0.00     0.093 A 
ATOM      8  C   UNL     1     221.167 215.341 223.997  1.00  0.00     0.123 A 
ATOM      9  C   UNL     1     219.787 215.141 224.114  1.00  0.00     0.094 A 
ATOM     10  C   UNL     1     219.286 213.903 224.530  1.00  0.00     0.146 A 
ATOM     11  O   UNL     1     217.973 213.740 224.636  1.00  0.00    -0.452 OA
ENDROOT
BRANCH   1  12
ATOM     12  C   UNL     1     215.929 212.554 225.117  1.00  0.00     0.021 A 
ATOM     13  C   UNL     1     215.257 212.845 226.319  1.00  0.00     0.016 A 
ATOM     14  C   UNL     1     213.860 212.815 226.372  1.00  0.00     0.047 A 
ATOM     15  C   UNL     1     213.117 212.509 225.227  1.00  0.00     0.115 A 
ATOM     16  C   UNL     1     215.176 212.268 223.966  1.00  0.00     0.016 A 
ATOM     17  C   UNL     1     213.779 212.238 224.023  1.00  0.00     0.047 A 
BRANCH  15  18
ATOM     18  O   UNL     1     211.726 212.482 225.295  1.00  0.00    -0.508 OA
ATOM     19  H   UNL     1     211.225 212.931 226.052  1.00  0.00     0.293 HD
ENDBRANCH  15  18
ENDBRANCH   1  12
BRANCH   2  20
ATOM     20  O   UNL     1     217.626 210.267 225.677  1.00  0.00    -0.502 OA
ATOM     21  H   UNL     1     216.654 210.190 225.949  1.00  0.00     0.293 HD
ENDBRANCH   2  20
BRANCH   6  22
ATOM     22  O   UNL     1     222.473 212.032 225.007  1.00  0.00    -0.507 OA
ATOM     23  H   UNL     1     222.307 211.369 225.755  1.00  0.00     0.293 HD
ENDBRANCH   6  22
BRANCH   8  24
ATOM     24  O   UNL     1     221.672 216.572 223.585  1.00  0.00    -0.508 OA
ATOM     25  H   UNL     1     222.190 217.170 224.217  1.00  0.00     0.293 HD
ENDBRANCH   8  24
TORSDOF 5
ENDMDL
