MODEL 1
REMARK VINA RESULT:    -5.165      0.000      0.000
REMARK INTER + INTRA:          -5.165
REMARK INTER:                  -5.165
REMARK INTRA:                   0.000
REMARK UNBOUND:                 0.000
REMARK SMILES C=C1[C@@H]2CC[C@@H](C2)C1(C)C
REMARK SMILES IDX 9 1 8 2 6 3 5 4 4 5 3 6 7 7 2 8 1 9 10 10
REMARK H PARENT
REMARK Flexibility Score: inf
ROOT
ATOM      1  C   UNL     1     109.033 109.893 115.536  1.00  0.00     0.016 C 
ATOM      2  C   UNL     1     109.700 111.014 114.710  1.00  0.00    -0.012 C 
ATOM      3  C   UNL     1     108.840 111.381 113.448  1.00  0.00    -0.001 C 
ATOM      4  C   UNL     1     109.407 112.629 112.729  1.00  0.00     0.005 C 
ATOM      5  C   UNL     1     110.748 112.118 112.161  1.00  0.00     0.008 C 
ATOM      6  C   UNL     1     110.732 110.625 112.527  1.00  0.00     0.015 C 
ATOM      7  C   UNL     1     109.254 110.311 112.444  1.00  0.00     0.012 C 
ATOM      8  C   UNL     1     110.947 110.522 114.014  1.00  0.00    -0.068 C 
ATOM      9  C   UNL     1     112.077 110.114 114.602  1.00  0.00     0.008 C 
ATOM     10  C   UNL     1     109.996 112.215 115.637  1.00  0.00     0.016 C 
ENDROOT
TORSDOF 0
ENDMDL
MODEL 2
REMARK VINA RESULT:    -5.161      4.138      5.988
REMARK INTER + INTRA:          -5.161
REMARK INTER:                  -5.161
REMARK INTRA:                   0.000
REMARK UNBOUND:                 0.000
REMARK SMILES C=C1[C@@H]2CC[C@@H](C2)C1(C)C
REMARK SMILES IDX 9 1 8 2 6 3 5 4 4 5 3 6 7 7 2 8 1 9 10 10
REMARK H PARENT
REMARK Flexibility Score: inf
ROOT
ATOM      1  C   UNL     1     113.060 112.414 110.639  1.00  0.00     0.016 C 
ATOM      2  C   UNL     1     112.478 111.268 109.782  1.00  0.00    -0.012 C 
ATOM      3  C   UNL     1     113.403 110.947 108.556  1.00  0.00    -0.001 C 
ATOM      4  C   UNL     1     112.921 109.679 107.810  1.00  0.00     0.005 C 
ATOM      5  C   UNL     1     111.583 110.133 107.189  1.00  0.00     0.008 C 
ATOM      6  C   UNL     1     111.519 111.624 107.561  1.00  0.00     0.015 C 
ATOM      7  C   UNL     1     112.984 112.003 107.540  1.00  0.00     0.012 C 
ATOM      8  C   UNL     1     111.240 111.710 109.038  1.00  0.00    -0.068 C 
ATOM      9  C   UNL     1     110.069 112.065 109.582  1.00  0.00     0.008 C 
ATOM     10  C   UNL     1     112.197 110.051 110.692  1.00  0.00     0.016 C 
ENDROOT
TORSDOF 0
ENDMDL
MODEL 3
REMARK VINA RESULT:    -5.148      3.782      4.891
REMARK INTER + INTRA:          -5.148
REMARK INTER:                  -5.148
REMARK INTRA:                   0.000
REMARK UNBOUND:                 0.000
REMARK SMILES C=C1[C@@H]2CC[C@@H](C2)C1(C)C
REMARK SMILES IDX 9 1 8 2 6 3 5 4 4 5 3 6 7 7 2 8 1 9 10 10
REMARK H PARENT
REMARK Flexibility Score: inf
ROOT
ATOM      1  C   UNL     1     109.151 109.899 110.685  1.00  0.00     0.016 C 
ATOM      2  C   UNL     1     109.776 111.025 109.832  1.00  0.00    -0.012 C 
ATOM      3  C   UNL     1     108.868 111.378 108.601  1.00  0.00    -0.001 C 
ATOM      4  C   UNL     1     109.396 112.629 107.859  1.00  0.00     0.005 C 
ATOM      5  C   UNL     1     110.722 112.131 107.244  1.00  0.00     0.008 C 
ATOM      6  C   UNL     1     110.734 110.639 107.616  1.00  0.00     0.015 C 
ATOM      7  C   UNL     1     109.258 110.309 107.586  1.00  0.00     0.012 C 
ATOM      8  C   UNL     1     111.003 110.543 109.094  1.00  0.00    -0.068 C 
ATOM      9  C   UNL     1     112.157 110.149 109.644  1.00  0.00     0.008 C 
ATOM     10  C   UNL     1     110.092 112.231 110.745  1.00  0.00     0.016 C 
ENDROOT
TORSDOF 0
ENDMDL
MODEL 4
REMARK VINA RESULT:    -5.127      1.638      3.359
REMARK INTER + INTRA:          -5.127
REMARK INTER:                  -5.127
REMARK INTRA:                   0.000
REMARK UNBOUND:                 0.000
REMARK SMILES C=C1[C@@H]2CC[C@@H](C2)C1(C)C
REMARK SMILES IDX 9 1 8 2 6 3 5 4 4 5 3 6 7 7 2 8 1 9 10 10
REMARK H PARENT
REMARK Flexibility Score: inf
ROOT
ATOM      1  C   UNL     1     113.150 112.280 115.405  1.00  0.00     0.016 C 
ATOM      2  C   UNL     1     112.489 111.177 114.549  1.00  0.00    -0.012 C 
ATOM      3  C   UNL     1     113.344 110.858 113.271  1.00  0.00    -0.001 C 
ATOM      4  C   UNL     1     112.785 109.627 112.518  1.00  0.00     0.005 C 
ATOM      5  C   UNL     1     111.435 110.140 111.974  1.00  0.00     0.008 C 
ATOM      6  C   UNL     1     111.439 111.622 112.386  1.00  0.00     0.015 C 
ATOM      7  C   UNL     1     112.912 111.953 112.303  1.00  0.00     0.012 C 
ATOM      8  C   UNL     1     111.233 111.678 113.876  1.00  0.00    -0.068 C 
ATOM      9  C   UNL     1     110.102 112.056 114.484  1.00  0.00     0.008 C 
ATOM     10  C   UNL     1     112.211 109.945 115.440  1.00  0.00     0.016 C 
ENDROOT
TORSDOF 0
ENDMDL
MODEL 5
REMARK VINA RESULT:    -5.014      1.470      3.271
REMARK INTER + INTRA:          -5.014
REMARK INTER:                  -5.014
REMARK INTRA:                   0.000
REMARK UNBOUND:                 0.000
REMARK SMILES C=C1[C@@H]2CC[C@@H](C2)C1(C)C
REMARK SMILES IDX 9 1 8 2 6 3 5 4 4 5 3 6 7 7 2 8 1 9 10 10
REMARK H PARENT
REMARK Flexibility Score: inf
ROOT
ATOM      1  C   UNL     1     109.656 112.430 112.461  1.00  0.00     0.016 C 
ATOM      2  C   UNL     1     110.481 111.191 112.876  1.00  0.00    -0.012 C 
ATOM      3  C   UNL     1     111.903 111.601 113.397  1.00  0.00    -0.001 C 
ATOM      4  C   UNL     1     112.654 110.383 113.988  1.00  0.00     0.005 C 
ATOM      5  C   UNL     1     112.924 109.509 112.745  1.00  0.00     0.008 C 
ATOM      6  C   UNL     1     112.396 110.378 111.591  1.00  0.00     0.015 C 
ATOM      7  C   UNL     1     112.693 111.770 112.104  1.00  0.00     0.012 C 
ATOM      8  C   UNL     1     110.893 110.375 111.673  1.00  0.00    -0.068 C 
ATOM      9  C   UNL     1     110.078 109.709 110.846  1.00  0.00     0.008 C 
ATOM     10  C   UNL     1     109.661 110.354 113.884  1.00  0.00     0.016 C 
ENDROOT
TORSDOF 0
ENDMDL
MODEL 6
REMARK VINA RESULT:    -5.014      1.822      2.995
REMARK INTER + INTRA:          -5.014
REMARK INTER:                  -5.014
REMARK INTRA:                   0.000
REMARK UNBOUND:                 0.000
REMARK SMILES C=C1[C@@H]2CC[C@@H](C2)C1(C)C
REMARK SMILES IDX 9 1 8 2 6 3 5 4 4 5 3 6 7 7 2 8 1 9 10 10
REMARK H PARENT
REMARK Flexibility Score: inf
ROOT
ATOM      1  C   UNL     1     112.527 109.960 113.361  1.00  0.00     0.016 C 
ATOM      2  C   UNL     1     111.884 110.888 112.308  1.00  0.00    -0.012 C 
ATOM      3  C   UNL     1     110.494 111.430 112.798  1.00  0.00    -0.001 C 
ATOM      4  C   UNL     1     109.942 112.505 111.831  1.00  0.00     0.005 C 
ATOM      5  C   UNL     1     109.624 111.692 110.558  1.00  0.00     0.008 C 
ATOM      6  C   UNL     1     109.928 110.247 110.986  1.00  0.00     0.015 C 
ATOM      7  C   UNL     1     109.552 110.283 112.451  1.00  0.00     0.012 C 
ATOM      8  C   UNL     1     111.424 110.113 111.095  1.00  0.00    -0.068 C 
ATOM      9  C   UNL     1     112.204 109.461 110.225  1.00  0.00     0.008 C 
ATOM     10  C   UNL     1     112.892 111.998 111.932  1.00  0.00     0.016 C 
ENDROOT
TORSDOF 0
ENDMDL
MODEL 7
REMARK VINA RESULT:    -5.009      1.784      3.198
REMARK INTER + INTRA:          -5.009
REMARK INTER:                  -5.009
REMARK INTRA:                   0.000
REMARK UNBOUND:                 0.000
REMARK SMILES C=C1[C@@H]2CC[C@@H](C2)C1(C)C
REMARK SMILES IDX 9 1 8 2 6 3 5 4 4 5 3 6 7 7 2 8 1 9 10 10
REMARK H PARENT
REMARK Flexibility Score: inf
ROOT
ATOM      1  C   UNL     1     112.075 109.344 110.905  1.00  0.00     0.016 C 
ATOM      2  C   UNL     1     111.398 110.392 111.815  1.00  0.00    -0.012 C 
ATOM      3  C   UNL     1     109.834 110.331 111.687  1.00  0.00    -0.001 C 
ATOM      4  C   UNL     1     109.153 111.244 112.735  1.00  0.00     0.005 C 
ATOM      5  C   UNL     1     109.536 112.661 112.258  1.00  0.00     0.008 C 
ATOM      6  C   UNL     1     110.290 112.391 110.946  1.00  0.00     0.015 C 
ATOM      7  C   UNL     1     109.573 111.161 110.435  1.00  0.00     0.012 C 
ATOM      8  C   UNL     1     111.625 111.795 111.306  1.00  0.00    -0.068 C 
ATOM      9  C   UNL     1     112.799 112.435 111.234  1.00  0.00     0.008 C 
ATOM     10  C   UNL     1     111.916 110.214 113.260  1.00  0.00     0.016 C 
ENDROOT
TORSDOF 0
ENDMDL
MODEL 8
REMARK VINA RESULT:    -4.991      1.899      3.656
REMARK INTER + INTRA:          -4.991
REMARK INTER:                  -4.991
REMARK INTRA:                   0.000
REMARK UNBOUND:                 0.000
REMARK SMILES C=C1[C@@H]2CC[C@@H](C2)C1(C)C
REMARK SMILES IDX 9 1 8 2 6 3 5 4 4 5 3 6 7 7 2 8 1 9 10 10
REMARK H PARENT
REMARK Flexibility Score: inf
ROOT
ATOM      1  C   UNL     1     112.633 111.126 114.276  1.00  0.00     0.016 C 
ATOM      2  C   UNL     1     111.674 110.608 115.370  1.00  0.00    -0.012 C 
ATOM      3  C   UNL     1     110.178 110.690 114.902  1.00  0.00    -0.001 C 
ATOM      4  C   UNL     1     109.236 109.997 115.916  1.00  0.00     0.005 C 
ATOM      5  C   UNL     1     109.317 110.922 117.149  1.00  0.00     0.008 C 
ATOM      6  C   UNL     1     110.201 112.079 116.654  1.00  0.00     0.015 C 
ATOM      7  C   UNL     1     109.820 112.143 115.191  1.00  0.00     0.012 C 
ATOM      8  C   UNL     1     111.609 111.557 116.543  1.00  0.00    -0.068 C 
ATOM      9  C   UNL     1     112.608 111.851 117.384  1.00  0.00     0.008 C 
ATOM     10  C   UNL     1     112.119 109.192 115.801  1.00  0.00     0.016 C 
ENDROOT
TORSDOF 0
ENDMDL
MODEL 9
REMARK VINA RESULT:    -4.980      5.892      7.344
REMARK INTER + INTRA:          -4.980
REMARK INTER:                  -4.980
REMARK INTRA:                   0.000
REMARK UNBOUND:                 0.000
REMARK SMILES C=C1[C@@H]2CC[C@@H](C2)C1(C)C
REMARK SMILES IDX 9 1 8 2 6 3 5 4 4 5 3 6 7 7 2 8 1 9 10 10
REMARK H PARENT
REMARK Flexibility Score: inf
ROOT
ATOM      1  C   UNL     1     112.126 109.378 106.003  1.00  0.00     0.016 C 
ATOM      2  C   UNL     1     111.457 110.379 106.971  1.00  0.00    -0.012 C 
ATOM      3  C   UNL     1     109.893 110.255 106.926  1.00  0.00    -0.001 C 
ATOM      4  C   UNL     1     109.233 111.119 108.028  1.00  0.00     0.005 C 
ATOM      5  C   UNL     1     109.530 112.559 107.562  1.00  0.00     0.008 C 
ATOM      6  C   UNL     1     110.222 112.346 106.205  1.00  0.00     0.015 C 
ATOM      7  C   UNL     1     109.529 111.097 105.707  1.00  0.00     0.012 C 
ATOM      8  C   UNL     1     111.598 111.801 106.480  1.00  0.00    -0.068 C 
ATOM      9  C   UNL     1     112.739 112.490 106.359  1.00  0.00     0.008 C 
ATOM     10  C   UNL     1     112.060 110.196 108.382  1.00  0.00     0.016 C 
ENDROOT
TORSDOF 0
ENDMDL
