MODEL 1
REMARK VINA RESULT:    -2.916      0.000      0.000
REMARK INTER + INTRA:          -3.278
REMARK INTER:                  -3.257
REMARK INTRA:                  -0.021
REMARK UNBOUND:                -0.021
REMARK SMILES CCCC(=O)[O-]
REMARK SMILES IDX 3 1 4 2 5 3 6 4 2 5 1 6
REMARK H PARENT
REMARK Flexibility Score: inf
ROOT
ATOM      1  C   UNL     1      -2.131  25.880 -20.974  1.00  0.00     0.052 C 
ENDROOT
BRANCH   1   2
ATOM      2  C   UNL     1      -3.578  25.522 -21.100  1.00  0.00     0.041 C 
ATOM      3  O   UNL     1      -4.236  25.179 -20.082  1.00  0.00    -0.550 OA
ATOM      4  O   UNL     1      -4.214  25.615 -22.332  1.00  0.00    -0.550 OA
ENDBRANCH   1   2
BRANCH   1   5
ATOM      5  C   UNL     1      -1.756  26.087 -19.504  1.00  0.00     0.003 C 
ATOM      6  C   UNL     1      -0.959  27.374 -19.316  1.00  0.00     0.004 C 
ENDBRANCH   1   5
TORSDOF 2
ENDMDL
MODEL 2
REMARK VINA RESULT:    -2.871      2.196      3.350
REMARK INTER + INTRA:          -3.228
REMARK INTER:                  -3.190
REMARK INTRA:                  -0.038
REMARK UNBOUND:                -0.021
REMARK SMILES CCCC(=O)[O-]
REMARK SMILES IDX 3 1 4 2 5 3 6 4 2 5 1 6
REMARK H PARENT
REMARK Flexibility Score: inf
ROOT
ATOM      1  C   UNL     1      -1.479  26.186 -20.506  1.00  0.00     0.052 C 
ENDROOT
BRANCH   1   2
ATOM      2  C   UNL     1      -1.606  26.608 -19.076  1.00  0.00     0.041 C 
ATOM      3  O   UNL     1      -0.886  27.537 -18.623  1.00  0.00    -0.550 OA
ATOM      4  O   UNL     1      -2.556  26.011 -18.256  1.00  0.00    -0.550 OA
ENDBRANCH   1   2
BRANCH   1   5
ATOM      5  C   UNL     1      -2.488  25.082 -20.830  1.00  0.00     0.003 C 
ATOM      6  C   UNL     1      -3.672  25.632 -21.619  1.00  0.00     0.004 C 
ENDBRANCH   1   5
TORSDOF 2
ENDMDL
MODEL 3
REMARK VINA RESULT:    -2.397     23.300     23.710
REMARK INTER + INTRA:          -2.698
REMARK INTER:                  -2.690
REMARK INTRA:                  -0.009
REMARK UNBOUND:                -0.021
REMARK SMILES CCCC(=O)[O-]
REMARK SMILES IDX 3 1 4 2 5 3 6 4 2 5 1 6
REMARK H PARENT
REMARK Flexibility Score: inf
ROOT
ATOM      1  C   UNL     1     -19.916  27.594  -5.627  1.00  0.00     0.052 C 
ENDROOT
BRANCH   1   2
ATOM      2  C   UNL     1     -20.216  28.753  -4.729  1.00  0.00     0.041 C 
ATOM      3  O   UNL     1     -21.124  29.570  -5.033  1.00  0.00    -0.550 OA
ATOM      4  O   UNL     1     -19.527  28.903  -3.532  1.00  0.00    -0.550 OA
ENDBRANCH   1   2
BRANCH   1   5
ATOM      5  C   UNL     1     -20.947  26.480  -5.426  1.00  0.00     0.003 C 
ATOM      6  C   UNL     1     -21.033  25.581  -6.656  1.00  0.00     0.004 C 
ENDBRANCH   1   5
TORSDOF 2
ENDMDL
MODEL 4
REMARK VINA RESULT:    -2.348     23.012     23.508
REMARK INTER + INTRA:          -2.644
REMARK INTER:                  -2.619
REMARK INTRA:                  -0.024
REMARK UNBOUND:                -0.021
REMARK SMILES CCCC(=O)[O-]
REMARK SMILES IDX 3 1 4 2 5 3 6 4 2 5 1 6
REMARK H PARENT
REMARK Flexibility Score: inf
ROOT
ATOM      1  C   UNL     1     -19.565  28.024  -3.622  1.00  0.00     0.052 C 
ENDROOT
BRANCH   1   2
ATOM      2  C   UNL     1     -20.215  28.326  -4.935  1.00  0.00     0.041 C 
ATOM      3  O   UNL     1     -20.001  27.587  -5.932  1.00  0.00    -0.550 OA
ATOM      4  O   UNL     1     -21.096  29.394  -5.046  1.00  0.00    -0.550 OA
ENDBRANCH   1   2
BRANCH   1   5
ATOM      5  C   UNL     1     -19.097  26.566  -3.578  1.00  0.00     0.003 C 
ATOM      6  C   UNL     1     -17.749  26.442  -2.875  1.00  0.00     0.004 C 
ENDBRANCH   1   5
TORSDOF 2
ENDMDL
MODEL 5
REMARK VINA RESULT:    -2.258     22.983     23.514
REMARK INTER + INTRA:          -2.543
REMARK INTER:                  -2.506
REMARK INTRA:                  -0.037
REMARK UNBOUND:                -0.021
REMARK SMILES CCCC(=O)[O-]
REMARK SMILES IDX 3 1 4 2 5 3 6 4 2 5 1 6
REMARK H PARENT
REMARK Flexibility Score: inf
ROOT
ATOM      1  C   UNL     1     -19.950  27.901  -5.631  1.00  0.00     0.052 C 
ENDROOT
BRANCH   1   2
ATOM      2  C   UNL     1     -20.494  26.514  -5.769  1.00  0.00     0.041 C 
ATOM      3  O   UNL     1     -20.876  25.878  -4.752  1.00  0.00    -0.550 OA
ATOM      4  O   UNL     1     -20.627  25.941  -7.028  1.00  0.00    -0.550 OA
ENDBRANCH   1   2
BRANCH   1   5
ATOM      5  C   UNL     1     -20.967  28.807  -4.930  1.00  0.00     0.003 C 
ATOM      6  C   UNL     1     -20.481  29.208  -3.541  1.00  0.00     0.004 C 
ENDBRANCH   1   5
TORSDOF 2
ENDMDL
MODEL 6
REMARK VINA RESULT:    -2.091     23.406     23.852
REMARK INTER + INTRA:          -2.356
REMARK INTER:                  -2.326
REMARK INTRA:                  -0.031
REMARK UNBOUND:                -0.021
REMARK SMILES CCCC(=O)[O-]
REMARK SMILES IDX 3 1 4 2 5 3 6 4 2 5 1 6
REMARK H PARENT
REMARK Flexibility Score: inf
ROOT
ATOM      1  C   UNL     1     -19.165  27.463  -4.330  1.00  0.00     0.052 C 
ENDROOT
BRANCH   1   2
ATOM      2  C   UNL     1     -19.645  26.213  -3.662  1.00  0.00     0.041 C 
ATOM      3  O   UNL     1     -20.824  25.810  -3.846  1.00  0.00    -0.550 OA
ATOM      4  O   UNL     1     -18.777  25.467  -2.875  1.00  0.00    -0.550 OA
ENDBRANCH   1   2
BRANCH   1   5
ATOM      5  C   UNL     1     -20.169  27.923  -5.390  1.00  0.00     0.003 C 
ATOM      6  C   UNL     1     -20.940  29.152  -4.920  1.00  0.00     0.004 C 
ENDBRANCH   1   5
TORSDOF 2
ENDMDL
MODEL 7
REMARK VINA RESULT:    -2.010     22.918     23.578
REMARK INTER + INTRA:          -2.266
REMARK INTER:                  -2.241
REMARK INTRA:                  -0.025
REMARK UNBOUND:                -0.021
REMARK SMILES CCCC(=O)[O-]
REMARK SMILES IDX 3 1 4 2 5 3 6 4 2 5 1 6
REMARK H PARENT
REMARK Flexibility Score: inf
ROOT
ATOM      1  C   UNL     1     -20.011  27.112  -5.212  1.00  0.00     0.052 C 
ENDROOT
BRANCH   1   2
ATOM      2  C   UNL     1     -19.452  26.675  -3.895  1.00  0.00     0.041 C 
ATOM      3  O   UNL     1     -18.450  27.260  -3.407  1.00  0.00    -0.550 OA
ATOM      4  O   UNL     1     -20.069  25.655  -3.181  1.00  0.00    -0.550 OA
ENDBRANCH   1   2
BRANCH   1   5
ATOM      5  C   UNL     1     -21.114  26.154  -5.670  1.00  0.00     0.003 C 
ATOM      6  C   UNL     1     -20.816  25.596  -7.058  1.00  0.00     0.004 C 
ENDBRANCH   1   5
TORSDOF 2
ENDMDL
MODEL 8
REMARK VINA RESULT:    -1.980      2.373      2.937
REMARK INTER + INTRA:          -2.232
REMARK INTER:                  -2.412
REMARK INTRA:                   0.180
REMARK UNBOUND:                -0.021
REMARK SMILES CCCC(=O)[O-]
REMARK SMILES IDX 3 1 4 2 5 3 6 4 2 5 1 6
REMARK H PARENT
REMARK Flexibility Score: inf
ROOT
ATOM      1  C   UNL     1      -2.698  25.747 -21.490  1.00  0.00     0.052 C 
ENDROOT
BRANCH   1   2
ATOM      2  C   UNL     1      -1.526  25.894 -20.571  1.00  0.00     0.041 C 
ATOM      3  O   UNL     1      -0.875  24.879 -20.209  1.00  0.00    -0.550 OA
ATOM      4  O   UNL     1      -1.122  27.156 -20.155  1.00  0.00    -0.550 OA
ENDBRANCH   1   2
BRANCH   1   5
ATOM      5  C   UNL     1      -3.913  25.213 -20.727  1.00  0.00     0.003 C 
ATOM      6  C   UNL     1      -3.846  25.591 -19.251  1.00  0.00     0.004 C 
ENDBRANCH   1   5
TORSDOF 2
ENDMDL
MODEL 9
REMARK VINA RESULT:    -1.756     28.177     28.621
REMARK INTER + INTRA:          -1.982
REMARK INTER:                  -1.964
REMARK INTRA:                  -0.018
REMARK UNBOUND:                -0.021
REMARK SMILES CCCC(=O)[O-]
REMARK SMILES IDX 3 1 4 2 5 3 6 4 2 5 1 6
REMARK H PARENT
REMARK Flexibility Score: inf
ROOT
ATOM      1  C   UNL     1     -20.948  40.340  -3.384  1.00  0.00     0.052 C 
ENDROOT
BRANCH   1   2
ATOM      2  C   UNL     1     -19.940  41.440  -3.278  1.00  0.00     0.041 C 
ATOM      3  O   UNL     1     -20.276  42.632  -3.509  1.00  0.00    -0.550 OA
ATOM      4  O   UNL     1     -18.640  41.157  -2.877  1.00  0.00    -0.550 OA
ENDBRANCH   1   2
BRANCH   1   5
ATOM      5  C   UNL     1     -20.358  39.022  -2.875  1.00  0.00     0.003 C 
ATOM      6  C   UNL     1     -20.854  37.841  -3.704  1.00  0.00     0.004 C 
ENDBRANCH   1   5
TORSDOF 2
ENDMDL
