MODEL 1
REMARK VINA RESULT:    -3.318      0.000      0.000
REMARK INTER + INTRA:          -3.622
REMARK INTER:                  -3.609
REMARK INTRA:                  -0.013
REMARK UNBOUND:                -0.013
REMARK SMILES OCc1ccco1
REMARK SMILES IDX 2 1 3 2 5 3 6 4 4 5 7 6 1 7
REMARK H PARENT 1 8
REMARK Flexibility Score: inf
ROOT
ATOM      1  C   UNL     1     -10.077  22.727   7.060  1.00  0.00     0.231 C 
ENDROOT
BRANCH   1   2
ATOM      2  C   UNL     1      -9.860  21.739   8.162  1.00  0.00     0.129 A 
ATOM      3  C   UNL     1      -8.923  20.362   9.594  1.00  0.00     0.042 A 
ATOM      4  C   UNL     1     -10.299  20.342   9.712  1.00  0.00     0.195 A 
ATOM      5  C   UNL     1      -8.637  21.262   8.589  1.00  0.00     0.048 A 
ATOM      6  O   UNL     1     -10.829  21.173   8.843  1.00  0.00    -0.467 OA
ENDBRANCH   1   2
BRANCH   1   7
ATOM      7  O   UNL     1      -9.523  23.965   7.409  1.00  0.00    -0.388 OA
ATOM      8  H   UNL     1      -9.971  24.251   8.246  1.00  0.00     0.211 HD
ENDBRANCH   1   7
TORSDOF 2
ENDMDL
MODEL 2
REMARK VINA RESULT:    -3.228      1.212      1.552
REMARK INTER + INTRA:          -3.524
REMARK INTER:                  -3.506
REMARK INTRA:                  -0.018
REMARK UNBOUND:                -0.013
REMARK SMILES OCc1ccco1
REMARK SMILES IDX 2 1 3 2 5 3 6 4 4 5 7 6 1 7
REMARK H PARENT 1 8
REMARK Flexibility Score: inf
ROOT
ATOM      1  C   UNL     1      -8.151  21.930   8.247  1.00  0.00     0.231 C 
ENDROOT
BRANCH   1   2
ATOM      2  C   UNL     1      -9.341  21.301   8.898  1.00  0.00     0.129 A 
ATOM      3  C   UNL     1     -10.628  20.140  10.248  1.00  0.00     0.042 A 
ATOM      4  C   UNL     1     -11.363  20.710   9.227  1.00  0.00     0.195 A 
ATOM      5  C   UNL     1      -9.319  20.518  10.035  1.00  0.00     0.048 A 
ATOM      6  O   UNL     1     -10.567  21.395   8.438  1.00  0.00    -0.467 OA
ENDBRANCH   1   2
BRANCH   1   7
ATOM      7  O   UNL     1      -8.465  23.226   7.819  1.00  0.00    -0.388 OA
ATOM      8  H   UNL     1      -8.058  23.848   8.476  1.00  0.00     0.211 HD
ENDBRANCH   1   7
TORSDOF 2
ENDMDL
MODEL 3
REMARK VINA RESULT:    -3.056      1.750      2.392
REMARK INTER + INTRA:          -3.337
REMARK INTER:                  -3.324
REMARK INTRA:                  -0.013
REMARK UNBOUND:                -0.013
REMARK SMILES OCc1ccco1
REMARK SMILES IDX 2 1 3 2 5 3 6 4 4 5 7 6 1 7
REMARK H PARENT 1 8
REMARK Flexibility Score: inf
ROOT
ATOM      1  C   UNL     1     -10.998  21.067   6.648  1.00  0.00     0.231 C 
ENDROOT
BRANCH   1   2
ATOM      2  C   UNL     1      -9.960  21.127   7.724  1.00  0.00     0.129 A 
ATOM      3  C   UNL     1      -8.873  20.847   9.612  1.00  0.00     0.042 A 
ATOM      4  C   UNL     1      -8.187  21.692   8.763  1.00  0.00     0.195 A 
ATOM      5  C   UNL     1     -10.023  20.483   8.943  1.00  0.00     0.048 A 
ATOM      6  O   UNL     1      -8.861  21.841   7.646  1.00  0.00    -0.467 OA
ENDBRANCH   1   2
BRANCH   1   7
ATOM      7  O   UNL     1     -10.737  19.993   5.788  1.00  0.00    -0.388 OA
ATOM      8  H   UNL     1     -11.583  19.480   5.709  1.00  0.00     0.211 HD
ENDBRANCH   1   7
TORSDOF 2
ENDMDL
MODEL 4
REMARK VINA RESULT:    -3.050      1.262      2.996
REMARK INTER + INTRA:          -3.331
REMARK INTER:                  -3.317
REMARK INTRA:                  -0.014
REMARK UNBOUND:                -0.013
REMARK SMILES OCc1ccco1
REMARK SMILES IDX 2 1 3 2 5 3 6 4 4 5 7 6 1 7
REMARK H PARENT 1 8
REMARK Flexibility Score: inf
ROOT
ATOM      1  C   UNL     1     -10.989  20.053  10.070  1.00  0.00     0.231 C 
ENDROOT
BRANCH   1   2
ATOM      2  C   UNL     1     -10.016  20.839   9.250  1.00  0.00     0.129 A 
ATOM      3  C   UNL     1      -8.168  21.740   8.474  1.00  0.00     0.042 A 
ATOM      4  C   UNL     1      -9.272  22.187   7.774  1.00  0.00     0.195 A 
ATOM      5  C   UNL     1      -8.648  20.871   9.432  1.00  0.00     0.048 A 
ATOM      6  O   UNL     1     -10.359  21.632   8.262  1.00  0.00    -0.467 OA
ENDBRANCH   1   2
BRANCH   1   7
ATOM      7  O   UNL     1     -10.938  20.470  11.406  1.00  0.00    -0.388 OA
ATOM      8  H   UNL     1     -11.870  20.679  11.674  1.00  0.00     0.211 HD
ENDBRANCH   1   7
TORSDOF 2
ENDMDL
MODEL 5
REMARK VINA RESULT:    -2.989      3.077      4.246
REMARK INTER + INTRA:          -3.264
REMARK INTER:                  -3.249
REMARK INTRA:                  -0.015
REMARK UNBOUND:                -0.013
REMARK SMILES OCc1ccco1
REMARK SMILES IDX 2 1 3 2 5 3 6 4 4 5 7 6 1 7
REMARK H PARENT 1 8
REMARK Flexibility Score: inf
ROOT
ATOM      1  C   UNL     1     -10.153  26.123   5.924  1.00  0.00     0.231 C 
ENDROOT
BRANCH   1   2
ATOM      2  C   UNL     1     -10.721  24.739   5.949  1.00  0.00     0.129 A 
ATOM      3  C   UNL     1     -11.933  22.958   5.518  1.00  0.00     0.042 A 
ATOM      4  C   UNL     1     -11.067  22.729   6.569  1.00  0.00     0.195 A 
ATOM      5  C   UNL     1     -11.713  24.260   5.118  1.00  0.00     0.048 A 
ATOM      6  O   UNL     1     -10.359  23.811   6.803  1.00  0.00    -0.467 OA
ENDBRANCH   1   2
BRANCH   1   7
ATOM      7  O   UNL     1      -8.792  26.078   5.596  1.00  0.00    -0.388 OA
ATOM      8  H   UNL     1      -8.325  25.685   6.378  1.00  0.00     0.211 HD
ENDBRANCH   1   7
TORSDOF 2
ENDMDL
MODEL 6
REMARK VINA RESULT:    -2.969      6.395      7.723
REMARK INTER + INTRA:          -3.242
REMARK INTER:                  -3.223
REMARK INTRA:                  -0.018
REMARK UNBOUND:                -0.013
REMARK SMILES OCc1ccco1
REMARK SMILES IDX 2 1 3 2 5 3 6 4 4 5 7 6 1 7
REMARK H PARENT 1 8
REMARK Flexibility Score: inf
ROOT
ATOM      1  C   UNL     1     -12.150  16.368   9.744  1.00  0.00     0.231 C 
ENDROOT
BRANCH   1   2
ATOM      2  C   UNL     1     -12.367  15.165  10.606  1.00  0.00     0.129 A 
ATOM      3  C   UNL     1     -12.275  13.723  12.260  1.00  0.00     0.042 A 
ATOM      4  C   UNL     1     -13.040  13.237  11.218  1.00  0.00     0.195 A 
ATOM      5  C   UNL     1     -11.835  14.968  11.865  1.00  0.00     0.048 A 
ATOM      6  O   UNL     1     -13.074  14.120  10.245  1.00  0.00    -0.467 OA
ENDBRANCH   1   2
BRANCH   1   7
ATOM      7  O   UNL     1     -11.789  15.974   8.450  1.00  0.00    -0.388 OA
ATOM      8  H   UNL     1     -10.908  16.390   8.262  1.00  0.00     0.211 HD
ENDBRANCH   1   7
TORSDOF 2
ENDMDL
MODEL 7
REMARK VINA RESULT:    -2.884      1.831      2.699
REMARK INTER + INTRA:          -3.149
REMARK INTER:                  -3.129
REMARK INTRA:                  -0.020
REMARK UNBOUND:                -0.013
REMARK SMILES OCc1ccco1
REMARK SMILES IDX 2 1 3 2 5 3 6 4 4 5 7 6 1 7
REMARK H PARENT 1 8
REMARK Flexibility Score: inf
ROOT
ATOM      1  C   UNL     1     -10.561  24.688   6.451  1.00  0.00     0.231 C 
ENDROOT
BRANCH   1   2
ATOM      2  C   UNL     1     -10.596  23.217   6.724  1.00  0.00     0.129 A 
ATOM      3  C   UNL     1     -11.191  21.103   6.768  1.00  0.00     0.042 A 
ATOM      4  C   UNL     1     -10.068  21.322   7.543  1.00  0.00     0.195 A 
ATOM      5  C   UNL     1     -11.536  22.330   6.240  1.00  0.00     0.048 A 
ATOM      6  O   UNL     1      -9.739  22.593   7.497  1.00  0.00    -0.467 OA
ENDBRANCH   1   2
BRANCH   1   7
ATOM      7  O   UNL     1     -10.048  25.371   7.561  1.00  0.00    -0.388 OA
ATOM      8  H   UNL     1      -9.161  24.970   7.756  1.00  0.00     0.211 HD
ENDBRANCH   1   7
TORSDOF 2
ENDMDL
MODEL 8
REMARK VINA RESULT:    -2.869     14.251     15.328
REMARK INTER + INTRA:          -3.134
REMARK INTER:                  -3.120
REMARK INTRA:                  -0.013
REMARK UNBOUND:                -0.013
REMARK SMILES OCc1ccco1
REMARK SMILES IDX 2 1 3 2 5 3 6 4 4 5 7 6 1 7
REMARK H PARENT 1 8
REMARK Flexibility Score: inf
ROOT
ATOM      1  C   UNL     1      -1.652  10.770   9.254  1.00  0.00     0.231 C 
ENDROOT
BRANCH   1   2
ATOM      2  C   UNL     1      -0.439  10.170   9.891  1.00  0.00     0.129 A 
ATOM      3  C   UNL     1       0.909   9.142  11.287  1.00  0.00     0.042 A 
ATOM      4  C   UNL     1       1.605   9.654  10.210  1.00  0.00     0.195 A 
ATOM      5  C   UNL     1      -0.413   9.478  11.084  1.00  0.00     0.048 A 
ATOM      6  O   UNL     1       0.773  10.263   9.395  1.00  0.00    -0.467 OA
ENDBRANCH   1   2
BRANCH   1   7
ATOM      7  O   UNL     1      -2.101   9.953   8.209  1.00  0.00    -0.388 OA
ATOM      8  H   UNL     1      -2.611  10.538   7.590  1.00  0.00     0.211 HD
ENDBRANCH   1   7
TORSDOF 2
ENDMDL
MODEL 9
REMARK VINA RESULT:    -2.819     14.614     15.647
REMARK INTER + INTRA:          -3.078
REMARK INTER:                  -3.058
REMARK INTRA:                  -0.020
REMARK UNBOUND:                -0.013
REMARK SMILES OCc1ccco1
REMARK SMILES IDX 2 1 3 2 5 3 6 4 4 5 7 6 1 7
REMARK H PARENT 1 8
REMARK Flexibility Score: inf
ROOT
ATOM      1  C   UNL     1      -1.109  10.668   9.230  1.00  0.00     0.231 C 
ENDROOT
BRANCH   1   2
ATOM      2  C   UNL     1       0.270  10.219   8.861  1.00  0.00     0.129 A 
ATOM      3  C   UNL     1       2.428   9.811   8.905  1.00  0.00     0.042 A 
ATOM      4  C   UNL     1       1.876   9.443   7.693  1.00  0.00     0.195 A 
ATOM      5  C   UNL     1       1.391  10.317   9.660  1.00  0.00     0.048 A 
ATOM      6  O   UNL     1       0.587   9.701   7.698  1.00  0.00    -0.467 OA
ENDBRANCH   1   2
BRANCH   1   7
ATOM      7  O   UNL     1      -2.055  10.031   8.417  1.00  0.00    -0.388 OA
ATOM      8  H   UNL     1      -1.593   9.801   7.570  1.00  0.00     0.211 HD
ENDBRANCH   1   7
TORSDOF 2
ENDMDL
