MODEL 1
REMARK VINA RESULT:    16.681      0.000      0.000
REMARK INTER + INTRA:          22.618
REMARK INTER:                  18.631
REMARK INTRA:                   3.987
REMARK UNBOUND:                 3.987
REMARK SMILES C=C(C)[C@H]1CC[C@]2(C(=O)[O-])CC[C@]3(C)[C@@H](CC[C@H]4[C@]5(C)CCC(=O)C(C)(C)[C@@H]5CC[C@]43C)[C@@H]12
REMARK SMILES IDX 7 1 6 2 33 3 11 4 5 5 15 6 4 7 12 8 16 9 13 10 17 11 31 12
REMARK SMILES IDX 14 13 18 14 30 15 32 16 19 17 29 18 21 19 20 20 28 21 22 22
REMARK SMILES IDX 25 23 23 24 26 25 27 26 24 27 8 28 9 29 10 30 2 31 3 32 1 33
REMARK H PARENT
REMARK Flexibility Score: inf
ROOT
ATOM      1  C   UNL     1     -11.070  13.997 -32.552  1.00  0.00     0.014 C 
ATOM      2  C   UNL     1      -9.876  14.673 -33.241  1.00  0.00     0.014 C 
ATOM      3  C   UNL     1     -12.245  14.534 -33.378  1.00  0.00     0.012 C 
ATOM      4  C   UNL     1     -11.072  12.456 -32.679  1.00  0.00     0.014 C 
ATOM      5  C   UNL     1     -10.362  16.091 -33.583  1.00  0.00     0.009 C 
ATOM      6  C   UNL     1     -13.665  14.010 -32.963  1.00  0.00     0.000 C 
ATOM      7  C   UNL     1     -11.892  15.982 -33.830  1.00  0.00     0.018 C 
ATOM      8  C   UNL     1     -12.409  11.847 -32.189  1.00  0.00     0.008 C 
ATOM      9  C   UNL     1     -14.305  14.719 -31.744  1.00  0.00     0.005 C 
ATOM     10  C   UNL     1     -13.714  12.416 -32.882  1.00  0.00    -0.024 C 
ATOM     11  C   UNL     1     -14.373  13.880 -30.476  1.00  0.00     0.005 C 
ATOM     12  C   UNL     1     -15.050  11.926 -32.095  1.00  0.00    -0.024 C 
ATOM     13  C   UNL     1     -13.707  11.851 -34.351  1.00  0.00     0.012 C 
ATOM     14  C   UNL     1     -15.096  12.489 -30.601  1.00  0.00     0.002 C 
ATOM     15  C   UNL     1     -16.324  12.402 -32.860  1.00  0.00     0.008 C 
ATOM     16  C   UNL     1     -15.090  10.363 -32.070  1.00  0.00     0.012 C 
ATOM     17  C   UNL     1     -16.499  12.359 -29.807  1.00  0.00    -0.025 C 
ATOM     18  C   UNL     1     -17.636  12.171 -32.131  1.00  0.00     0.006 C 
ATOM     19  C   UNL     1     -16.687  10.884 -29.246  1.00  0.00     0.015 C 
ATOM     20  C   UNL     1     -16.461  13.250 -28.524  1.00  0.00     0.012 C 
ATOM     21  C   UNL     1     -17.717  12.811 -30.718  1.00  0.00     0.008 C 
ATOM     22  C   UNL     1     -18.073  10.251 -29.444  1.00  0.00     0.077 C 
ATOM     23  C   UNL     1     -19.153  12.581 -30.050  1.00  0.00     0.027 C 
ATOM     24  C   UNL     1     -19.191  11.250 -29.307  1.00  0.00     0.138 C 
ATOM     25  C   UNL     1     -19.511  13.738 -29.068  1.00  0.00     0.020 C 
ATOM     26  C   UNL     1     -20.300  12.555 -31.103  1.00  0.00     0.020 C 
ATOM     27  O   UNL     1     -20.192  10.934 -28.676  1.00  0.00    -0.299 OA
ENDROOT
BRANCH   1  28
ATOM     28  C   UNL     1     -11.040  14.408 -31.085  1.00  0.00     0.048 C 
ATOM     29  O   UNL     1     -12.080  14.375 -30.381  1.00  0.00    -0.550 OA
ATOM     30  O   UNL     1      -9.900  14.995 -30.553  1.00  0.00    -0.550 OA
ENDBRANCH   1  28
BRANCH   7  31
ATOM     31  C   UNL     1     -12.749  17.124 -33.285  1.00  0.00    -0.077 C 
ATOM     32  C   UNL     1     -13.639  16.965 -32.069  1.00  0.00     0.039 C 
ATOM     33  C   UNL     1     -12.547  18.365 -33.767  1.00  0.00     0.008 C 
ENDBRANCH   7  31
TORSDOF 2
ENDMDL
MODEL 2
REMARK VINA RESULT:    17.841     10.676     14.065
REMARK INTER + INTRA:          23.914
REMARK INTER:                  22.981
REMARK INTRA:                   0.933
REMARK UNBOUND:                 3.987
REMARK SMILES C=C(C)[C@H]1CC[C@]2(C(=O)[O-])CC[C@]3(C)[C@@H](CC[C@H]4[C@]5(C)CCC(=O)C(C)(C)[C@@H]5CC[C@]43C)[C@@H]12
REMARK SMILES IDX 7 1 6 2 33 3 11 4 5 5 15 6 4 7 12 8 16 9 13 10 17 11 31 12
REMARK SMILES IDX 14 13 18 14 30 15 32 16 19 17 29 18 21 19 20 20 28 21 22 22
REMARK SMILES IDX 25 23 23 24 26 25 27 26 24 27 8 28 9 29 10 30 2 31 3 32 1 33
REMARK H PARENT
REMARK Flexibility Score: inf
ROOT
ATOM      1  C   UNL     1     -25.796  11.179 -29.995  1.00  0.00     0.014 C 
ATOM      2  C   UNL     1     -25.649   9.925 -29.121  1.00  0.00     0.014 C 
ATOM      3  C   UNL     1     -26.391  12.180 -28.998  1.00  0.00     0.012 C 
ATOM      4  C   UNL     1     -24.448  11.753 -30.490  1.00  0.00     0.014 C 
ATOM      5  C   UNL     1     -26.905   9.908 -28.233  1.00  0.00     0.009 C 
ATOM      6  C   UNL     1     -26.649  13.624 -29.555  1.00  0.00     0.000 C 
ATOM      7  C   UNL     1     -27.307  11.392 -28.016  1.00  0.00     0.018 C 
ATOM      8  C   UNL     1     -24.632  13.142 -31.153  1.00  0.00     0.008 C 
ATOM      9  C   UNL     1     -27.950  13.796 -30.377  1.00  0.00     0.005 C 
ATOM     10  C   UNL     1     -25.354  14.234 -30.262  1.00  0.00    -0.024 C 
ATOM     11  C   UNL     1     -27.744  13.993 -31.873  1.00  0.00     0.005 C 
ATOM     12  C   UNL     1     -25.748  15.538 -31.148  1.00  0.00    -0.024 C 
ATOM     13  C   UNL     1     -24.324  14.627 -29.138  1.00  0.00     0.012 C 
ATOM     14  C   UNL     1     -26.800  15.178 -32.294  1.00  0.00     0.002 C 
ATOM     15  C   UNL     1     -26.353  16.645 -30.228  1.00  0.00     0.008 C 
ATOM     16  C   UNL     1     -24.454  16.136 -31.791  1.00  0.00     0.012 C 
ATOM     17  C   UNL     1     -27.527  16.414 -33.043  1.00  0.00    -0.025 C 
ATOM     18  C   UNL     1     -26.935  17.842 -30.960  1.00  0.00     0.006 C 
ATOM     19  C   UNL     1     -26.566  17.045 -34.139  1.00  0.00     0.015 C 
ATOM     20  C   UNL     1     -28.745  15.886 -33.867  1.00  0.00     0.012 C 
ATOM     21  C   UNL     1     -28.035  17.496 -32.000  1.00  0.00     0.008 C 
ATOM     22  C   UNL     1     -26.489  18.578 -34.178  1.00  0.00     0.077 C 
ATOM     23  C   UNL     1     -28.643  18.816 -32.673  1.00  0.00     0.027 C 
ATOM     24  C   UNL     1     -27.812  19.232 -33.882  1.00  0.00     0.138 C 
ATOM     25  C   UNL     1     -30.125  18.598 -33.106  1.00  0.00     0.020 C 
ATOM     26  C   UNL     1     -28.667  20.025 -31.691  1.00  0.00     0.020 C 
ATOM     27  O   UNL     1     -28.167  20.186 -34.564  1.00  0.00    -0.299 OA
ENDROOT
BRANCH   1  28
ATOM     28  C   UNL     1     -26.681  10.807 -31.179  1.00  0.00     0.048 C 
ATOM     29  O   UNL     1     -27.879  11.179 -31.235  1.00  0.00    -0.550 OA
ATOM     30  O   UNL     1     -26.225   9.901 -32.126  1.00  0.00    -0.550 OA
ENDBRANCH   1  28
BRANCH   7  31
ATOM     31  C   UNL     1     -28.805  11.699 -28.043  1.00  0.00    -0.077 C 
ATOM     32  C   UNL     1     -29.383  12.980 -27.479  1.00  0.00     0.039 C 
ATOM     33  C   UNL     1     -29.609  10.908 -28.780  1.00  0.00     0.008 C 
ENDBRANCH   7  31
TORSDOF 2
ENDMDL
MODEL 3
REMARK VINA RESULT:    18.634      1.781      3.474
REMARK INTER + INTRA:          24.800
REMARK INTER:                  22.292
REMARK INTRA:                   2.508
REMARK UNBOUND:                 3.987
REMARK SMILES C=C(C)[C@H]1CC[C@]2(C(=O)[O-])CC[C@]3(C)[C@@H](CC[C@H]4[C@]5(C)CCC(=O)C(C)(C)[C@@H]5CC[C@]43C)[C@@H]12
REMARK SMILES IDX 7 1 6 2 33 3 11 4 5 5 15 6 4 7 12 8 16 9 13 10 17 11 31 12
REMARK SMILES IDX 14 13 18 14 30 15 32 16 19 17 29 18 21 19 20 20 28 21 22 22
REMARK SMILES IDX 25 23 23 24 26 25 27 26 24 27 8 28 9 29 10 30 2 31 3 32 1 33
REMARK H PARENT
REMARK Flexibility Score: inf
ROOT
ATOM      1  C   UNL     1     -11.289  13.523 -32.422  1.00  0.00     0.014 C 
ATOM      2  C   UNL     1      -9.875  13.462 -33.019  1.00  0.00     0.014 C 
ATOM      3  C   UNL     1     -11.743  12.065 -32.560  1.00  0.00     0.012 C 
ATOM      4  C   UNL     1     -11.313  13.881 -30.918  1.00  0.00     0.014 C 
ATOM      5  C   UNL     1      -9.988  12.503 -34.216  1.00  0.00     0.009 C 
ATOM      6  C   UNL     1     -13.174  11.742 -32.004  1.00  0.00     0.000 C 
ATOM      7  C   UNL     1     -11.105  11.485 -33.857  1.00  0.00     0.018 C 
ATOM      8  C   UNL     1     -12.726  13.689 -30.311  1.00  0.00     0.008 C 
ATOM      9  C   UNL     1     -14.350  12.111 -32.941  1.00  0.00     0.005 C 
ATOM     10  C   UNL     1     -13.361  12.251 -30.502  1.00  0.00    -0.024 C 
ATOM     11  C   UNL     1     -15.185  13.301 -32.485  1.00  0.00     0.005 C 
ATOM     12  C   UNL     1     -14.934  12.252 -30.091  1.00  0.00    -0.024 C 
ATOM     13  C   UNL     1     -12.549  11.289 -29.555  1.00  0.00     0.012 C 
ATOM     14  C   UNL     1     -15.791  13.211 -31.037  1.00  0.00     0.002 C 
ATOM     15  C   UNL     1     -15.508  10.803 -30.177  1.00  0.00     0.008 C 
ATOM     16  C   UNL     1     -15.079  12.713 -28.604  1.00  0.00     0.012 C 
ATOM     17  C   UNL     1     -17.401  13.072 -30.963  1.00  0.00    -0.025 C 
ATOM     18  C   UNL     1     -17.013  10.696 -30.000  1.00  0.00     0.006 C 
ATOM     19  C   UNL     1     -17.968  13.837 -29.692  1.00  0.00     0.015 C 
ATOM     20  C   UNL     1     -18.049  13.818 -32.174  1.00  0.00     0.012 C 
ATOM     21  C   UNL     1     -17.847  11.550 -30.992  1.00  0.00     0.008 C 
ATOM     22  C   UNL     1     -19.028  13.094 -28.865  1.00  0.00     0.077 C 
ATOM     23  C   UNL     1     -19.419  11.326 -30.784  1.00  0.00     0.027 C 
ATOM     24  C   UNL     1     -19.957  12.273 -29.718  1.00  0.00     0.138 C 
ATOM     25  C   UNL     1     -20.201  11.538 -32.116  1.00  0.00     0.020 C 
ATOM     26  C   UNL     1     -19.755   9.876 -30.326  1.00  0.00     0.020 C 
ATOM     27  O   UNL     1     -21.157  12.290 -29.471  1.00  0.00    -0.299 OA
ENDROOT
BRANCH   1  28
ATOM     28  C   UNL     1     -12.078  14.549 -33.225  1.00  0.00     0.048 C 
ATOM     29  O   UNL     1     -13.260  14.323 -33.583  1.00  0.00    -0.550 OA
ATOM     30  O   UNL     1     -11.441  15.676 -33.726  1.00  0.00    -0.550 OA
ENDBRANCH   1  28
BRANCH   7  31
ATOM     31  C   UNL     1     -12.046  11.083 -34.992  1.00  0.00    -0.077 C 
ATOM     32  C   UNL     1     -13.106  12.017 -35.539  1.00  0.00     0.039 C 
ATOM     33  C   UNL     1     -11.786   9.949 -35.671  1.00  0.00     0.008 C 
ENDBRANCH   7  31
TORSDOF 2
ENDMDL
MODEL 4
REMARK VINA RESULT:    19.173      3.020      5.868
REMARK INTER + INTRA:          25.401
REMARK INTER:                  24.109
REMARK INTRA:                   1.292
REMARK UNBOUND:                 3.987
REMARK SMILES C=C(C)[C@H]1CC[C@]2(C(=O)[O-])CC[C@]3(C)[C@@H](CC[C@H]4[C@]5(C)CCC(=O)C(C)(C)[C@@H]5CC[C@]43C)[C@@H]12
REMARK SMILES IDX 7 1 6 2 33 3 11 4 5 5 15 6 4 7 12 8 16 9 13 10 17 11 31 12
REMARK SMILES IDX 14 13 18 14 30 15 32 16 19 17 29 18 21 19 20 20 28 21 22 22
REMARK SMILES IDX 25 23 23 24 26 25 27 26 24 27 8 28 9 29 10 30 2 31 3 32 1 33
REMARK H PARENT
REMARK Flexibility Score: inf
ROOT
ATOM      1  C   UNL     1     -16.138  11.142 -28.841  1.00  0.00     0.014 C 
ATOM      2  C   UNL     1     -14.680  10.669 -28.743  1.00  0.00     0.014 C 
ATOM      3  C   UNL     1     -16.216  11.590 -30.305  1.00  0.00     0.012 C 
ATOM      4  C   UNL     1     -17.174  10.012 -28.640  1.00  0.00     0.014 C 
ATOM      5  C   UNL     1     -13.875  11.677 -29.580  1.00  0.00     0.009 C 
ATOM      6  C   UNL     1     -17.614  12.118 -30.782  1.00  0.00     0.000 C 
ATOM      7  C   UNL     1     -14.826  12.169 -30.705  1.00  0.00     0.018 C 
ATOM      8  C   UNL     1     -18.606  10.485 -28.991  1.00  0.00     0.008 C 
ATOM      9  C   UNL     1     -17.936  13.585 -30.402  1.00  0.00     0.005 C 
ATOM     10  C   UNL     1     -18.789  11.091 -30.443  1.00  0.00    -0.024 C 
ATOM     11  C   UNL     1     -19.001  13.750 -29.326  1.00  0.00     0.005 C 
ATOM     12  C   UNL     1     -20.239  11.812 -30.593  1.00  0.00    -0.024 C 
ATOM     13  C   UNL     1     -18.677   9.875 -31.438  1.00  0.00     0.012 C 
ATOM     14  C   UNL     1     -20.385  13.057 -29.605  1.00  0.00     0.002 C 
ATOM     15  C   UNL     1     -20.442  12.298 -32.062  1.00  0.00     0.008 C 
ATOM     16  C   UNL     1     -21.367  10.770 -30.297  1.00  0.00     0.012 C 
ATOM     17  C   UNL     1     -21.627  14.061 -29.861  1.00  0.00    -0.025 C 
ATOM     18  C   UNL     1     -21.676  13.154 -32.291  1.00  0.00     0.006 C 
ATOM     19  C   UNL     1     -22.969  13.449 -29.271  1.00  0.00     0.015 C 
ATOM     20  C   UNL     1     -21.418  15.375 -29.042  1.00  0.00     0.012 C 
ATOM     21  C   UNL     1     -21.762  14.423 -31.400  1.00  0.00     0.008 C 
ATOM     22  C   UNL     1     -24.213  13.542 -30.167  1.00  0.00     0.077 C 
ATOM     23  C   UNL     1     -23.053  15.303 -31.753  1.00  0.00     0.027 C 
ATOM     24  C   UNL     1     -24.262  14.821 -30.959  1.00  0.00     0.138 C 
ATOM     25  C   UNL     1     -22.803  16.814 -31.460  1.00  0.00     0.020 C 
ATOM     26  C   UNL     1     -23.430  15.224 -33.262  1.00  0.00     0.020 C 
ATOM     27  O   UNL     1     -25.326  15.420 -31.050  1.00  0.00    -0.299 OA
ENDROOT
BRANCH   1  28
ATOM     28  C   UNL     1     -16.333  12.233 -27.796  1.00  0.00     0.048 C 
ATOM     29  O   UNL     1     -16.242  13.448 -28.100  1.00  0.00    -0.550 OA
ATOM     30  O   UNL     1     -16.439  11.895 -26.453  1.00  0.00    -0.550 OA
ENDBRANCH   1  28
BRANCH   7  31
ATOM     31  C   UNL     1     -14.751  13.656 -31.053  1.00  0.00    -0.077 C 
ATOM     32  C   UNL     1     -13.640  14.554 -30.549  1.00  0.00     0.039 C 
ATOM     33  C   UNL     1     -15.572  14.134 -32.008  1.00  0.00     0.008 C 
ENDBRANCH   7  31
TORSDOF 2
ENDMDL
