MODEL 1
REMARK VINA RESULT:    -5.262      0.000      0.000
REMARK INTER + INTRA:         -17.758
REMARK INTER:                 -13.259
REMARK INTRA:                  -4.500
REMARK UNBOUND:                -4.500
REMARK SMILES CCCCCCCCCCCCCCCCCCCCCCCCCCCC(=O)[O-]
REMARK SMILES IDX 15 1 16 2 17 3 18 4 19 5 20 6 21 7 22 8 23 9 24 10 25 11
REMARK SMILES IDX 26 12 27 13 28 14 29 15 30 16 14 17 13 18 12 19 11 20 10 21
REMARK SMILES IDX 9 22 8 23 7 24 6 25 5 26 4 27 3 28 2 29 1 30
REMARK H PARENT
REMARK Flexibility Score: inf
ROOT
ATOM      1  C   UNL     1      45.445  50.401  11.524  1.00  0.00     0.000 C 
ENDROOT
BRANCH   1   2
ATOM      2  C   UNL     1      46.976  50.384  11.396  1.00  0.00     0.000 C 
BRANCH   2   3
ATOM      3  C   UNL     1      47.468  49.499  10.236  1.00  0.00     0.000 C 
BRANCH   3   4
ATOM      4  C   UNL     1      47.056  48.025  10.390  1.00  0.00     0.000 C 
BRANCH   4   5
ATOM      5  C   UNL     1      46.656  47.301   9.087  1.00  0.00     0.000 C 
BRANCH   5   6
ATOM      6  C   UNL     1      45.251  46.662   9.115  1.00  0.00     0.000 C 
BRANCH   6   7
ATOM      7  C   UNL     1      44.352  47.195  10.247  1.00  0.00     0.000 C 
BRANCH   7   8
ATOM      8  C   UNL     1      43.958  46.107  11.263  1.00  0.00     0.000 C 
BRANCH   8   9
ATOM      9  C   UNL     1      43.069  46.613  12.419  1.00  0.00     0.000 C 
BRANCH   9  10
ATOM     10  C   UNL     1      42.639  48.083  12.234  1.00  0.00     0.000 C 
BRANCH  10  11
ATOM     11  C   UNL     1      42.676  48.879  13.549  1.00  0.00     0.000 C 
BRANCH  11  12
ATOM     12  C   UNL     1      41.954  50.235  13.440  1.00  0.00     0.006 C 
BRANCH  12  13
ATOM     13  C   UNL     1      40.542  50.096  12.851  1.00  0.00     0.053 C 
BRANCH  13  14
ATOM     14  C   UNL     1      39.575  51.040  13.494  1.00  0.00     0.041 C 
ATOM     15  O   UNL     1      38.668  51.581  12.806  1.00  0.00    -0.550 OA
ATOM     16  O   UNL     1      39.695  51.349  14.845  1.00  0.00    -0.550 OA
ENDBRANCH  13  14
ENDBRANCH  12  13
ENDBRANCH  11  12
ENDBRANCH  10  11
ENDBRANCH   9  10
ENDBRANCH   8   9
ENDBRANCH   7   8
ENDBRANCH   6   7
ENDBRANCH   5   6
ENDBRANCH   4   5
ENDBRANCH   3   4
ENDBRANCH   2   3
ENDBRANCH   1   2
BRANCH   1  17
ATOM     17  C   UNL     1      44.788  51.429  10.586  1.00  0.00     0.000 C 
BRANCH  17  18
ATOM     18  C   UNL     1      44.091  50.775   9.381  1.00  0.00     0.000 C 
BRANCH  18  19
ATOM     19  C   UNL     1      42.602  50.432   9.588  1.00  0.00     0.000 C 
BRANCH  19  20
ATOM     20  C   UNL     1      41.825  50.056   8.311  1.00  0.00     0.000 C 
BRANCH  20  21
ATOM     21  C   UNL     1      42.415  48.831   7.590  1.00  0.00     0.000 C 
BRANCH  21  22
ATOM     22  C   UNL     1      41.415  48.161   6.629  1.00  0.00    -0.000 C 
BRANCH  22  23
ATOM     23  C   UNL     1      41.884  46.831   6.004  1.00  0.00    -0.000 C 
BRANCH  23  24
ATOM     24  C   UNL     1      40.781  46.000   5.324  1.00  0.00    -0.000 C 
BRANCH  24  25
ATOM     25  C   UNL     1      39.983  45.134   6.315  1.00  0.00    -0.000 C 
BRANCH  25  26
ATOM     26  C   UNL     1      38.653  45.781   6.737  1.00  0.00    -0.000 C 
BRANCH  26  27
ATOM     27  C   UNL     1      38.376  45.696   8.254  1.00  0.00    -0.000 C 
BRANCH  27  28
ATOM     28  C   UNL     1      39.574  45.123   9.029  1.00  0.00    -0.000 C 
BRANCH  28  29
ATOM     29  C   UNL     1      40.174  46.127  10.024  1.00  0.00    -0.003 C 
ATOM     30  C   UNL     1      39.673  45.926  11.454  1.00  0.00     0.004 C 
ENDBRANCH  28  29
ENDBRANCH  27  28
ENDBRANCH  26  27
ENDBRANCH  25  26
ENDBRANCH  24  25
ENDBRANCH  23  24
ENDBRANCH  22  23
ENDBRANCH  21  22
ENDBRANCH  20  21
ENDBRANCH  19  20
ENDBRANCH  18  19
ENDBRANCH  17  18
ENDBRANCH   1  17
TORSDOF 26
ENDMDL
MODEL 2
REMARK VINA RESULT:    -5.257      2.567      5.976
REMARK INTER + INTRA:         -17.748
REMARK INTER:                 -12.529
REMARK INTRA:                  -5.218
REMARK UNBOUND:                -4.500
REMARK SMILES CCCCCCCCCCCCCCCCCCCCCCCCCCCC(=O)[O-]
REMARK SMILES IDX 15 1 16 2 17 3 18 4 19 5 20 6 21 7 22 8 23 9 24 10 25 11
REMARK SMILES IDX 26 12 27 13 28 14 29 15 30 16 14 17 13 18 12 19 11 20 10 21
REMARK SMILES IDX 9 22 8 23 7 24 6 25 5 26 4 27 3 28 2 29 1 30
REMARK H PARENT
REMARK Flexibility Score: inf
ROOT
ATOM      1  C   UNL     1      44.496  50.958  11.026  1.00  0.00     0.000 C 
ENDROOT
BRANCH   1   2
ATOM      2  C   UNL     1      44.334  50.521   9.562  1.00  0.00     0.000 C 
BRANCH   2   3
ATOM      3  C   UNL     1      43.200  51.270   8.839  1.00  0.00     0.000 C 
BRANCH   3   4
ATOM      4  C   UNL     1      41.858  50.519   8.889  1.00  0.00     0.000 C 
BRANCH   4   5
ATOM      5  C   UNL     1      41.234  50.169   7.523  1.00  0.00     0.000 C 
BRANCH   5   6
ATOM      6  C   UNL     1      42.258  49.842   6.416  1.00  0.00     0.000 C 
BRANCH   6   7
ATOM      7  C   UNL     1      42.378  48.338   6.108  1.00  0.00     0.000 C 
BRANCH   7   8
ATOM      8  C   UNL     1      42.957  47.529   7.284  1.00  0.00     0.000 C 
BRANCH   8   9
ATOM      9  C   UNL     1      42.820  45.999   7.128  1.00  0.00     0.000 C 
BRANCH   9  10
ATOM     10  C   UNL     1      42.105  45.345   8.329  1.00  0.00     0.000 C 
BRANCH  10  11
ATOM     11  C   UNL     1      40.955  46.208   8.874  1.00  0.00     0.000 C 
BRANCH  11  12
ATOM     12  C   UNL     1      39.650  45.410   9.052  1.00  0.00     0.006 C 
BRANCH  12  13
ATOM     13  C   UNL     1      38.530  45.915   8.131  1.00  0.00     0.053 C 
BRANCH  13  14
ATOM     14  C   UNL     1      38.952  45.921   6.694  1.00  0.00     0.041 C 
ATOM     15  O   UNL     1      39.113  47.015   6.088  1.00  0.00    -0.550 OA
ATOM     16  O   UNL     1      39.133  44.721   6.015  1.00  0.00    -0.550 OA
ENDBRANCH  13  14
ENDBRANCH  12  13
ENDBRANCH  11  12
ENDBRANCH  10  11
ENDBRANCH   9  10
ENDBRANCH   8   9
ENDBRANCH   7   8
ENDBRANCH   6   7
ENDBRANCH   5   6
ENDBRANCH   4   5
ENDBRANCH   3   4
ENDBRANCH   2   3
ENDBRANCH   1   2
BRANCH   1  17
ATOM     17  C   UNL     1      45.731  50.330  11.695  1.00  0.00     0.000 C 
BRANCH  17  18
ATOM     18  C   UNL     1      47.048  50.734  11.010  1.00  0.00     0.000 C 
BRANCH  18  19
ATOM     19  C   UNL     1      47.844  49.574  10.377  1.00  0.00     0.000 C 
BRANCH  19  20
ATOM     20  C   UNL     1      47.204  48.178  10.520  1.00  0.00     0.000 C 
BRANCH  20  21
ATOM     21  C   UNL     1      46.651  47.634   9.191  1.00  0.00     0.000 C 
BRANCH  21  22
ATOM     22  C   UNL     1      45.859  46.324   9.362  1.00  0.00    -0.000 C 
BRANCH  22  23
ATOM     23  C   UNL     1      45.617  45.879  10.820  1.00  0.00    -0.000 C 
BRANCH  23  24
ATOM     24  C   UNL     1      44.157  45.970  11.300  1.00  0.00    -0.000 C 
BRANCH  24  25
ATOM     25  C   UNL     1      43.545  47.368  11.104  1.00  0.00    -0.000 C 
BRANCH  25  26
ATOM     26  C   UNL     1      42.805  47.875  12.353  1.00  0.00    -0.000 C 
BRANCH  26  27
ATOM     27  C   UNL     1      41.411  48.468  12.050  1.00  0.00    -0.000 C 
BRANCH  27  28
ATOM     28  C   UNL     1      41.275  49.914  12.558  1.00  0.00    -0.000 C 
BRANCH  28  29
ATOM     29  C   UNL     1      42.137  50.191  13.798  1.00  0.00    -0.003 C 
ATOM     30  C   UNL     1      41.396  50.978  14.879  1.00  0.00     0.004 C 
ENDBRANCH  28  29
ENDBRANCH  27  28
ENDBRANCH  26  27
ENDBRANCH  25  26
ENDBRANCH  24  25
ENDBRANCH  23  24
ENDBRANCH  22  23
ENDBRANCH  21  22
ENDBRANCH  20  21
ENDBRANCH  19  20
ENDBRANCH  18  19
ENDBRANCH  17  18
ENDBRANCH   1  17
TORSDOF 26
ENDMDL
MODEL 3
REMARK VINA RESULT:    -5.177      2.090      5.830
REMARK INTER + INTRA:         -17.544
REMARK INTER:                 -12.883
REMARK INTRA:                  -4.661
REMARK UNBOUND:                -4.500
REMARK SMILES CCCCCCCCCCCCCCCCCCCCCCCCCCCC(=O)[O-]
REMARK SMILES IDX 15 1 16 2 17 3 18 4 19 5 20 6 21 7 22 8 23 9 24 10 25 11
REMARK SMILES IDX 26 12 27 13 28 14 29 15 30 16 14 17 13 18 12 19 11 20 10 21
REMARK SMILES IDX 9 22 8 23 7 24 6 25 5 26 4 27 3 28 2 29 1 30
REMARK H PARENT
REMARK Flexibility Score: inf
ROOT
ATOM      1  C   UNL     1      47.396  50.298  10.452  1.00  0.00     0.000 C 
ENDROOT
BRANCH   1   2
ATOM      2  C   UNL     1      46.648  51.035  11.575  1.00  0.00     0.000 C 
BRANCH   2   3
ATOM      3  C   UNL     1      45.185  50.578  11.715  1.00  0.00     0.000 C 
BRANCH   3   4
ATOM      4  C   UNL     1      44.310  50.992  10.519  1.00  0.00     0.000 C 
BRANCH   4   5
ATOM      5  C   UNL     1      43.888  49.850   9.570  1.00  0.00     0.000 C 
BRANCH   5   6
ATOM      6  C   UNL     1      42.364  49.630   9.472  1.00  0.00     0.000 C 
BRANCH   6   7
ATOM      7  C   UNL     1      41.636  50.705   8.644  1.00  0.00     0.000 C 
BRANCH   7   8
ATOM      8  C   UNL     1      41.156  50.185   7.276  1.00  0.00     0.000 C 
BRANCH   8   9
ATOM      9  C   UNL     1      42.141  49.219   6.584  1.00  0.00     0.000 C 
BRANCH   9  10
ATOM     10  C   UNL     1      41.473  47.893   6.166  1.00  0.00     0.000 C 
BRANCH  10  11
ATOM     11  C   UNL     1      42.103  46.671   6.855  1.00  0.00     0.000 C 
BRANCH  11  12
ATOM     12  C   UNL     1      41.493  46.394   8.241  1.00  0.00     0.006 C 
BRANCH  12  13
ATOM     13  C   UNL     1      39.984  46.677   8.278  1.00  0.00     0.053 C 
BRANCH  13  14
ATOM     14  C   UNL     1      39.267  45.753   9.214  1.00  0.00     0.041 C 
ATOM     15  O   UNL     1      39.240  46.001  10.449  1.00  0.00    -0.550 OA
ATOM     16  O   UNL     1      38.658  44.601   8.726  1.00  0.00    -0.550 OA
ENDBRANCH  13  14
ENDBRANCH  12  13
ENDBRANCH  11  12
ENDBRANCH  10  11
ENDBRANCH   9  10
ENDBRANCH   8   9
ENDBRANCH   7   8
ENDBRANCH   6   7
ENDBRANCH   5   6
ENDBRANCH   4   5
ENDBRANCH   3   4
ENDBRANCH   2   3
ENDBRANCH   1   2
BRANCH   1  17
ATOM     17  C   UNL     1      47.442  48.776  10.676  1.00  0.00     0.000 C 
BRANCH  17  18
ATOM     18  C   UNL     1      47.007  47.979   9.434  1.00  0.00     0.000 C 
BRANCH  18  19
ATOM     19  C   UNL     1      47.138  46.447   9.557  1.00  0.00     0.000 C 
BRANCH  19  20
ATOM     20  C   UNL     1      46.222  45.627   8.627  1.00  0.00     0.000 C 
BRANCH  20  21
ATOM     21  C   UNL     1      44.797  45.464   9.181  1.00  0.00     0.000 C 
BRANCH  21  22
ATOM     22  C   UNL     1      44.747  45.457  10.720  1.00  0.00    -0.000 C 
BRANCH  22  23
ATOM     23  C   UNL     1      43.979  46.629  11.366  1.00  0.00    -0.000 C 
BRANCH  23  24
ATOM     24  C   UNL     1      42.609  46.264  11.966  1.00  0.00    -0.000 C 
BRANCH  24  25
ATOM     25  C   UNL     1      41.807  47.495  12.423  1.00  0.00    -0.000 C 
BRANCH  25  26
ATOM     26  C   UNL     1      42.677  48.542  13.141  1.00  0.00    -0.000 C 
BRANCH  26  27
ATOM     27  C   UNL     1      41.931  49.856  13.457  1.00  0.00    -0.000 C 
BRANCH  27  28
ATOM     28  C   UNL     1      40.590  49.954  12.710  1.00  0.00    -0.000 C 
BRANCH  28  29
ATOM     29  C   UNL     1      39.666  51.038  13.284  1.00  0.00    -0.003 C 
ATOM     30  C   UNL     1      39.949  51.349  14.754  1.00  0.00     0.004 C 
ENDBRANCH  28  29
ENDBRANCH  27  28
ENDBRANCH  26  27
ENDBRANCH  25  26
ENDBRANCH  24  25
ENDBRANCH  23  24
ENDBRANCH  22  23
ENDBRANCH  21  22
ENDBRANCH  20  21
ENDBRANCH  19  20
ENDBRANCH  18  19
ENDBRANCH  17  18
ENDBRANCH   1  17
TORSDOF 26
ENDMDL
MODEL 4
REMARK VINA RESULT:    -5.173      1.140      5.597
REMARK INTER + INTRA:         -17.536
REMARK INTER:                 -12.778
REMARK INTRA:                  -4.758
REMARK UNBOUND:                -4.500
REMARK SMILES CCCCCCCCCCCCCCCCCCCCCCCCCCCC(=O)[O-]
REMARK SMILES IDX 15 1 16 2 17 3 18 4 19 5 20 6 21 7 22 8 23 9 24 10 25 11
REMARK SMILES IDX 26 12 27 13 28 14 29 15 30 16 14 17 13 18 12 19 11 20 10 21
REMARK SMILES IDX 9 22 8 23 7 24 6 25 5 26 4 27 3 28 2 29 1 30
REMARK H PARENT
REMARK Flexibility Score: inf
ROOT
ATOM      1  C   UNL     1      41.253  48.616   7.122  1.00  0.00     0.000 C 
ENDROOT
BRANCH   1   2
ATOM      2  C   UNL     1      41.651  47.678   5.971  1.00  0.00     0.000 C 
BRANCH   2   3
ATOM      3  C   UNL     1      40.586  46.605   5.681  1.00  0.00     0.000 C 
BRANCH   3   4
ATOM      4  C   UNL     1      39.261  46.860   6.420  1.00  0.00     0.000 C 
BRANCH   4   5
ATOM      5  C   UNL     1      38.629  45.631   7.108  1.00  0.00     0.000 C 
BRANCH   5   6
ATOM      6  C   UNL     1      38.643  45.684   8.650  1.00  0.00     0.000 C 
BRANCH   6   7
ATOM      7  C   UNL     1      40.059  45.723   9.255  1.00  0.00     0.000 C 
BRANCH   7   8
ATOM      8  C   UNL     1      40.117  46.468  10.601  1.00  0.00     0.000 C 
BRANCH   8   9
ATOM      9  C   UNL     1      41.538  46.598  11.192  1.00  0.00     0.000 C 
BRANCH   9  10
ATOM     10  C   UNL     1      41.559  47.402  12.509  1.00  0.00     0.000 C 
BRANCH  10  11
ATOM     11  C   UNL     1      42.740  48.383  12.583  1.00  0.00     0.000 C 
BRANCH  11  12
ATOM     12  C   UNL     1      42.352  49.729  13.224  1.00  0.00     0.006 C 
BRANCH  12  13
ATOM     13  C   UNL     1      40.894  50.112  12.930  1.00  0.00     0.053 C 
BRANCH  13  14
ATOM     14  C   UNL     1      40.302  50.936  14.032  1.00  0.00     0.041 C 
ATOM     15  O   UNL     1      40.962  51.150  15.084  1.00  0.00    -0.550 OA
ATOM     16  O   UNL     1      39.011  51.438  13.911  1.00  0.00    -0.550 OA
ENDBRANCH  13  14
ENDBRANCH  12  13
ENDBRANCH  11  12
ENDBRANCH  10  11
ENDBRANCH   9  10
ENDBRANCH   8   9
ENDBRANCH   7   8
ENDBRANCH   6   7
ENDBRANCH   5   6
ENDBRANCH   4   5
ENDBRANCH   3   4
ENDBRANCH   2   3
ENDBRANCH   1   2
BRANCH   1  17
ATOM     17  C   UNL     1      42.473  49.165   7.882  1.00  0.00     0.000 C 
BRANCH  17  18
ATOM     18  C   UNL     1      42.104  49.742   9.260  1.00  0.00     0.000 C 
BRANCH  18  19
ATOM     19  C   UNL     1      43.049  50.843   9.785  1.00  0.00     0.000 C 
BRANCH  19  20
ATOM     20  C   UNL     1      43.909  51.544   8.715  1.00  0.00     0.000 C 
BRANCH  20  21
ATOM     21  C   UNL     1      45.344  51.827   9.190  1.00  0.00     0.000 C 
BRANCH  21  22
ATOM     22  C   UNL     1      45.555  51.518  10.684  1.00  0.00    -0.000 C 
BRANCH  22  23
ATOM     23  C   UNL     1      46.678  50.508  11.002  1.00  0.00    -0.000 C 
BRANCH  23  24
ATOM     24  C   UNL     1      46.290  49.026  10.854  1.00  0.00    -0.000 C 
BRANCH  24  25
ATOM     25  C   UNL     1      47.000  48.334   9.677  1.00  0.00    -0.000 C 
BRANCH  25  26
ATOM     26  C   UNL     1      46.845  46.803   9.704  1.00  0.00    -0.000 C 
BRANCH  26  27
ATOM     27  C   UNL     1      45.726  46.310  10.647  1.00  0.00    -0.000 C 
BRANCH  27  28
ATOM     28  C   UNL     1      44.752  45.354   9.938  1.00  0.00    -0.000 C 
BRANCH  28  29
ATOM     29  C   UNL     1      44.110  45.978   8.691  1.00  0.00    -0.003 C 
ATOM     30  C   UNL     1      43.371  44.960   7.823  1.00  0.00     0.004 C 
ENDBRANCH  28  29
ENDBRANCH  27  28
ENDBRANCH  26  27
ENDBRANCH  25  26
ENDBRANCH  24  25
ENDBRANCH  23  24
ENDBRANCH  22  23
ENDBRANCH  21  22
ENDBRANCH  20  21
ENDBRANCH  19  20
ENDBRANCH  18  19
ENDBRANCH  17  18
ENDBRANCH   1  17
TORSDOF 26
ENDMDL
MODEL 5
REMARK VINA RESULT:    -5.171      1.861      6.771
REMARK INTER + INTRA:         -17.530
REMARK INTER:                 -13.489
REMARK INTRA:                  -4.042
REMARK UNBOUND:                -4.500
REMARK SMILES CCCCCCCCCCCCCCCCCCCCCCCCCCCC(=O)[O-]
REMARK SMILES IDX 15 1 16 2 17 3 18 4 19 5 20 6 21 7 22 8 23 9 24 10 25 11
REMARK SMILES IDX 26 12 27 13 28 14 29 15 30 16 14 17 13 18 12 19 11 20 10 21
REMARK SMILES IDX 9 22 8 23 7 24 6 25 5 26 4 27 3 28 2 29 1 30
REMARK H PARENT
REMARK Flexibility Score: inf
ROOT
ATOM      1  C   UNL     1      42.988  46.499  11.544  1.00  0.00     0.000 C 
ENDROOT
BRANCH   1   2
ATOM      2  C   UNL     1      41.609  46.922  11.015  1.00  0.00     0.000 C 
BRANCH   2   3
ATOM      3  C   UNL     1      40.449  46.237  11.759  1.00  0.00     0.000 C 
BRANCH   3   4
ATOM      4  C   UNL     1      39.312  45.796  10.822  1.00  0.00     0.000 C 
BRANCH   4   5
ATOM      5  C   UNL     1      39.599  45.925   9.312  1.00  0.00     0.000 C 
BRANCH   5   6
ATOM      6  C   UNL     1      39.925  44.592   8.605  1.00  0.00     0.000 C 
BRANCH   6   7
ATOM      7  C   UNL     1      39.522  44.565   7.119  1.00  0.00     0.000 C 
BRANCH   7   8
ATOM      8  C   UNL     1      38.593  45.730   6.728  1.00  0.00     0.000 C 
BRANCH   8   9
ATOM      9  C   UNL     1      39.139  46.620   5.591  1.00  0.00     0.000 C 
BRANCH   9  10
ATOM     10  C   UNL     1      40.641  46.935   5.756  1.00  0.00     0.000 C 
BRANCH  10  11
ATOM     11  C   UNL     1      40.891  48.184   6.617  1.00  0.00     0.000 C 
BRANCH  11  12
ATOM     12  C   UNL     1      42.386  48.412   6.907  1.00  0.00     0.006 C 
BRANCH  12  13
ATOM     13  C   UNL     1      42.618  49.084   8.269  1.00  0.00     0.053 C 
BRANCH  13  14
ATOM     14  C   UNL     1      42.342  50.555   8.217  1.00  0.00     0.041 C 
ATOM     15  O   UNL     1      41.320  51.026   8.786  1.00  0.00    -0.550 OA
ATOM     16  O   UNL     1      43.193  51.400   7.513  1.00  0.00    -0.550 OA
ENDBRANCH  13  14
ENDBRANCH  12  13
ENDBRANCH  11  12
ENDBRANCH  10  11
ENDBRANCH   9  10
ENDBRANCH   8   9
ENDBRANCH   7   8
ENDBRANCH   6   7
ENDBRANCH   5   6
ENDBRANCH   4   5
ENDBRANCH   3   4
ENDBRANCH   2   3
ENDBRANCH   1   2
BRANCH   1  17
ATOM     17  C   UNL     1      44.011  46.282  10.415  1.00  0.00     0.000 C 
BRANCH  17  18
ATOM     18  C   UNL     1      45.346  45.713  10.923  1.00  0.00     0.000 C 
BRANCH  18  19
ATOM     19  C   UNL     1      46.609  46.418  10.386  1.00  0.00     0.000 C 
BRANCH  19  20
ATOM     20  C   UNL     1      46.409  47.243   9.099  1.00  0.00     0.000 C 
BRANCH  20  21
ATOM     21  C   UNL     1      46.690  48.743   9.299  1.00  0.00     0.000 C 
BRANCH  21  22
ATOM     22  C   UNL     1      46.940  49.116  10.772  1.00  0.00    -0.000 C 
BRANCH  22  23
ATOM     23  C   UNL     1      46.677  50.591  11.138  1.00  0.00    -0.000 C 
BRANCH  23  24
ATOM     24  C   UNL     1      45.408  50.845  11.972  1.00  0.00    -0.000 C 
BRANCH  24  25
ATOM     25  C   UNL     1      44.362  49.725  11.832  1.00  0.00    -0.000 C 
BRANCH  25  26
ATOM     26  C   UNL     1      42.916  50.251  11.862  1.00  0.00    -0.000 C 
BRANCH  26  27
ATOM     27  C   UNL     1      42.146  49.872  13.146  1.00  0.00    -0.000 C 
BRANCH  27  28
ATOM     28  C   UNL     1      40.622  49.918  12.940  1.00  0.00    -0.000 C 
BRANCH  28  29
ATOM     29  C   UNL     1      39.932  50.957  13.837  1.00  0.00    -0.003 C 
ATOM     30  C   UNL     1      40.765  51.340  15.060  1.00  0.00     0.004 C 
ENDBRANCH  28  29
ENDBRANCH  27  28
ENDBRANCH  26  27
ENDBRANCH  25  26
ENDBRANCH  24  25
ENDBRANCH  23  24
ENDBRANCH  22  23
ENDBRANCH  21  22
ENDBRANCH  20  21
ENDBRANCH  19  20
ENDBRANCH  18  19
ENDBRANCH  17  18
ENDBRANCH   1  17
TORSDOF 26
ENDMDL
MODEL 6
REMARK VINA RESULT:    -5.168      2.880      5.927
REMARK INTER + INTRA:         -17.524
REMARK INTER:                 -12.060
REMARK INTRA:                  -5.464
REMARK UNBOUND:                -4.500
REMARK SMILES CCCCCCCCCCCCCCCCCCCCCCCCCCCC(=O)[O-]
REMARK SMILES IDX 15 1 16 2 17 3 18 4 19 5 20 6 21 7 22 8 23 9 24 10 25 11
REMARK SMILES IDX 26 12 27 13 28 14 29 15 30 16 14 17 13 18 12 19 11 20 10 21
REMARK SMILES IDX 9 22 8 23 7 24 6 25 5 26 4 27 3 28 2 29 1 30
REMARK H PARENT
REMARK Flexibility Score: inf
ROOT
ATOM      1  C   UNL     1      41.246  46.260  11.558  1.00  0.00     0.000 C 
ENDROOT
BRANCH   1   2
ATOM      2  C   UNL     1      41.322  47.705  12.074  1.00  0.00     0.000 C 
BRANCH   2   3
ATOM      3  C   UNL     1      42.675  48.034  12.729  1.00  0.00     0.000 C 
BRANCH   3   4
ATOM      4  C   UNL     1      43.716  48.559  11.726  1.00  0.00     0.000 C 
BRANCH   4   5
ATOM      5  C   UNL     1      43.991  50.077  11.777  1.00  0.00     0.000 C 
BRANCH   5   6
ATOM      6  C   UNL     1      43.403  50.874  10.594  1.00  0.00     0.000 C 
BRANCH   6   7
ATOM      7  C   UNL     1      44.371  51.023   9.406  1.00  0.00     0.000 C 
BRANCH   7   8
ATOM      8  C   UNL     1      45.801  51.397   9.840  1.00  0.00     0.000 C 
BRANCH   8   9
ATOM      9  C   UNL     1      46.899  50.481   9.260  1.00  0.00     0.000 C 
BRANCH   9  10
ATOM     10  C   UNL     1      47.748  49.807  10.358  1.00  0.00     0.000 C 
BRANCH  10  11
ATOM     11  C   UNL     1      47.259  48.389  10.695  1.00  0.00     0.000 C 
BRANCH  11  12
ATOM     12  C   UNL     1      46.589  47.693   9.496  1.00  0.00     0.006 C 
BRANCH  12  13
ATOM     13  C   UNL     1      47.109  46.262   9.290  1.00  0.00     0.053 C 
BRANCH  13  14
ATOM     14  C   UNL     1      46.030  45.244   9.493  1.00  0.00     0.041 C 
ATOM     15  O   UNL     1      45.821  44.362   8.618  1.00  0.00    -0.550 OA
ATOM     16  O   UNL     1      45.234  45.290  10.633  1.00  0.00    -0.550 OA
ENDBRANCH  13  14
ENDBRANCH  12  13
ENDBRANCH  11  12
ENDBRANCH  10  11
ENDBRANCH   9  10
ENDBRANCH   8   9
ENDBRANCH   7   8
ENDBRANCH   6   7
ENDBRANCH   5   6
ENDBRANCH   4   5
ENDBRANCH   3   4
ENDBRANCH   2   3
ENDBRANCH   1   2
BRANCH   1  17
ATOM     17  C   UNL     1      39.799  45.794  11.322  1.00  0.00     0.000 C 
BRANCH  17  18
ATOM     18  C   UNL     1      39.270  46.179   9.930  1.00  0.00     0.000 C 
BRANCH  18  19
ATOM     19  C   UNL     1      38.579  45.040   9.151  1.00  0.00     0.000 C 
BRANCH  19  20
ATOM     20  C   UNL     1      39.237  44.661   7.810  1.00  0.00     0.000 C 
BRANCH  20  21
ATOM     21  C   UNL     1      38.627  45.408   6.611  1.00  0.00     0.000 C 
BRANCH  21  22
ATOM     22  C   UNL     1      39.329  46.747   6.318  1.00  0.00    -0.000 C 
BRANCH  22  23
ATOM     23  C   UNL     1      40.191  46.780   5.039  1.00  0.00    -0.000 C 
BRANCH  23  24
ATOM     24  C   UNL     1      41.288  45.702   4.960  1.00  0.00    -0.000 C 
BRANCH  24  25
ATOM     25  C   UNL     1      42.587  46.112   5.676  1.00  0.00    -0.000 C 
BRANCH  25  26
ATOM     26  C   UNL     1      42.882  45.250   6.916  1.00  0.00    -0.000 C 
BRANCH  26  27
ATOM     27  C   UNL     1      42.652  45.988   8.253  1.00  0.00    -0.000 C 
BRANCH  27  28
ATOM     28  C   UNL     1      43.036  47.475   8.166  1.00  0.00    -0.000 C 
BRANCH  28  29
ATOM     29  C   UNL     1      41.848  48.413   8.427  1.00  0.00    -0.003 C 
ATOM     30  C   UNL     1      41.667  49.469   7.338  1.00  0.00     0.004 C 
ENDBRANCH  28  29
ENDBRANCH  27  28
ENDBRANCH  26  27
ENDBRANCH  25  26
ENDBRANCH  24  25
ENDBRANCH  23  24
ENDBRANCH  22  23
ENDBRANCH  21  22
ENDBRANCH  20  21
ENDBRANCH  19  20
ENDBRANCH  18  19
ENDBRANCH  17  18
ENDBRANCH   1  17
TORSDOF 26
ENDMDL
MODEL 7
REMARK VINA RESULT:    -5.163      1.682      5.181
REMARK INTER + INTRA:         -17.510
REMARK INTER:                 -12.345
REMARK INTRA:                  -5.165
REMARK UNBOUND:                -4.500
REMARK SMILES CCCCCCCCCCCCCCCCCCCCCCCCCCCC(=O)[O-]
REMARK SMILES IDX 15 1 16 2 17 3 18 4 19 5 20 6 21 7 22 8 23 9 24 10 25 11
REMARK SMILES IDX 26 12 27 13 28 14 29 15 30 16 14 17 13 18 12 19 11 20 10 21
REMARK SMILES IDX 9 22 8 23 7 24 6 25 5 26 4 27 3 28 2 29 1 30
REMARK H PARENT
REMARK Flexibility Score: inf
ROOT
ATOM      1  C   UNL     1      43.275  49.959   9.003  1.00  0.00     0.000 C 
ENDROOT
BRANCH   1   2
ATOM      2  C   UNL     1      42.004  50.779   8.740  1.00  0.00     0.000 C 
BRANCH   2   3
ATOM      3  C   UNL     1      41.277  50.354   7.451  1.00  0.00     0.000 C 
BRANCH   3   4
ATOM      4  C   UNL     1      41.931  49.144   6.764  1.00  0.00     0.000 C 
BRANCH   4   5
ATOM      5  C   UNL     1      41.021  47.915   6.560  1.00  0.00     0.000 C 
BRANCH   5   6
ATOM      6  C   UNL     1      40.482  47.293   7.866  1.00  0.00     0.000 C 
BRANCH   6   7
ATOM      7  C   UNL     1      39.486  46.141   7.638  1.00  0.00     0.000 C 
BRANCH   7   8
ATOM      8  C   UNL     1      39.420  45.160   8.823  1.00  0.00     0.000 C 
BRANCH   8   9
ATOM      9  C   UNL     1      38.961  45.801  10.151  1.00  0.00     0.000 C 
BRANCH   9  10
ATOM     10  C   UNL     1      40.004  45.640  11.277  1.00  0.00     0.000 C 
BRANCH  10  11
ATOM     11  C   UNL     1      40.246  46.947  12.049  1.00  0.00     0.000 C 
BRANCH  11  12
ATOM     12  C   UNL     1      41.369  47.800  11.430  1.00  0.00     0.006 C 
BRANCH  12  13
ATOM     13  C   UNL     1      42.323  48.364  12.493  1.00  0.00     0.053 C 
BRANCH  13  14
ATOM     14  C   UNL     1      41.868  49.697  13.000  1.00  0.00     0.041 C 
ATOM     15  O   UNL     1      42.438  50.224  13.993  1.00  0.00    -0.550 OA
ATOM     16  O   UNL     1      40.792  50.341  12.398  1.00  0.00    -0.550 OA
ENDBRANCH  13  14
ENDBRANCH  12  13
ENDBRANCH  11  12
ENDBRANCH  10  11
ENDBRANCH   9  10
ENDBRANCH   8   9
ENDBRANCH   7   8
ENDBRANCH   6   7
ENDBRANCH   5   6
ENDBRANCH   4   5
ENDBRANCH   3   4
ENDBRANCH   2   3
ENDBRANCH   1   2
BRANCH   1  17
ATOM     17  C   UNL     1      44.462  50.836   9.439  1.00  0.00     0.000 C 
BRANCH  17  18
ATOM     18  C   UNL     1      44.581  50.959  10.968  1.00  0.00     0.000 C 
BRANCH  18  19
ATOM     19  C   UNL     1      45.709  50.122  11.608  1.00  0.00     0.000 C 
BRANCH  19  20
ATOM     20  C   UNL     1      46.942  49.881  10.716  1.00  0.00     0.000 C 
BRANCH  20  21
ATOM     21  C   UNL     1      47.257  48.388  10.519  1.00  0.00     0.000 C 
BRANCH  21  22
ATOM     22  C   UNL     1      46.046  47.581  10.012  1.00  0.00    -0.000 C 
BRANCH  22  23
ATOM     23  C   UNL     1      45.683  46.334  10.846  1.00  0.00    -0.000 C 
BRANCH  23  24
ATOM     24  C   UNL     1      44.337  45.677  10.492  1.00  0.00    -0.000 C 
BRANCH  24  25
ATOM     25  C   UNL     1      43.742  46.198   9.172  1.00  0.00    -0.000 C 
BRANCH  25  26
ATOM     26  C   UNL     1      43.570  45.092   8.117  1.00  0.00    -0.000 C 
BRANCH  26  27
ATOM     27  C   UNL     1      44.752  44.988   7.128  1.00  0.00    -0.000 C 
BRANCH  27  28
ATOM     28  C   UNL     1      45.527  43.670   7.291  1.00  0.00    -0.000 C 
BRANCH  28  29
ATOM     29  C   UNL     1      46.713  43.793   8.259  1.00  0.00    -0.003 C 
ATOM     30  C   UNL     1      47.629  44.974   7.937  1.00  0.00     0.004 C 
ENDBRANCH  28  29
ENDBRANCH  27  28
ENDBRANCH  26  27
ENDBRANCH  25  26
ENDBRANCH  24  25
ENDBRANCH  23  24
ENDBRANCH  22  23
ENDBRANCH  21  22
ENDBRANCH  20  21
ENDBRANCH  19  20
ENDBRANCH  18  19
ENDBRANCH  17  18
ENDBRANCH   1  17
TORSDOF 26
ENDMDL
MODEL 8
REMARK VINA RESULT:    -5.088      2.059      6.857
REMARK INTER + INTRA:         -17.320
REMARK INTER:                 -11.913
REMARK INTRA:                  -5.407
REMARK UNBOUND:                -4.500
REMARK SMILES CCCCCCCCCCCCCCCCCCCCCCCCCCCC(=O)[O-]
REMARK SMILES IDX 15 1 16 2 17 3 18 4 19 5 20 6 21 7 22 8 23 9 24 10 25 11
REMARK SMILES IDX 26 12 27 13 28 14 29 15 30 16 14 17 13 18 12 19 11 20 10 21
REMARK SMILES IDX 9 22 8 23 7 24 6 25 5 26 4 27 3 28 2 29 1 30
REMARK H PARENT
REMARK Flexibility Score: inf
ROOT
ATOM      1  C   UNL     1      40.242  46.099   9.400  1.00  0.00     0.000 C 
ENDROOT
BRANCH   1   2
ATOM      2  C   UNL     1      38.897  45.814   8.715  1.00  0.00     0.000 C 
BRANCH   2   3
ATOM      3  C   UNL     1      39.042  44.937   7.458  1.00  0.00     0.000 C 
BRANCH   3   4
ATOM      4  C   UNL     1      38.535  45.629   6.181  1.00  0.00     0.000 C 
BRANCH   4   5
ATOM      5  C   UNL     1      39.235  46.953   5.813  1.00  0.00     0.000 C 
BRANCH   5   6
ATOM      6  C   UNL     1      40.714  46.802   5.397  1.00  0.00     0.000 C 
BRANCH   6   7
ATOM      7  C   UNL     1      41.566  48.055   5.675  1.00  0.00     0.000 C 
BRANCH   7   8
ATOM      8  C   UNL     1      41.175  48.768   6.983  1.00  0.00     0.000 C 
BRANCH   8   9
ATOM      9  C   UNL     1      42.114  49.929   7.375  1.00  0.00     0.000 C 
BRANCH   9  10
ATOM     10  C   UNL     1      42.884  49.651   8.682  1.00  0.00     0.000 C 
BRANCH  10  11
ATOM     11  C   UNL     1      41.985  49.733   9.927  1.00  0.00     0.000 C 
BRANCH  11  12
ATOM     12  C   UNL     1      42.793  49.815  11.235  1.00  0.00     0.006 C 
BRANCH  12  13
ATOM     13  C   UNL     1      43.391  48.458  11.635  1.00  0.00     0.053 C 
BRANCH  13  14
ATOM     14  C   UNL     1      42.566  47.772  12.679  1.00  0.00     0.041 C 
ATOM     15  O   UNL     1      43.060  47.525  13.812  1.00  0.00    -0.550 OA
ATOM     16  O   UNL     1      41.265  47.375  12.390  1.00  0.00    -0.550 OA
ENDBRANCH  13  14
ENDBRANCH  12  13
ENDBRANCH  11  12
ENDBRANCH  10  11
ENDBRANCH   9  10
ENDBRANCH   8   9
ENDBRANCH   7   8
ENDBRANCH   6   7
ENDBRANCH   5   6
ENDBRANCH   4   5
ENDBRANCH   3   4
ENDBRANCH   2   3
ENDBRANCH   1   2
BRANCH   1  17
ATOM     17  C   UNL     1      41.414  45.362   8.726  1.00  0.00     0.000 C 
BRANCH  17  18
ATOM     18  C   UNL     1      42.765  46.064   8.949  1.00  0.00     0.000 C 
BRANCH  18  19
ATOM     19  C   UNL     1      43.730  46.029   7.746  1.00  0.00     0.000 C 
BRANCH  19  20
ATOM     20  C   UNL     1      44.231  44.628   7.340  1.00  0.00     0.000 C 
BRANCH  20  21
ATOM     21  C   UNL     1      45.728  44.607   6.986  1.00  0.00     0.000 C 
BRANCH  21  22
ATOM     22  C   UNL     1      46.574  43.814   8.000  1.00  0.00    -0.000 C 
BRANCH  22  23
ATOM     23  C   UNL     1      47.269  44.657   9.088  1.00  0.00    -0.000 C 
BRANCH  23  24
ATOM     24  C   UNL     1      46.371  45.081  10.264  1.00  0.00    -0.000 C 
BRANCH  24  25
ATOM     25  C   UNL     1      46.397  46.598  10.523  1.00  0.00    -0.000 C 
BRANCH  25  26
ATOM     26  C   UNL     1      46.713  47.414   9.258  1.00  0.00    -0.000 C 
BRANCH  26  27
ATOM     27  C   UNL     1      46.514  48.935   9.436  1.00  0.00    -0.000 C 
BRANCH  27  28
ATOM     28  C   UNL     1      47.276  49.479  10.657  1.00  0.00    -0.000 C 
BRANCH  28  29
ATOM     29  C   UNL     1      46.596  50.704  11.284  1.00  0.00    -0.003 C 
ATOM     30  C   UNL     1      45.903  51.598  10.256  1.00  0.00     0.004 C 
ENDBRANCH  28  29
ENDBRANCH  27  28
ENDBRANCH  26  27
ENDBRANCH  25  26
ENDBRANCH  24  25
ENDBRANCH  23  24
ENDBRANCH  22  23
ENDBRANCH  21  22
ENDBRANCH  20  21
ENDBRANCH  19  20
ENDBRANCH  18  19
ENDBRANCH  17  18
ENDBRANCH   1  17
TORSDOF 26
ENDMDL
MODEL 9
REMARK VINA RESULT:    -5.083      1.301      2.300
REMARK INTER + INTRA:         -17.308
REMARK INTER:                 -12.120
REMARK INTRA:                  -5.188
REMARK UNBOUND:                -4.500
REMARK SMILES CCCCCCCCCCCCCCCCCCCCCCCCCCCC(=O)[O-]
REMARK SMILES IDX 15 1 16 2 17 3 18 4 19 5 20 6 21 7 22 8 23 9 24 10 25 11
REMARK SMILES IDX 26 12 27 13 28 14 29 15 30 16 14 17 13 18 12 19 11 20 10 21
REMARK SMILES IDX 9 22 8 23 7 24 6 25 5 26 4 27 3 28 2 29 1 30
REMARK H PARENT
REMARK Flexibility Score: inf
ROOT
ATOM      1  C   UNL     1      47.230  48.051  10.240  1.00  0.00     0.000 C 
ENDROOT
BRANCH   1   2
ATOM      2  C   UNL     1      46.626  46.835  10.958  1.00  0.00     0.000 C 
BRANCH   2   3
ATOM      3  C   UNL     1      46.841  45.520  10.186  1.00  0.00     0.000 C 
BRANCH   3   4
ATOM      4  C   UNL     1      47.267  45.745   8.725  1.00  0.00     0.000 C 
BRANCH   4   5
ATOM      5  C   UNL     1      46.382  45.068   7.657  1.00  0.00     0.000 C 
BRANCH   5   6
ATOM      6  C   UNL     1      44.909  44.875   8.075  1.00  0.00     0.000 C 
BRANCH   6   7
ATOM      7  C   UNL     1      44.137  46.197   8.245  1.00  0.00     0.000 C 
BRANCH   7   8
ATOM      8  C   UNL     1      42.933  46.070   9.197  1.00  0.00     0.000 C 
BRANCH   8   9
ATOM      9  C   UNL     1      42.756  47.268  10.156  1.00  0.00     0.000 C 
BRANCH   9  10
ATOM     10  C   UNL     1      43.002  46.886  11.630  1.00  0.00     0.000 C 
BRANCH  10  11
ATOM     11  C   UNL     1      42.678  48.035  12.599  1.00  0.00     0.000 C 
BRANCH  11  12
ATOM     12  C   UNL     1      41.222  48.520  12.475  1.00  0.00     0.006 C 
BRANCH  12  13
ATOM     13  C   UNL     1      41.118  50.053  12.481  1.00  0.00     0.053 C 
BRANCH  13  14
ATOM     14  C   UNL     1      40.843  50.587  13.853  1.00  0.00     0.041 C 
ATOM     15  O   UNL     1      39.715  51.081  14.123  1.00  0.00    -0.550 OA
ATOM     16  O   UNL     1      41.840  50.569  14.821  1.00  0.00    -0.550 OA
ENDBRANCH  13  14
ENDBRANCH  12  13
ENDBRANCH  11  12
ENDBRANCH  10  11
ENDBRANCH   9  10
ENDBRANCH   8   9
ENDBRANCH   7   8
ENDBRANCH   6   7
ENDBRANCH   5   6
ENDBRANCH   4   5
ENDBRANCH   3   4
ENDBRANCH   2   3
ENDBRANCH   1   2
BRANCH   1  17
ATOM     17  C   UNL     1      46.160  49.063   9.793  1.00  0.00     0.000 C 
BRANCH  17  18
ATOM     18  C   UNL     1      45.451  49.741  10.978  1.00  0.00     0.000 C 
BRANCH  18  19
ATOM     19  C   UNL     1      44.355  50.757  10.594  1.00  0.00     0.000 C 
BRANCH  19  20
ATOM     20  C   UNL     1      43.782  50.607   9.171  1.00  0.00     0.000 C 
BRANCH  20  21
ATOM     21  C   UNL     1      42.250  50.738   9.125  1.00  0.00     0.000 C 
BRANCH  21  22
ATOM     22  C   UNL     1      41.647  50.271   7.787  1.00  0.00    -0.000 C 
BRANCH  22  23
ATOM     23  C   UNL     1      42.503  49.267   6.987  1.00  0.00    -0.000 C 
BRANCH  23  24
ATOM     24  C   UNL     1      41.784  48.583   5.810  1.00  0.00    -0.000 C 
BRANCH  24  25
ATOM     25  C   UNL     1      41.213  47.201   6.175  1.00  0.00    -0.000 C 
BRANCH  25  26
ATOM     26  C   UNL     1      39.755  47.268   6.664  1.00  0.00    -0.000 C 
BRANCH  26  27
ATOM     27  C   UNL     1      39.176  45.897   7.076  1.00  0.00    -0.000 C 
BRANCH  27  28
ATOM     28  C   UNL     1      38.566  45.929   8.488  1.00  0.00    -0.000 C 
BRANCH  28  29
ATOM     29  C   UNL     1      39.444  45.224   9.531  1.00  0.00    -0.003 C 
ATOM     30  C   UNL     1      39.342  45.850  10.922  1.00  0.00     0.004 C 
ENDBRANCH  28  29
ENDBRANCH  27  28
ENDBRANCH  26  27
ENDBRANCH  25  26
ENDBRANCH  24  25
ENDBRANCH  23  24
ENDBRANCH  22  23
ENDBRANCH  21  22
ENDBRANCH  20  21
ENDBRANCH  19  20
ENDBRANCH  18  19
ENDBRANCH  17  18
ENDBRANCH   1  17
TORSDOF 26
ENDMDL
