MODEL 1
REMARK VINA RESULT:    -4.339      0.000      0.000
REMARK INTER + INTRA:          -6.722
REMARK INTER:                  -6.622
REMARK INTRA:                  -0.101
REMARK UNBOUND:                -0.101
REMARK SMILES CC1=CCC[C@H](C)C(=O)C[C@H](C(C)C)C(=O)C1
REMARK SMILES IDX 8 1 9 2 6 3 7 4 5 5 4 6 3 7 2 8 1 9 10 11 11 12 15 13 16 14
REMARK SMILES IDX 17 15 12 17 13 18 14 19
REMARK H PARENT
REMARK Flexibility Score: 70.00
ROOT
ATOM      1  C   UNL     1     -12.233 -15.490  29.143  1.00  0.00     0.136 C 
ATOM      2  O   UNL     1     -13.078 -14.831  28.553  1.00  0.00    -0.299 OA
ENDROOT
BRANCH   1   3
ATOM      3  C   UNL     1     -11.194 -16.269  28.355  1.00  0.00     0.053 C 
ATOM      4  C   UNL     1      -9.899 -16.481  29.153  1.00  0.00     0.016 C 
BRANCH   3   5
ATOM      5  C   UNL     1     -11.735 -17.595  27.766  1.00  0.00     0.015 C 
BRANCH   5   6
ATOM      6  C   UNL     1     -12.982 -18.232  28.419  1.00  0.00     0.028 C 
BRANCH   6   7
ATOM      7  C   UNL     1     -12.777 -19.481  29.244  1.00  0.00    -0.028 C 
ATOM      8  C   UNL     1     -12.475 -19.541  30.563  1.00  0.00    -0.070 CG0
ATOM      9  C   UNL     1     -12.499 -20.896  31.227  1.00  0.00     0.039 C 
ATOM     10  G   UNL     1     -12.045 -18.345  31.390  1.00  0.00     0.000 G0
ENDBRANCH   6   7
ENDBRANCH   5   6
ENDBRANCH   3   5
ENDBRANCH   1   3
BRANCH   1  11
ATOM     11  C   UNL     1     -12.274 -15.524  30.658  1.00  0.00     0.087 C 
BRANCH  11  12
ATOM     12  C   UNL     1     -13.554 -16.193  31.224  1.00  0.00     0.066 C 
BRANCH  12  13
ATOM     13  C   UNL     1     -13.243 -17.544  31.847  1.00  0.00     0.140 C 
ATOM     14  O   UNL     1     -13.949 -17.971  32.751  1.00  0.00    -0.299 OA
BRANCH  13  15
ATOM     15  C   UNL     1     -12.046 -18.359  31.408  1.00  0.00     0.106 CG0
ATOM     16  G   UNL     1     -12.501 -19.552  30.590  1.00  0.00     0.000 G0
ENDBRANCH  13  15
ENDBRANCH  12  13
BRANCH  12  17
ATOM     17  C   UNL     1     -14.375 -15.279  32.193  1.00  0.00    -0.006 C 
ATOM     18  C   UNL     1     -13.578 -14.747  33.399  1.00  0.00     0.008 C 
ATOM     19  C   UNL     1     -15.014 -14.099  31.442  1.00  0.00     0.008 C 
ENDBRANCH  12  17
ENDBRANCH  11  12
ENDBRANCH   1  11
TORSDOF 1
ENDMDL
MODEL 2
REMARK VINA RESULT:    -4.311      1.704      2.133
REMARK INTER + INTRA:          -6.680
REMARK INTER:                  -6.543
REMARK INTRA:                  -0.137
REMARK UNBOUND:                -0.101
REMARK SMILES CC1=CCC[C@H](C)C(=O)C[C@H](C(C)C)C(=O)C1
REMARK SMILES IDX 8 1 9 2 6 3 7 4 5 5 4 6 3 7 2 8 1 9 10 11 11 12 15 13 16 14
REMARK SMILES IDX 17 15 12 17 13 18 14 19
REMARK H PARENT
REMARK Flexibility Score: 70.00
ROOT
ATOM      1  C   UNL     1     -11.146 -15.522  29.427  1.00  0.00     0.136 C 
ATOM      2  O   UNL     1     -10.258 -15.259  28.627  1.00  0.00    -0.299 OA
ENDROOT
BRANCH   1   3
ATOM      3  C   UNL     1     -12.569 -15.731  28.936  1.00  0.00     0.053 C 
ATOM      4  C   UNL     1     -13.297 -14.403  28.682  1.00  0.00     0.016 C 
BRANCH   3   5
ATOM      5  C   UNL     1     -12.666 -16.687  27.721  1.00  0.00     0.015 C 
BRANCH   5   6
ATOM      6  C   UNL     1     -12.033 -18.091  27.840  1.00  0.00     0.028 C 
BRANCH   6   7
ATOM      7  C   UNL     1     -12.612 -19.032  28.870  1.00  0.00    -0.028 C 
ATOM      8  C   UNL     1     -12.097 -19.316  30.091  1.00  0.00    -0.070 CG0
ATOM      9  C   UNL     1     -12.939 -20.143  31.031  1.00  0.00     0.039 C 
ATOM     10  G   UNL     1     -10.704 -18.917  30.537  1.00  0.00     0.000 G0
ENDBRANCH   6   7
ENDBRANCH   5   6
ENDBRANCH   3   5
ENDBRANCH   1   3
BRANCH   1  11
ATOM     11  C   UNL     1     -10.791 -15.604  30.898  1.00  0.00     0.087 C 
BRANCH  11  12
ATOM     12  C   UNL     1     -11.578 -16.703  31.660  1.00  0.00     0.066 C 
BRANCH  12  13
ATOM     13  C   UNL     1     -10.793 -18.003  31.725  1.00  0.00     0.140 C 
ATOM     14  O   UNL     1     -10.183 -18.291  32.744  1.00  0.00    -0.299 OA
BRANCH  13  15
ATOM     15  C   UNL     1     -10.708 -18.932  30.533  1.00  0.00     0.106 CG0
ATOM     16  G   UNL     1     -12.101 -19.323  30.078  1.00  0.00     0.000 G0
ENDBRANCH  13  15
ENDBRANCH  12  13
BRANCH  12  17
ATOM     17  C   UNL     1     -12.088 -16.258  33.071  1.00  0.00    -0.006 C 
ATOM     18  C   UNL     1     -11.117 -15.345  33.842  1.00  0.00     0.008 C 
ATOM     19  C   UNL     1     -13.465 -15.580  32.981  1.00  0.00     0.008 C 
ENDBRANCH  12  17
ENDBRANCH  11  12
ENDBRANCH   1  11
TORSDOF 1
ENDMDL
MODEL 3
REMARK VINA RESULT:    -4.181      0.960      1.645
REMARK INTER + INTRA:          -6.482
REMARK INTER:                  -7.125
REMARK INTRA:                   0.642
REMARK UNBOUND:                -0.101
REMARK SMILES CC1=CCC[C@H](C)C(=O)C[C@H](C(C)C)C(=O)C1
REMARK SMILES IDX 8 1 9 2 6 3 7 4 5 5 4 6 3 7 2 8 1 9 10 11 11 12 15 13 16 14
REMARK SMILES IDX 17 15 12 17 13 18 14 19
REMARK H PARENT
REMARK Flexibility Score: 70.00
ROOT
ATOM      1  C   UNL     1     -12.892 -15.573  28.832  1.00  0.00     0.136 C 
ATOM      2  O   UNL     1     -13.641 -14.713  28.390  1.00  0.00    -0.299 OA
ENDROOT
BRANCH   1   3
ATOM      3  C   UNL     1     -12.411 -16.696  27.928  1.00  0.00     0.053 C 
ATOM      4  C   UNL     1     -12.909 -16.533  26.485  1.00  0.00     0.016 C 
BRANCH   3   5
ATOM      5  C   UNL     1     -10.879 -16.922  27.991  1.00  0.00     0.015 C 
BRANCH   5   6
ATOM      6  C   UNL     1     -10.281 -17.531  29.278  1.00  0.00     0.028 C 
BRANCH   6   7
ATOM      7  C   UNL     1     -10.946 -18.765  29.842  1.00  0.00    -0.028 C 
ATOM      8  C   UNL     1     -11.699 -18.839  30.966  1.00  0.00    -0.070 CG0
ATOM      9  C   UNL     1     -12.421 -20.135  31.242  1.00  0.00     0.039 C 
ATOM     10  G   UNL     1     -11.797 -17.729  31.995  1.00  0.00     0.000 G0
ENDBRANCH   6   7
ENDBRANCH   5   6
ENDBRANCH   3   5
ENDBRANCH   1   3
BRANCH   1  11
ATOM     11  C   UNL     1     -12.489 -15.498  30.292  1.00  0.00     0.087 C 
BRANCH  11  12
ATOM     12  C   UNL     1     -13.615 -15.939  31.264  1.00  0.00     0.066 C 
BRANCH  12  13
ATOM     13  C   UNL     1     -13.221 -17.187  32.039  1.00  0.00     0.140 C 
ATOM     14  O   UNL     1     -14.047 -17.746  32.745  1.00  0.00    -0.299 OA
BRANCH  13  15
ATOM     15  C   UNL     1     -11.809 -17.729  31.995  1.00  0.00     0.106 CG0
ATOM     16  G   UNL     1     -11.711 -18.844  30.971  1.00  0.00     0.000 G0
ENDBRANCH  13  15
ENDBRANCH  12  13
BRANCH  12  17
ATOM     17  C   UNL     1     -14.120 -14.800  32.210  1.00  0.00    -0.006 C 
ATOM     18  C   UNL     1     -15.650 -14.737  32.374  1.00  0.00     0.008 C 
ATOM     19  C   UNL     1     -13.461 -14.889  33.597  1.00  0.00     0.008 C 
ENDBRANCH  12  17
ENDBRANCH  11  12
ENDBRANCH   1  11
TORSDOF 1
ENDMDL
MODEL 4
REMARK VINA RESULT:    -3.981      1.804      3.942
REMARK INTER + INTRA:          -6.177
REMARK INTER:                  -6.378
REMARK INTRA:                   0.201
REMARK UNBOUND:                -0.101
REMARK SMILES CC1=CCC[C@H](C)C(=O)C[C@H](C(C)C)C(=O)C1
REMARK SMILES IDX 8 1 9 2 6 3 7 4 5 5 4 6 3 7 2 8 1 9 10 11 11 12 15 13 16 14
REMARK SMILES IDX 17 15 12 17 13 18 14 19
REMARK H PARENT
REMARK Flexibility Score: 70.00
ROOT
ATOM      1  C   UNL     1     -12.270 -17.133  28.104  1.00  0.00     0.136 C 
ATOM      2  O   UNL     1     -11.751 -17.920  27.325  1.00  0.00    -0.299 OA
ENDROOT
BRANCH   1   3
ATOM      3  C   UNL     1     -11.799 -15.688  28.146  1.00  0.00     0.053 C 
ATOM      4  C   UNL     1     -12.884 -14.740  28.678  1.00  0.00     0.016 C 
BRANCH   3   5
ATOM      5  C   UNL     1     -10.452 -15.502  28.888  1.00  0.00     0.015 C 
BRANCH   5   6
ATOM      6  C   UNL     1     -10.058 -16.539  29.963  1.00  0.00     0.028 C 
BRANCH   6   7
ATOM      7  C   UNL     1     -10.113 -16.103  31.408  1.00  0.00    -0.028 C 
ATOM      8  C   UNL     1     -11.217 -16.028  32.192  1.00  0.00    -0.070 CG0
ATOM      9  C   UNL     1     -11.016 -15.744  33.660  1.00  0.00     0.039 C 
ATOM     10  G   UNL     1     -12.636 -16.138  31.670  1.00  0.00     0.000 G0
ENDBRANCH   6   7
ENDBRANCH   5   6
ENDBRANCH   3   5
ENDBRANCH   1   3
BRANCH   1  11
ATOM     11  C   UNL     1     -13.360 -17.642  29.026  1.00  0.00     0.087 C 
BRANCH  11  12
ATOM     12  C   UNL     1     -12.812 -18.363  30.286  1.00  0.00     0.066 C 
BRANCH  12  13
ATOM     13  C   UNL     1     -13.088 -17.561  31.547  1.00  0.00     0.140 C 
ATOM     14  O   UNL     1     -13.722 -18.069  32.461  1.00  0.00    -0.299 OA
BRANCH  13  15
ATOM     15  C   UNL     1     -12.638 -16.122  31.682  1.00  0.00     0.106 CG0
ATOM     16  G   UNL     1     -11.219 -16.070  32.214  1.00  0.00     0.000 G0
ENDBRANCH  13  15
ENDBRANCH  12  13
BRANCH  12  17
ATOM     17  C   UNL     1     -13.283 -19.849  30.424  1.00  0.00    -0.006 C 
ATOM     18  C   UNL     1     -13.565 -20.557  29.087  1.00  0.00     0.008 C 
ATOM     19  C   UNL     1     -12.281 -20.680  31.242  1.00  0.00     0.008 C 
ENDBRANCH  12  17
ENDBRANCH  11  12
ENDBRANCH   1  11
TORSDOF 1
ENDMDL
MODEL 5
REMARK VINA RESULT:    -3.912      1.760      4.903
REMARK INTER + INTRA:          -6.071
REMARK INTER:                  -6.287
REMARK INTRA:                   0.216
REMARK UNBOUND:                -0.101
REMARK SMILES CC1=CCC[C@H](C)C(=O)C[C@H](C(C)C)C(=O)C1
REMARK SMILES IDX 8 1 9 2 6 3 7 4 5 5 4 6 3 7 2 8 1 9 10 11 11 12 15 13 16 14
REMARK SMILES IDX 17 15 12 17 13 18 14 19
REMARK H PARENT
REMARK Flexibility Score: 70.00
ROOT
ATOM      1  C   UNL     1     -13.416 -17.133  32.607  1.00  0.00     0.136 C 
ATOM      2  O   UNL     1     -14.562 -17.334  32.986  1.00  0.00    -0.299 OA
ENDROOT
BRANCH   1   3
ATOM      3  C   UNL     1     -12.797 -15.754  32.767  1.00  0.00     0.053 C 
ATOM      4  C   UNL     1     -13.785 -14.739  33.361  1.00  0.00     0.016 C 
BRANCH   3   5
ATOM      5  C   UNL     1     -11.451 -15.769  33.534  1.00  0.00     0.015 C 
BRANCH   5   6
ATOM      6  C   UNL     1     -10.172 -16.158  32.760  1.00  0.00     0.028 C 
BRANCH   6   7
ATOM      7  C   UNL     1      -9.882 -15.420  31.475  1.00  0.00    -0.028 C 
ATOM      8  C   UNL     1     -10.143 -15.848  30.216  1.00  0.00    -0.070 CG0
ATOM      9  C   UNL     1      -9.940 -14.870  29.086  1.00  0.00     0.039 C 
ATOM     10  G   UNL     1     -10.555 -17.267  29.871  1.00  0.00     0.000 G0
ENDBRANCH   6   7
ENDBRANCH   5   6
ENDBRANCH   3   5
ENDBRANCH   1   3
BRANCH   1  11
ATOM     11  C   UNL     1     -12.658 -18.276  31.962  1.00  0.00     0.087 C 
BRANCH  11  12
ATOM     12  C   UNL     1     -12.897 -18.386  30.432  1.00  0.00     0.066 C 
BRANCH  12  13
ATOM     13  C   UNL     1     -12.061 -17.373  29.667  1.00  0.00     0.140 C 
ATOM     14  O   UNL     1     -12.597 -16.641  28.847  1.00  0.00    -0.299 OA
BRANCH  13  15
ATOM     15  C   UNL     1     -10.562 -17.281  29.860  1.00  0.00     0.106 CG0
ATOM     16  G   UNL     1     -10.169 -15.857  30.203  1.00  0.00     0.000 G0
ENDBRANCH  13  15
ENDBRANCH  12  13
BRANCH  12  17
ATOM     17  C   UNL     1     -12.725 -19.833  29.864  1.00  0.00    -0.006 C 
ATOM     18  C   UNL     1     -12.578 -20.928  30.937  1.00  0.00     0.008 C 
ATOM     19  C   UNL     1     -13.874 -20.202  28.911  1.00  0.00     0.008 C 
ENDBRANCH  12  17
ENDBRANCH  11  12
ENDBRANCH   1  11
TORSDOF 1
ENDMDL
MODEL 6
REMARK VINA RESULT:    -3.851      1.915      4.479
REMARK INTER + INTRA:          -5.977
REMARK INTER:                  -7.190
REMARK INTRA:                   1.213
REMARK UNBOUND:                -0.101
REMARK SMILES CC1=CCC[C@H](C)C(=O)C[C@H](C(C)C)C(=O)C1
REMARK SMILES IDX 8 1 9 2 6 3 7 4 5 5 4 6 3 7 2 8 1 9 10 11 11 12 15 13 16 14
REMARK SMILES IDX 17 15 12 17 13 18 14 19
REMARK H PARENT
REMARK Flexibility Score: 70.00
ROOT
ATOM      1  C   UNL     1     -13.630 -16.832  32.276  1.00  0.00     0.136 C 
ATOM      2  O   UNL     1     -14.367 -17.339  33.111  1.00  0.00    -0.299 OA
ENDROOT
BRANCH   1   3
ATOM      3  C   UNL     1     -14.071 -15.578  31.539  1.00  0.00     0.053 C 
ATOM      4  C   UNL     1     -14.419 -14.432  32.500  1.00  0.00     0.016 C 
BRANCH   3   5
ATOM      5  C   UNL     1     -13.077 -15.130  30.439  1.00  0.00     0.015 C 
BRANCH   5   6
ATOM      6  C   UNL     1     -13.623 -14.880  29.016  1.00  0.00     0.028 C 
BRANCH   6   7
ATOM      7  C   UNL     1     -12.936 -15.587  27.871  1.00  0.00    -0.028 C 
ATOM      8  C   UNL     1     -11.783 -16.296  27.929  1.00  0.00    -0.070 CG0
ATOM      9  C   UNL     1     -11.375 -17.073  26.702  1.00  0.00     0.039 C 
ATOM     10  G   UNL     1     -10.846 -16.294  29.122  1.00  0.00     0.000 G0
ENDBRANCH   6   7
ENDBRANCH   5   6
ENDBRANCH   3   5
ENDBRANCH   1   3
BRANCH   1  11
ATOM     11  C   UNL     1     -12.299 -17.498  31.989  1.00  0.00     0.087 C 
BRANCH  11  12
ATOM     12  C   UNL     1     -12.197 -18.073  30.551  1.00  0.00     0.066 C 
BRANCH  12  13
ATOM     13  C   UNL     1     -10.921 -17.619  29.862  1.00  0.00     0.140 C 
ATOM     14  O   UNL     1      -9.917 -18.313  29.929  1.00  0.00    -0.299 OA
BRANCH  13  15
ATOM     15  C   UNL     1     -10.848 -16.296  29.130  1.00  0.00     0.106 CG0
ATOM     16  G   UNL     1     -11.770 -16.317  27.926  1.00  0.00     0.000 G0
ENDBRANCH  13  15
ENDBRANCH  12  13
BRANCH  12  17
ATOM     17  C   UNL     1     -12.383 -19.625  30.473  1.00  0.00    -0.006 C 
ATOM     18  C   UNL     1     -12.552 -20.319  31.836  1.00  0.00     0.008 C 
ATOM     19  C   UNL     1     -13.558 -20.003  29.556  1.00  0.00     0.008 C 
ENDBRANCH  12  17
ENDBRANCH  11  12
ENDBRANCH   1  11
TORSDOF 1
ENDMDL
MODEL 7
REMARK VINA RESULT:    -3.653      1.802      3.444
REMARK INTER + INTRA:          -5.675
REMARK INTER:                  -6.577
REMARK INTRA:                   0.901
REMARK UNBOUND:                -0.101
REMARK SMILES CC1=CCC[C@H](C)C(=O)C[C@H](C(C)C)C(=O)C1
REMARK SMILES IDX 8 1 9 2 6 3 7 4 5 5 4 6 3 7 2 8 1 9 10 11 11 12 15 13 16 14
REMARK SMILES IDX 17 15 12 17 13 18 14 19
REMARK H PARENT
REMARK Flexibility Score: 70.00
ROOT
ATOM      1  C   UNL     1     -12.398 -16.288  31.689  1.00  0.00     0.136 C 
ATOM      2  O   UNL     1     -12.926 -16.238  32.792  1.00  0.00    -0.299 OA
ENDROOT
BRANCH   1   3
ATOM      3  C   UNL     1     -10.969 -16.787  31.555  1.00  0.00     0.053 C 
ATOM      4  C   UNL     1     -10.010 -16.067  32.514  1.00  0.00     0.016 C 
BRANCH   3   5
ATOM      5  C   UNL     1     -10.844 -18.328  31.660  1.00  0.00     0.015 C 
BRANCH   5   6
ATOM      6  C   UNL     1     -12.127 -19.152  31.909  1.00  0.00     0.028 C 
BRANCH   6   7
ATOM      7  C   UNL     1     -12.544 -20.134  30.840  1.00  0.00    -0.028 C 
ATOM      8  C   UNL     1     -13.099 -19.840  29.639  1.00  0.00    -0.070 CG0
ATOM      9  C   UNL     1     -13.266 -20.966  28.649  1.00  0.00     0.039 C 
ATOM     10  G   UNL     1     -13.627 -18.469  29.262  1.00  0.00     0.000 G0
ENDBRANCH   6   7
ENDBRANCH   5   6
ENDBRANCH   3   5
ENDBRANCH   1   3
BRANCH   1  11
ATOM     11  C   UNL     1     -13.193 -15.818  30.487  1.00  0.00     0.087 C 
BRANCH  11  12
ATOM     12  C   UNL     1     -12.485 -16.098  29.135  1.00  0.00     0.066 C 
BRANCH  12  13
ATOM     13  C   UNL     1     -12.503 -17.580  28.797  1.00  0.00     0.140 C 
ATOM     14  O   UNL     1     -11.605 -18.057  28.118  1.00  0.00    -0.299 OA
BRANCH  13  15
ATOM     15  C   UNL     1     -13.638 -18.477  29.242  1.00  0.00     0.106 CG0
ATOM     16  G   UNL     1     -13.102 -19.842  29.626  1.00  0.00     0.000 G0
ENDBRANCH  13  15
ENDBRANCH  12  13
BRANCH  12  17
ATOM     17  C   UNL     1     -13.011 -15.223  27.949  1.00  0.00    -0.006 C 
ATOM     18  C   UNL     1     -13.608 -16.025  26.778  1.00  0.00     0.008 C 
ATOM     19  C   UNL     1     -14.035 -14.182  28.431  1.00  0.00     0.008 C 
ENDBRANCH  12  17
ENDBRANCH  11  12
ENDBRANCH   1  11
TORSDOF 1
ENDMDL
MODEL 8
REMARK VINA RESULT:    -3.631      1.632      2.854
REMARK INTER + INTRA:          -5.642
REMARK INTER:                  -6.730
REMARK INTRA:                   1.088
REMARK UNBOUND:                -0.101
REMARK SMILES CC1=CCC[C@H](C)C(=O)C[C@H](C(C)C)C(=O)C1
REMARK SMILES IDX 8 1 9 2 6 3 7 4 5 5 4 6 3 7 2 8 1 9 10 11 11 12 15 13 16 14
REMARK SMILES IDX 17 15 12 17 13 18 14 19
REMARK H PARENT
REMARK Flexibility Score: 70.00
ROOT
ATOM      1  C   UNL     1     -13.532 -15.629  30.914  1.00  0.00     0.136 C 
ATOM      2  O   UNL     1     -13.607 -14.631  31.618  1.00  0.00    -0.299 OA
ENDROOT
BRANCH   1   3
ATOM      3  C   UNL     1     -13.275 -15.486  29.423  1.00  0.00     0.053 C 
ATOM      4  C   UNL     1     -14.009 -14.279  28.821  1.00  0.00     0.016 C 
BRANCH   3   5
ATOM      5  C   UNL     1     -11.770 -15.491  29.055  1.00  0.00     0.015 C 
BRANCH   5   6
ATOM      6  C   UNL     1     -11.220 -16.685  28.244  1.00  0.00     0.028 C 
BRANCH   6   7
ATOM      7  C   UNL     1     -12.110 -17.896  28.092  1.00  0.00    -0.028 C 
ATOM      8  C   UNL     1     -12.253 -18.913  28.975  1.00  0.00    -0.070 CG0
ATOM      9  C   UNL     1     -13.336 -19.928  28.706  1.00  0.00     0.039 C 
ATOM     10  G   UNL     1     -11.347 -19.131  30.172  1.00  0.00     0.000 G0
ENDBRANCH   6   7
ENDBRANCH   5   6
ENDBRANCH   3   5
ENDBRANCH   1   3
BRANCH   1  11
ATOM     11  C   UNL     1     -13.727 -16.986  31.562  1.00  0.00     0.087 C 
BRANCH  11  12
ATOM     12  C   UNL     1     -12.407 -17.609  32.090  1.00  0.00     0.066 C 
BRANCH  12  13
ATOM     13  C   UNL     1     -12.152 -18.973  31.470  1.00  0.00     0.140 C 
ATOM     14  O   UNL     1     -12.559 -19.979  32.032  1.00  0.00    -0.299 OA
BRANCH  13  15
ATOM     15  C   UNL     1     -11.359 -19.121  30.189  1.00  0.00     0.106 CG0
ATOM     16  G   UNL     1     -12.265 -18.917  28.990  1.00  0.00     0.000 G0
ENDBRANCH  13  15
ENDBRANCH  12  13
BRANCH  12  17
ATOM     17  C   UNL     1     -11.164 -16.668  31.963  1.00  0.00    -0.006 C 
ATOM     18  C   UNL     1     -10.884 -15.806  33.207  1.00  0.00     0.008 C 
ATOM     19  C   UNL     1      -9.898 -17.459  31.594  1.00  0.00     0.008 C 
ENDBRANCH  12  17
ENDBRANCH  11  12
ENDBRANCH   1  11
TORSDOF 1
ENDMDL
MODEL 9
REMARK VINA RESULT:    -3.576      2.016      3.965
REMARK INTER + INTRA:          -5.558
REMARK INTER:                  -5.981
REMARK INTRA:                   0.423
REMARK UNBOUND:                -0.101
REMARK SMILES CC1=CCC[C@H](C)C(=O)C[C@H](C(C)C)C(=O)C1
REMARK SMILES IDX 8 1 9 2 6 3 7 4 5 5 4 6 3 7 2 8 1 9 10 11 11 12 15 13 16 14
REMARK SMILES IDX 17 15 12 17 13 18 14 19
REMARK H PARENT
REMARK Flexibility Score: 70.00
ROOT
ATOM      1  C   UNL     1     -10.959 -15.841  30.805  1.00  0.00     0.136 C 
ATOM      2  O   UNL     1      -9.875 -15.360  30.503  1.00  0.00    -0.299 OA
ENDROOT
BRANCH   1   3
ATOM      3  C   UNL     1     -11.201 -16.335  32.221  1.00  0.00     0.053 C 
ATOM      4  C   UNL     1     -10.078 -15.915  33.182  1.00  0.00     0.016 C 
BRANCH   3   5
ATOM      5  C   UNL     1     -12.601 -15.965  32.771  1.00  0.00     0.015 C 
BRANCH   5   6
ATOM      6  C   UNL     1     -13.699 -17.053  32.770  1.00  0.00     0.028 C 
BRANCH   6   7
ATOM      7  C   UNL     1     -13.280 -18.466  32.441  1.00  0.00    -0.028 C 
ATOM      8  C   UNL     1     -13.153 -19.008  31.205  1.00  0.00    -0.070 CG0
ATOM      9  C   UNL     1     -12.542 -20.384  31.103  1.00  0.00     0.039 C 
ATOM     10  G   UNL     1     -13.653 -18.349  29.935  1.00  0.00     0.000 G0
ENDBRANCH   6   7
ENDBRANCH   5   6
ENDBRANCH   3   5
ENDBRANCH   1   3
BRANCH   1  11
ATOM     11  C   UNL     1     -12.024 -15.950  29.731  1.00  0.00     0.087 C 
BRANCH  11  12
ATOM     12  C   UNL     1     -11.714 -17.035  28.666  1.00  0.00     0.066 C 
BRANCH  12  13
ATOM     13  C   UNL     1     -12.542 -18.289  28.896  1.00  0.00     0.140 C 
ATOM     14  O   UNL     1     -12.347 -19.278  28.204  1.00  0.00    -0.299 OA
BRANCH  13  15
ATOM     15  C   UNL     1     -13.643 -18.328  29.934  1.00  0.00     0.106 CG0
ATOM     16  G   UNL     1     -13.143 -19.004  31.196  1.00  0.00     0.000 G0
ENDBRANCH  13  15
ENDBRANCH  12  13
BRANCH  12  17
ATOM     17  C   UNL     1     -11.823 -16.526  27.190  1.00  0.00    -0.006 C 
ATOM     18  C   UNL     1     -11.042 -17.368  26.165  1.00  0.00     0.008 C 
ATOM     19  C   UNL     1     -13.290 -16.409  26.744  1.00  0.00     0.008 C 
ENDBRANCH  12  17
ENDBRANCH  11  12
ENDBRANCH   1  11
TORSDOF 1
ENDMDL
