MODEL 1
REMARK VINA RESULT:    -1.955      0.000      0.000
REMARK INTER + INTRA:          -1.955
REMARK INTER:                  -1.955
REMARK INTRA:                   0.000
REMARK UNBOUND:                 0.000
REMARK SMILES CC(=O)[O-]
REMARK SMILES IDX 1 1 2 2 3 3 4 4
REMARK H PARENT
REMARK Flexibility Score: inf
ROOT
ATOM      1  C   UNL     1      45.563  18.784  77.974  1.00  0.00     0.063 C 
ATOM      2  C   UNL     1      45.763  17.850  76.828  1.00  0.00     0.038 C 
ATOM      3  O   UNL     1      45.699  16.606  77.008  1.00  0.00    -0.550 OA
ATOM      4  O   UNL     1      45.967  18.352  75.549  1.00  0.00    -0.550 OA
ENDROOT
TORSDOF 0
ENDMDL
MODEL 2
REMARK VINA RESULT:    -1.867     13.200     13.525
REMARK INTER + INTRA:          -1.867
REMARK INTER:                  -1.867
REMARK INTRA:                   0.000
REMARK UNBOUND:                 0.000
REMARK SMILES CC(=O)[O-]
REMARK SMILES IDX 1 1 2 2 3 3 4 4
REMARK H PARENT
REMARK Flexibility Score: inf
ROOT
ATOM      1  C   UNL     1      55.753  17.374  84.769  1.00  0.00     0.063 C 
ATOM      2  C   UNL     1      55.380  16.943  86.147  1.00  0.00     0.038 C 
ATOM      3  O   UNL     1      55.847  15.875  86.623  1.00  0.00    -0.550 OA
ATOM      4  O   UNL     1      54.559  17.746  86.928  1.00  0.00    -0.550 OA
ENDROOT
TORSDOF 0
ENDMDL
MODEL 3
REMARK VINA RESULT:    -1.858      9.358      9.591
REMARK INTER + INTRA:          -1.858
REMARK INTER:                  -1.858
REMARK INTRA:                   0.000
REMARK UNBOUND:                 0.000
REMARK SMILES CC(=O)[O-]
REMARK SMILES IDX 1 1 2 2 3 3 4 4
REMARK H PARENT
REMARK Flexibility Score: inf
ROOT
ATOM      1  C   UNL     1      37.594  18.153  80.217  1.00  0.00     0.063 C 
ATOM      2  C   UNL     1      37.342  19.448  80.911  1.00  0.00     0.038 C 
ATOM      3  O   UNL     1      37.345  19.503  82.168  1.00  0.00    -0.550 OA
ATOM      4  O   UNL     1      37.158  20.609  80.171  1.00  0.00    -0.550 OA
ENDROOT
TORSDOF 0
ENDMDL
MODEL 4
REMARK VINA RESULT:    -1.837      8.599      8.936
REMARK INTER + INTRA:          -1.837
REMARK INTER:                  -1.837
REMARK INTRA:                   0.000
REMARK UNBOUND:                 0.000
REMARK SMILES CC(=O)[O-]
REMARK SMILES IDX 1 1 2 2 3 3 4 4
REMARK H PARENT
REMARK Flexibility Score: inf
ROOT
ATOM      1  C   UNL     1      39.203  19.304  80.225  1.00  0.00     0.063 C 
ATOM      2  C   UNL     1      37.830  18.839  80.575  1.00  0.00     0.038 C 
ATOM      3  O   UNL     1      37.412  17.728  80.156  1.00  0.00    -0.550 OA
ATOM      4  O   UNL     1      37.029  19.606  81.411  1.00  0.00    -0.550 OA
ENDROOT
TORSDOF 0
ENDMDL
MODEL 5
REMARK VINA RESULT:    -1.786      8.463      8.846
REMARK INTER + INTRA:          -1.786
REMARK INTER:                  -1.786
REMARK INTRA:                   0.000
REMARK UNBOUND:                 0.000
REMARK SMILES CC(=O)[O-]
REMARK SMILES IDX 1 1 2 2 3 3 4 4
REMARK H PARENT
REMARK Flexibility Score: inf
ROOT
ATOM      1  C   UNL     1      37.383  19.668  81.708  1.00  0.00     0.063 C 
ATOM      2  C   UNL     1      37.986  18.899  80.582  1.00  0.00     0.038 C 
ATOM      3  O   UNL     1      39.042  19.308  80.031  1.00  0.00    -0.550 OA
ATOM      4  O   UNL     1      37.415  17.700  80.173  1.00  0.00    -0.550 OA
ENDROOT
TORSDOF 0
ENDMDL
MODEL 6
REMARK VINA RESULT:    -1.782     12.877     13.211
REMARK INTER + INTRA:          -1.782
REMARK INTER:                  -1.782
REMARK INTRA:                   0.000
REMARK UNBOUND:                 0.000
REMARK SMILES CC(=O)[O-]
REMARK SMILES IDX 1 1 2 2 3 3 4 4
REMARK H PARENT
REMARK Flexibility Score: inf
ROOT
ATOM      1  C   UNL     1      56.065  16.050  86.439  1.00  0.00     0.063 C 
ATOM      2  C   UNL     1      55.451  17.076  85.548  1.00  0.00     0.038 C 
ATOM      3  O   UNL     1      55.884  17.237  84.377  1.00  0.00    -0.550 OA
ATOM      4  O   UNL     1      54.363  17.818  85.989  1.00  0.00    -0.550 OA
ENDROOT
TORSDOF 0
ENDMDL
MODEL 7
REMARK VINA RESULT:    -1.744     20.643     21.055
REMARK INTER + INTRA:          -1.744
REMARK INTER:                  -1.744
REMARK INTRA:                   0.000
REMARK UNBOUND:                 0.000
REMARK SMILES CC(=O)[O-]
REMARK SMILES IDX 1 1 2 2 3 3 4 4
REMARK H PARENT
REMARK Flexibility Score: inf
ROOT
ATOM      1  C   UNL     1      44.777  31.283  91.833  1.00  0.00     0.063 C 
ATOM      2  C   UNL     1      44.005  31.072  93.091  1.00  0.00     0.038 C 
ATOM      3  O   UNL     1      43.702  32.054  93.818  1.00  0.00    -0.550 OA
ATOM      4  O   UNL     1      43.571  29.799  93.436  1.00  0.00    -0.550 OA
ENDROOT
TORSDOF 0
ENDMDL
MODEL 8
REMARK VINA RESULT:    -1.729     20.660     21.022
REMARK INTER + INTRA:          -1.729
REMARK INTER:                  -1.729
REMARK INTRA:                   0.000
REMARK UNBOUND:                 0.000
REMARK SMILES CC(=O)[O-]
REMARK SMILES IDX 1 1 2 2 3 3 4 4
REMARK H PARENT
REMARK Flexibility Score: inf
ROOT
ATOM      1  C   UNL     1      43.774  29.644  93.268  1.00  0.00     0.063 C 
ATOM      2  C   UNL     1      44.060  31.095  93.076  1.00  0.00     0.038 C 
ATOM      3  O   UNL     1      43.634  31.938  93.908  1.00  0.00    -0.550 OA
ATOM      4  O   UNL     1      44.844  31.515  92.009  1.00  0.00    -0.550 OA
ENDROOT
TORSDOF 0
ENDMDL
MODEL 9
REMARK VINA RESULT:    -1.715     20.226     20.720
REMARK INTER + INTRA:          -1.715
REMARK INTER:                  -1.715
REMARK INTRA:                   0.000
REMARK UNBOUND:                 0.000
REMARK SMILES CC(=O)[O-]
REMARK SMILES IDX 1 1 2 2 3 3 4 4
REMARK H PARENT
REMARK Flexibility Score: inf
ROOT
ATOM      1  C   UNL     1      48.615  33.840  87.353  1.00  0.00     0.063 C 
ATOM      2  C   UNL     1      49.283  35.131  87.686  1.00  0.00     0.038 C 
ATOM      3  O   UNL     1      48.598  36.121  88.054  1.00  0.00    -0.550 OA
ATOM      4  O   UNL     1      50.668  35.229  87.644  1.00  0.00    -0.550 OA
ENDROOT
TORSDOF 0
ENDMDL
