MODEL 1
REMARK VINA RESULT:    28.657      0.000      0.000
REMARK INTER + INTRA:          71.192
REMARK INTER:                  72.215
REMARK INTRA:                  -1.022
REMARK UNBOUND:                -1.022
REMARK SMILES CCCCCCCCCCCCCCCCCCCCCCCCCCCC(=O)[O-]
REMARK SMILES IDX 15 1 16 2 17 3 18 4 19 5 20 6 21 7 22 8 23 9 24 10 25 11
REMARK SMILES IDX 26 12 27 13 28 14 29 15 30 16 14 17 13 18 12 19 11 20 10 21
REMARK SMILES IDX 9 22 8 23 7 24 6 25 5 26 4 27 3 28 2 29 1 30
REMARK H PARENT
REMARK Flexibility Score: inf
ROOT
ATOM      1  C   UNL     1     -16.962  -5.929 -22.569  1.00  0.00     0.000 C 
ENDROOT
BRANCH   1   2
ATOM      2  C   UNL     1     -16.884  -6.666 -23.922  1.00  0.00     0.000 C 
BRANCH   2   3
ATOM      3  C   UNL     1     -16.295  -5.837 -25.079  1.00  0.00     0.000 C 
BRANCH   3   4
ATOM      4  C   UNL     1     -16.792  -6.304 -26.455  1.00  0.00     0.000 C 
BRANCH   4   5
ATOM      5  C   UNL     1     -18.238  -6.807 -26.381  1.00  0.00     0.000 C 
BRANCH   5   6
ATOM      6  C   UNL     1     -18.970  -6.559 -27.705  1.00  0.00     0.000 C 
BRANCH   6   7
ATOM      7  C   UNL     1     -18.429  -7.465 -28.818  1.00  0.00     0.000 C 
BRANCH   7   8
ATOM      8  C   UNL     1     -18.913  -8.920 -28.691  1.00  0.00     0.000 C 
BRANCH   8   9
ATOM      9  C   UNL     1     -18.744  -9.743 -29.986  1.00  0.00     0.000 C 
BRANCH   9  10
ATOM     10  C   UNL     1     -17.654  -9.166 -30.905  1.00  0.00     0.000 C 
BRANCH  10  11
ATOM     11  C   UNL     1     -16.591 -10.223 -31.225  1.00  0.00     0.000 C 
BRANCH  11  12
ATOM     12  C   UNL     1     -16.588 -11.341 -30.173  1.00  0.00     0.006 C 
BRANCH  12  13
ATOM     13  C   UNL     1     -15.702 -11.001 -28.967  1.00  0.00     0.053 C 
BRANCH  13  14
ATOM     14  C   UNL     1     -14.427 -10.336 -29.387  1.00  0.00     0.041 C 
ATOM     15  O   UNL     1     -13.889  -9.476 -28.642  1.00  0.00    -0.550 OA
ATOM     16  O   UNL     1     -13.854 -10.638 -30.616  1.00  0.00    -0.550 OA
ENDBRANCH  13  14
ENDBRANCH  12  13
ENDBRANCH  11  12
ENDBRANCH  10  11
ENDBRANCH   9  10
ENDBRANCH   8   9
ENDBRANCH   7   8
ENDBRANCH   6   7
ENDBRANCH   5   6
ENDBRANCH   4   5
ENDBRANCH   3   4
ENDBRANCH   2   3
ENDBRANCH   1   2
BRANCH   1  17
ATOM     17  C   UNL     1     -16.172  -6.570 -21.409  1.00  0.00     0.000 C 
BRANCH  17  18
ATOM     18  C   UNL     1     -14.756  -7.088 -21.753  1.00  0.00     0.000 C 
BRANCH  18  19
ATOM     19  C   UNL     1     -14.438  -8.502 -21.219  1.00  0.00     0.000 C 
BRANCH  19  20
ATOM     20  C   UNL     1     -12.999  -8.988 -21.464  1.00  0.00     0.000 C 
BRANCH  20  21
ATOM     21  C   UNL     1     -12.075  -7.889 -22.018  1.00  0.00     0.000 C 
BRANCH  21  22
ATOM     22  C   UNL     1     -11.050  -7.411 -20.977  1.00  0.00    -0.000 C 
BRANCH  22  23
ATOM     23  C   UNL     1      -9.838  -6.715 -21.622  1.00  0.00    -0.000 C 
BRANCH  23  24
ATOM     24  C   UNL     1     -10.072  -5.213 -21.850  1.00  0.00    -0.000 C 
BRANCH  24  25
ATOM     25  C   UNL     1      -9.554  -4.351 -20.688  1.00  0.00    -0.000 C 
BRANCH  25  26
ATOM     26  C   UNL     1      -8.306  -3.558 -21.103  1.00  0.00    -0.000 C 
BRANCH  26  27
ATOM     27  C   UNL     1      -7.863  -2.539 -20.038  1.00  0.00    -0.000 C 
BRANCH  27  28
ATOM     28  C   UNL     1      -6.578  -2.913 -19.271  1.00  0.00    -0.000 C 
BRANCH  28  29
ATOM     29  C   UNL     1      -5.610  -1.745 -19.019  1.00  0.00    -0.003 C 
ATOM     30  C   UNL     1      -6.329  -0.418 -18.778  1.00  0.00     0.004 C 
ENDBRANCH  28  29
ENDBRANCH  27  28
ENDBRANCH  26  27
ENDBRANCH  25  26
ENDBRANCH  24  25
ENDBRANCH  23  24
ENDBRANCH  22  23
ENDBRANCH  21  22
ENDBRANCH  20  21
ENDBRANCH  19  20
ENDBRANCH  18  19
ENDBRANCH  17  18
ENDBRANCH   1  17
TORSDOF 26
ENDMDL
MODEL 2
REMARK VINA RESULT:    28.705      2.362      3.054
REMARK INTER + INTRA:          71.314
REMARK INTER:                  72.201
REMARK INTRA:                  -0.887
REMARK UNBOUND:                -1.022
REMARK SMILES CCCCCCCCCCCCCCCCCCCCCCCCCCCC(=O)[O-]
REMARK SMILES IDX 15 1 16 2 17 3 18 4 19 5 20 6 21 7 22 8 23 9 24 10 25 11
REMARK SMILES IDX 26 12 27 13 28 14 29 15 30 16 14 17 13 18 12 19 11 20 10 21
REMARK SMILES IDX 9 22 8 23 7 24 6 25 5 26 4 27 3 28 2 29 1 30
REMARK H PARENT
REMARK Flexibility Score: inf
ROOT
ATOM      1  C   UNL     1     -15.304  -6.844 -22.291  1.00  0.00     0.000 C 
ENDROOT
BRANCH   1   2
ATOM      2  C   UNL     1     -16.644  -7.206 -22.966  1.00  0.00     0.000 C 
BRANCH   2   3
ATOM      3  C   UNL     1     -17.117  -6.210 -24.041  1.00  0.00     0.000 C 
BRANCH   3   4
ATOM      4  C   UNL     1     -16.024  -5.887 -25.071  1.00  0.00     0.000 C 
BRANCH   4   5
ATOM      5  C   UNL     1     -16.394  -6.425 -26.458  1.00  0.00     0.000 C 
BRANCH   5   6
ATOM      6  C   UNL     1     -17.884  -6.778 -26.526  1.00  0.00     0.000 C 
BRANCH   6   7
ATOM      7  C   UNL     1     -18.383  -6.807 -27.977  1.00  0.00     0.000 C 
BRANCH   7   8
ATOM      8  C   UNL     1     -18.425  -8.228 -28.565  1.00  0.00     0.000 C 
BRANCH   8   9
ATOM      9  C   UNL     1     -17.724  -8.350 -29.935  1.00  0.00     0.000 C 
BRANCH   9  10
ATOM     10  C   UNL     1     -18.257  -9.533 -30.759  1.00  0.00     0.000 C 
BRANCH  10  11
ATOM     11  C   UNL     1     -17.225 -10.665 -30.826  1.00  0.00     0.000 C 
BRANCH  11  12
ATOM     12  C   UNL     1     -17.091 -11.372 -29.470  1.00  0.00     0.006 C 
BRANCH  12  13
ATOM     13  C   UNL     1     -15.627 -11.636 -29.095  1.00  0.00     0.053 C 
BRANCH  13  14
ATOM     14  C   UNL     1     -14.715 -10.587 -29.654  1.00  0.00     0.041 C 
ATOM     15  O   UNL     1     -14.316  -9.643 -28.923  1.00  0.00    -0.550 OA
ATOM     16  O   UNL     1     -14.337 -10.630 -30.990  1.00  0.00    -0.550 OA
ENDBRANCH  13  14
ENDBRANCH  12  13
ENDBRANCH  11  12
ENDBRANCH  10  11
ENDBRANCH   9  10
ENDBRANCH   8   9
ENDBRANCH   7   8
ENDBRANCH   6   7
ENDBRANCH   5   6
ENDBRANCH   4   5
ENDBRANCH   3   4
ENDBRANCH   2   3
ENDBRANCH   1   2
BRANCH   1  17
ATOM     17  C   UNL     1     -14.422  -8.038 -21.866  1.00  0.00     0.000 C 
BRANCH  17  18
ATOM     18  C   UNL     1     -13.014  -8.103 -22.501  1.00  0.00     0.000 C 
BRANCH  18  19
ATOM     19  C   UNL     1     -11.849  -7.885 -21.511  1.00  0.00     0.000 C 
BRANCH  19  20
ATOM     20  C   UNL     1     -10.593  -7.227 -22.108  1.00  0.00     0.000 C 
BRANCH  20  21
ATOM     21  C   UNL     1      -9.836  -6.343 -21.100  1.00  0.00     0.000 C 
BRANCH  21  22
ATOM     22  C   UNL     1      -9.793  -4.870 -21.536  1.00  0.00    -0.000 C 
BRANCH  22  23
ATOM     23  C   UNL     1      -9.328  -3.935 -20.405  1.00  0.00    -0.000 C 
BRANCH  23  24
ATOM     24  C   UNL     1      -8.667  -2.653 -20.934  1.00  0.00    -0.000 C 
BRANCH  24  25
ATOM     25  C   UNL     1      -9.548  -1.409 -20.737  1.00  0.00    -0.000 C 
BRANCH  25  26
ATOM     26  C   UNL     1      -8.753  -0.122 -21.006  1.00  0.00    -0.000 C 
BRANCH  26  27
ATOM     27  C   UNL     1      -9.548   0.911 -21.824  1.00  0.00    -0.000 C 
BRANCH  27  28
ATOM     28  C   UNL     1      -8.808   1.482 -23.051  1.00  0.00    -0.000 C 
BRANCH  28  29
ATOM     29  C   UNL     1      -9.717   2.085 -24.135  1.00  0.00    -0.003 C 
ATOM     30  C   UNL     1      -8.939   2.596 -25.347  1.00  0.00     0.004 C 
ENDBRANCH  28  29
ENDBRANCH  27  28
ENDBRANCH  26  27
ENDBRANCH  25  26
ENDBRANCH  24  25
ENDBRANCH  23  24
ENDBRANCH  22  23
ENDBRANCH  21  22
ENDBRANCH  20  21
ENDBRANCH  19  20
ENDBRANCH  18  19
ENDBRANCH  17  18
ENDBRANCH   1  17
TORSDOF 26
ENDMDL
MODEL 3
REMARK VINA RESULT:    29.015      5.867      7.580
REMARK INTER + INTRA:          72.093
REMARK INTER:                  73.227
REMARK INTRA:                  -1.134
REMARK UNBOUND:                -1.022
REMARK SMILES CCCCCCCCCCCCCCCCCCCCCCCCCCCC(=O)[O-]
REMARK SMILES IDX 15 1 16 2 17 3 18 4 19 5 20 6 21 7 22 8 23 9 24 10 25 11
REMARK SMILES IDX 26 12 27 13 28 14 29 15 30 16 14 17 13 18 12 19 11 20 10 21
REMARK SMILES IDX 9 22 8 23 7 24 6 25 5 26 4 27 3 28 2 29 1 30
REMARK H PARENT
REMARK Flexibility Score: inf
ROOT
ATOM      1  C   UNL     1     -17.461  -6.240 -22.852  1.00  0.00     0.000 C 
ENDROOT
BRANCH   1   2
ATOM      2  C   UNL     1     -17.473  -5.640 -24.274  1.00  0.00     0.000 C 
BRANCH   2   3
ATOM      3  C   UNL     1     -16.333  -6.123 -25.190  1.00  0.00     0.000 C 
BRANCH   3   4
ATOM      4  C   UNL     1     -16.716  -6.093 -26.677  1.00  0.00     0.000 C 
BRANCH   4   5
ATOM      5  C   UNL     1     -18.208  -6.383 -26.871  1.00  0.00     0.000 C 
BRANCH   5   6
ATOM      6  C   UNL     1     -18.514  -6.708 -28.338  1.00  0.00     0.000 C 
BRANCH   6   7
ATOM      7  C   UNL     1     -17.798  -7.989 -28.785  1.00  0.00     0.000 C 
BRANCH   7   8
ATOM      8  C   UNL     1     -18.283  -8.498 -30.153  1.00  0.00     0.000 C 
BRANCH   8   9
ATOM      9  C   UNL     1     -17.764  -9.908 -30.507  1.00  0.00     0.000 C 
BRANCH   9  10
ATOM     10  C   UNL     1     -17.898 -10.891 -29.332  1.00  0.00     0.000 C 
BRANCH  10  11
ATOM     11  C   UNL     1     -16.938 -12.074 -29.495  1.00  0.00     0.000 C 
BRANCH  11  12
ATOM     12  C   UNL     1     -15.735 -11.695 -30.372  1.00  0.00     0.006 C 
BRANCH  12  13
ATOM     13  C   UNL     1     -14.785 -10.720 -29.663  1.00  0.00     0.053 C 
BRANCH  13  14
ATOM     14  C   UNL     1     -13.398 -10.796 -30.220  1.00  0.00     0.041 C 
ATOM     15  O   UNL     1     -12.868  -9.777 -30.737  1.00  0.00    -0.550 OA
ATOM     16  O   UNL     1     -12.704 -11.999 -30.205  1.00  0.00    -0.550 OA
ENDBRANCH  13  14
ENDBRANCH  12  13
ENDBRANCH  11  12
ENDBRANCH  10  11
ENDBRANCH   9  10
ENDBRANCH   8   9
ENDBRANCH   7   8
ENDBRANCH   6   7
ENDBRANCH   5   6
ENDBRANCH   4   5
ENDBRANCH   3   4
ENDBRANCH   2   3
ENDBRANCH   1   2
BRANCH   1  17
ATOM     17  C   UNL     1     -17.444  -5.220 -21.693  1.00  0.00     0.000 C 
BRANCH  17  18
ATOM     18  C   UNL     1     -18.147  -5.661 -20.388  1.00  0.00     0.000 C 
BRANCH  18  19
ATOM     19  C   UNL     1     -17.618  -4.978 -19.108  1.00  0.00     0.000 C 
BRANCH  19  20
ATOM     20  C   UNL     1     -18.427  -5.260 -17.830  1.00  0.00     0.000 C 
BRANCH  20  21
ATOM     21  C   UNL     1     -18.805  -3.982 -17.060  1.00  0.00     0.000 C 
BRANCH  21  22
ATOM     22  C   UNL     1     -19.284  -2.860 -17.994  1.00  0.00    -0.000 C 
BRANCH  22  23
ATOM     23  C   UNL     1     -19.545  -1.541 -17.243  1.00  0.00    -0.000 C 
BRANCH  23  24
ATOM     24  C   UNL     1     -18.622  -1.363 -16.026  1.00  0.00    -0.000 C 
BRANCH  24  25
ATOM     25  C   UNL     1     -19.380  -0.898 -14.773  1.00  0.00    -0.000 C 
BRANCH  25  26
ATOM     26  C   UNL     1     -20.112   0.427 -15.031  1.00  0.00    -0.000 C 
BRANCH  26  27
ATOM     27  C   UNL     1     -19.301   1.656 -14.579  1.00  0.00    -0.000 C 
BRANCH  27  28
ATOM     28  C   UNL     1     -19.827   3.011 -15.095  1.00  0.00    -0.000 C 
BRANCH  28  29
ATOM     29  C   UNL     1     -19.094   4.244 -14.540  1.00  0.00    -0.003 C 
ATOM     30  C   UNL     1     -17.590   4.212 -14.807  1.00  0.00     0.004 C 
ENDBRANCH  28  29
ENDBRANCH  27  28
ENDBRANCH  26  27
ENDBRANCH  25  26
ENDBRANCH  24  25
ENDBRANCH  23  24
ENDBRANCH  22  23
ENDBRANCH  21  22
ENDBRANCH  20  21
ENDBRANCH  19  20
ENDBRANCH  18  19
ENDBRANCH  17  18
ENDBRANCH   1  17
TORSDOF 26
ENDMDL
MODEL 4
REMARK VINA RESULT:    29.163      4.791     10.380
REMARK INTER + INTRA:          72.466
REMARK INTER:                  74.045
REMARK INTRA:                  -1.579
REMARK UNBOUND:                -1.022
REMARK SMILES CCCCCCCCCCCCCCCCCCCCCCCCCCCC(=O)[O-]
REMARK SMILES IDX 15 1 16 2 17 3 18 4 19 5 20 6 21 7 22 8 23 9 24 10 25 11
REMARK SMILES IDX 26 12 27 13 28 14 29 15 30 16 14 17 13 18 12 19 11 20 10 21
REMARK SMILES IDX 9 22 8 23 7 24 6 25 5 26 4 27 3 28 2 29 1 30
REMARK H PARENT
REMARK Flexibility Score: inf
ROOT
ATOM      1  C   UNL     1      -8.346  -2.665 -20.152  1.00  0.00     0.000 C 
ENDROOT
BRANCH   1   2
ATOM      2  C   UNL     1      -8.255  -1.126 -20.189  1.00  0.00     0.000 C 
BRANCH   2   3
ATOM      3  C   UNL     1      -9.516  -0.415 -20.716  1.00  0.00     0.000 C 
BRANCH   3   4
ATOM      4  C   UNL     1      -9.220   0.990 -21.261  1.00  0.00     0.000 C 
BRANCH   4   5
ATOM      5  C   UNL     1      -8.990   0.958 -22.777  1.00  0.00     0.000 C 
BRANCH   5   6
ATOM      6  C   UNL     1      -9.618   2.184 -23.449  1.00  0.00     0.000 C 
BRANCH   6   7
ATOM      7  C   UNL     1      -8.590   2.938 -24.303  1.00  0.00     0.000 C 
BRANCH   7   8
ATOM      8  C   UNL     1      -8.825   2.764 -25.813  1.00  0.00     0.000 C 
BRANCH   8   9
ATOM      9  C   UNL     1     -10.295   2.975 -26.238  1.00  0.00     0.000 C 
BRANCH   9  10
ATOM     10  C   UNL     1     -10.743   1.966 -27.308  1.00  0.00     0.000 C 
BRANCH  10  11
ATOM     11  C   UNL     1     -10.327   0.541 -26.926  1.00  0.00     0.000 C 
BRANCH  11  12
ATOM     12  C   UNL     1     -10.769  -0.469 -27.995  1.00  0.00     0.006 C 
BRANCH  12  13
ATOM     13  C   UNL     1     -10.544  -1.921 -27.550  1.00  0.00     0.053 C 
BRANCH  13  14
ATOM     14  C   UNL     1      -9.808  -2.710 -28.588  1.00  0.00     0.041 C 
ATOM     15  O   UNL     1      -8.973  -3.586 -28.241  1.00  0.00    -0.550 OA
ATOM     16  O   UNL     1     -10.014  -2.452 -29.938  1.00  0.00    -0.550 OA
ENDBRANCH  13  14
ENDBRANCH  12  13
ENDBRANCH  11  12
ENDBRANCH  10  11
ENDBRANCH   9  10
ENDBRANCH   8   9
ENDBRANCH   7   8
ENDBRANCH   6   7
ENDBRANCH   5   6
ENDBRANCH   4   5
ENDBRANCH   3   4
ENDBRANCH   2   3
ENDBRANCH   1   2
BRANCH   1  17
ATOM     17  C   UNL     1      -9.308  -3.307 -21.175  1.00  0.00     0.000 C 
BRANCH  17  18
ATOM     18  C   UNL     1      -9.042  -4.789 -21.523  1.00  0.00     0.000 C 
BRANCH  18  19
ATOM     19  C   UNL     1     -10.290  -5.698 -21.481  1.00  0.00     0.000 C 
BRANCH  19  20
ATOM     20  C   UNL     1     -10.011  -7.187 -21.218  1.00  0.00     0.000 C 
BRANCH  20  21
ATOM     21  C   UNL     1     -10.513  -8.105 -22.347  1.00  0.00     0.000 C 
BRANCH  21  22
ATOM     22  C   UNL     1     -12.024  -7.960 -22.587  1.00  0.00    -0.000 C 
BRANCH  22  23
ATOM     23  C   UNL     1     -12.829  -9.129 -21.990  1.00  0.00    -0.000 C 
BRANCH  23  24
ATOM     24  C   UNL     1     -14.186  -8.681 -21.423  1.00  0.00    -0.000 C 
BRANCH  24  25
ATOM     25  C   UNL     1     -14.812  -7.531 -22.228  1.00  0.00    -0.000 C 
BRANCH  25  26
ATOM     26  C   UNL     1     -15.817  -6.744 -21.375  1.00  0.00    -0.000 C 
BRANCH  26  27
ATOM     27  C   UNL     1     -17.186  -6.581 -22.060  1.00  0.00    -0.000 C 
BRANCH  27  28
ATOM     28  C   UNL     1     -17.469  -5.175 -22.627  1.00  0.00    -0.000 C 
BRANCH  28  29
ATOM     29  C   UNL     1     -17.032  -4.964 -24.087  1.00  0.00    -0.003 C 
ATOM     30  C   UNL     1     -16.935  -6.271 -24.873  1.00  0.00     0.004 C 
ENDBRANCH  28  29
ENDBRANCH  27  28
ENDBRANCH  26  27
ENDBRANCH  25  26
ENDBRANCH  24  25
ENDBRANCH  23  24
ENDBRANCH  22  23
ENDBRANCH  21  22
ENDBRANCH  20  21
ENDBRANCH  19  20
ENDBRANCH  18  19
ENDBRANCH  17  18
ENDBRANCH   1  17
TORSDOF 26
ENDMDL
MODEL 5
REMARK VINA RESULT:    29.384      4.858      9.298
REMARK INTER + INTRA:          73.023
REMARK INTER:                  73.117
REMARK INTRA:                  -0.094
REMARK UNBOUND:                -1.022
REMARK SMILES CCCCCCCCCCCCCCCCCCCCCCCCCCCC(=O)[O-]
REMARK SMILES IDX 15 1 16 2 17 3 18 4 19 5 20 6 21 7 22 8 23 9 24 10 25 11
REMARK SMILES IDX 26 12 27 13 28 14 29 15 30 16 14 17 13 18 12 19 11 20 10 21
REMARK SMILES IDX 9 22 8 23 7 24 6 25 5 26 4 27 3 28 2 29 1 30
REMARK H PARENT
REMARK Flexibility Score: inf
ROOT
ATOM      1  C   UNL     1      -8.225  -3.536 -19.848  1.00  0.00     0.000 C 
ENDROOT
BRANCH   1   2
ATOM      2  C   UNL     1      -9.084  -3.813 -21.099  1.00  0.00     0.000 C 
BRANCH   2   3
ATOM      3  C   UNL     1     -10.022  -5.029 -20.984  1.00  0.00     0.000 C 
BRANCH   3   4
ATOM      4  C   UNL     1      -9.639  -6.165 -21.944  1.00  0.00     0.000 C 
BRANCH   4   5
ATOM      5  C   UNL     1     -10.265  -7.494 -21.507  1.00  0.00     0.000 C 
BRANCH   5   6
ATOM      6  C   UNL     1     -11.780  -7.350 -21.323  1.00  0.00     0.000 C 
BRANCH   6   7
ATOM      7  C   UNL     1     -12.517  -8.623 -21.759  1.00  0.00     0.000 C 
BRANCH   7   8
ATOM      8  C   UNL     1     -14.042  -8.515 -21.594  1.00  0.00     0.000 C 
BRANCH   8   9
ATOM      9  C   UNL     1     -14.665  -7.331 -22.365  1.00  0.00     0.000 C 
BRANCH   9  10
ATOM     10  C   UNL     1     -15.900  -7.750 -23.179  1.00  0.00     0.000 C 
BRANCH  10  11
ATOM     11  C   UNL     1     -16.707  -6.524 -23.621  1.00  0.00     0.000 C 
BRANCH  11  12
ATOM     12  C   UNL     1     -16.656  -5.416 -22.559  1.00  0.00     0.006 C 
BRANCH  12  13
ATOM     13  C   UNL     1     -17.912  -5.399 -21.678  1.00  0.00     0.053 C 
BRANCH  13  14
ATOM     14  C   UNL     1     -17.567  -5.314 -20.223  1.00  0.00     0.041 C 
ATOM     15  O   UNL     1     -18.154  -4.482 -19.483  1.00  0.00    -0.550 OA
ATOM     16  O   UNL     1     -16.570  -6.125 -19.693  1.00  0.00    -0.550 OA
ENDBRANCH  13  14
ENDBRANCH  12  13
ENDBRANCH  11  12
ENDBRANCH  10  11
ENDBRANCH   9  10
ENDBRANCH   8   9
ENDBRANCH   7   8
ENDBRANCH   6   7
ENDBRANCH   5   6
ENDBRANCH   4   5
ENDBRANCH   3   4
ENDBRANCH   2   3
ENDBRANCH   1   2
BRANCH   1  17
ATOM     17  C   UNL     1      -6.838  -2.910 -20.111  1.00  0.00     0.000 C 
BRANCH  17  18
ATOM     18  C   UNL     1      -5.934  -2.714 -18.872  1.00  0.00     0.000 C 
BRANCH  18  19
ATOM     19  C   UNL     1      -5.870  -1.265 -18.341  1.00  0.00     0.000 C 
BRANCH  19  20
ATOM     20  C   UNL     1      -6.502  -0.201 -19.255  1.00  0.00     0.000 C 
BRANCH  20  21
ATOM     21  C   UNL     1      -7.934  -0.555 -19.694  1.00  0.00     0.000 C 
BRANCH  21  22
ATOM     22  C   UNL     1      -8.683   0.658 -20.270  1.00  0.00    -0.000 C 
BRANCH  22  23
ATOM     23  C   UNL     1      -9.321   0.359 -21.639  1.00  0.00    -0.000 C 
BRANCH  23  24
ATOM     24  C   UNL     1      -9.481   1.620 -22.503  1.00  0.00    -0.000 C 
BRANCH  24  25
ATOM     25  C   UNL     1      -8.985   1.417 -23.943  1.00  0.00    -0.000 C 
BRANCH  25  26
ATOM     26  C   UNL     1      -8.353   2.703 -24.496  1.00  0.00    -0.000 C 
BRANCH  26  27
ATOM     27  C   UNL     1      -8.856   3.059 -25.906  1.00  0.00    -0.000 C 
BRANCH  27  28
ATOM     28  C   UNL     1     -10.390   3.113 -26.059  1.00  0.00    -0.000 C 
BRANCH  28  29
ATOM     29  C   UNL     1     -10.972   2.148 -27.105  1.00  0.00    -0.003 C 
ATOM     30  C   UNL     1     -10.335   0.760 -27.052  1.00  0.00     0.004 C 
ENDBRANCH  28  29
ENDBRANCH  27  28
ENDBRANCH  26  27
ENDBRANCH  25  26
ENDBRANCH  24  25
ENDBRANCH  23  24
ENDBRANCH  22  23
ENDBRANCH  21  22
ENDBRANCH  20  21
ENDBRANCH  19  20
ENDBRANCH  18  19
ENDBRANCH  17  18
ENDBRANCH   1  17
TORSDOF 26
ENDMDL
MODEL 6
REMARK VINA RESULT:    29.466      5.274      9.430
REMARK INTER + INTRA:          73.231
REMARK INTER:                  73.189
REMARK INTRA:                   0.042
REMARK UNBOUND:                -1.022
REMARK SMILES CCCCCCCCCCCCCCCCCCCCCCCCCCCC(=O)[O-]
REMARK SMILES IDX 15 1 16 2 17 3 18 4 19 5 20 6 21 7 22 8 23 9 24 10 25 11
REMARK SMILES IDX 26 12 27 13 28 14 29 15 30 16 14 17 13 18 12 19 11 20 10 21
REMARK SMILES IDX 9 22 8 23 7 24 6 25 5 26 4 27 3 28 2 29 1 30
REMARK H PARENT
REMARK Flexibility Score: inf
ROOT
ATOM      1  C   UNL     1      -9.016  -2.996 -20.602  1.00  0.00     0.000 C 
ENDROOT
BRANCH   1   2
ATOM      2  C   UNL     1      -9.951  -4.133 -21.065  1.00  0.00     0.000 C 
BRANCH   2   3
ATOM      3  C   UNL     1      -9.232  -5.381 -21.611  1.00  0.00     0.000 C 
BRANCH   3   4
ATOM      4  C   UNL     1      -9.907  -6.690 -21.176  1.00  0.00     0.000 C 
BRANCH   4   5
ATOM      5  C   UNL     1     -10.735  -7.292 -22.316  1.00  0.00     0.000 C 
BRANCH   5   6
ATOM      6  C   UNL     1     -11.648  -8.409 -21.797  1.00  0.00     0.000 C 
BRANCH   6   7
ATOM      7  C   UNL     1     -13.029  -8.354 -22.464  1.00  0.00     0.000 C 
BRANCH   7   8
ATOM      8  C   UNL     1     -14.176  -8.198 -21.451  1.00  0.00     0.000 C 
BRANCH   8   9
ATOM      9  C   UNL     1     -15.361  -7.364 -21.983  1.00  0.00     0.000 C 
BRANCH   9  10
ATOM     10  C   UNL     1     -15.249  -7.088 -23.491  1.00  0.00     0.000 C 
BRANCH  10  11
ATOM     11  C   UNL     1     -16.550  -6.487 -24.037  1.00  0.00     0.000 C 
BRANCH  11  12
ATOM     12  C   UNL     1     -17.480  -6.053 -22.895  1.00  0.00     0.006 C 
BRANCH  12  13
ATOM     13  C   UNL     1     -16.788  -5.099 -21.913  1.00  0.00     0.053 C 
BRANCH  13  14
ATOM     14  C   UNL     1     -17.575  -4.938 -20.650  1.00  0.00     0.041 C 
ATOM     15  O   UNL     1     -17.285  -5.621 -19.633  1.00  0.00    -0.550 OA
ATOM     16  O   UNL     1     -18.653  -4.061 -20.605  1.00  0.00    -0.550 OA
ENDBRANCH  13  14
ENDBRANCH  12  13
ENDBRANCH  11  12
ENDBRANCH  10  11
ENDBRANCH   9  10
ENDBRANCH   8   9
ENDBRANCH   7   8
ENDBRANCH   6   7
ENDBRANCH   5   6
ENDBRANCH   4   5
ENDBRANCH   3   4
ENDBRANCH   2   3
ENDBRANCH   1   2
BRANCH   1  17
ATOM     17  C   UNL     1      -9.688  -1.627 -20.369  1.00  0.00     0.000 C 
BRANCH  17  18
ATOM     18  C   UNL     1      -8.785  -0.385 -20.551  1.00  0.00     0.000 C 
BRANCH  18  19
ATOM     19  C   UNL     1      -9.401   0.743 -21.406  1.00  0.00     0.000 C 
BRANCH  19  20
ATOM     20  C   UNL     1      -8.737   0.967 -22.776  1.00  0.00     0.000 C 
BRANCH  20  21
ATOM     21  C   UNL     1      -9.555   1.887 -23.700  1.00  0.00     0.000 C 
BRANCH  21  22
ATOM     22  C   UNL     1      -8.793   2.247 -24.985  1.00  0.00    -0.000 C 
BRANCH  22  23
ATOM     23  C   UNL     1      -9.549   3.272 -25.851  1.00  0.00    -0.000 C 
BRANCH  23  24
ATOM     24  C   UNL     1     -10.552   2.609 -26.809  1.00  0.00    -0.000 C 
BRANCH  24  25
ATOM     25  C   UNL     1     -10.736   1.109 -26.526  1.00  0.00    -0.000 C 
BRANCH  25  26
ATOM     26  C   UNL     1     -10.260   0.262 -27.715  1.00  0.00    -0.000 C 
BRANCH  26  27
ATOM     27  C   UNL     1     -10.966  -1.104 -27.797  1.00  0.00    -0.000 C 
BRANCH  27  28
ATOM     28  C   UNL     1     -10.239  -2.166 -28.646  1.00  0.00    -0.000 C 
BRANCH  28  29
ATOM     29  C   UNL     1      -9.508  -3.252 -27.838  1.00  0.00    -0.003 C 
ATOM     30  C   UNL     1      -8.384  -3.923 -28.627  1.00  0.00     0.004 C 
ENDBRANCH  28  29
ENDBRANCH  27  28
ENDBRANCH  26  27
ENDBRANCH  25  26
ENDBRANCH  24  25
ENDBRANCH  23  24
ENDBRANCH  22  23
ENDBRANCH  21  22
ENDBRANCH  20  21
ENDBRANCH  19  20
ENDBRANCH  18  19
ENDBRANCH  17  18
ENDBRANCH   1  17
TORSDOF 26
ENDMDL
MODEL 7
REMARK VINA RESULT:    29.489      7.829     11.290
REMARK INTER + INTRA:          73.290
REMARK INTER:                  74.420
REMARK INTRA:                  -1.130
REMARK UNBOUND:                -1.022
REMARK SMILES CCCCCCCCCCCCCCCCCCCCCCCCCCCC(=O)[O-]
REMARK SMILES IDX 15 1 16 2 17 3 18 4 19 5 20 6 21 7 22 8 23 9 24 10 25 11
REMARK SMILES IDX 26 12 27 13 28 14 29 15 30 16 14 17 13 18 12 19 11 20 10 21
REMARK SMILES IDX 9 22 8 23 7 24 6 25 5 26 4 27 3 28 2 29 1 30
REMARK H PARENT
REMARK Flexibility Score: inf
ROOT
ATOM      1  C   UNL     1      -9.788  -4.998 -21.764  1.00  0.00     0.000 C 
ENDROOT
BRANCH   1   2
ATOM      2  C   UNL     1      -9.505  -3.651 -21.067  1.00  0.00     0.000 C 
BRANCH   2   3
ATOM      3  C   UNL     1      -8.026  -3.398 -20.723  1.00  0.00     0.000 C 
BRANCH   3   4
ATOM      4  C   UNL     1      -7.849  -2.415 -19.556  1.00  0.00     0.000 C 
BRANCH   4   5
ATOM      5  C   UNL     1      -7.768  -0.969 -20.058  1.00  0.00     0.000 C 
BRANCH   5   6
ATOM      6  C   UNL     1      -9.081  -0.550 -20.729  1.00  0.00     0.000 C 
BRANCH   6   7
ATOM      7  C   UNL     1      -9.099   0.955 -21.026  1.00  0.00     0.000 C 
BRANCH   7   8
ATOM      8  C   UNL     1      -9.705   1.285 -22.400  1.00  0.00     0.000 C 
BRANCH   8   9
ATOM      9  C   UNL     1      -8.727   1.072 -23.575  1.00  0.00     0.000 C 
BRANCH   9  10
ATOM     10  C   UNL     1      -8.379   2.388 -24.290  1.00  0.00     0.000 C 
BRANCH  10  11
ATOM     11  C   UNL     1      -9.544   3.380 -24.210  1.00  0.00     0.000 C 
BRANCH  11  12
ATOM     12  C   UNL     1      -9.910   3.916 -25.602  1.00  0.00     0.006 C 
BRANCH  12  13
ATOM     13  C   UNL     1      -9.599   2.905 -26.713  1.00  0.00     0.053 C 
BRANCH  13  14
ATOM     14  C   UNL     1     -10.656   1.849 -26.813  1.00  0.00     0.041 C 
ATOM     15  O   UNL     1     -11.788   2.038 -26.295  1.00  0.00    -0.550 OA
ATOM     16  O   UNL     1     -10.381   0.642 -27.444  1.00  0.00    -0.550 OA
ENDBRANCH  13  14
ENDBRANCH  12  13
ENDBRANCH  11  12
ENDBRANCH  10  11
ENDBRANCH   9  10
ENDBRANCH   8   9
ENDBRANCH   7   8
ENDBRANCH   6   7
ENDBRANCH   5   6
ENDBRANCH   4   5
ENDBRANCH   3   4
ENDBRANCH   2   3
ENDBRANCH   1   2
BRANCH   1  17
ATOM     17  C   UNL     1      -9.990  -6.209 -20.829  1.00  0.00     0.000 C 
BRANCH  17  18
ATOM     18  C   UNL     1     -10.045  -7.595 -21.511  1.00  0.00     0.000 C 
BRANCH  18  19
ATOM     19  C   UNL     1      -8.680  -8.308 -21.636  1.00  0.00     0.000 C 
BRANCH  19  20
ATOM     20  C   UNL     1      -7.986  -8.639 -20.304  1.00  0.00     0.000 C 
BRANCH  20  21
ATOM     21  C   UNL     1      -7.234  -9.982 -20.332  1.00  0.00     0.000 C 
BRANCH  21  22
ATOM     22  C   UNL     1      -6.150 -10.064 -19.245  1.00  0.00    -0.000 C 
BRANCH  22  23
ATOM     23  C   UNL     1      -5.133 -11.189 -19.512  1.00  0.00    -0.000 C 
BRANCH  23  24
ATOM     24  C   UNL     1      -4.997 -11.518 -21.007  1.00  0.00    -0.000 C 
BRANCH  24  25
ATOM     25  C   UNL     1      -3.894 -12.551 -21.287  1.00  0.00    -0.000 C 
BRANCH  25  26
ATOM     26  C   UNL     1      -3.039 -12.131 -22.492  1.00  0.00    -0.000 C 
BRANCH  26  27
ATOM     27  C   UNL     1      -2.089 -10.963 -22.172  1.00  0.00    -0.000 C 
BRANCH  27  28
ATOM     28  C   UNL     1      -1.975  -9.892 -23.276  1.00  0.00    -0.000 C 
BRANCH  28  29
ATOM     29  C   UNL     1      -1.663  -8.472 -22.773  1.00  0.00    -0.003 C 
ATOM     30  C   UNL     1      -2.848  -7.820 -22.061  1.00  0.00     0.004 C 
ENDBRANCH  28  29
ENDBRANCH  27  28
ENDBRANCH  26  27
ENDBRANCH  25  26
ENDBRANCH  24  25
ENDBRANCH  23  24
ENDBRANCH  22  23
ENDBRANCH  21  22
ENDBRANCH  20  21
ENDBRANCH  19  20
ENDBRANCH  18  19
ENDBRANCH  17  18
ENDBRANCH   1  17
TORSDOF 26
ENDMDL
MODEL 8
REMARK VINA RESULT:    29.492      5.380     12.049
REMARK INTER + INTRA:          73.296
REMARK INTER:                  73.632
REMARK INTRA:                  -0.336
REMARK UNBOUND:                -1.022
REMARK SMILES CCCCCCCCCCCCCCCCCCCCCCCCCCCC(=O)[O-]
REMARK SMILES IDX 15 1 16 2 17 3 18 4 19 5 20 6 21 7 22 8 23 9 24 10 25 11
REMARK SMILES IDX 26 12 27 13 28 14 29 15 30 16 14 17 13 18 12 19 11 20 10 21
REMARK SMILES IDX 9 22 8 23 7 24 6 25 5 26 4 27 3 28 2 29 1 30
REMARK H PARENT
REMARK Flexibility Score: inf
ROOT
ATOM      1  C   UNL     1      -8.801  -3.255 -20.439  1.00  0.00     0.000 C 
ENDROOT
BRANCH   1   2
ATOM      2  C   UNL     1      -7.351  -2.728 -20.462  1.00  0.00     0.000 C 
BRANCH   2   3
ATOM      3  C   UNL     1      -6.628  -2.763 -19.103  1.00  0.00     0.000 C 
BRANCH   3   4
ATOM      4  C   UNL     1      -6.328  -1.360 -18.556  1.00  0.00     0.000 C 
BRANCH   4   5
ATOM      5  C   UNL     1      -6.637  -0.281 -19.599  1.00  0.00     0.000 C 
BRANCH   5   6
ATOM      6  C   UNL     1      -8.094   0.182 -19.490  1.00  0.00     0.000 C 
BRANCH   6   7
ATOM      7  C   UNL     1      -8.848  -0.041 -20.808  1.00  0.00     0.000 C 
BRANCH   7   8
ATOM      8  C   UNL     1      -9.133   1.269 -21.562  1.00  0.00     0.000 C 
BRANCH   8   9
ATOM      9  C   UNL     1      -9.483   1.062 -23.051  1.00  0.00     0.000 C 
BRANCH   9  10
ATOM     10  C   UNL     1      -8.597   1.906 -23.981  1.00  0.00     0.000 C 
BRANCH  10  11
ATOM     11  C   UNL     1      -8.929   1.632 -25.453  1.00  0.00     0.000 C 
BRANCH  11  12
ATOM     12  C   UNL     1      -9.707   2.802 -26.071  1.00  0.00     0.006 C 
BRANCH  12  13
ATOM     13  C   UNL     1      -9.583   4.086 -25.239  1.00  0.00     0.053 C 
BRANCH  13  14
ATOM     14  C   UNL     1     -10.681   4.197 -24.227  1.00  0.00     0.041 C 
ATOM     15  O   UNL     1     -11.620   3.359 -24.218  1.00  0.00    -0.550 OA
ATOM     16  O   UNL     1     -10.688   5.249 -23.317  1.00  0.00    -0.550 OA
ENDBRANCH  13  14
ENDBRANCH  12  13
ENDBRANCH  11  12
ENDBRANCH  10  11
ENDBRANCH   9  10
ENDBRANCH   8   9
ENDBRANCH   7   8
ENDBRANCH   6   7
ENDBRANCH   5   6
ENDBRANCH   4   5
ENDBRANCH   3   4
ENDBRANCH   2   3
ENDBRANCH   1   2
BRANCH   1  17
ATOM     17  C   UNL     1      -9.230  -4.095 -21.661  1.00  0.00     0.000 C 
BRANCH  17  18
ATOM     18  C   UNL     1     -10.222  -5.248 -21.380  1.00  0.00     0.000 C 
BRANCH  18  19
ATOM     19  C   UNL     1      -9.577  -6.647 -21.284  1.00  0.00     0.000 C 
BRANCH  19  20
ATOM     20  C   UNL     1     -10.394  -7.793 -21.905  1.00  0.00     0.000 C 
BRANCH  20  21
ATOM     21  C   UNL     1     -11.799  -7.935 -21.292  1.00  0.00     0.000 C 
BRANCH  21  22
ATOM     22  C   UNL     1     -12.711  -8.844 -22.131  1.00  0.00    -0.000 C 
BRANCH  22  23
ATOM     23  C   UNL     1     -14.120  -8.983 -21.526  1.00  0.00    -0.000 C 
BRANCH  23  24
ATOM     24  C   UNL     1     -14.951  -7.697 -21.665  1.00  0.00    -0.000 C 
BRANCH  24  25
ATOM     25  C   UNL     1     -15.051  -7.213 -23.120  1.00  0.00    -0.000 C 
BRANCH  25  26
ATOM     26  C   UNL     1     -16.507  -7.233 -23.609  1.00  0.00    -0.000 C 
BRANCH  26  27
ATOM     27  C   UNL     1     -17.032  -5.835 -23.981  1.00  0.00    -0.000 C 
BRANCH  27  28
ATOM     28  C   UNL     1     -17.304  -4.900 -22.785  1.00  0.00    -0.000 C 
BRANCH  28  29
ATOM     29  C   UNL     1     -18.070  -5.546 -21.618  1.00  0.00    -0.003 C 
ATOM     30  C   UNL     1     -17.369  -5.362 -20.273  1.00  0.00     0.004 C 
ENDBRANCH  28  29
ENDBRANCH  27  28
ENDBRANCH  26  27
ENDBRANCH  25  26
ENDBRANCH  24  25
ENDBRANCH  23  24
ENDBRANCH  22  23
ENDBRANCH  21  22
ENDBRANCH  20  21
ENDBRANCH  19  20
ENDBRANCH  18  19
ENDBRANCH  17  18
ENDBRANCH   1  17
TORSDOF 26
ENDMDL
MODEL 9
REMARK VINA RESULT:    29.598      4.321     12.304
REMARK INTER + INTRA:          73.563
REMARK INTER:                  74.479
REMARK INTRA:                  -0.916
REMARK UNBOUND:                -1.022
REMARK SMILES CCCCCCCCCCCCCCCCCCCCCCCCCCCC(=O)[O-]
REMARK SMILES IDX 15 1 16 2 17 3 18 4 19 5 20 6 21 7 22 8 23 9 24 10 25 11
REMARK SMILES IDX 26 12 27 13 28 14 29 15 30 16 14 17 13 18 12 19 11 20 10 21
REMARK SMILES IDX 9 22 8 23 7 24 6 25 5 26 4 27 3 28 2 29 1 30
REMARK H PARENT
REMARK Flexibility Score: inf
ROOT
ATOM      1  C   UNL     1     -12.726  -8.601 -21.795  1.00  0.00     0.000 C 
ENDROOT
BRANCH   1   2
ATOM      2  C   UNL     1     -11.887  -7.415 -21.276  1.00  0.00     0.000 C 
BRANCH   2   3
ATOM      3  C   UNL     1     -10.571  -7.171 -22.038  1.00  0.00     0.000 C 
BRANCH   3   4
ATOM      4  C   UNL     1      -9.611  -6.243 -21.279  1.00  0.00     0.000 C 
BRANCH   4   5
ATOM      5  C   UNL     1     -10.057  -4.781 -21.382  1.00  0.00     0.000 C 
BRANCH   5   6
ATOM      6  C   UNL     1      -8.851  -3.836 -21.310  1.00  0.00     0.000 C 
BRANCH   6   7
ATOM      7  C   UNL     1      -9.021  -2.802 -20.190  1.00  0.00     0.000 C 
BRANCH   7   8
ATOM      8  C   UNL     1      -9.667  -1.494 -20.678  1.00  0.00     0.000 C 
BRANCH   8   9
ATOM      9  C   UNL     1      -8.643  -0.412 -21.082  1.00  0.00     0.000 C 
BRANCH   9  10
ATOM     10  C   UNL     1      -9.311   0.939 -21.383  1.00  0.00     0.000 C 
BRANCH  10  11
ATOM     11  C   UNL     1      -9.653   1.063 -22.872  1.00  0.00     0.000 C 
BRANCH  11  12
ATOM     12  C   UNL     1      -8.384   1.245 -23.718  1.00  0.00     0.006 C 
BRANCH  12  13
ATOM     13  C   UNL     1      -8.348   2.606 -24.424  1.00  0.00     0.053 C 
BRANCH  13  14
ATOM     14  C   UNL     1      -9.622   2.881 -25.161  1.00  0.00     0.041 C 
ATOM     15  O   UNL     1      -9.963   2.150 -26.128  1.00  0.00    -0.550 OA
ATOM     16  O   UNL     1     -10.415   3.966 -24.806  1.00  0.00    -0.550 OA
ENDBRANCH  13  14
ENDBRANCH  12  13
ENDBRANCH  11  12
ENDBRANCH  10  11
ENDBRANCH   9  10
ENDBRANCH   8   9
ENDBRANCH   7   8
ENDBRANCH   6   7
ENDBRANCH   5   6
ENDBRANCH   4   5
ENDBRANCH   3   4
ENDBRANCH   2   3
ENDBRANCH   1   2
BRANCH   1  17
ATOM     17  C   UNL     1     -14.252  -8.482 -21.595  1.00  0.00     0.000 C 
BRANCH  17  18
ATOM     18  C   UNL     1     -14.972  -7.424 -22.462  1.00  0.00     0.000 C 
BRANCH  18  19
ATOM     19  C   UNL     1     -15.894  -6.464 -21.678  1.00  0.00     0.000 C 
BRANCH  19  20
ATOM     20  C   UNL     1     -17.101  -5.923 -22.463  1.00  0.00     0.000 C 
BRANCH  20  21
ATOM     21  C   UNL     1     -16.801  -5.703 -23.956  1.00  0.00     0.000 C 
BRANCH  21  22
ATOM     22  C   UNL     1     -17.448  -6.778 -24.844  1.00  0.00    -0.000 C 
BRANCH  22  23
ATOM     23  C   UNL     1     -17.421  -6.402 -26.337  1.00  0.00    -0.000 C 
BRANCH  23  24
ATOM     24  C   UNL     1     -18.586  -7.025 -27.123  1.00  0.00    -0.000 C 
BRANCH  24  25
ATOM     25  C   UNL     1     -18.334  -7.042 -28.639  1.00  0.00    -0.000 C 
BRANCH  25  26
ATOM     26  C   UNL     1     -17.463  -8.242 -29.039  1.00  0.00    -0.000 C 
BRANCH  26  27
ATOM     27  C   UNL     1     -18.182  -9.212 -29.993  1.00  0.00    -0.000 C 
BRANCH  27  28
ATOM     28  C   UNL     1     -17.262 -10.201 -30.736  1.00  0.00    -0.000 C 
BRANCH  28  29
ATOM     29  C   UNL     1     -16.365 -11.060 -29.828  1.00  0.00    -0.003 C 
ATOM     30  C   UNL     1     -14.968 -10.469 -29.641  1.00  0.00     0.004 C 
ENDBRANCH  28  29
ENDBRANCH  27  28
ENDBRANCH  26  27
ENDBRANCH  25  26
ENDBRANCH  24  25
ENDBRANCH  23  24
ENDBRANCH  22  23
ENDBRANCH  21  22
ENDBRANCH  20  21
ENDBRANCH  19  20
ENDBRANCH  18  19
ENDBRANCH  17  18
ENDBRANCH   1  17
TORSDOF 26
ENDMDL
