MODEL 1
REMARK VINA RESULT:    -4.225      0.000      0.000
REMARK INTER + INTRA:          -4.568
REMARK INTER:                  -4.472
REMARK INTRA:                  -0.096
REMARK UNBOUND:                -0.096
REMARK SMILES C=C(C)[C@H]1CC=C(C)C(=O)C1
REMARK SMILES IDX 8 1 7 2 6 3 5 4 4 5 11 6 9 7 10 8 2 9 1 10 3 11
REMARK H PARENT
REMARK Flexibility Score: inf
ROOT
ATOM      1  C   UNL     1     156.060 161.508 197.918  1.00  0.00     0.048 C 
ATOM      2  C   UNL     1     156.638 162.861 198.233  1.00  0.00    -0.012 C 
ATOM      3  C   UNL     1     157.411 163.029 199.319  1.00  0.00    -0.019 C 
ATOM      4  C   UNL     1     157.945 164.380 199.720  1.00  0.00     0.036 C 
ATOM      5  C   UNL     1     158.172 165.276 198.486  1.00  0.00     0.025 C 
ATOM      6  C   UNL     1     156.880 165.382 197.656  1.00  0.00     0.089 C 
ATOM      7  C   UNL     1     156.331 164.014 197.351  1.00  0.00     0.158 C 
ATOM      8  O   UNL     1     155.567 163.867 196.359  1.00  0.00    -0.295 OA
ENDROOT
BRANCH   5   9
ATOM      9  C   UNL     1     158.702 166.649 198.879  1.00  0.00    -0.077 C 
ATOM     10  C   UNL     1     159.020 166.937 200.154  1.00  0.00     0.008 C 
ATOM     11  C   UNL     1     158.880 167.718 197.833  1.00  0.00     0.039 C 
ENDBRANCH   5   9
TORSDOF 1
ENDMDL
MODEL 2
REMARK VINA RESULT:    -4.195      6.365      8.566
REMARK INTER + INTRA:          -4.536
REMARK INTER:                  -4.446
REMARK INTRA:                  -0.090
REMARK UNBOUND:                -0.096
REMARK SMILES C=C(C)[C@H]1CC=C(C)C(=O)C1
REMARK SMILES IDX 8 1 7 2 6 3 5 4 4 5 11 6 9 7 10 8 2 9 1 10 3 11
REMARK H PARENT
REMARK Flexibility Score: inf
ROOT
ATOM      1  C   UNL     1     148.061 160.468 200.853  1.00  0.00     0.048 C 
ATOM      2  C   UNL     1     149.537 160.184 200.797  1.00  0.00    -0.012 C 
ATOM      3  C   UNL     1     150.086 159.680 199.679  1.00  0.00    -0.019 C 
ATOM      4  C   UNL     1     151.543 159.304 199.604  1.00  0.00     0.036 C 
ATOM      5  C   UNL     1     152.396 160.196 200.527  1.00  0.00     0.025 C 
ATOM      6  C   UNL     1     151.855 160.147 201.968  1.00  0.00     0.089 C 
ATOM      7  C   UNL     1     150.380 160.442 201.991  1.00  0.00     0.158 C 
ATOM      8  O   UNL     1     149.855 160.869 203.055  1.00  0.00    -0.295 OA
ENDROOT
BRANCH   5   9
ATOM      9  C   UNL     1     153.871 159.819 200.468  1.00  0.00    -0.077 C 
ATOM     10  C   UNL     1     154.648 160.195 199.436  1.00  0.00     0.008 C 
ATOM     11  C   UNL     1     154.489 159.009 201.577  1.00  0.00     0.039 C 
ENDBRANCH   5   9
TORSDOF 1
ENDMDL
MODEL 3
REMARK VINA RESULT:    -4.171      6.014      8.089
REMARK INTER + INTRA:          -4.511
REMARK INTER:                  -4.416
REMARK INTRA:                  -0.095
REMARK UNBOUND:                -0.096
REMARK SMILES C=C(C)[C@H]1CC=C(C)C(=O)C1
REMARK SMILES IDX 8 1 7 2 6 3 5 4 4 5 11 6 9 7 10 8 2 9 1 10 3 11
REMARK H PARENT
REMARK Flexibility Score: inf
ROOT
ATOM      1  C   UNL     1     148.296 160.298 200.491  1.00  0.00     0.048 C 
ATOM      2  C   UNL     1     149.799 160.237 200.521  1.00  0.00    -0.012 C 
ATOM      3  C   UNL     1     150.461 160.438 201.673  1.00  0.00    -0.019 C 
ATOM      4  C   UNL     1     151.965 160.465 201.737  1.00  0.00     0.036 C 
ATOM      5  C   UNL     1     152.585 159.551 200.662  1.00  0.00     0.025 C 
ATOM      6  C   UNL     1     152.052 159.929 199.267  1.00  0.00     0.089 C 
ATOM      7  C   UNL     1     150.549 159.975 199.267  1.00  0.00     0.158 C 
ATOM      8  O   UNL     1     149.930 159.834 198.178  1.00  0.00    -0.295 OA
ENDROOT
BRANCH   5   9
ATOM      9  C   UNL     1     154.107 159.579 200.709  1.00  0.00    -0.077 C 
ATOM     10  C   UNL     1     154.820 160.326 199.848  1.00  0.00     0.008 C 
ATOM     11  C   UNL     1     154.846 158.759 201.734  1.00  0.00     0.039 C 
ENDBRANCH   5   9
TORSDOF 1
ENDMDL
MODEL 4
REMARK VINA RESULT:    -4.156      1.414      2.058
REMARK INTER + INTRA:          -4.495
REMARK INTER:                  -4.398
REMARK INTRA:                  -0.097
REMARK UNBOUND:                -0.096
REMARK SMILES C=C(C)[C@H]1CC=C(C)C(=O)C1
REMARK SMILES IDX 8 1 7 2 6 3 5 4 4 5 11 6 9 7 10 8 2 9 1 10 3 11
REMARK H PARENT
REMARK Flexibility Score: inf
ROOT
ATOM      1  C   UNL     1     155.966 161.934 197.578  1.00  0.00     0.048 C 
ATOM      2  C   UNL     1     156.735 163.182 197.916  1.00  0.00    -0.012 C 
ATOM      3  C   UNL     1     156.733 164.227 197.070  1.00  0.00    -0.019 C 
ATOM      4  C   UNL     1     157.552 165.465 197.327  1.00  0.00     0.036 C 
ATOM      5  C   UNL     1     157.719 165.718 198.838  1.00  0.00     0.025 C 
ATOM      6  C   UNL     1     158.310 164.474 199.527  1.00  0.00     0.089 C 
ATOM      7  C   UNL     1     157.516 163.245 199.176  1.00  0.00     0.158 C 
ATOM      8  O   UNL     1     157.557 162.247 199.946  1.00  0.00    -0.295 OA
ENDROOT
BRANCH   5   9
ATOM      9  C   UNL     1     158.555 166.962 199.111  1.00  0.00    -0.077 C 
ATOM     10  C   UNL     1     158.939 167.287 200.358  1.00  0.00     0.008 C 
ATOM     11  C   UNL     1     158.967 167.859 197.973  1.00  0.00     0.039 C 
ENDBRANCH   5   9
TORSDOF 1
ENDMDL
MODEL 5
REMARK VINA RESULT:    -4.155      1.968      4.639
REMARK INTER + INTRA:          -4.495
REMARK INTER:                  -4.397
REMARK INTRA:                  -0.098
REMARK UNBOUND:                -0.096
REMARK SMILES C=C(C)[C@H]1CC=C(C)C(=O)C1
REMARK SMILES IDX 8 1 7 2 6 3 5 4 4 5 11 6 9 7 10 8 2 9 1 10 3 11
REMARK H PARENT
REMARK Flexibility Score: inf
ROOT
ATOM      1  C   UNL     1     158.882 167.945 197.864  1.00  0.00     0.048 C 
ATOM      2  C   UNL     1     158.273 166.588 198.084  1.00  0.00    -0.012 C 
ATOM      3  C   UNL     1     157.402 166.085 197.192  1.00  0.00    -0.019 C 
ATOM      4  C   UNL     1     156.707 164.767 197.409  1.00  0.00     0.036 C 
ATOM      5  C   UNL     1     157.585 163.803 198.231  1.00  0.00     0.025 C 
ATOM      6  C   UNL     1     158.010 164.463 199.555  1.00  0.00     0.089 C 
ATOM      7  C   UNL     1     158.622 165.815 199.302  1.00  0.00     0.158 C 
ATOM      8  O   UNL     1     159.402 166.307 200.162  1.00  0.00    -0.295 OA
ENDROOT
BRANCH   5   9
ATOM      9  C   UNL     1     156.888 162.469 198.466  1.00  0.00    -0.077 C 
ATOM     10  C   UNL     1     157.075 161.773 199.601  1.00  0.00     0.008 C 
ATOM     11  C   UNL     1     155.967 161.903 197.417  1.00  0.00     0.039 C 
ENDBRANCH   5   9
TORSDOF 1
ENDMDL
MODEL 6
REMARK VINA RESULT:    -3.979      7.800      8.935
REMARK INTER + INTRA:          -4.308
REMARK INTER:                  -4.219
REMARK INTRA:                  -0.089
REMARK UNBOUND:                -0.096
REMARK SMILES C=C(C)[C@H]1CC=C(C)C(=O)C1
REMARK SMILES IDX 8 1 7 2 6 3 5 4 4 5 11 6 9 7 10 8 2 9 1 10 3 11
REMARK H PARENT
REMARK Flexibility Score: inf
ROOT
ATOM      1  C   UNL     1     154.482 158.637 201.623  1.00  0.00     0.048 C 
ATOM      2  C   UNL     1     153.122 159.057 201.136  1.00  0.00    -0.012 C 
ATOM      3  C   UNL     1     152.540 160.165 201.628  1.00  0.00    -0.019 C 
ATOM      4  C   UNL     1     151.148 160.580 201.231  1.00  0.00     0.036 C 
ATOM      5  C   UNL     1     150.823 160.133 199.792  1.00  0.00     0.025 C 
ATOM      6  C   UNL     1     151.045 158.617 199.640  1.00  0.00     0.089 C 
ATOM      7  C   UNL     1     152.414 158.230 200.127  1.00  0.00     0.158 C 
ATOM      8  O   UNL     1     152.939 157.165 199.702  1.00  0.00    -0.295 OA
ENDROOT
BRANCH   5   9
ATOM      9  C   UNL     1     149.412 160.539 199.383  1.00  0.00    -0.077 C 
ATOM     10  C   UNL     1     149.176 161.171 198.220  1.00  0.00     0.008 C 
ATOM     11  C   UNL     1     148.247 160.234 200.287  1.00  0.00     0.039 C 
ENDBRANCH   5   9
TORSDOF 1
ENDMDL
MODEL 7
REMARK VINA RESULT:    -3.971      8.299      9.687
REMARK INTER + INTRA:          -4.299
REMARK INTER:                  -4.211
REMARK INTRA:                  -0.088
REMARK UNBOUND:                -0.096
REMARK SMILES C=C(C)[C@H]1CC=C(C)C(=O)C1
REMARK SMILES IDX 8 1 7 2 6 3 5 4 4 5 11 6 9 7 10 8 2 9 1 10 3 11
REMARK H PARENT
REMARK Flexibility Score: inf
ROOT
ATOM      1  C   UNL     1     150.137 160.709 203.143  1.00  0.00     0.048 C 
ATOM      2  C   UNL     1     149.896 160.508 201.672  1.00  0.00    -0.012 C 
ATOM      3  C   UNL     1     148.643 160.402 201.200  1.00  0.00    -0.019 C 
ATOM      4  C   UNL     1     148.356 160.120 199.748  1.00  0.00     0.036 C 
ATOM      5  C   UNL     1     149.456 160.703 198.840  1.00  0.00     0.025 C 
ATOM      6  C   UNL     1     150.839 160.183 199.274  1.00  0.00     0.089 C 
ATOM      7  C   UNL     1     151.052 160.405 200.746  1.00  0.00     0.158 C 
ATOM      8  O   UNL     1     152.229 160.457 201.196  1.00  0.00    -0.295 OA
ENDROOT
BRANCH   5   9
ATOM      9  C   UNL     1     149.183 160.415 197.370  1.00  0.00    -0.077 C 
ATOM     10  C   UNL     1     148.657 161.351 196.560  1.00  0.00     0.008 C 
ATOM     11  C   UNL     1     149.500 159.060 196.794  1.00  0.00     0.039 C 
ENDBRANCH   5   9
TORSDOF 1
ENDMDL
MODEL 8
REMARK VINA RESULT:    -3.915      1.455      4.552
REMARK INTER + INTRA:          -4.240
REMARK INTER:                  -4.146
REMARK INTRA:                  -0.094
REMARK UNBOUND:                -0.096
REMARK SMILES C=C(C)[C@H]1CC=C(C)C(=O)C1
REMARK SMILES IDX 8 1 7 2 6 3 5 4 4 5 11 6 9 7 10 8 2 9 1 10 3 11
REMARK H PARENT
REMARK Flexibility Score: inf
ROOT
ATOM      1  C   UNL     1     158.572 166.521 199.400  1.00  0.00     0.048 C 
ATOM      2  C   UNL     1     158.201 165.071 199.247  1.00  0.00    -0.012 C 
ATOM      3  C   UNL     1     158.901 164.123 199.892  1.00  0.00    -0.019 C 
ATOM      4  C   UNL     1     158.618 162.655 199.706  1.00  0.00     0.036 C 
ATOM      5  C   UNL     1     157.129 162.410 199.392  1.00  0.00     0.025 C 
ATOM      6  C   UNL     1     156.695 163.247 198.174  1.00  0.00     0.089 C 
ATOM      7  C   UNL     1     157.073 164.691 198.361  1.00  0.00     0.158 C 
ATOM      8  O   UNL     1     156.447 165.578 197.718  1.00  0.00    -0.295 OA
ENDROOT
BRANCH   5   9
ATOM      9  C   UNL     1     156.833 160.930 199.191  1.00  0.00    -0.077 C 
ATOM     10  C   UNL     1     157.689 160.128 198.533  1.00  0.00     0.008 C 
ATOM     11  C   UNL     1     155.560 160.334 199.732  1.00  0.00     0.039 C 
ENDBRANCH   5   9
TORSDOF 1
ENDMDL
MODEL 9
REMARK VINA RESULT:    -3.891      1.939      4.351
REMARK INTER + INTRA:          -4.215
REMARK INTER:                  -4.118
REMARK INTRA:                  -0.097
REMARK UNBOUND:                -0.096
REMARK SMILES C=C(C)[C@H]1CC=C(C)C(=O)C1
REMARK SMILES IDX 8 1 7 2 6 3 5 4 4 5 11 6 9 7 10 8 2 9 1 10 3 11
REMARK H PARENT
REMARK Flexibility Score: inf
ROOT
ATOM      1  C   UNL     1     159.261 166.913 200.498  1.00  0.00     0.048 C 
ATOM      2  C   UNL     1     158.497 166.145 199.454  1.00  0.00    -0.012 C 
ATOM      3  C   UNL     1     158.048 164.907 199.719  1.00  0.00    -0.019 C 
ATOM      4  C   UNL     1     157.350 164.070 198.679  1.00  0.00     0.036 C 
ATOM      5  C   UNL     1     156.577 164.954 197.681  1.00  0.00     0.025 C 
ATOM      6  C   UNL     1     157.518 165.999 197.053  1.00  0.00     0.089 C 
ATOM      7  C   UNL     1     158.261 166.754 198.122  1.00  0.00     0.158 C 
ATOM      8  O   UNL     1     158.724 167.897 197.857  1.00  0.00    -0.295 OA
ENDROOT
BRANCH   5   9
ATOM      9  C   UNL     1     155.875 164.119 196.618  1.00  0.00    -0.077 C 
ATOM     10  C   UNL     1     155.253 164.696 195.574  1.00  0.00     0.008 C 
ATOM     11  C   UNL     1     155.865 162.617 196.721  1.00  0.00     0.039 C 
ENDBRANCH   5   9
TORSDOF 1
ENDMDL
