MODEL 1
REMARK VINA RESULT:    -3.771      0.000      0.000
REMARK INTER + INTRA:          -7.717
REMARK INTER:                  -6.417
REMARK INTRA:                  -1.300
REMARK UNBOUND:                -1.300
REMARK SMILES CCCCCCCCCCCCCC(=O)[O-]
REMARK SMILES IDX 8 1 9 2 10 3 11 4 12 5 13 6 14 7 15 8 16 9 7 10 6 11 5 12
REMARK SMILES IDX 4 13 3 14 2 15 1 16
REMARK H PARENT
REMARK Flexibility Score: inf
ROOT
ATOM      1  C   UNL     1    -102.601  30.436 -33.289  1.00  0.00     0.000 C 
ENDROOT
BRANCH   1   2
ATOM      2  C   UNL     1    -104.044  30.951 -33.164  1.00  0.00     0.000 C 
BRANCH   2   3
ATOM      3  C   UNL     1    -104.139  32.478 -33.318  1.00  0.00     0.000 C 
BRANCH   3   4
ATOM      4  C   UNL     1    -104.925  32.900 -34.573  1.00  0.00     0.000 C 
BRANCH   4   5
ATOM      5  C   UNL     1    -104.020  33.074 -35.804  1.00  0.00     0.006 C 
BRANCH   5   6
ATOM      6  C   UNL     1    -104.221  31.966 -36.844  1.00  0.00     0.053 C 
BRANCH   6   7
ATOM      7  C   UNL     1    -104.928  32.502 -38.048  1.00  0.00     0.041 C 
ATOM      8  O   UNL     1    -105.062  31.787 -39.075  1.00  0.00    -0.550 OA
ATOM      9  O   UNL     1    -105.394  33.811 -38.055  1.00  0.00    -0.550 OA
ENDBRANCH   6   7
ENDBRANCH   5   6
ENDBRANCH   4   5
ENDBRANCH   3   4
ENDBRANCH   2   3
ENDBRANCH   1   2
BRANCH   1  10
ATOM     10  C   UNL     1    -101.586  31.561 -33.563  1.00  0.00     0.000 C 
BRANCH  10  11
ATOM     11  C   UNL     1    -100.420  31.182 -34.500  1.00  0.00    -0.000 C 
BRANCH  11  12
ATOM     12  C   UNL     1    -100.401  31.925 -35.847  1.00  0.00    -0.000 C 
BRANCH  12  13
ATOM     13  C   UNL     1    -100.460  30.971 -37.053  1.00  0.00    -0.000 C 
BRANCH  13  14
ATOM     14  C   UNL     1     -99.652  31.487 -38.253  1.00  0.00    -0.000 C 
BRANCH  14  15
ATOM     15  C   UNL     1     -98.740  32.668 -37.886  1.00  0.00    -0.003 C 
ATOM     16  C   UNL     1     -97.642  32.859 -38.927  1.00  0.00     0.004 C 
ENDBRANCH  14  15
ENDBRANCH  13  14
ENDBRANCH  12  13
ENDBRANCH  11  12
ENDBRANCH  10  11
ENDBRANCH   1  10
TORSDOF 12
ENDMDL
MODEL 2
REMARK VINA RESULT:    -3.672      1.857      2.681
REMARK INTER + INTRA:          -7.548
REMARK INTER:                  -6.342
REMARK INTRA:                  -1.206
REMARK UNBOUND:                -1.300
REMARK SMILES CCCCCCCCCCCCCC(=O)[O-]
REMARK SMILES IDX 8 1 9 2 10 3 11 4 12 5 13 6 14 7 15 8 16 9 7 10 6 11 5 12
REMARK SMILES IDX 4 13 3 14 2 15 1 16
REMARK H PARENT
REMARK Flexibility Score: inf
ROOT
ATOM      1  C   UNL     1    -103.392  32.329 -35.507  1.00  0.00     0.000 C 
ENDROOT
BRANCH   1   2
ATOM      2  C   UNL     1    -103.773  30.886 -35.878  1.00  0.00     0.000 C 
BRANCH   2   3
ATOM      3  C   UNL     1    -103.678  30.622 -37.390  1.00  0.00     0.000 C 
BRANCH   3   4
ATOM      4  C   UNL     1    -103.878  31.897 -38.229  1.00  0.00     0.000 C 
BRANCH   4   5
ATOM      5  C   UNL     1    -105.328  32.062 -38.713  1.00  0.00     0.006 C 
BRANCH   5   6
ATOM      6  C   UNL     1    -106.054  33.219 -38.016  1.00  0.00     0.053 C 
BRANCH   6   7
ATOM      7  C   UNL     1    -107.270  32.718 -37.303  1.00  0.00     0.041 C 
ATOM      8  O   UNL     1    -108.380  33.289 -37.464  1.00  0.00    -0.550 OA
ATOM      9  O   UNL     1    -107.166  31.651 -36.419  1.00  0.00    -0.550 OA
ENDBRANCH   6   7
ENDBRANCH   5   6
ENDBRANCH   4   5
ENDBRANCH   3   4
ENDBRANCH   2   3
ENDBRANCH   1   2
BRANCH   1  10
ATOM     10  C   UNL     1    -101.869  32.539 -35.412  1.00  0.00     0.000 C 
BRANCH  10  11
ATOM     11  C   UNL     1    -101.054  31.286 -35.033  1.00  0.00    -0.000 C 
BRANCH  11  12
ATOM     12  C   UNL     1    -100.002  30.856 -36.071  1.00  0.00    -0.000 C 
BRANCH  12  13
ATOM     13  C   UNL     1     -99.888  31.842 -37.246  1.00  0.00    -0.000 C 
BRANCH  13  14
ATOM     14  C   UNL     1     -98.615  32.701 -37.174  1.00  0.00    -0.000 C 
BRANCH  14  15
ATOM     15  C   UNL     1     -98.343  33.460 -38.481  1.00  0.00    -0.003 C 
ATOM     16  C   UNL     1     -97.198  32.819 -39.260  1.00  0.00     0.004 C 
ENDBRANCH  14  15
ENDBRANCH  13  14
ENDBRANCH  12  13
ENDBRANCH  11  12
ENDBRANCH  10  11
ENDBRANCH   1  10
TORSDOF 12
ENDMDL
MODEL 3
REMARK VINA RESULT:    -3.608      2.919      5.704
REMARK INTER + INTRA:          -7.438
REMARK INTER:                  -6.268
REMARK INTRA:                  -1.170
REMARK UNBOUND:                -1.300
REMARK SMILES CCCCCCCCCCCCCC(=O)[O-]
REMARK SMILES IDX 8 1 9 2 10 3 11 4 12 5 13 6 14 7 15 8 16 9 7 10 6 11 5 12
REMARK SMILES IDX 4 13 3 14 2 15 1 16
REMARK H PARENT
REMARK Flexibility Score: inf
ROOT
ATOM      1  C   UNL     1    -101.874  32.134 -34.489  1.00  0.00     0.000 C 
ENDROOT
BRANCH   1   2
ATOM      2  C   UNL     1    -100.789  31.084 -34.199  1.00  0.00     0.000 C 
BRANCH   2   3
ATOM      3  C   UNL     1     -99.544  31.265 -35.083  1.00  0.00     0.000 C 
BRANCH   3   4
ATOM      4  C   UNL     1     -99.676  30.562 -36.446  1.00  0.00     0.000 C 
BRANCH   4   5
ATOM      5  C   UNL     1    -100.070  31.532 -37.573  1.00  0.00     0.006 C 
BRANCH   5   6
ATOM      6  C   UNL     1     -99.047  31.556 -38.714  1.00  0.00     0.053 C 
BRANCH   6   7
ATOM      7  C   UNL     1     -98.159  32.753 -38.594  1.00  0.00     0.041 C 
ATOM      8  O   UNL     1     -98.537  33.760 -37.941  1.00  0.00    -0.550 OA
ATOM      9  O   UNL     1     -96.932  32.776 -39.247  1.00  0.00    -0.550 OA
ENDBRANCH   6   7
ENDBRANCH   5   6
ENDBRANCH   4   5
ENDBRANCH   3   4
ENDBRANCH   2   3
ENDBRANCH   1   2
BRANCH   1  10
ATOM     10  C   UNL     1    -103.263  31.511 -34.720  1.00  0.00     0.000 C 
BRANCH  10  11
ATOM     11  C   UNL     1    -103.484  30.897 -36.117  1.00  0.00    -0.000 C 
BRANCH  11  12
ATOM     12  C   UNL     1    -103.525  31.909 -37.275  1.00  0.00    -0.000 C 
BRANCH  12  13
ATOM     13  C   UNL     1    -104.134  31.321 -38.559  1.00  0.00    -0.000 C 
BRANCH  13  14
ATOM     14  C   UNL     1    -105.544  31.861 -38.844  1.00  0.00    -0.000 C 
BRANCH  14  15
ATOM     15  C   UNL     1    -105.869  33.119 -38.025  1.00  0.00    -0.003 C 
ATOM     16  C   UNL     1    -107.063  32.882 -37.104  1.00  0.00     0.004 C 
ENDBRANCH  14  15
ENDBRANCH  13  14
ENDBRANCH  12  13
ENDBRANCH  11  12
ENDBRANCH  10  11
ENDBRANCH   1  10
TORSDOF 12
ENDMDL
MODEL 4
REMARK VINA RESULT:    -3.568      2.848      5.907
REMARK INTER + INTRA:          -7.371
REMARK INTER:                  -6.012
REMARK INTRA:                  -1.359
REMARK UNBOUND:                -1.300
REMARK SMILES CCCCCCCCCCCCCC(=O)[O-]
REMARK SMILES IDX 8 1 9 2 10 3 11 4 12 5 13 6 14 7 15 8 16 9 7 10 6 11 5 12
REMARK SMILES IDX 4 13 3 14 2 15 1 16
REMARK H PARENT
REMARK Flexibility Score: inf
ROOT
ATOM      1  C   UNL     1    -103.243  31.351 -38.490  1.00  0.00     0.000 C 
ENDROOT
BRANCH   1   2
ATOM      2  C   UNL     1    -102.532  30.086 -37.981  1.00  0.00     0.000 C 
BRANCH   2   3
ATOM      3  C   UNL     1    -101.676  30.355 -36.732  1.00  0.00     0.000 C 
BRANCH   3   4
ATOM      4  C   UNL     1    -101.103  31.784 -36.701  1.00  0.00     0.000 C 
BRANCH   4   5
ATOM      5  C   UNL     1     -99.571  31.808 -36.830  1.00  0.00     0.006 C 
BRANCH   5   6
ATOM      6  C   UNL     1     -99.099  31.655 -38.281  1.00  0.00     0.053 C 
BRANCH   6   7
ATOM      7  C   UNL     1     -98.216  32.799 -38.666  1.00  0.00     0.041 C 
ATOM      8  O   UNL     1     -97.207  32.604 -39.393  1.00  0.00    -0.550 OA
ATOM      9  O   UNL     1     -98.479  34.074 -38.180  1.00  0.00    -0.550 OA
ENDBRANCH   6   7
ENDBRANCH   5   6
ENDBRANCH   4   5
ENDBRANCH   3   4
ENDBRANCH   2   3
ENDBRANCH   1   2
BRANCH   1  10
ATOM     10  C   UNL     1    -104.720  31.421 -38.060  1.00  0.00     0.000 C 
BRANCH  10  11
ATOM     11  C   UNL     1    -105.146  32.739 -37.382  1.00  0.00    -0.000 C 
BRANCH  11  12
ATOM     12  C   UNL     1    -104.429  33.052 -36.057  1.00  0.00    -0.000 C 
BRANCH  12  13
ATOM     13  C   UNL     1    -104.971  32.225 -34.879  1.00  0.00    -0.000 C 
BRANCH  13  14
ATOM     14  C   UNL     1    -104.396  32.678 -33.527  1.00  0.00    -0.000 C 
BRANCH  14  15
ATOM     15  C   UNL     1    -103.461  31.630 -32.904  1.00  0.00    -0.003 C 
ATOM     16  C   UNL     1    -101.999  31.954 -33.199  1.00  0.00     0.004 C 
ENDBRANCH  14  15
ENDBRANCH  13  14
ENDBRANCH  12  13
ENDBRANCH  11  12
ENDBRANCH  10  11
ENDBRANCH   1  10
TORSDOF 12
ENDMDL
MODEL 5
REMARK VINA RESULT:    -3.526      2.068      3.423
REMARK INTER + INTRA:          -7.299
REMARK INTER:                  -6.319
REMARK INTRA:                  -0.980
REMARK UNBOUND:                -1.300
REMARK SMILES CCCCCCCCCCCCCC(=O)[O-]
REMARK SMILES IDX 8 1 9 2 10 3 11 4 12 5 13 6 14 7 15 8 16 9 7 10 6 11 5 12
REMARK SMILES IDX 4 13 3 14 2 15 1 16
REMARK H PARENT
REMARK Flexibility Score: inf
ROOT
ATOM      1  C   UNL     1    -102.711  31.193 -38.024  1.00  0.00     0.000 C 
ENDROOT
BRANCH   1   2
ATOM      2  C   UNL     1    -103.845  30.941 -39.032  1.00  0.00     0.000 C 
BRANCH   2   3
ATOM      3  C   UNL     1    -105.235  30.976 -38.376  1.00  0.00     0.000 C 
BRANCH   3   4
ATOM      4  C   UNL     1    -105.870  32.378 -38.407  1.00  0.00     0.000 C 
BRANCH   4   5
ATOM      5  C   UNL     1    -106.252  32.883 -37.006  1.00  0.00     0.006 C 
BRANCH   5   6
ATOM      6  C   UNL     1    -105.637  32.035 -35.886  1.00  0.00     0.053 C 
BRANCH   6   7
ATOM      7  C   UNL     1    -104.755  32.876 -35.019  1.00  0.00     0.041 C 
ATOM      8  O   UNL     1    -103.614  33.223 -35.422  1.00  0.00    -0.550 OA
ATOM      9  O   UNL     1    -105.173  33.235 -33.743  1.00  0.00    -0.550 OA
ENDBRANCH   6   7
ENDBRANCH   5   6
ENDBRANCH   4   5
ENDBRANCH   3   4
ENDBRANCH   2   3
ENDBRANCH   1   2
BRANCH   1  10
ATOM     10  C   UNL     1    -102.263  29.912 -37.296  1.00  0.00     0.000 C 
BRANCH  10  11
ATOM     11  C   UNL     1    -100.792  29.899 -36.833  1.00  0.00    -0.000 C 
BRANCH  11  12
ATOM     12  C   UNL     1    -100.414  31.007 -35.834  1.00  0.00    -0.000 C 
BRANCH  12  13
ATOM     13  C   UNL     1     -99.182  31.813 -36.278  1.00  0.00    -0.000 C 
BRANCH  13  14
ATOM     14  C   UNL     1     -99.156  32.065 -37.793  1.00  0.00    -0.000 C 
BRANCH  14  15
ATOM     15  C   UNL     1     -98.250  33.245 -38.179  1.00  0.00    -0.003 C 
ATOM     16  C   UNL     1     -97.296  32.859 -39.305  1.00  0.00     0.004 C 
ENDBRANCH  14  15
ENDBRANCH  13  14
ENDBRANCH  12  13
ENDBRANCH  11  12
ENDBRANCH  10  11
ENDBRANCH   1  10
TORSDOF 12
ENDMDL
MODEL 6
REMARK VINA RESULT:    -3.433      2.184      3.736
REMARK INTER + INTRA:          -7.141
REMARK INTER:                  -6.020
REMARK INTRA:                  -1.121
REMARK UNBOUND:                -1.300
REMARK SMILES CCCCCCCCCCCCCC(=O)[O-]
REMARK SMILES IDX 8 1 9 2 10 3 11 4 12 5 13 6 14 7 15 8 16 9 7 10 6 11 5 12
REMARK SMILES IDX 4 13 3 14 2 15 1 16
REMARK H PARENT
REMARK Flexibility Score: inf
ROOT
ATOM      1  C   UNL     1    -103.429  31.632 -36.498  1.00  0.00     0.000 C 
ENDROOT
BRANCH   1   2
ATOM      2  C   UNL     1    -102.857  32.600 -35.450  1.00  0.00     0.000 C 
BRANCH   2   3
ATOM      3  C   UNL     1    -101.753  31.955 -34.594  1.00  0.00     0.000 C 
BRANCH   3   4
ATOM      4  C   UNL     1    -102.256  31.524 -33.204  1.00  0.00     0.000 C 
BRANCH   4   5
ATOM      5  C   UNL     1    -103.776  31.699 -33.047  1.00  0.00     0.006 C 
BRANCH   5   6
ATOM      6  C   UNL     1    -104.142  32.855 -32.109  1.00  0.00     0.053 C 
BRANCH   6   7
ATOM      7  C   UNL     1    -105.274  33.650 -32.677  1.00  0.00     0.041 C 
ATOM      8  O   UNL     1    -105.629  34.727 -32.131  1.00  0.00    -0.550 OA
ATOM      9  O   UNL     1    -105.971  33.176 -33.782  1.00  0.00    -0.550 OA
ENDBRANCH   6   7
ENDBRANCH   5   6
ENDBRANCH   4   5
ENDBRANCH   3   4
ENDBRANCH   2   3
ENDBRANCH   1   2
BRANCH   1  10
ATOM     10  C   UNL     1    -102.401  30.589 -36.974  1.00  0.00     0.000 C 
BRANCH  10  11
ATOM     11  C   UNL     1    -101.814  30.835 -38.378  1.00  0.00    -0.000 C 
BRANCH  11  12
ATOM     12  C   UNL     1    -100.333  30.450 -38.542  1.00  0.00    -0.000 C 
BRANCH  12  13
ATOM     13  C   UNL     1     -99.438  31.051 -37.445  1.00  0.00    -0.000 C 
BRANCH  13  14
ATOM     14  C   UNL     1     -99.357  32.584 -37.523  1.00  0.00    -0.000 C 
BRANCH  14  15
ATOM     15  C   UNL     1     -97.946  33.081 -37.874  1.00  0.00    -0.003 C 
ATOM     16  C   UNL     1     -97.722  33.074 -39.384  1.00  0.00     0.004 C 
ENDBRANCH  14  15
ENDBRANCH  13  14
ENDBRANCH  12  13
ENDBRANCH  11  12
ENDBRANCH  10  11
ENDBRANCH   1  10
TORSDOF 12
ENDMDL
MODEL 7
REMARK VINA RESULT:    -3.418      2.548      4.990
REMARK INTER + INTRA:          -7.116
REMARK INTER:                  -5.721
REMARK INTRA:                  -1.395
REMARK UNBOUND:                -1.300
REMARK SMILES CCCCCCCCCCCCCC(=O)[O-]
REMARK SMILES IDX 8 1 9 2 10 3 11 4 12 5 13 6 14 7 15 8 16 9 7 10 6 11 5 12
REMARK SMILES IDX 4 13 3 14 2 15 1 16
REMARK H PARENT
REMARK Flexibility Score: inf
ROOT
ATOM      1  C   UNL     1    -103.573  31.143 -34.851  1.00  0.00     0.000 C 
ENDROOT
BRANCH   1   2
ATOM      2  C   UNL     1    -102.800  31.077 -33.524  1.00  0.00     0.000 C 
BRANCH   2   3
ATOM      3  C   UNL     1    -101.384  31.666 -33.637  1.00  0.00     0.000 C 
BRANCH   3   4
ATOM      4  C   UNL     1    -100.384  30.689 -34.282  1.00  0.00     0.000 C 
BRANCH   4   5
ATOM      5  C   UNL     1     -99.432  31.385 -35.268  1.00  0.00     0.006 C 
BRANCH   5   6
ATOM      6  C   UNL     1    -100.178  32.141 -36.374  1.00  0.00     0.053 C 
BRANCH   6   7
ATOM      7  C   UNL     1     -99.309  32.291 -37.581  1.00  0.00     0.041 C 
ATOM      8  O   UNL     1     -98.681  33.364 -37.781  1.00  0.00    -0.550 OA
ATOM      9  O   UNL     1     -99.231  31.264 -38.514  1.00  0.00    -0.550 OA
ENDBRANCH   6   7
ENDBRANCH   5   6
ENDBRANCH   4   5
ENDBRANCH   3   4
ENDBRANCH   2   3
ENDBRANCH   1   2
BRANCH   1  10
ATOM     10  C   UNL     1    -103.827  32.587 -35.324  1.00  0.00     0.000 C 
BRANCH  10  11
ATOM     11  C   UNL     1    -105.217  32.843 -35.940  1.00  0.00    -0.000 C 
BRANCH  11  12
ATOM     12  C   UNL     1    -105.205  33.261 -37.421  1.00  0.00    -0.000 C 
BRANCH  12  13
ATOM     13  C   UNL     1    -106.020  32.311 -38.314  1.00  0.00    -0.000 C 
BRANCH  13  14
ATOM     14  C   UNL     1    -105.353  30.935 -38.473  1.00  0.00    -0.000 C 
BRANCH  14  15
ATOM     15  C   UNL     1    -104.069  30.997 -39.314  1.00  0.00    -0.003 C 
ATOM     16  C   UNL     1    -102.840  30.688 -38.464  1.00  0.00     0.004 C 
ENDBRANCH  14  15
ENDBRANCH  13  14
ENDBRANCH  12  13
ENDBRANCH  11  12
ENDBRANCH  10  11
ENDBRANCH   1  10
TORSDOF 12
ENDMDL
MODEL 8
REMARK VINA RESULT:    -3.367     15.372     17.318
REMARK INTER + INTRA:          -7.029
REMARK INTER:                  -5.711
REMARK INTRA:                  -1.318
REMARK UNBOUND:                -1.300
REMARK SMILES CCCCCCCCCCCCCC(=O)[O-]
REMARK SMILES IDX 8 1 9 2 10 3 11 4 12 5 13 6 14 7 15 8 16 9 7 10 6 11 5 12
REMARK SMILES IDX 4 13 3 14 2 15 1 16
REMARK H PARENT
REMARK Flexibility Score: inf
ROOT
ATOM      1  C   UNL     1     -96.652  45.644 -37.980  1.00  0.00     0.000 C 
ENDROOT
BRANCH   1   2
ATOM      2  C   UNL     1     -95.532  45.408 -36.954  1.00  0.00     0.000 C 
BRANCH   2   3
ATOM      3  C   UNL     1     -95.570  46.421 -35.798  1.00  0.00     0.000 C 
BRANCH   3   4
ATOM      4  C   UNL     1     -96.874  47.239 -35.768  1.00  0.00     0.000 C 
BRANCH   4   5
ATOM      5  C   UNL     1     -96.651  48.715 -36.136  1.00  0.00     0.006 C 
BRANCH   5   6
ATOM      6  C   UNL     1     -97.854  49.330 -36.862  1.00  0.00     0.053 C 
BRANCH   6   7
ATOM      7  C   UNL     1     -99.119  49.027 -36.125  1.00  0.00     0.041 C 
ATOM      8  O   UNL     1     -99.999  48.294 -36.648  1.00  0.00    -0.550 OA
ATOM      9  O   UNL     1     -99.350  49.595 -34.877  1.00  0.00    -0.550 OA
ENDBRANCH   6   7
ENDBRANCH   5   6
ENDBRANCH   4   5
ENDBRANCH   3   4
ENDBRANCH   2   3
ENDBRANCH   1   2
BRANCH   1  10
ATOM     10  C   UNL     1     -96.119  46.068 -39.362  1.00  0.00     0.000 C 
BRANCH  10  11
ATOM     11  C   UNL     1     -95.248  47.341 -39.369  1.00  0.00    -0.000 C 
BRANCH  11  12
ATOM     12  C   UNL     1     -95.846  48.533 -40.137  1.00  0.00    -0.000 C 
BRANCH  12  13
ATOM     13  C   UNL     1     -95.120  48.808 -41.465  1.00  0.00    -0.000 C 
BRANCH  13  14
ATOM     14  C   UNL     1     -96.085  48.893 -42.658  1.00  0.00    -0.000 C 
BRANCH  14  15
ATOM     15  C   UNL     1     -97.205  47.844 -42.586  1.00  0.00    -0.003 C 
ATOM     16  C   UNL     1     -98.572  48.482 -42.816  1.00  0.00     0.004 C 
ENDBRANCH  14  15
ENDBRANCH  13  14
ENDBRANCH  12  13
ENDBRANCH  11  12
ENDBRANCH  10  11
ENDBRANCH   1  10
TORSDOF 12
ENDMDL
MODEL 9
REMARK VINA RESULT:    -3.323      2.542      4.093
REMARK INTER + INTRA:          -6.954
REMARK INTER:                  -5.623
REMARK INTRA:                  -1.331
REMARK UNBOUND:                -1.300
REMARK SMILES CCCCCCCCCCCCCC(=O)[O-]
REMARK SMILES IDX 8 1 9 2 10 3 11 4 12 5 13 6 14 7 15 8 16 9 7 10 6 11 5 12
REMARK SMILES IDX 4 13 3 14 2 15 1 16
REMARK H PARENT
REMARK Flexibility Score: inf
ROOT
ATOM      1  C   UNL     1    -104.868  31.510 -38.491  1.00  0.00     0.000 C 
ENDROOT
BRANCH   1   2
ATOM      2  C   UNL     1    -105.005  32.895 -37.838  1.00  0.00     0.000 C 
BRANCH   2   3
ATOM      3  C   UNL     1    -104.869  32.841 -36.307  1.00  0.00     0.000 C 
BRANCH   3   4
ATOM      4  C   UNL     1    -105.125  31.433 -35.738  1.00  0.00     0.000 C 
BRANCH   4   5
ATOM      5  C   UNL     1    -105.004  31.386 -34.206  1.00  0.00     0.006 C 
BRANCH   5   6
ATOM      6  C   UNL     1    -103.718  30.695 -33.737  1.00  0.00     0.053 C 
BRANCH   6   7
ATOM      7  C   UNL     1    -102.750  31.701 -33.201  1.00  0.00     0.041 C 
ATOM      8  O   UNL     1    -103.090  32.471 -32.265  1.00  0.00    -0.550 OA
ATOM      9  O   UNL     1    -101.488  31.822 -33.770  1.00  0.00    -0.550 OA
ENDBRANCH   6   7
ENDBRANCH   5   6
ENDBRANCH   4   5
ENDBRANCH   3   4
ENDBRANCH   2   3
ENDBRANCH   1   2
BRANCH   1  10
ATOM     10  C   UNL     1    -103.416  31.171 -38.875  1.00  0.00     0.000 C 
BRANCH  10  11
ATOM     11  C   UNL     1    -102.815  29.943 -38.161  1.00  0.00    -0.000 C 
BRANCH  11  12
ATOM     12  C   UNL     1    -101.827  30.267 -37.028  1.00  0.00    -0.000 C 
BRANCH  12  13
ATOM     13  C   UNL     1    -101.093  31.602 -37.242  1.00  0.00    -0.000 C 
BRANCH  13  14
ATOM     14  C   UNL     1     -99.766  31.430 -37.999  1.00  0.00    -0.000 C 
BRANCH  14  15
ATOM     15  C   UNL     1     -98.795  32.596 -37.756  1.00  0.00    -0.003 C 
ATOM     16  C   UNL     1     -98.187  33.086 -39.066  1.00  0.00     0.004 C 
ENDBRANCH  14  15
ENDBRANCH  13  14
ENDBRANCH  12  13
ENDBRANCH  11  12
ENDBRANCH  10  11
ENDBRANCH   1  10
TORSDOF 12
ENDMDL
