MODEL 1
REMARK VINA RESULT:    -7.605      0.000      0.000
REMARK INTER + INTRA:          -9.412
REMARK INTER:                  -9.161
REMARK INTRA:                  -0.252
REMARK UNBOUND:                -0.252
REMARK SMILES O=c1c(O)c(-c2ccc(O)cc2O)oc2cc(O)cc(O)c12
REMARK SMILES IDX 5 1 3 2 2 3 1 4 22 5 20 6 19 7 17 8 16 9 15 10 14 11 6 12
REMARK SMILES IDX 8 13 7 14 9 15 11 16 12 17 10 18 13 20 4 22 21 24 18 26
REMARK H PARENT 10 19 13 21 4 23 21 25 18 27
REMARK Flexibility Score: inf
ROOT
ATOM      1  C   UNL     1       6.373  -2.413  -6.841  1.00  0.00     0.184 A 
ATOM      2  C   UNL     1       7.704  -2.596  -6.437  1.00  0.00     0.208 A 
ATOM      3  C   UNL     1       8.338  -1.584  -5.700  1.00  0.00     0.238 A 
ATOM      4  O   UNL     1       9.549  -1.732  -5.387  1.00  0.00    -0.285 OA
ATOM      5  C   UNL     1       7.625  -0.408  -5.363  1.00  0.00     0.111 A 
ATOM      6  C   UNL     1       8.155   0.666  -4.586  1.00  0.00     0.134 A 
ATOM      7  C   UNL     1       7.404   1.837  -4.424  1.00  0.00     0.093 A 
ATOM      8  C   UNL     1       6.120   1.949  -4.954  1.00  0.00     0.123 A 
ATOM      9  C   UNL     1       5.569   0.882  -5.667  1.00  0.00     0.094 A 
ATOM     10  C   UNL     1       6.307  -0.285  -5.876  1.00  0.00     0.146 A 
ATOM     11  O   UNL     1       5.750  -1.272  -6.567  1.00  0.00    -0.451 OA
ENDROOT
BRANCH   1  12
ATOM     12  C   UNL     1       5.642  -3.446  -7.604  1.00  0.00     0.063 A 
ATOM     13  C   UNL     1       4.919  -5.759  -7.803  1.00  0.00     0.047 A 
ATOM     14  C   UNL     1       5.598  -4.757  -7.104  1.00  0.00     0.020 A 
ATOM     15  C   UNL     1       4.289  -5.465  -9.019  1.00  0.00     0.119 A 
ATOM     16  C   UNL     1       4.347  -4.167  -9.535  1.00  0.00     0.093 A 
ATOM     17  C   UNL     1       5.031  -3.156  -8.842  1.00  0.00     0.130 A 
BRANCH  15  18
ATOM     18  O   UNL     1       3.607  -6.455  -9.722  1.00  0.00    -0.508 OA
ATOM     19  H   UNL     1       3.043  -6.235 -10.535  1.00  0.00     0.293 HD
ENDBRANCH  15  18
BRANCH  17  20
ATOM     20  O   UNL     1       5.124  -1.878  -9.392  1.00  0.00    -0.507 OA
ATOM     21  H   UNL     1       5.364  -1.072  -8.827  1.00  0.00     0.293 HD
ENDBRANCH  17  20
ENDBRANCH   1  12
BRANCH   2  22
ATOM     22  O   UNL     1       8.389  -3.759  -6.799  1.00  0.00    -0.502 OA
ATOM     23  H   UNL     1       9.366  -3.907  -6.573  1.00  0.00     0.293 HD
ENDBRANCH   2  22
BRANCH   6  24
ATOM     24  O   UNL     1       9.392   0.623  -3.934  1.00  0.00    -0.507 OA
ATOM     25  H   UNL     1       9.798   1.392  -3.423  1.00  0.00     0.293 HD
ENDBRANCH   6  24
BRANCH   8  26
ATOM     26  O   UNL     1       5.395   3.123  -4.760  1.00  0.00    -0.508 OA
ATOM     27  H   UNL     1       5.644   3.787  -4.037  1.00  0.00     0.293 HD
ENDBRANCH   8  26
TORSDOF 6
ENDMDL
MODEL 2
REMARK VINA RESULT:    -7.553      4.253      5.016
REMARK INTER + INTRA:          -9.350
REMARK INTER:                  -8.937
REMARK INTRA:                  -0.414
REMARK UNBOUND:                -0.252
REMARK SMILES O=c1c(O)c(-c2ccc(O)cc2O)oc2cc(O)cc(O)c12
REMARK SMILES IDX 5 1 3 2 2 3 1 4 22 5 20 6 19 7 17 8 16 9 15 10 14 11 6 12
REMARK SMILES IDX 8 13 7 14 9 15 11 16 12 17 10 18 13 20 4 22 21 24 18 26
REMARK H PARENT 10 19 13 21 4 23 21 25 18 27
REMARK Flexibility Score: inf
ROOT
ATOM      1  C   UNL     1       5.149  -2.076  -3.073  1.00  0.00     0.184 A 
ATOM      2  C   UNL     1       6.372  -2.757  -3.163  1.00  0.00     0.208 A 
ATOM      3  C   UNL     1       7.486  -2.090  -3.694  1.00  0.00     0.238 A 
ATOM      4  O   UNL     1       8.566  -2.724  -3.823  1.00  0.00    -0.285 OA
ATOM      5  C   UNL     1       7.364  -0.743  -4.114  1.00  0.00     0.111 A 
ATOM      6  C   UNL     1       8.438   0.044  -4.631  1.00  0.00     0.134 A 
ATOM      7  C   UNL     1       8.173   1.324  -5.136  1.00  0.00     0.093 A 
ATOM      8  C   UNL     1       6.893   1.869  -5.083  1.00  0.00     0.123 A 
ATOM      9  C   UNL     1       5.847   1.131  -4.526  1.00  0.00     0.094 A 
ATOM     10  C   UNL     1       6.071  -0.162  -4.047  1.00  0.00     0.146 A 
ATOM     11  O   UNL     1       5.047  -0.835  -3.534  1.00  0.00    -0.451 OA
ENDROOT
BRANCH   1  12
ATOM     12  C   UNL     1       3.942  -2.715  -2.507  1.00  0.00     0.063 A 
ATOM     13  C   UNL     1       1.905  -3.992  -2.869  1.00  0.00     0.047 A 
ATOM     14  C   UNL     1       3.057  -3.381  -3.370  1.00  0.00     0.020 A 
ATOM     15  C   UNL     1       1.615  -3.930  -1.500  1.00  0.00     0.119 A 
ATOM     16  C   UNL     1       2.478  -3.249  -0.638  1.00  0.00     0.093 A 
ATOM     17  C   UNL     1       3.635  -2.628  -1.133  1.00  0.00     0.130 A 
BRANCH  15  18
ATOM     18  O   UNL     1       0.470  -4.539  -0.990  1.00  0.00    -0.508 OA
ATOM     19  H   UNL     1       0.515  -5.179  -0.206  1.00  0.00     0.293 HD
ENDBRANCH  15  18
BRANCH  17  20
ATOM     20  O   UNL     1       4.461  -1.909  -0.270  1.00  0.00    -0.507 OA
ATOM     21  H   UNL     1       4.284  -1.873   0.728  1.00  0.00     0.293 HD
ENDBRANCH  17  20
ENDBRANCH   1  12
BRANCH   2  22
ATOM     22  O   UNL     1       6.458  -4.092  -2.759  1.00  0.00    -0.502 OA
ATOM     23  H   UNL     1       5.934  -4.457  -1.972  1.00  0.00     0.293 HD
ENDBRANCH   2  22
BRANCH   6  24
ATOM     24  O   UNL     1       9.773  -0.369  -4.647  1.00  0.00    -0.507 OA
ATOM     25  H   UNL     1      10.103  -1.257  -4.298  1.00  0.00     0.293 HD
ENDBRANCH   6  24
BRANCH   8  26
ATOM     26  O   UNL     1       6.669   3.152  -5.580  1.00  0.00    -0.508 OA
ATOM     27  H   UNL     1       6.837   3.381  -6.553  1.00  0.00     0.293 HD
ENDBRANCH   8  26
TORSDOF 6
ENDMDL
MODEL 3
REMARK VINA RESULT:    -7.547     13.012     15.500
REMARK INTER + INTRA:          -9.343
REMARK INTER:                  -9.080
REMARK INTRA:                  -0.262
REMARK UNBOUND:                -0.252
REMARK SMILES O=c1c(O)c(-c2ccc(O)cc2O)oc2cc(O)cc(O)c12
REMARK SMILES IDX 5 1 3 2 2 3 1 4 22 5 20 6 19 7 17 8 16 9 15 10 14 11 6 12
REMARK SMILES IDX 8 13 7 14 9 15 11 16 12 17 10 18 13 20 4 22 21 24 18 26
REMARK H PARENT 10 19 13 21 4 23 21 25 18 27
REMARK Flexibility Score: inf
ROOT
ATOM      1  C   UNL     1      -7.863  -7.530  -5.083  1.00  0.00     0.184 A 
ATOM      2  C   UNL     1      -7.741  -7.695  -6.471  1.00  0.00     0.208 A 
ATOM      3  C   UNL     1      -7.152  -6.673  -7.230  1.00  0.00     0.238 A 
ATOM      4  O   UNL     1      -7.096  -6.805  -8.481  1.00  0.00    -0.285 OA
ATOM      5  C   UNL     1      -6.678  -5.504  -6.587  1.00  0.00     0.111 A 
ATOM      6  C   UNL     1      -6.027  -4.421  -7.252  1.00  0.00     0.134 A 
ATOM      7  C   UNL     1      -5.716  -3.259  -6.535  1.00  0.00     0.093 A 
ATOM      8  C   UNL     1      -5.970  -3.164  -5.169  1.00  0.00     0.123 A 
ATOM      9  C   UNL     1      -6.553  -4.240  -4.496  1.00  0.00     0.094 A 
ATOM     10  C   UNL     1      -6.908  -5.399  -5.190  1.00  0.00     0.146 A 
ATOM     11  O   UNL     1      -7.469  -6.396  -4.515  1.00  0.00    -0.451 OA
ENDROOT
BRANCH   1  12
ATOM     12  C   UNL     1      -8.458  -8.575  -4.223  1.00  0.00     0.063 A 
ATOM     13  C   UNL     1      -8.490 -10.893  -3.493  1.00  0.00     0.047 A 
ATOM     14  C   UNL     1      -7.948  -9.881  -4.288  1.00  0.00     0.020 A 
ATOM     15  C   UNL     1      -9.560 -10.615  -2.633  1.00  0.00     0.119 A 
ATOM     16  C   UNL     1     -10.089  -9.322  -2.579  1.00  0.00     0.093 A 
ATOM     17  C   UNL     1      -9.554  -8.301  -3.379  1.00  0.00     0.130 A 
BRANCH  15  18
ATOM     18  O   UNL     1     -10.107 -11.616  -1.833  1.00  0.00    -0.508 OA
ATOM     19  H   UNL     1     -11.086 -11.869  -1.895  1.00  0.00     0.293 HD
ENDBRANCH  15  18
BRANCH  17  20
ATOM     20  O   UNL     1     -10.123  -7.028  -3.351  1.00  0.00    -0.507 OA
ATOM     21  H   UNL     1     -11.117  -6.887  -3.490  1.00  0.00     0.293 HD
ENDBRANCH  17  20
ENDBRANCH   1  12
BRANCH   2  22
ATOM     22  O   UNL     1      -8.235  -8.851  -7.081  1.00  0.00    -0.502 OA
ATOM     23  H   UNL     1      -7.775  -9.750  -6.997  1.00  0.00     0.293 HD
ENDBRANCH   2  22
BRANCH   6  24
ATOM     24  O   UNL     1      -5.644  -4.447  -8.597  1.00  0.00    -0.507 OA
ATOM     25  H   UNL     1      -4.727  -4.708  -8.927  1.00  0.00     0.293 HD
ENDBRANCH   6  24
BRANCH   8  26
ATOM     26  O   UNL     1      -5.633  -1.998  -4.484  1.00  0.00    -0.508 OA
ATOM     27  H   UNL     1      -5.029  -1.297  -4.896  1.00  0.00     0.293 HD
ENDBRANCH   8  26
TORSDOF 6
ENDMDL
MODEL 4
REMARK VINA RESULT:    -7.471     11.007     13.044
REMARK INTER + INTRA:          -9.251
REMARK INTER:                  -8.839
REMARK INTRA:                  -0.412
REMARK UNBOUND:                -0.252
REMARK SMILES O=c1c(O)c(-c2ccc(O)cc2O)oc2cc(O)cc(O)c12
REMARK SMILES IDX 5 1 3 2 2 3 1 4 22 5 20 6 19 7 17 8 16 9 15 10 14 11 6 12
REMARK SMILES IDX 8 13 7 14 9 15 11 16 12 17 10 18 13 20 4 22 21 24 18 26
REMARK H PARENT 10 19 13 21 4 23 21 25 18 27
REMARK Flexibility Score: inf
ROOT
ATOM      1  C   UNL     1      -4.101  -7.412  -4.339  1.00  0.00     0.184 A 
ATOM      2  C   UNL     1      -4.569  -8.179  -5.417  1.00  0.00     0.208 A 
ATOM      3  C   UNL     1      -5.318  -7.553  -6.425  1.00  0.00     0.238 A 
ATOM      4  O   UNL     1      -5.780  -8.256  -7.361  1.00  0.00    -0.285 OA
ATOM      5  C   UNL     1      -5.576  -6.162  -6.347  1.00  0.00     0.111 A 
ATOM      6  C   UNL     1      -6.290  -5.416  -7.333  1.00  0.00     0.134 A 
ATOM      7  C   UNL     1      -6.598  -4.071  -7.089  1.00  0.00     0.093 A 
ATOM      8  C   UNL     1      -6.163  -3.430  -5.932  1.00  0.00     0.123 A 
ATOM      9  C   UNL     1      -5.414  -4.135  -4.988  1.00  0.00     0.094 A 
ATOM     10  C   UNL     1      -5.121  -5.487  -5.185  1.00  0.00     0.146 A 
ATOM     11  O   UNL     1      -4.414  -6.124  -4.259  1.00  0.00    -0.451 OA
ENDROOT
BRANCH   1  12
ATOM     12  C   UNL     1      -3.293  -8.006  -3.253  1.00  0.00     0.063 A 
ATOM     13  C   UNL     1      -3.208  -9.287  -1.189  1.00  0.00     0.047 A 
ATOM     14  C   UNL     1      -3.943  -8.718  -2.232  1.00  0.00     0.020 A 
ATOM     15  C   UNL     1      -1.817  -9.140  -1.146  1.00  0.00     0.119 A 
ATOM     16  C   UNL     1      -1.164  -8.414  -2.146  1.00  0.00     0.093 A 
ATOM     17  C   UNL     1      -1.894  -7.833  -3.195  1.00  0.00     0.130 A 
BRANCH  15  18
ATOM     18  O   UNL     1      -1.075  -9.708  -0.113  1.00  0.00    -0.508 OA
ATOM     19  H   UNL     1      -0.636  -9.137   0.600  1.00  0.00     0.293 HD
ENDBRANCH  15  18
BRANCH  17  20
ATOM     20  O   UNL     1      -1.236  -7.070  -4.159  1.00  0.00    -0.507 OA
ATOM     21  H   UNL     1      -0.779  -7.498  -4.955  1.00  0.00     0.293 HD
ENDBRANCH  17  20
ENDBRANCH   1  12
BRANCH   2  22
ATOM     22  O   UNL     1      -4.315  -9.553  -5.458  1.00  0.00    -0.502 OA
ATOM     23  H   UNL     1      -5.041 -10.235  -5.644  1.00  0.00     0.293 HD
ENDBRANCH   2  22
BRANCH   6  24
ATOM     24  O   UNL     1      -6.693  -5.935  -8.567  1.00  0.00    -0.507 OA
ATOM     25  H   UNL     1      -6.324  -5.644  -9.460  1.00  0.00     0.293 HD
ENDBRANCH   6  24
BRANCH   8  26
ATOM     26  O   UNL     1      -6.475  -2.087  -5.730  1.00  0.00    -0.508 OA
ATOM     27  H   UNL     1      -7.426  -1.746  -5.799  1.00  0.00     0.293 HD
ENDBRANCH   8  26
TORSDOF 6
ENDMDL
MODEL 5
REMARK VINA RESULT:    -7.464     13.071     15.431
REMARK INTER + INTRA:          -9.243
REMARK INTER:                  -9.073
REMARK INTRA:                  -0.170
REMARK UNBOUND:                -0.252
REMARK SMILES O=c1c(O)c(-c2ccc(O)cc2O)oc2cc(O)cc(O)c12
REMARK SMILES IDX 5 1 3 2 2 3 1 4 22 5 20 6 19 7 17 8 16 9 15 10 14 11 6 12
REMARK SMILES IDX 8 13 7 14 9 15 11 16 12 17 10 18 13 20 4 22 21 24 18 26
REMARK H PARENT 10 19 13 21 4 23 21 25 18 27
REMARK Flexibility Score: inf
ROOT
ATOM      1  C   UNL     1       5.590   2.534   7.424  1.00  0.00     0.184 A 
ATOM      2  C   UNL     1       4.830   2.249   8.569  1.00  0.00     0.208 A 
ATOM      3  C   UNL     1       3.920   3.209   9.038  1.00  0.00     0.238 A 
ATOM      4  O   UNL     1       3.280   2.969  10.096  1.00  0.00    -0.285 OA
ATOM      5  C   UNL     1       3.773   4.436   8.346  1.00  0.00     0.111 A 
ATOM      6  C   UNL     1       2.852   5.464   8.709  1.00  0.00     0.134 A 
ATOM      7  C   UNL     1       2.883   6.689   8.030  1.00  0.00     0.093 A 
ATOM      8  C   UNL     1       3.753   6.899   6.962  1.00  0.00     0.123 A 
ATOM      9  C   UNL     1       4.617   5.879   6.561  1.00  0.00     0.094 A 
ATOM     10  C   UNL     1       4.635   4.659   7.241  1.00  0.00     0.146 A 
ATOM     11  O   UNL     1       5.479   3.718   6.834  1.00  0.00    -0.451 OA
ENDROOT
BRANCH   1  12
ATOM     12  C   UNL     1       6.553   1.560   6.868  1.00  0.00     0.063 A 
ATOM     13  C   UNL     1       7.038  -0.720   6.179  1.00  0.00     0.047 A 
ATOM     14  C   UNL     1       6.151   0.226   6.697  1.00  0.00     0.020 A 
ATOM     15  C   UNL     1       8.344  -0.347   5.838  1.00  0.00     0.119 A 
ATOM     16  C   UNL     1       8.760   0.974   6.025  1.00  0.00     0.093 A 
ATOM     17  C   UNL     1       7.878   1.930   6.552  1.00  0.00     0.130 A 
BRANCH  15  18
ATOM     18  O   UNL     1       9.235  -1.282   5.316  1.00  0.00    -0.508 OA
ATOM     19  H   UNL     1       9.442  -1.322   4.325  1.00  0.00     0.293 HD
ENDBRANCH  15  18
BRANCH  17  20
ATOM     20  O   UNL     1       8.321   3.232   6.780  1.00  0.00    -0.507 OA
ATOM     21  H   UNL     1       7.735   4.035   6.584  1.00  0.00     0.293 HD
ENDBRANCH  17  20
ENDBRANCH   1  12
BRANCH   2  22
ATOM     22  O   UNL     1       5.009   1.038   9.242  1.00  0.00    -0.502 OA
ATOM     23  H   UNL     1       5.009   0.145   8.764  1.00  0.00     0.293 HD
ENDBRANCH   2  22
BRANCH   6  24
ATOM     24  O   UNL     1       1.877   5.326   9.703  1.00  0.00    -0.507 OA
ATOM     25  H   UNL     1       0.965   5.756   9.675  1.00  0.00     0.293 HD
ENDBRANCH   6  24
BRANCH   8  26
ATOM     26  O   UNL     1       3.746   8.125   6.299  1.00  0.00    -0.508 OA
ATOM     27  H   UNL     1       2.944   8.434   5.763  1.00  0.00     0.293 HD
ENDBRANCH   8  26
TORSDOF 6
ENDMDL
MODEL 6
REMARK VINA RESULT:    -7.216      2.029      6.541
REMARK INTER + INTRA:          -8.944
REMARK INTER:                  -9.155
REMARK INTRA:                   0.210
REMARK UNBOUND:                -0.252
REMARK SMILES O=c1c(O)c(-c2ccc(O)cc2O)oc2cc(O)cc(O)c12
REMARK SMILES IDX 5 1 3 2 2 3 1 4 22 5 20 6 19 7 17 8 16 9 15 10 14 11 6 12
REMARK SMILES IDX 8 13 7 14 9 15 11 16 12 17 10 18 13 20 4 22 21 24 18 26
REMARK H PARENT 10 19 13 21 4 23 21 25 18 27
REMARK Flexibility Score: inf
ROOT
ATOM      1  C   UNL     1       5.522  -2.434  -5.975  1.00  0.00     0.184 A 
ATOM      2  C   UNL     1       6.037  -3.369  -5.064  1.00  0.00     0.208 A 
ATOM      3  C   UNL     1       5.949  -4.736  -5.367  1.00  0.00     0.238 A 
ATOM      4  O   UNL     1       6.364  -5.571  -4.522  1.00  0.00    -0.285 OA
ATOM      5  C   UNL     1       5.359  -5.149  -6.587  1.00  0.00     0.111 A 
ATOM      6  C   UNL     1       5.252  -6.506  -7.016  1.00  0.00     0.134 A 
ATOM      7  C   UNL     1       4.534  -6.807  -8.180  1.00  0.00     0.093 A 
ATOM      8  C   UNL     1       3.977  -5.799  -8.964  1.00  0.00     0.123 A 
ATOM      9  C   UNL     1       4.125  -4.464  -8.585  1.00  0.00     0.094 A 
ATOM     10  C   UNL     1       4.805  -4.133  -7.410  1.00  0.00     0.146 A 
ATOM     11  O   UNL     1       4.916  -2.852  -7.080  1.00  0.00    -0.451 OA
ENDROOT
BRANCH   1  12
ATOM     12  C   UNL     1       5.598  -0.979  -5.725  1.00  0.00     0.063 A 
ATOM     13  C   UNL     1       5.652   0.854  -4.128  1.00  0.00     0.047 A 
ATOM     14  C   UNL     1       5.586  -0.515  -4.399  1.00  0.00     0.020 A 
ATOM     15  C   UNL     1       5.716   1.777  -5.179  1.00  0.00     0.119 A 
ATOM     16  C   UNL     1       5.705   1.325  -6.502  1.00  0.00     0.093 A 
ATOM     17  C   UNL     1       5.633  -0.048  -6.784  1.00  0.00     0.130 A 
BRANCH  15  18
ATOM     18  O   UNL     1       5.785   3.144  -4.920  1.00  0.00    -0.508 OA
ATOM     19  H   UNL     1       6.510   3.535  -4.330  1.00  0.00     0.293 HD
ENDBRANCH  15  18
BRANCH  17  20
ATOM     20  O   UNL     1       5.573  -0.483  -8.107  1.00  0.00    -0.507 OA
ATOM     21  H   UNL     1       5.087   0.049  -8.820  1.00  0.00     0.293 HD
ENDBRANCH  17  20
ENDBRANCH   1  12
BRANCH   2  22
ATOM     22  O   UNL     1       6.597  -2.934  -3.860  1.00  0.00    -0.502 OA
ATOM     23  H   UNL     1       6.031  -2.668  -3.062  1.00  0.00     0.293 HD
ENDBRANCH   2  22
BRANCH   6  24
ATOM     24  O   UNL     1       5.850  -7.584  -6.355  1.00  0.00    -0.507 OA
ATOM     25  H   UNL     1       6.832  -7.812  -6.402  1.00  0.00     0.293 HD
ENDBRANCH   6  24
BRANCH   8  26
ATOM     26  O   UNL     1       3.282  -6.134 -10.125  1.00  0.00    -0.508 OA
ATOM     27  H   UNL     1       3.765  -6.356 -10.987  1.00  0.00     0.293 HD
ENDBRANCH   8  26
TORSDOF 6
ENDMDL
MODEL 7
REMARK VINA RESULT:    -7.187     12.870     15.182
REMARK INTER + INTRA:          -8.910
REMARK INTER:                  -9.184
REMARK INTRA:                   0.275
REMARK UNBOUND:                -0.252
REMARK SMILES O=c1c(O)c(-c2ccc(O)cc2O)oc2cc(O)cc(O)c12
REMARK SMILES IDX 5 1 3 2 2 3 1 4 22 5 20 6 19 7 17 8 16 9 15 10 14 11 6 12
REMARK SMILES IDX 8 13 7 14 9 15 11 16 12 17 10 18 13 20 4 22 21 24 18 26
REMARK H PARENT 10 19 13 21 4 23 21 25 18 27
REMARK Flexibility Score: inf
ROOT
ATOM      1  C   UNL     1       4.715   2.527   6.560  1.00  0.00     0.184 A 
ATOM      2  C   UNL     1       3.689   1.607   6.827  1.00  0.00     0.208 A 
ATOM      3  C   UNL     1       3.980   0.235   6.793  1.00  0.00     0.238 A 
ATOM      4  O   UNL     1       3.044  -0.586   6.980  1.00  0.00    -0.285 OA
ATOM      5  C   UNL     1       5.298  -0.198   6.508  1.00  0.00     0.111 A 
ATOM      6  C   UNL     1       5.715  -1.563   6.487  1.00  0.00     0.134 A 
ATOM      7  C   UNL     1       7.012  -1.882   6.066  1.00  0.00     0.093 A 
ATOM      8  C   UNL     1       7.926  -0.886   5.729  1.00  0.00     0.123 A 
ATOM      9  C   UNL     1       7.547   0.456   5.802  1.00  0.00     0.094 A 
ATOM     10  C   UNL     1       6.249   0.805   6.184  1.00  0.00     0.146 A 
ATOM     11  O   UNL     1       5.925   2.091   6.231  1.00  0.00    -0.451 OA
ENDROOT
BRANCH   1  12
ATOM     12  C   UNL     1       4.480   3.986   6.596  1.00  0.00     0.063 A 
ATOM     13  C   UNL     1       2.939   5.849   6.341  1.00  0.00     0.047 A 
ATOM     14  C   UNL     1       3.193   4.475   6.320  1.00  0.00     0.020 A 
ATOM     15  C   UNL     1       3.972   6.751   6.623  1.00  0.00     0.119 A 
ATOM     16  C   UNL     1       5.261   6.274   6.876  1.00  0.00     0.093 A 
ATOM     17  C   UNL     1       5.527   4.897   6.852  1.00  0.00     0.130 A 
BRANCH  15  18
ATOM     18  O   UNL     1       3.728   8.123   6.650  1.00  0.00    -0.508 OA
ATOM     19  H   UNL     1       3.487   8.635   5.809  1.00  0.00     0.293 HD
ENDBRANCH  15  18
BRANCH  17  20
ATOM     20  O   UNL     1       6.827   4.437   7.057  1.00  0.00    -0.507 OA
ATOM     21  H   UNL     1       7.020   3.629   7.637  1.00  0.00     0.293 HD
ENDBRANCH  17  20
ENDBRANCH   1  12
BRANCH   2  22
ATOM     22  O   UNL     1       2.394   2.062   7.087  1.00  0.00    -0.502 OA
ATOM     23  H   UNL     1       2.153   3.047   7.087  1.00  0.00     0.293 HD
ENDBRANCH   2  22
BRANCH   6  24
ATOM     24  O   UNL     1       4.910  -2.633   6.892  1.00  0.00    -0.507 OA
ATOM     25  H   UNL     1       5.196  -3.600   6.887  1.00  0.00     0.293 HD
ENDBRANCH   6  24
BRANCH   8  26
ATOM     26  O   UNL     1       9.213  -1.238   5.329  1.00  0.00    -0.508 OA
ATOM     27  H   UNL     1       9.706  -0.722   4.610  1.00  0.00     0.293 HD
ENDBRANCH   8  26
TORSDOF 6
ENDMDL
MODEL 8
REMARK VINA RESULT:    -7.048     13.366     15.408
REMARK INTER + INTRA:          -8.742
REMARK INTER:                  -8.774
REMARK INTRA:                   0.032
REMARK UNBOUND:                -0.252
REMARK SMILES O=c1c(O)c(-c2ccc(O)cc2O)oc2cc(O)cc(O)c12
REMARK SMILES IDX 5 1 3 2 2 3 1 4 22 5 20 6 19 7 17 8 16 9 15 10 14 11 6 12
REMARK SMILES IDX 8 13 7 14 9 15 11 16 12 17 10 18 13 20 4 22 21 24 18 26
REMARK H PARENT 10 19 13 21 4 23 21 25 18 27
REMARK Flexibility Score: inf
ROOT
ATOM      1  C   UNL     1       6.141   3.172   6.804  1.00  0.00     0.184 A 
ATOM      2  C   UNL     1       7.540   3.131   6.710  1.00  0.00     0.208 A 
ATOM      3  C   UNL     1       8.177   1.889   6.562  1.00  0.00     0.238 A 
ATOM      4  O   UNL     1       9.435   1.855   6.532  1.00  0.00    -0.285 OA
ATOM      5  C   UNL     1       7.402   0.706   6.494  1.00  0.00     0.111 A 
ATOM      6  C   UNL     1       7.939  -0.603   6.304  1.00  0.00     0.134 A 
ATOM      7  C   UNL     1       7.090  -1.715   6.382  1.00  0.00     0.093 A 
ATOM      8  C   UNL     1       5.719  -1.563   6.577  1.00  0.00     0.123 A 
ATOM      9  C   UNL     1       5.174  -0.283   6.705  1.00  0.00     0.094 A 
ATOM     10  C   UNL     1       6.000   0.843   6.667  1.00  0.00     0.146 A 
ATOM     11  O   UNL     1       5.444   2.041   6.803  1.00  0.00    -0.451 OA
ENDROOT
BRANCH   1  12
ATOM     12  C   UNL     1       5.407   4.448   6.944  1.00  0.00     0.063 A 
ATOM     13  C   UNL     1       5.218   6.807   6.388  1.00  0.00     0.047 A 
ATOM     14  C   UNL     1       5.885   5.585   6.273  1.00  0.00     0.020 A 
ATOM     15  C   UNL     1       4.073   6.911   7.188  1.00  0.00     0.119 A 
ATOM     16  C   UNL     1       3.604   5.790   7.878  1.00  0.00     0.093 A 
ATOM     17  C   UNL     1       4.271   4.559   7.773  1.00  0.00     0.130 A 
BRANCH  15  18
ATOM     18  O   UNL     1       3.398   8.124   7.306  1.00  0.00    -0.508 OA
ATOM     19  H   UNL     1       3.251   8.729   6.507  1.00  0.00     0.293 HD
ENDBRANCH  15  18
BRANCH  17  20
ATOM     20  O   UNL     1       3.821   3.461   8.505  1.00  0.00    -0.507 OA
ATOM     21  H   UNL     1       3.758   3.487   9.516  1.00  0.00     0.293 HD
ENDBRANCH  17  20
ENDBRANCH   1  12
BRANCH   2  22
ATOM     22  O   UNL     1       8.281   4.313   6.799  1.00  0.00    -0.502 OA
ATOM     23  H   UNL     1       8.746   4.724   5.998  1.00  0.00     0.293 HD
ENDBRANCH   2  22
BRANCH   6  24
ATOM     24  O   UNL     1       9.282  -0.863   6.012  1.00  0.00    -0.507 OA
ATOM     25  H   UNL     1      10.041  -0.223   6.188  1.00  0.00     0.293 HD
ENDBRANCH   6  24
BRANCH   8  26
ATOM     26  O   UNL     1       4.902  -2.690   6.634  1.00  0.00    -0.508 OA
ATOM     27  H   UNL     1       5.163  -3.508   7.171  1.00  0.00     0.293 HD
ENDBRANCH   8  26
TORSDOF 6
ENDMDL
MODEL 9
REMARK VINA RESULT:    -7.018     12.019     14.459
REMARK INTER + INTRA:          -8.705
REMARK INTER:                  -8.311
REMARK INTRA:                  -0.394
REMARK UNBOUND:                -0.252
REMARK SMILES O=c1c(O)c(-c2ccc(O)cc2O)oc2cc(O)cc(O)c12
REMARK SMILES IDX 5 1 3 2 2 3 1 4 22 5 20 6 19 7 17 8 16 9 15 10 14 11 6 12
REMARK SMILES IDX 8 13 7 14 9 15 11 16 12 17 10 18 13 20 4 22 21 24 18 26
REMARK H PARENT 10 19 13 21 4 23 21 25 18 27
REMARK Flexibility Score: inf
ROOT
ATOM      1  C   UNL     1       4.409   1.403   6.226  1.00  0.00     0.184 A 
ATOM      2  C   UNL     1       3.227   1.213   5.492  1.00  0.00     0.208 A 
ATOM      3  C   UNL     1       2.104   1.998   5.795  1.00  0.00     0.238 A 
ATOM      4  O   UNL     1       1.032   1.786   5.170  1.00  0.00    -0.285 OA
ATOM      5  C   UNL     1       2.184   2.975   6.817  1.00  0.00     0.111 A 
ATOM      6  C   UNL     1       1.120   3.854   7.181  1.00  0.00     0.134 A 
ATOM      7  C   UNL     1       1.268   4.692   8.294  1.00  0.00     0.093 A 
ATOM      8  C   UNL     1       2.460   4.731   9.014  1.00  0.00     0.123 A 
ATOM      9  C   UNL     1       3.528   3.917   8.631  1.00  0.00     0.094 A 
ATOM     10  C   UNL     1       3.399   3.045   7.548  1.00  0.00     0.146 A 
ATOM     11  O   UNL     1       4.435   2.281   7.222  1.00  0.00    -0.451 OA
ENDROOT
BRANCH   1  12
ATOM     12  C   UNL     1       5.632   0.622   5.947  1.00  0.00     0.063 A 
ATOM     13  C   UNL     1       7.087  -1.237   6.528  1.00  0.00     0.047 A 
ATOM     14  C   UNL     1       5.936  -0.480   6.761  1.00  0.00     0.020 A 
ATOM     15  C   UNL     1       7.956  -0.892   5.485  1.00  0.00     0.119 A 
ATOM     16  C   UNL     1       7.673   0.218   4.684  1.00  0.00     0.093 A 
ATOM     17  C   UNL     1       6.522   0.987   4.915  1.00  0.00     0.130 A 
BRANCH  15  18
ATOM     18  O   UNL     1       9.105  -1.642   5.242  1.00  0.00    -0.508 OA
ATOM     19  H   UNL     1       9.354  -1.941   4.306  1.00  0.00     0.293 HD
ENDBRANCH  15  18
BRANCH  17  20
ATOM     20  O   UNL     1       6.278   2.120   4.139  1.00  0.00    -0.507 OA
ATOM     21  H   UNL     1       5.687   2.874   4.471  1.00  0.00     0.293 HD
ENDBRANCH  17  20
ENDBRANCH   1  12
BRANCH   2  22
ATOM     22  O   UNL     1       3.172   0.230   4.502  1.00  0.00    -0.502 OA
ATOM     23  H   UNL     1       2.339  -0.323   4.330  1.00  0.00     0.293 HD
ENDBRANCH   2  22
BRANCH   6  24
ATOM     24  O   UNL     1      -0.082   3.963   6.474  1.00  0.00    -0.507 OA
ATOM     25  H   UNL     1      -0.216   4.538   5.656  1.00  0.00     0.293 HD
ENDBRANCH   6  24
BRANCH   8  26
ATOM     26  O   UNL     1       2.577   5.588  10.107  1.00  0.00    -0.508 OA
ATOM     27  H   UNL     1       2.194   6.526  10.089  1.00  0.00     0.293 HD
ENDBRANCH   8  26
TORSDOF 6
ENDMDL
