MODEL 1
REMARK VINA RESULT:    -5.035      0.000      0.000
REMARK INTER + INTRA:         -11.416
REMARK INTER:                  -9.744
REMARK INTRA:                  -1.671
REMARK UNBOUND:                -1.671
REMARK SMILES CCCCCCCCCCCCCCCCCC(=O)[O-]
REMARK SMILES IDX 10 1 11 2 12 3 13 4 14 5 15 6 16 7 17 8 18 9 19 10 20 11
REMARK SMILES IDX 9 12 8 13 7 14 6 15 5 16 4 17 3 18 2 19 1 20
REMARK H PARENT
REMARK Flexibility Score: inf
ROOT
ATOM      1  C   UNL     1      40.888 116.843  14.276  1.00  0.00     0.000 C 
ENDROOT
BRANCH   1   2
ATOM      2  C   UNL     1      41.163 116.527  12.795  1.00  0.00     0.000 C 
BRANCH   2   3
ATOM      3  C   UNL     1      40.382 117.387  11.780  1.00  0.00     0.000 C 
BRANCH   3   4
ATOM      4  C   UNL     1      41.202 117.888  10.578  1.00  0.00     0.000 C 
BRANCH   4   5
ATOM      5  C   UNL     1      42.526 117.131  10.403  1.00  0.00     0.000 C 
BRANCH   5   6
ATOM      6  C   UNL     1      42.778 116.802   8.924  1.00  0.00     0.000 C 
BRANCH   6   7
ATOM      7  C   UNL     1      44.193 116.258   8.669  1.00  0.00     0.006 C 
BRANCH   7   8
ATOM      8  C   UNL     1      44.246 114.725   8.675  1.00  0.00     0.053 C 
BRANCH   8   9
ATOM      9  C   UNL     1      45.070 114.236   9.825  1.00  0.00     0.041 C 
ATOM     10  O   UNL     1      45.337 115.005  10.785  1.00  0.00    -0.550 OA
ATOM     11  O   UNL     1      45.584 112.945   9.811  1.00  0.00    -0.550 OA
ENDBRANCH   8   9
ENDBRANCH   7   8
ENDBRANCH   6   7
ENDBRANCH   5   6
ENDBRANCH   4   5
ENDBRANCH   3   4
ENDBRANCH   2   3
ENDBRANCH   1   2
BRANCH   1  12
ATOM     12  C   UNL     1      39.788 117.900  14.468  1.00  0.00     0.000 C 
BRANCH  12  13
ATOM     13  C   UNL     1      38.723 117.477  15.497  1.00  0.00    -0.000 C 
BRANCH  13  14
ATOM     14  C   UNL     1      37.511 116.728  14.911  1.00  0.00    -0.000 C 
BRANCH  14  15
ATOM     15  C   UNL     1      37.077 117.274  13.539  1.00  0.00    -0.000 C 
BRANCH  15  16
ATOM     16  C   UNL     1      35.949 118.313  13.644  1.00  0.00    -0.000 C 
BRANCH  16  17
ATOM     17  C   UNL     1      36.380 119.701  13.141  1.00  0.00    -0.000 C 
BRANCH  17  18
ATOM     18  C   UNL     1      36.984 120.580  14.253  1.00  0.00    -0.000 C 
BRANCH  18  19
ATOM     19  C   UNL     1      36.324 120.426  15.634  1.00  0.00    -0.003 C 
ATOM     20  C   UNL     1      36.575 121.619  16.555  1.00  0.00     0.004 C 
ENDBRANCH  18  19
ENDBRANCH  17  18
ENDBRANCH  16  17
ENDBRANCH  15  16
ENDBRANCH  14  15
ENDBRANCH  13  14
ENDBRANCH  12  13
ENDBRANCH   1  12
TORSDOF 16
ENDMDL
MODEL 2
REMARK VINA RESULT:    -4.810      1.926      4.009
REMARK INTER + INTRA:         -10.981
REMARK INTER:                  -9.581
REMARK INTRA:                  -1.400
REMARK UNBOUND:                -1.671
REMARK SMILES CCCCCCCCCCCCCCCCCC(=O)[O-]
REMARK SMILES IDX 10 1 11 2 12 3 13 4 14 5 15 6 16 7 17 8 18 9 19 10 20 11
REMARK SMILES IDX 9 12 8 13 7 14 6 15 5 16 4 17 3 18 2 19 1 20
REMARK H PARENT
REMARK Flexibility Score: inf
ROOT
ATOM      1  C   UNL     1      42.573 117.296   9.181  1.00  0.00     0.000 C 
ENDROOT
BRANCH   1   2
ATOM      2  C   UNL     1      43.761 116.431   8.721  1.00  0.00     0.000 C 
BRANCH   2   3
ATOM      3  C   UNL     1      43.654 114.930   9.057  1.00  0.00     0.000 C 
BRANCH   3   4
ATOM      4  C   UNL     1      44.996 114.179   9.133  1.00  0.00     0.000 C 
BRANCH   4   5
ATOM      5  C   UNL     1      45.231 113.513  10.496  1.00  0.00     0.000 C 
BRANCH   5   6
ATOM      6  C   UNL     1      44.128 113.900  11.493  1.00  0.00     0.000 C 
BRANCH   6   7
ATOM      7  C   UNL     1      44.687 114.325  12.860  1.00  0.00     0.006 C 
BRANCH   7   8
ATOM      8  C   UNL     1      44.194 115.711  13.295  1.00  0.00     0.053 C 
BRANCH   8   9
ATOM      9  C   UNL     1      45.270 116.732  13.099  1.00  0.00     0.041 C 
ATOM     10  O   UNL     1      45.736 117.359  14.086  1.00  0.00    -0.550 OA
ATOM     11  O   UNL     1      45.722 117.028  11.819  1.00  0.00    -0.550 OA
ENDBRANCH   8   9
ENDBRANCH   7   8
ENDBRANCH   6   7
ENDBRANCH   5   6
ENDBRANCH   4   5
ENDBRANCH   3   4
ENDBRANCH   2   3
ENDBRANCH   1   2
BRANCH   1  12
ATOM     12  C   UNL     1      42.314 117.198  10.693  1.00  0.00     0.000 C 
BRANCH  12  13
ATOM     13  C   UNL     1      40.943 117.766  11.105  1.00  0.00    -0.000 C 
BRANCH  13  14
ATOM     14  C   UNL     1      40.242 117.013  12.251  1.00  0.00    -0.000 C 
BRANCH  14  15
ATOM     15  C   UNL     1      38.851 117.584  12.580  1.00  0.00    -0.000 C 
BRANCH  15  16
ATOM     16  C   UNL     1      38.893 118.650  13.687  1.00  0.00    -0.000 C 
BRANCH  16  17
ATOM     17  C   UNL     1      38.335 120.005  13.221  1.00  0.00    -0.000 C 
BRANCH  17  18
ATOM     18  C   UNL     1      36.888 120.250  13.691  1.00  0.00    -0.000 C 
BRANCH  18  19
ATOM     19  C   UNL     1      36.741 120.608  15.181  1.00  0.00    -0.003 C 
ATOM     20  C   UNL     1      36.884 122.104  15.454  1.00  0.00     0.004 C 
ENDBRANCH  18  19
ENDBRANCH  17  18
ENDBRANCH  16  17
ENDBRANCH  15  16
ENDBRANCH  14  15
ENDBRANCH  13  14
ENDBRANCH  12  13
ENDBRANCH   1  12
TORSDOF 16
ENDMDL
MODEL 3
REMARK VINA RESULT:    -4.762      1.670      3.464
REMARK INTER + INTRA:         -10.888
REMARK INTER:                  -9.488
REMARK INTRA:                  -1.400
REMARK UNBOUND:                -1.671
REMARK SMILES CCCCCCCCCCCCCCCCCC(=O)[O-]
REMARK SMILES IDX 10 1 11 2 12 3 13 4 14 5 15 6 16 7 17 8 18 9 19 10 20 11
REMARK SMILES IDX 9 12 8 13 7 14 6 15 5 16 4 17 3 18 2 19 1 20
REMARK H PARENT
REMARK Flexibility Score: inf
ROOT
ATOM      1  C   UNL     1      42.677 116.749  11.071  1.00  0.00     0.000 C 
ENDROOT
BRANCH   1   2
ATOM      2  C   UNL     1      42.338 117.415   9.725  1.00  0.00     0.000 C 
BRANCH   2   3
ATOM      3  C   UNL     1      42.966 116.750   8.483  1.00  0.00     0.000 C 
BRANCH   3   4
ATOM      4  C   UNL     1      44.347 116.110   8.711  1.00  0.00     0.000 C 
BRANCH   4   5
ATOM      5  C   UNL     1      44.313 114.577   8.636  1.00  0.00     0.000 C 
BRANCH   5   6
ATOM      6  C   UNL     1      45.117 113.953   9.786  1.00  0.00     0.000 C 
BRANCH   6   7
ATOM      7  C   UNL     1      44.228 113.504  10.957  1.00  0.00     0.006 C 
BRANCH   7   8
ATOM      8  C   UNL     1      45.002 112.707  12.014  1.00  0.00     0.053 C 
BRANCH   8   9
ATOM      9  C   UNL     1      45.682 113.634  12.972  1.00  0.00     0.041 C 
ATOM     10  O   UNL     1      46.711 113.261  13.593  1.00  0.00    -0.550 OA
ATOM     11  O   UNL     1      45.149 114.894  13.217  1.00  0.00    -0.550 OA
ENDBRANCH   8   9
ENDBRANCH   7   8
ENDBRANCH   6   7
ENDBRANCH   5   6
ENDBRANCH   4   5
ENDBRANCH   3   4
ENDBRANCH   2   3
ENDBRANCH   1   2
BRANCH   1  12
ATOM     12  C   UNL     1      41.522 116.828  12.083  1.00  0.00     0.000 C 
BRANCH  12  13
ATOM     13  C   UNL     1      40.283 117.554  11.525  1.00  0.00    -0.000 C 
BRANCH  13  14
ATOM     14  C   UNL     1      38.954 117.204  12.220  1.00  0.00    -0.000 C 
BRANCH  14  15
ATOM     15  C   UNL     1      38.907 117.663  13.688  1.00  0.00    -0.000 C 
BRANCH  15  16
ATOM     16  C   UNL     1      39.026 119.189  13.836  1.00  0.00    -0.000 C 
BRANCH  16  17
ATOM     17  C   UNL     1      37.726 119.919  13.457  1.00  0.00    -0.000 C 
BRANCH  17  18
ATOM     18  C   UNL     1      36.632 119.791  14.533  1.00  0.00    -0.000 C 
BRANCH  18  19
ATOM     19  C   UNL     1      35.357 119.058  14.080  1.00  0.00    -0.003 C 
ATOM     20  C   UNL     1      35.471 118.470  12.675  1.00  0.00     0.004 C 
ENDBRANCH  18  19
ENDBRANCH  17  18
ENDBRANCH  16  17
ENDBRANCH  15  16
ENDBRANCH  14  15
ENDBRANCH  13  14
ENDBRANCH  12  13
ENDBRANCH   1  12
TORSDOF 16
ENDMDL
MODEL 4
REMARK VINA RESULT:    -4.744      4.473      9.056
REMARK INTER + INTRA:         -10.853
REMARK INTER:                  -9.283
REMARK INTRA:                  -1.569
REMARK UNBOUND:                -1.671
REMARK SMILES CCCCCCCCCCCCCCCCCC(=O)[O-]
REMARK SMILES IDX 10 1 11 2 12 3 13 4 14 5 15 6 16 7 17 8 18 9 19 10 20 11
REMARK SMILES IDX 9 12 8 13 7 14 6 15 5 16 4 17 3 18 2 19 1 20
REMARK H PARENT
REMARK Flexibility Score: inf
ROOT
ATOM      1  C   UNL     1      46.332 110.877   8.335  1.00  0.00     0.000 C 
ENDROOT
BRANCH   1   2
ATOM      2  C   UNL     1      47.624 110.109   8.001  1.00  0.00     0.000 C 
BRANCH   2   3
ATOM      3  C   UNL     1      48.922 110.728   8.559  1.00  0.00     0.000 C 
BRANCH   3   4
ATOM      4  C   UNL     1      49.894 111.276   7.499  1.00  0.00     0.000 C 
BRANCH   4   5
ATOM      5  C   UNL     1      49.575 112.721   7.088  1.00  0.00     0.000 C 
BRANCH   5   6
ATOM      6  C   UNL     1      48.889 112.762   5.715  1.00  0.00     0.000 C 
BRANCH   6   7
ATOM      7  C   UNL     1      48.752 114.189   5.162  1.00  0.00     0.006 C 
BRANCH   7   8
ATOM      8  C   UNL     1      47.292 114.591   4.918  1.00  0.00     0.053 C 
BRANCH   8   9
ATOM      9  C   UNL     1      47.089 114.977   3.486  1.00  0.00     0.041 C 
ATOM     10  O   UNL     1      47.902 114.594   2.605  1.00  0.00    -0.550 OA
ATOM     11  O   UNL     1      46.029 115.803   3.133  1.00  0.00    -0.550 OA
ENDBRANCH   8   9
ENDBRANCH   7   8
ENDBRANCH   6   7
ENDBRANCH   5   6
ENDBRANCH   4   5
ENDBRANCH   3   4
ENDBRANCH   2   3
ENDBRANCH   1   2
BRANCH   1  12
ATOM     12  C   UNL     1      45.774 111.657   7.134  1.00  0.00     0.000 C 
BRANCH  12  13
ATOM     13  C   UNL     1      45.244 113.052   7.517  1.00  0.00    -0.000 C 
BRANCH  13  14
ATOM     14  C   UNL     1      45.572 113.501   8.953  1.00  0.00    -0.000 C 
BRANCH  14  15
ATOM     15  C   UNL     1      44.347 114.064   9.698  1.00  0.00    -0.000 C 
BRANCH  15  16
ATOM     16  C   UNL     1      43.634 115.176   8.912  1.00  0.00    -0.000 C 
BRANCH  16  17
ATOM     17  C   UNL     1      43.906 116.574   9.493  1.00  0.00    -0.000 C 
BRANCH  17  18
ATOM     18  C   UNL     1      42.999 116.910  10.692  1.00  0.00    -0.000 C 
BRANCH  18  19
ATOM     19  C   UNL     1      41.710 117.674  10.338  1.00  0.00    -0.003 C 
ATOM     20  C   UNL     1      40.604 117.496  11.377  1.00  0.00     0.004 C 
ENDBRANCH  18  19
ENDBRANCH  17  18
ENDBRANCH  16  17
ENDBRANCH  15  16
ENDBRANCH  14  15
ENDBRANCH  13  14
ENDBRANCH  12  13
ENDBRANCH   1  12
TORSDOF 16
ENDMDL
MODEL 5
REMARK VINA RESULT:    -4.720      1.132      1.907
REMARK INTER + INTRA:         -10.806
REMARK INTER:                  -9.116
REMARK INTRA:                  -1.690
REMARK UNBOUND:                -1.671
REMARK SMILES CCCCCCCCCCCCCCCCCC(=O)[O-]
REMARK SMILES IDX 10 1 11 2 12 3 13 4 14 5 15 6 16 7 17 8 18 9 19 10 20 11
REMARK SMILES IDX 9 12 8 13 7 14 6 15 5 16 4 17 3 18 2 19 1 20
REMARK H PARENT
REMARK Flexibility Score: inf
ROOT
ATOM      1  C   UNL     1      39.645 117.537  12.281  1.00  0.00     0.000 C 
ENDROOT
BRANCH   1   2
ATOM      2  C   UNL     1      40.765 117.531  11.224  1.00  0.00     0.000 C 
BRANCH   2   3
ATOM      3  C   UNL     1      42.013 116.702  11.589  1.00  0.00     0.000 C 
BRANCH   3   4
ATOM      4  C   UNL     1      43.275 117.024  10.769  1.00  0.00     0.000 C 
BRANCH   4   5
ATOM      5  C   UNL     1      43.023 117.003   9.255  1.00  0.00     0.000 C 
BRANCH   5   6
ATOM      6  C   UNL     1      43.986 116.034   8.552  1.00  0.00     0.000 C 
BRANCH   6   7
ATOM      7  C   UNL     1      43.857 114.592   9.066  1.00  0.00     0.006 C 
BRANCH   7   8
ATOM      8  C   UNL     1      45.136 114.091   9.748  1.00  0.00     0.053 C 
BRANCH   8   9
ATOM      9  C   UNL     1      44.818 113.508  11.090  1.00  0.00     0.041 C 
ATOM     10  O   UNL     1      45.739 113.062  11.822  1.00  0.00    -0.550 OA
ATOM     11  O   UNL     1      43.497 113.412  11.510  1.00  0.00    -0.550 OA
ENDBRANCH   8   9
ENDBRANCH   7   8
ENDBRANCH   6   7
ENDBRANCH   5   6
ENDBRANCH   4   5
ENDBRANCH   3   4
ENDBRANCH   2   3
ENDBRANCH   1   2
BRANCH   1  12
ATOM     12  C   UNL     1      39.909 118.529  13.426  1.00  0.00     0.000 C 
BRANCH  12  13
ATOM     13  C   UNL     1      40.146 117.834  14.780  1.00  0.00    -0.000 C 
BRANCH  13  14
ATOM     14  C   UNL     1      38.917 117.773  15.706  1.00  0.00    -0.000 C 
BRANCH  14  15
ATOM     15  C   UNL     1      37.985 116.590  15.386  1.00  0.00    -0.000 C 
BRANCH  15  16
ATOM     16  C   UNL     1      36.573 117.039  14.979  1.00  0.00    -0.000 C 
BRANCH  16  17
ATOM     17  C   UNL     1      36.347 118.544  15.206  1.00  0.00    -0.000 C 
BRANCH  17  18
ATOM     18  C   UNL     1      36.147 119.323  13.892  1.00  0.00    -0.000 C 
BRANCH  18  19
ATOM     19  C   UNL     1      37.010 120.589  13.750  1.00  0.00    -0.003 C 
ATOM     20  C   UNL     1      36.993 121.470  14.998  1.00  0.00     0.004 C 
ENDBRANCH  18  19
ENDBRANCH  17  18
ENDBRANCH  16  17
ENDBRANCH  15  16
ENDBRANCH  14  15
ENDBRANCH  13  14
ENDBRANCH  12  13
ENDBRANCH   1  12
TORSDOF 16
ENDMDL
MODEL 6
REMARK VINA RESULT:    -4.719      1.362      2.132
REMARK INTER + INTRA:         -10.805
REMARK INTER:                  -9.854
REMARK INTRA:                  -0.951
REMARK UNBOUND:                -1.671
REMARK SMILES CCCCCCCCCCCCCCCCCC(=O)[O-]
REMARK SMILES IDX 10 1 11 2 12 3 13 4 14 5 15 6 16 7 17 8 18 9 19 10 20 11
REMARK SMILES IDX 9 12 8 13 7 14 6 15 5 16 4 17 3 18 2 19 1 20
REMARK H PARENT
REMARK Flexibility Score: inf
ROOT
ATOM      1  C   UNL     1      40.788 116.992  11.849  1.00  0.00     0.000 C 
ENDROOT
BRANCH   1   2
ATOM      2  C   UNL     1      41.427 117.876  10.762  1.00  0.00     0.000 C 
BRANCH   2   3
ATOM      3  C   UNL     1      42.673 117.281  10.075  1.00  0.00     0.000 C 
BRANCH   3   4
ATOM      4  C   UNL     1      43.799 116.842  11.029  1.00  0.00     0.000 C 
BRANCH   4   5
ATOM      5  C   UNL     1      44.895 116.030  10.324  1.00  0.00     0.000 C 
BRANCH   5   6
ATOM      6  C   UNL     1      44.601 115.901   8.822  1.00  0.00     0.000 C 
BRANCH   6   7
ATOM      7  C   UNL     1      44.376 114.445   8.383  1.00  0.00     0.006 C 
BRANCH   7   8
ATOM      8  C   UNL     1      45.325 113.464   9.084  1.00  0.00     0.053 C 
BRANCH   8   9
ATOM      9  C   UNL     1      46.011 112.593   8.079  1.00  0.00     0.041 C 
ATOM     10  O   UNL     1      47.266 112.504   8.071  1.00  0.00    -0.550 OA
ATOM     11  O   UNL     1      45.265 111.920   7.120  1.00  0.00    -0.550 OA
ENDBRANCH   8   9
ENDBRANCH   7   8
ENDBRANCH   6   7
ENDBRANCH   5   6
ENDBRANCH   4   5
ENDBRANCH   3   4
ENDBRANCH   2   3
ENDBRANCH   1   2
BRANCH   1  12
ATOM     12  C   UNL     1      39.573 117.654  12.519  1.00  0.00     0.000 C 
BRANCH  12  13
ATOM     13  C   UNL     1      39.487 117.363  14.029  1.00  0.00    -0.000 C 
BRANCH  13  14
ATOM     14  C   UNL     1      38.086 117.525  14.646  1.00  0.00    -0.000 C 
BRANCH  14  15
ATOM     15  C   UNL     1      36.955 117.328  13.622  1.00  0.00    -0.000 C 
BRANCH  15  16
ATOM     16  C   UNL     1      36.181 118.625  13.335  1.00  0.00    -0.000 C 
BRANCH  16  17
ATOM     17  C   UNL     1      36.248 119.621  14.506  1.00  0.00    -0.000 C 
BRANCH  17  18
ATOM     18  C   UNL     1      37.003 120.915  14.149  1.00  0.00    -0.000 C 
BRANCH  18  19
ATOM     19  C   UNL     1      36.993 121.997  15.244  1.00  0.00    -0.003 C 
ATOM     20  C   UNL     1      36.401 121.508  16.564  1.00  0.00     0.004 C 
ENDBRANCH  18  19
ENDBRANCH  17  18
ENDBRANCH  16  17
ENDBRANCH  15  16
ENDBRANCH  14  15
ENDBRANCH  13  14
ENDBRANCH  12  13
ENDBRANCH   1  12
TORSDOF 16
ENDMDL
MODEL 7
REMARK VINA RESULT:    -4.665      4.084      8.604
REMARK INTER + INTRA:         -10.700
REMARK INTER:                  -9.101
REMARK INTRA:                  -1.598
REMARK UNBOUND:                -1.671
REMARK SMILES CCCCCCCCCCCCCCCCCC(=O)[O-]
REMARK SMILES IDX 10 1 11 2 12 3 13 4 14 5 15 6 16 7 17 8 18 9 19 10 20 11
REMARK SMILES IDX 9 12 8 13 7 14 6 15 5 16 4 17 3 18 2 19 1 20
REMARK H PARENT
REMARK Flexibility Score: inf
ROOT
ATOM      1  C   UNL     1      43.032 117.448  10.026  1.00  0.00     0.000 C 
ENDROOT
BRANCH   1   2
ATOM      2  C   UNL     1      42.014 116.944  11.065  1.00  0.00     0.000 C 
BRANCH   2   3
ATOM      3  C   UNL     1      40.703 117.752  11.151  1.00  0.00     0.000 C 
BRANCH   3   4
ATOM      4  C   UNL     1      40.063 117.814  12.549  1.00  0.00     0.000 C 
BRANCH   4   5
ATOM      5  C   UNL     1      39.747 119.249  12.997  1.00  0.00     0.000 C 
BRANCH   5   6
ATOM      6  C   UNL     1      38.377 119.318  13.689  1.00  0.00     0.000 C 
BRANCH   6   7
ATOM      7  C   UNL     1      37.931 117.962  14.258  1.00  0.00     0.006 C 
BRANCH   7   8
ATOM      8  C   UNL     1      36.612 117.471  13.649  1.00  0.00     0.053 C 
BRANCH   8   9
ATOM      9  C   UNL     1      35.559 118.529  13.762  1.00  0.00     0.041 C 
ATOM     10  O   UNL     1      35.157 118.904  14.894  1.00  0.00    -0.550 OA
ATOM     11  O   UNL     1      34.985 119.064  12.616  1.00  0.00    -0.550 OA
ENDBRANCH   8   9
ENDBRANCH   7   8
ENDBRANCH   6   7
ENDBRANCH   5   6
ENDBRANCH   4   5
ENDBRANCH   3   4
ENDBRANCH   2   3
ENDBRANCH   1   2
BRANCH   1  12
ATOM     12  C   UNL     1      43.019 116.622   8.729  1.00  0.00     0.000 C 
BRANCH  12  13
ATOM     13  C   UNL     1      44.391 116.005   8.396  1.00  0.00    -0.000 C 
BRANCH  13  14
ATOM     14  C   UNL     1      44.517 114.499   8.691  1.00  0.00    -0.000 C 
BRANCH  14  15
ATOM     15  C   UNL     1      45.055 114.209  10.104  1.00  0.00    -0.000 C 
BRANCH  15  16
ATOM     16  C   UNL     1      43.947 113.802  11.089  1.00  0.00    -0.000 C 
BRANCH  16  17
ATOM     17  C   UNL     1      44.184 114.360  12.503  1.00  0.00    -0.000 C 
BRANCH  17  18
ATOM     18  C   UNL     1      45.487 115.175  12.614  1.00  0.00    -0.000 C 
BRANCH  18  19
ATOM     19  C   UNL     1      45.293 116.690  12.802  1.00  0.00    -0.003 C 
ATOM     20  C   UNL     1      45.444 117.138  14.254  1.00  0.00     0.004 C 
ENDBRANCH  18  19
ENDBRANCH  17  18
ENDBRANCH  16  17
ENDBRANCH  15  16
ENDBRANCH  14  15
ENDBRANCH  13  14
ENDBRANCH  12  13
ENDBRANCH   1  12
TORSDOF 16
ENDMDL
MODEL 8
REMARK VINA RESULT:    -4.632      2.148      3.568
REMARK INTER + INTRA:         -10.635
REMARK INTER:                  -9.790
REMARK INTRA:                  -0.845
REMARK UNBOUND:                -1.671
REMARK SMILES CCCCCCCCCCCCCCCCCC(=O)[O-]
REMARK SMILES IDX 10 1 11 2 12 3 13 4 14 5 15 6 16 7 17 8 18 9 19 10 20 11
REMARK SMILES IDX 9 12 8 13 7 14 6 15 5 16 4 17 3 18 2 19 1 20
REMARK H PARENT
REMARK Flexibility Score: inf
ROOT
ATOM      1  C   UNL     1      41.541 117.808  10.366  1.00  0.00     0.000 C 
ENDROOT
BRANCH   1   2
ATOM      2  C   UNL     1      42.800 116.949  10.586  1.00  0.00     0.000 C 
BRANCH   2   3
ATOM      3  C   UNL     1      43.452 116.392   9.304  1.00  0.00     0.000 C 
BRANCH   3   4
ATOM      4  C   UNL     1      43.747 114.882   9.323  1.00  0.00     0.000 C 
BRANCH   4   5
ATOM      5  C   UNL     1      45.169 114.546   8.853  1.00  0.00     0.000 C 
BRANCH   5   6
ATOM      6  C   UNL     1      45.523 113.087   9.175  1.00  0.00     0.000 C 
BRANCH   6   7
ATOM      7  C   UNL     1      46.103 112.335   7.967  1.00  0.00     0.006 C 
BRANCH   7   8
ATOM      8  C   UNL     1      45.693 112.963   6.629  1.00  0.00     0.053 C 
BRANCH   8   9
ATOM      9  C   UNL     1      46.897 113.475   5.902  1.00  0.00     0.041 C 
ATOM     10  O   UNL     1      46.763 114.122   4.831  1.00  0.00    -0.550 OA
ATOM     11  O   UNL     1      48.170 113.195   6.383  1.00  0.00    -0.550 OA
ENDBRANCH   8   9
ENDBRANCH   7   8
ENDBRANCH   6   7
ENDBRANCH   5   6
ENDBRANCH   4   5
ENDBRANCH   3   4
ENDBRANCH   2   3
ENDBRANCH   1   2
BRANCH   1  12
ATOM     12  C   UNL     1      40.476 117.596  11.454  1.00  0.00     0.000 C 
BRANCH  12  13
ATOM     13  C   UNL     1      41.014 116.834  12.680  1.00  0.00    -0.000 C 
BRANCH  13  14
ATOM     14  C   UNL     1      40.033 116.726  13.863  1.00  0.00    -0.000 C 
BRANCH  14  15
ATOM     15  C   UNL     1      39.851 118.059  14.612  1.00  0.00    -0.000 C 
BRANCH  15  16
ATOM     16  C   UNL     1      38.394 118.549  14.605  1.00  0.00    -0.000 C 
BRANCH  16  17
ATOM     17  C   UNL     1      38.189 119.772  13.696  1.00  0.00    -0.000 C 
BRANCH  17  18
ATOM     18  C   UNL     1      36.894 120.543  14.012  1.00  0.00    -0.000 C 
BRANCH  18  19
ATOM     19  C   UNL     1      37.088 121.835  14.826  1.00  0.00    -0.003 C 
ATOM     20  C   UNL     1      36.653 121.695  16.284  1.00  0.00     0.004 C 
ENDBRANCH  18  19
ENDBRANCH  17  18
ENDBRANCH  16  17
ENDBRANCH  15  16
ENDBRANCH  14  15
ENDBRANCH  13  14
ENDBRANCH  12  13
ENDBRANCH   1  12
TORSDOF 16
ENDMDL
MODEL 9
REMARK VINA RESULT:    -4.494      3.153      5.258
REMARK INTER + INTRA:         -10.369
REMARK INTER:                  -9.455
REMARK INTRA:                  -0.914
REMARK UNBOUND:                -1.671
REMARK SMILES CCCCCCCCCCCCCCCCCC(=O)[O-]
REMARK SMILES IDX 10 1 11 2 12 3 13 4 14 5 15 6 16 7 17 8 18 9 19 10 20 11
REMARK SMILES IDX 9 12 8 13 7 14 6 15 5 16 4 17 3 18 2 19 1 20
REMARK H PARENT
REMARK Flexibility Score: inf
ROOT
ATOM      1  C   UNL     1      42.719 116.730   8.599  1.00  0.00     0.000 C 
ENDROOT
BRANCH   1   2
ATOM      2  C   UNL     1      44.086 116.048   8.793  1.00  0.00     0.000 C 
BRANCH   2   3
ATOM      3  C   UNL     1      44.047 114.510   8.898  1.00  0.00     0.000 C 
BRANCH   3   4
ATOM      4  C   UNL     1      45.393 113.804   8.658  1.00  0.00     0.000 C 
BRANCH   4   5
ATOM      5  C   UNL     1      45.476 113.131   7.280  1.00  0.00     0.000 C 
BRANCH   5   6
ATOM      6  C   UNL     1      46.903 112.640   6.994  1.00  0.00     0.000 C 
BRANCH   6   7
ATOM      7  C   UNL     1      47.528 113.315   5.764  1.00  0.00     0.006 C 
BRANCH   7   8
ATOM      8  C   UNL     1      46.708 114.511   5.266  1.00  0.00     0.053 C 
BRANCH   8   9
ATOM      9  C   UNL     1      47.467 115.264   4.217  1.00  0.00     0.041 C 
ATOM     10  O   UNL     1      46.853 115.837   3.280  1.00  0.00    -0.550 OA
ATOM     11  O   UNL     1      48.855 115.288   4.248  1.00  0.00    -0.550 OA
ENDBRANCH   8   9
ENDBRANCH   7   8
ENDBRANCH   6   7
ENDBRANCH   5   6
ENDBRANCH   4   5
ENDBRANCH   3   4
ENDBRANCH   2   3
ENDBRANCH   1   2
BRANCH   1  12
ATOM     12  C   UNL     1      42.247 117.489   9.850  1.00  0.00     0.000 C 
BRANCH  12  13
ATOM     13  C   UNL     1      42.570 116.745  11.160  1.00  0.00    -0.000 C 
BRANCH  13  14
ATOM     14  C   UNL     1      41.425 116.710  12.189  1.00  0.00    -0.000 C 
BRANCH  14  15
ATOM     15  C   UNL     1      40.161 117.442  11.704  1.00  0.00    -0.000 C 
BRANCH  15  16
ATOM     16  C   UNL     1      39.850 118.700  12.532  1.00  0.00    -0.000 C 
BRANCH  16  17
ATOM     17  C   UNL     1      39.155 118.371  13.864  1.00  0.00    -0.000 C 
BRANCH  17  18
ATOM     18  C   UNL     1      37.923 117.464  13.688  1.00  0.00    -0.000 C 
BRANCH  18  19
ATOM     19  C   UNL     1      36.744 118.107  12.936  1.00  0.00    -0.003 C 
ATOM     20  C   UNL     1      36.161 119.319  13.662  1.00  0.00     0.004 C 
ENDBRANCH  18  19
ENDBRANCH  17  18
ENDBRANCH  16  17
ENDBRANCH  15  16
ENDBRANCH  14  15
ENDBRANCH  13  14
ENDBRANCH  12  13
ENDBRANCH   1  12
TORSDOF 16
ENDMDL
