MODEL 1
REMARK VINA RESULT:     3.292      0.000      0.000
REMARK INTER + INTRA:           4.740
REMARK INTER:                   5.216
REMARK INTRA:                  -0.477
REMARK UNBOUND:                -0.477
REMARK SMILES CCCCCCCCCCCC(=O)[O-]
REMARK SMILES IDX 7 1 8 2 9 3 10 4 11 5 12 6 13 7 14 8 6 9 5 10 4 11 3 12 2 13
REMARK SMILES IDX 1 14
REMARK H PARENT
REMARK Flexibility Score: inf
ROOT
ATOM      1  C   UNL     1     -18.588  61.829  -3.114  1.00  0.00     0.000 C 
ENDROOT
BRANCH   1   2
ATOM      2  C   UNL     1     -19.927  61.079  -3.191  1.00  0.00     0.000 C 
BRANCH   2   3
ATOM      3  C   UNL     1     -20.541  60.819  -1.806  1.00  0.00     0.000 C 
BRANCH   3   4
ATOM      4  C   UNL     1     -21.030  62.125  -1.169  1.00  0.00     0.006 C 
BRANCH   4   5
ATOM      5  C   UNL     1     -20.175  62.497   0.047  1.00  0.00     0.053 C 
BRANCH   5   6
ATOM      6  C   UNL     1     -19.436  63.772  -0.204  1.00  0.00     0.041 C 
ATOM      7  O   UNL     1     -20.066  64.854  -0.341  1.00  0.00    -0.550 OA
ATOM      8  O   UNL     1     -18.047  63.776  -0.236  1.00  0.00    -0.550 OA
ENDBRANCH   5   6
ENDBRANCH   4   5
ENDBRANCH   3   4
ENDBRANCH   2   3
ENDBRANCH   1   2
BRANCH   1   9
ATOM      9  C   UNL     1     -17.583  61.150  -2.171  1.00  0.00     0.000 C 
BRANCH   9  10
ATOM     10  C   UNL     1     -16.232  61.876  -2.192  1.00  0.00    -0.000 C 
BRANCH  10  11
ATOM     11  C   UNL     1     -15.069  60.875  -2.149  1.00  0.00    -0.000 C 
BRANCH  11  12
ATOM     12  C   UNL     1     -13.726  61.496  -2.579  1.00  0.00    -0.000 C 
BRANCH  12  13
ATOM     13  C   UNL     1     -12.520  61.092  -1.713  1.00  0.00    -0.003 C 
ATOM     14  C   UNL     1     -12.905  60.205  -0.529  1.00  0.00     0.004 C 
ENDBRANCH  12  13
ENDBRANCH  11  12
ENDBRANCH  10  11
ENDBRANCH   9  10
ENDBRANCH   1   9
TORSDOF 10
ENDMDL
MODEL 2
REMARK VINA RESULT:     3.450      2.977      6.007
REMARK INTER + INTRA:           4.990
REMARK INTER:                   5.467
REMARK INTRA:                  -0.477
REMARK UNBOUND:                -0.477
REMARK SMILES CCCCCCCCCCCC(=O)[O-]
REMARK SMILES IDX 7 1 8 2 9 3 10 4 11 5 12 6 13 7 14 8 6 9 5 10 4 11 3 12 2 13
REMARK SMILES IDX 1 14
REMARK H PARENT
REMARK Flexibility Score: inf
ROOT
ATOM      1  C   UNL     1     -18.839  61.874  -2.775  1.00  0.00     0.000 C 
ENDROOT
BRANCH   1   2
ATOM      2  C   UNL     1     -17.549  61.058  -2.592  1.00  0.00     0.000 C 
BRANCH   2   3
ATOM      3  C   UNL     1     -16.427  61.866  -1.921  1.00  0.00     0.000 C 
BRANCH   3   4
ATOM      4  C   UNL     1     -15.052  61.431  -2.440  1.00  0.00     0.006 C 
BRANCH   4   5
ATOM      5  C   UNL     1     -14.485  60.283  -1.600  1.00  0.00     0.053 C 
BRANCH   5   6
ATOM      6  C   UNL     1     -13.105  60.613  -1.126  1.00  0.00     0.041 C 
ATOM      7  O   UNL     1     -12.681  60.148  -0.036  1.00  0.00    -0.550 OA
ATOM      8  O   UNL     1     -12.269  61.396  -1.912  1.00  0.00    -0.550 OA
ENDBRANCH   5   6
ENDBRANCH   4   5
ENDBRANCH   3   4
ENDBRANCH   2   3
ENDBRANCH   1   2
BRANCH   1   9
ATOM      9  C   UNL     1     -20.087  60.987  -2.896  1.00  0.00     0.000 C 
BRANCH   9  10
ATOM     10  C   UNL     1     -21.071  61.263  -1.753  1.00  0.00    -0.000 C 
BRANCH  10  11
ATOM     11  C   UNL     1     -20.370  61.963  -0.580  1.00  0.00    -0.000 C 
BRANCH  11  12
ATOM     12  C   UNL     1     -20.889  63.393  -0.337  1.00  0.00    -0.000 C 
BRANCH  12  13
ATOM     13  C   UNL     1     -19.818  64.494  -0.432  1.00  0.00    -0.003 C 
ATOM     14  C   UNL     1     -18.406  63.981  -0.150  1.00  0.00     0.004 C 
ENDBRANCH  12  13
ENDBRANCH  11  12
ENDBRANCH  10  11
ENDBRANCH   9  10
ENDBRANCH   1   9
TORSDOF 10
ENDMDL
MODEL 3
REMARK VINA RESULT:     3.530      2.406      3.199
REMARK INTER + INTRA:           5.117
REMARK INTER:                   5.441
REMARK INTRA:                  -0.323
REMARK UNBOUND:                -0.477
REMARK SMILES CCCCCCCCCCCC(=O)[O-]
REMARK SMILES IDX 7 1 8 2 9 3 10 4 11 5 12 6 13 7 14 8 6 9 5 10 4 11 3 12 2 13
REMARK SMILES IDX 1 14
REMARK H PARENT
REMARK Flexibility Score: inf
ROOT
ATOM      1  C   UNL     1     -17.941  63.639  -0.839  1.00  0.00     0.000 C 
ENDROOT
BRANCH   1   2
ATOM      2  C   UNL     1     -19.176  63.266  -0.004  1.00  0.00     0.000 C 
BRANCH   2   3
ATOM      3  C   UNL     1     -20.131  62.320  -0.748  1.00  0.00     0.000 C 
BRANCH   3   4
ATOM      4  C   UNL     1     -19.987  62.478  -2.266  1.00  0.00     0.006 C 
BRANCH   4   5
ATOM      5  C   UNL     1     -19.733  61.125  -2.937  1.00  0.00     0.053 C 
BRANCH   5   6
ATOM      6  C   UNL     1     -21.026  60.435  -3.232  1.00  0.00     0.041 C 
ATOM      7  O   UNL     1     -21.199  59.856  -4.337  1.00  0.00    -0.550 OA
ATOM      8  O   UNL     1     -22.025  60.389  -2.267  1.00  0.00    -0.550 OA
ENDBRANCH   5   6
ENDBRANCH   4   5
ENDBRANCH   3   4
ENDBRANCH   2   3
ENDBRANCH   1   2
BRANCH   1   9
ATOM      9  C   UNL     1     -16.793  62.631  -0.682  1.00  0.00     0.000 C 
BRANCH   9  10
ATOM     10  C   UNL     1     -16.525  61.893  -2.000  1.00  0.00    -0.000 C 
BRANCH  10  11
ATOM     11  C   UNL     1     -15.296  60.980  -1.879  1.00  0.00    -0.000 C 
BRANCH  11  12
ATOM     12  C   UNL     1     -14.044  61.568  -2.557  1.00  0.00    -0.000 C 
BRANCH  12  13
ATOM     13  C   UNL     1     -12.711  61.200  -1.881  1.00  0.00    -0.003 C 
ATOM     14  C   UNL     1     -12.895  60.400  -0.592  1.00  0.00     0.004 C 
ENDBRANCH  12  13
ENDBRANCH  11  12
ENDBRANCH  10  11
ENDBRANCH   9  10
ENDBRANCH   1   9
TORSDOF 10
ENDMDL
MODEL 4
REMARK VINA RESULT:     3.690      3.006      6.184
REMARK INTER + INTRA:           5.371
REMARK INTER:                   5.743
REMARK INTRA:                  -0.372
REMARK UNBOUND:                -0.477
REMARK SMILES CCCCCCCCCCCC(=O)[O-]
REMARK SMILES IDX 7 1 8 2 9 3 10 4 11 5 12 6 13 7 14 8 6 9 5 10 4 11 3 12 2 13
REMARK SMILES IDX 1 14
REMARK H PARENT
REMARK Flexibility Score: inf
ROOT
ATOM      1  C   UNL     1     -17.863  63.038  -0.033  1.00  0.00     0.000 C 
ENDROOT
BRANCH   1   2
ATOM      2  C   UNL     1     -16.541  62.909  -0.805  1.00  0.00     0.000 C 
BRANCH   2   3
ATOM      3  C   UNL     1     -16.568  61.774  -1.840  1.00  0.00     0.000 C 
BRANCH   3   4
ATOM      4  C   UNL     1     -15.155  61.457  -2.345  1.00  0.00     0.006 C 
BRANCH   4   5
ATOM      5  C   UNL     1     -14.514  60.338  -1.520  1.00  0.00     0.053 C 
BRANCH   5   6
ATOM      6  C   UNL     1     -13.106  60.690  -1.164  1.00  0.00     0.041 C 
ATOM      7  O   UNL     1     -12.582  60.229  -0.116  1.00  0.00    -0.550 OA
ATOM      8  O   UNL     1     -12.353  61.489  -2.014  1.00  0.00    -0.550 OA
ENDBRANCH   5   6
ENDBRANCH   4   5
ENDBRANCH   3   4
ENDBRANCH   2   3
ENDBRANCH   1   2
BRANCH   1   9
ATOM      9  C   UNL     1     -18.650  64.301  -0.415  1.00  0.00     0.000 C 
BRANCH   9  10
ATOM     10  C   UNL     1     -20.155  64.010  -0.486  1.00  0.00    -0.000 C 
BRANCH  10  11
ATOM     11  C   UNL     1     -20.415  62.552  -0.888  1.00  0.00    -0.000 C 
BRANCH  11  12
ATOM     12  C   UNL     1     -19.944  62.230  -2.319  1.00  0.00    -0.000 C 
BRANCH  12  13
ATOM     13  C   UNL     1     -19.938  60.733  -2.676  1.00  0.00    -0.003 C 
ATOM     14  C   UNL     1     -21.197  60.292  -3.422  1.00  0.00     0.004 C 
ENDBRANCH  12  13
ENDBRANCH  11  12
ENDBRANCH  10  11
ENDBRANCH   9  10
ENDBRANCH   1   9
TORSDOF 10
ENDMDL
