MODEL 1
REMARK VINA RESULT:    -3.868      0.000      0.000
REMARK INTER + INTRA:         -13.420
REMARK INTER:                  -8.843
REMARK INTRA:                  -4.577
REMARK UNBOUND:                -4.577
REMARK SMILES CCCCCCCCCCCCCCCCCCCCCCCC(=O)[O-]
REMARK SMILES IDX 13 1 14 2 15 3 16 4 17 5 18 6 19 7 20 8 21 9 22 10 23 11
REMARK SMILES IDX 24 12 25 13 26 14 12 15 11 16 10 17 9 18 8 19 7 20 6 21 5 22
REMARK SMILES IDX 4 23 3 24 2 25 1 26
REMARK H PARENT
REMARK Flexibility Score: inf
ROOT
ATOM      1  C   UNL     1      25.335  42.007   3.078  1.00  0.00     0.000 C 
ENDROOT
BRANCH   1   2
ATOM      2  C   UNL     1      25.559  41.388   1.686  1.00  0.00     0.000 C 
BRANCH   2   3
ATOM      3  C   UNL     1      26.948  41.706   1.106  1.00  0.00     0.000 C 
BRANCH   3   4
ATOM      4  C   UNL     1      27.861  42.546   2.017  1.00  0.00     0.000 C 
BRANCH   4   5
ATOM      5  C   UNL     1      29.134  41.800   2.445  1.00  0.00     0.000 C 
BRANCH   5   6
ATOM      6  C   UNL     1      29.031  40.305   2.109  1.00  0.00     0.000 C 
BRANCH   6   7
ATOM      7  C   UNL     1      29.253  39.402   3.333  1.00  0.00     0.000 C 
BRANCH   7   8
ATOM      8  C   UNL     1      28.163  38.336   3.556  1.00  0.00     0.000 C 
BRANCH   8   9
ATOM      9  C   UNL     1      27.211  38.157   2.353  1.00  0.00     0.000 C 
BRANCH   9  10
ATOM     10  C   UNL     1      25.871  37.521   2.758  1.00  0.00     0.006 C 
BRANCH  10  11
ATOM     11  C   UNL     1      25.867  37.055   4.220  1.00  0.00     0.053 C 
BRANCH  11  12
ATOM     12  C   UNL     1      25.112  35.773   4.394  1.00  0.00     0.041 C 
ATOM     13  O   UNL     1      24.008  35.605   3.813  1.00  0.00    -0.550 OA
ATOM     14  O   UNL     1      25.640  34.754   5.177  1.00  0.00    -0.550 OA
ENDBRANCH  11  12
ENDBRANCH  10  11
ENDBRANCH   9  10
ENDBRANCH   8   9
ENDBRANCH   7   8
ENDBRANCH   6   7
ENDBRANCH   5   6
ENDBRANCH   4   5
ENDBRANCH   3   4
ENDBRANCH   2   3
ENDBRANCH   1   2
BRANCH   1  15
ATOM     15  C   UNL     1      24.656  41.029   4.052  1.00  0.00     0.000 C 
BRANCH  15  16
ATOM     16  C   UNL     1      25.626  40.489   5.118  1.00  0.00     0.000 C 
BRANCH  16  17
ATOM     17  C   UNL     1      26.717  41.506   5.490  1.00  0.00     0.000 C 
BRANCH  17  18
ATOM     18  C   UNL     1      27.869  40.867   6.287  1.00  0.00    -0.000 C 
BRANCH  18  19
ATOM     19  C   UNL     1      27.681  41.001   7.807  1.00  0.00    -0.000 C 
BRANCH  19  20
ATOM     20  C   UNL     1      26.665  42.088   8.186  1.00  0.00    -0.000 C 
BRANCH  20  21
ATOM     21  C   UNL     1      27.262  43.062   9.214  1.00  0.00    -0.000 C 
BRANCH  21  22
ATOM     22  C   UNL     1      27.539  44.454   8.623  1.00  0.00    -0.000 C 
BRANCH  22  23
ATOM     23  C   UNL     1      26.692  44.744   7.373  1.00  0.00    -0.000 C 
BRANCH  23  24
ATOM     24  C   UNL     1      27.440  45.598   6.337  1.00  0.00    -0.000 C 
BRANCH  24  25
ATOM     25  C   UNL     1      27.912  44.780   5.124  1.00  0.00    -0.003 C 
ATOM     26  C   UNL     1      29.310  44.214   5.355  1.00  0.00     0.004 C 
ENDBRANCH  24  25
ENDBRANCH  23  24
ENDBRANCH  22  23
ENDBRANCH  21  22
ENDBRANCH  20  21
ENDBRANCH  19  20
ENDBRANCH  18  19
ENDBRANCH  17  18
ENDBRANCH  16  17
ENDBRANCH  15  16
ENDBRANCH   1  15
TORSDOF 22
ENDMDL
MODEL 2
REMARK VINA RESULT:    -3.691      2.574      6.695
REMARK INTER + INTRA:         -13.015
REMARK INTER:                  -8.114
REMARK INTRA:                  -4.901
REMARK UNBOUND:                -4.577
REMARK SMILES CCCCCCCCCCCCCCCCCCCCCCCC(=O)[O-]
REMARK SMILES IDX 13 1 14 2 15 3 16 4 17 5 18 6 19 7 20 8 21 9 22 10 23 11
REMARK SMILES IDX 24 12 25 13 26 14 12 15 11 16 10 17 9 18 8 19 7 20 6 21 5 22
REMARK SMILES IDX 4 23 3 24 2 25 1 26
REMARK H PARENT
REMARK Flexibility Score: inf
ROOT
ATOM      1  C   UNL     1      28.856  41.718   6.338  1.00  0.00     0.000 C 
ENDROOT
BRANCH   1   2
ATOM      2  C   UNL     1      29.359  42.117   4.940  1.00  0.00     0.000 C 
BRANCH   2   3
ATOM      3  C   UNL     1      29.551  43.635   4.782  1.00  0.00     0.000 C 
BRANCH   3   4
ATOM      4  C   UNL     1      28.370  44.379   4.134  1.00  0.00     0.000 C 
BRANCH   4   5
ATOM      5  C   UNL     1      27.406  44.989   5.163  1.00  0.00     0.000 C 
BRANCH   5   6
ATOM      6  C   UNL     1      28.153  45.387   6.444  1.00  0.00     0.000 C 
BRANCH   6   7
ATOM      7  C   UNL     1      27.208  45.669   7.623  1.00  0.00     0.000 C 
BRANCH   7   8
ATOM      8  C   UNL     1      26.255  44.511   7.979  1.00  0.00     0.000 C 
BRANCH   8   9
ATOM      9  C   UNL     1      26.891  43.440   8.891  1.00  0.00     0.000 C 
BRANCH   9  10
ATOM     10  C   UNL     1      25.834  42.618   9.650  1.00  0.00     0.006 C 
BRANCH  10  11
ATOM     11  C   UNL     1      26.140  41.115   9.626  1.00  0.00     0.053 C 
BRANCH  11  12
ATOM     12  C   UNL     1      27.406  40.792  10.358  1.00  0.00     0.041 C 
ATOM     13  O   UNL     1      27.494  41.005  11.596  1.00  0.00    -0.550 OA
ATOM     14  O   UNL     1      28.480  40.230   9.678  1.00  0.00    -0.550 OA
ENDBRANCH  11  12
ENDBRANCH  10  11
ENDBRANCH   9  10
ENDBRANCH   8   9
ENDBRANCH   7   8
ENDBRANCH   6   7
ENDBRANCH   5   6
ENDBRANCH   4   5
ENDBRANCH   3   4
ENDBRANCH   2   3
ENDBRANCH   1   2
BRANCH   1  15
ATOM     15  C   UNL     1      27.636  40.784   6.279  1.00  0.00     0.000 C 
BRANCH  15  16
ATOM     16  C   UNL     1      26.383  41.484   5.724  1.00  0.00     0.000 C 
BRANCH  16  17
ATOM     17  C   UNL     1      25.383  40.495   5.104  1.00  0.00     0.000 C 
BRANCH  17  18
ATOM     18  C   UNL     1      24.672  41.074   3.867  1.00  0.00    -0.000 C 
BRANCH  18  19
ATOM     19  C   UNL     1      25.501  42.163   3.166  1.00  0.00    -0.000 C 
BRANCH  19  20
ATOM     20  C   UNL     1      26.083  41.693   1.824  1.00  0.00    -0.000 C 
BRANCH  20  21
ATOM     21  C   UNL     1      27.503  41.136   2.010  1.00  0.00    -0.000 C 
BRANCH  21  22
ATOM     22  C   UNL     1      27.548  39.600   1.969  1.00  0.00    -0.000 C 
BRANCH  22  23
ATOM     23  C   UNL     1      28.301  38.999   3.169  1.00  0.00    -0.000 C 
BRANCH  23  24
ATOM     24  C   UNL     1      27.544  37.827   3.813  1.00  0.00    -0.000 C 
BRANCH  24  25
ATOM     25  C   UNL     1      26.217  37.515   3.104  1.00  0.00    -0.003 C 
ATOM     26  C   UNL     1      25.228  36.849   4.056  1.00  0.00     0.004 C 
ENDBRANCH  24  25
ENDBRANCH  23  24
ENDBRANCH  22  23
ENDBRANCH  21  22
ENDBRANCH  20  21
ENDBRANCH  19  20
ENDBRANCH  18  19
ENDBRANCH  17  18
ENDBRANCH  16  17
ENDBRANCH  15  16
ENDBRANCH   1  15
TORSDOF 22
ENDMDL
MODEL 3
REMARK VINA RESULT:    -3.687      4.548      8.714
REMARK INTER + INTRA:         -13.007
REMARK INTER:                 -10.419
REMARK INTRA:                  -2.588
REMARK UNBOUND:                -4.577
REMARK SMILES CCCCCCCCCCCCCCCCCCCCCCCC(=O)[O-]
REMARK SMILES IDX 13 1 14 2 15 3 16 4 17 5 18 6 19 7 20 8 21 9 22 10 23 11
REMARK SMILES IDX 24 12 25 13 26 14 12 15 11 16 10 17 9 18 8 19 7 20 6 21 5 22
REMARK SMILES IDX 4 23 3 24 2 25 1 26
REMARK H PARENT
REMARK Flexibility Score: inf
ROOT
ATOM      1  C   UNL     1      27.203  42.387   7.374  1.00  0.00     0.000 C 
ENDROOT
BRANCH   1   2
ATOM      2  C   UNL     1      27.084  43.856   6.933  1.00  0.00     0.000 C 
BRANCH   2   3
ATOM      3  C   UNL     1      26.106  44.666   7.803  1.00  0.00     0.000 C 
BRANCH   3   4
ATOM      4  C   UNL     1      26.683  45.960   8.403  1.00  0.00     0.000 C 
BRANCH   4   5
ATOM      5  C   UNL     1      25.955  46.409   9.679  1.00  0.00     0.000 C 
BRANCH   5   6
ATOM      6  C   UNL     1      24.482  45.975   9.649  1.00  0.00     0.000 C 
BRANCH   6   7
ATOM      7  C   UNL     1      24.084  45.126  10.868  1.00  0.00     0.000 C 
BRANCH   7   8
ATOM      8  C   UNL     1      22.834  44.249  10.665  1.00  0.00     0.000 C 
BRANCH   8   9
ATOM      9  C   UNL     1      21.552  44.835  11.296  1.00  0.00     0.000 C 
BRANCH   9  10
ATOM     10  C   UNL     1      20.696  45.601  10.273  1.00  0.00     0.006 C 
BRANCH  10  11
ATOM     11  C   UNL     1      21.037  45.218   8.826  1.00  0.00     0.053 C 
BRANCH  11  12
ATOM     12  C   UNL     1      20.595  46.268   7.854  1.00  0.00     0.041 C 
ATOM     13  O   UNL     1      19.435  46.232   7.366  1.00  0.00    -0.550 OA
ATOM     14  O   UNL     1      21.457  47.302   7.507  1.00  0.00    -0.550 OA
ENDBRANCH  11  12
ENDBRANCH  10  11
ENDBRANCH   9  10
ENDBRANCH   8   9
ENDBRANCH   7   8
ENDBRANCH   6   7
ENDBRANCH   5   6
ENDBRANCH   4   5
ENDBRANCH   3   4
ENDBRANCH   2   3
ENDBRANCH   1   2
BRANCH   1  15
ATOM     15  C   UNL     1      28.167  41.584   6.486  1.00  0.00     0.000 C 
BRANCH  15  16
ATOM     16  C   UNL     1      27.431  40.657   5.502  1.00  0.00     0.000 C 
BRANCH  16  17
ATOM     17  C   UNL     1      25.904  40.716   5.668  1.00  0.00     0.000 C 
BRANCH  17  18
ATOM     18  C   UNL     1      25.179  41.017   4.344  1.00  0.00    -0.000 C 
BRANCH  18  19
ATOM     19  C   UNL     1      25.879  42.111   3.522  1.00  0.00    -0.000 C 
BRANCH  19  20
ATOM     20  C   UNL     1      25.988  41.755   2.032  1.00  0.00    -0.000 C 
BRANCH  20  21
ATOM     21  C   UNL     1      26.120  40.236   1.841  1.00  0.00    -0.000 C 
BRANCH  21  22
ATOM     22  C   UNL     1      27.584  39.767   1.805  1.00  0.00    -0.000 C 
BRANCH  22  23
ATOM     23  C   UNL     1      27.804  38.459   2.584  1.00  0.00    -0.000 C 
BRANCH  23  24
ATOM     24  C   UNL     1      26.515  37.635   2.730  1.00  0.00    -0.000 C 
BRANCH  24  25
ATOM     25  C   UNL     1      26.156  37.351   4.197  1.00  0.00    -0.003 C 
ATOM     26  C   UNL     1      26.943  36.158   4.733  1.00  0.00     0.004 C 
ENDBRANCH  24  25
ENDBRANCH  23  24
ENDBRANCH  22  23
ENDBRANCH  21  22
ENDBRANCH  20  21
ENDBRANCH  19  20
ENDBRANCH  18  19
ENDBRANCH  17  18
ENDBRANCH  16  17
ENDBRANCH  15  16
ENDBRANCH   1  15
TORSDOF 22
ENDMDL
MODEL 4
REMARK VINA RESULT:    -3.671      2.508      5.985
REMARK INTER + INTRA:         -12.968
REMARK INTER:                  -9.359
REMARK INTRA:                  -3.609
REMARK UNBOUND:                -4.577
REMARK SMILES CCCCCCCCCCCCCCCCCCCCCCCC(=O)[O-]
REMARK SMILES IDX 13 1 14 2 15 3 16 4 17 5 18 6 19 7 20 8 21 9 22 10 23 11
REMARK SMILES IDX 24 12 25 13 26 14 12 15 11 16 10 17 9 18 8 19 7 20 6 21 5 22
REMARK SMILES IDX 4 23 3 24 2 25 1 26
REMARK H PARENT
REMARK Flexibility Score: inf
ROOT
ATOM      1  C   UNL     1      25.475  40.625   5.001  1.00  0.00     0.000 C 
ENDROOT
BRANCH   1   2
ATOM      2  C   UNL     1      26.903  41.180   5.153  1.00  0.00     0.000 C 
BRANCH   2   3
ATOM      3  C   UNL     1      27.970  40.075   5.230  1.00  0.00     0.000 C 
BRANCH   3   4
ATOM      4  C   UNL     1      27.636  38.788   4.454  1.00  0.00     0.000 C 
BRANCH   4   5
ATOM      5  C   UNL     1      28.374  38.689   3.109  1.00  0.00     0.000 C 
BRANCH   5   6
ATOM      6  C   UNL     1      27.473  38.059   2.037  1.00  0.00     0.000 C 
BRANCH   6   7
ATOM      7  C   UNL     1      26.015  37.902   2.500  1.00  0.00     0.000 C 
BRANCH   7   8
ATOM      8  C   UNL     1      25.523  36.445   2.605  1.00  0.00     0.000 C 
BRANCH   8   9
ATOM      9  C   UNL     1      24.731  36.147   3.896  1.00  0.00     0.000 C 
BRANCH   9  10
ATOM     10  C   UNL     1      23.978  34.808   3.822  1.00  0.00     0.006 C 
BRANCH  10  11
ATOM     11  C   UNL     1      24.629  33.725   4.694  1.00  0.00     0.053 C 
BRANCH  11  12
ATOM     12  C   UNL     1      25.148  32.586   3.871  1.00  0.00     0.041 C 
ATOM     13  O   UNL     1      25.022  31.402   4.279  1.00  0.00    -0.550 OA
ATOM     14  O   UNL     1      25.748  32.832   2.641  1.00  0.00    -0.550 OA
ENDBRANCH  11  12
ENDBRANCH  10  11
ENDBRANCH   9  10
ENDBRANCH   8   9
ENDBRANCH   7   8
ENDBRANCH   6   7
ENDBRANCH   5   6
ENDBRANCH   4   5
ENDBRANCH   3   4
ENDBRANCH   2   3
ENDBRANCH   1   2
BRANCH   1  15
ATOM     15  C   UNL     1      24.801  41.090   3.700  1.00  0.00     0.000 C 
BRANCH  15  16
ATOM     16  C   UNL     1      25.687  42.048   2.884  1.00  0.00     0.000 C 
BRANCH  16  17
ATOM     17  C   UNL     1      26.060  41.476   1.507  1.00  0.00     0.000 C 
BRANCH  17  18
ATOM     18  C   UNL     1      27.352  42.095   0.943  1.00  0.00    -0.000 C 
BRANCH  18  19
ATOM     19  C   UNL     1      28.511  42.065   1.952  1.00  0.00    -0.000 C 
BRANCH  19  20
ATOM     20  C   UNL     1      29.851  41.688   1.304  1.00  0.00    -0.000 C 
BRANCH  20  21
ATOM     21  C   UNL     1      29.710  41.580  -0.222  1.00  0.00    -0.000 C 
BRANCH  21  22
ATOM     22  C   UNL     1      30.392  40.327  -0.795  1.00  0.00    -0.000 C 
BRANCH  22  23
ATOM     23  C   UNL     1      30.504  39.192   0.237  1.00  0.00    -0.000 C 
BRANCH  23  24
ATOM     24  C   UNL     1      30.323  37.801  -0.392  1.00  0.00    -0.000 C 
BRANCH  24  25
ATOM     25  C   UNL     1      31.554  36.901  -0.206  1.00  0.00    -0.003 C 
ATOM     26  C   UNL     1      32.649  37.624   0.574  1.00  0.00     0.004 C 
ENDBRANCH  24  25
ENDBRANCH  23  24
ENDBRANCH  22  23
ENDBRANCH  21  22
ENDBRANCH  20  21
ENDBRANCH  19  20
ENDBRANCH  18  19
ENDBRANCH  17  18
ENDBRANCH  16  17
ENDBRANCH  15  16
ENDBRANCH   1  15
TORSDOF 22
ENDMDL
MODEL 5
REMARK VINA RESULT:    -3.605      2.126      5.800
REMARK INTER + INTRA:         -12.819
REMARK INTER:                  -8.894
REMARK INTRA:                  -3.925
REMARK UNBOUND:                -4.577
REMARK SMILES CCCCCCCCCCCCCCCCCCCCCCCC(=O)[O-]
REMARK SMILES IDX 13 1 14 2 15 3 16 4 17 5 18 6 19 7 20 8 21 9 22 10 23 11
REMARK SMILES IDX 24 12 25 13 26 14 12 15 11 16 10 17 9 18 8 19 7 20 6 21 5 22
REMARK SMILES IDX 4 23 3 24 2 25 1 26
REMARK H PARENT
REMARK Flexibility Score: inf
ROOT
ATOM      1  C   UNL     1      26.151  41.093   2.220  1.00  0.00     0.000 C 
ENDROOT
BRANCH   1   2
ATOM      2  C   UNL     1      24.791  41.332   2.900  1.00  0.00     0.000 C 
BRANCH   2   3
ATOM      3  C   UNL     1      24.904  41.495   4.426  1.00  0.00     0.000 C 
BRANCH   3   4
ATOM      4  C   UNL     1      26.320  41.800   4.947  1.00  0.00     0.000 C 
BRANCH   4   5
ATOM      5  C   UNL     1      26.649  41.069   6.258  1.00  0.00     0.000 C 
BRANCH   5   6
ATOM      6  C   UNL     1      27.914  40.211   6.104  1.00  0.00     0.000 C 
BRANCH   6   7
ATOM      7  C   UNL     1      28.444  40.186   4.661  1.00  0.00     0.000 C 
BRANCH   7   8
ATOM      8  C   UNL     1      28.457  38.793   4.002  1.00  0.00     0.000 C 
BRANCH   8   9
ATOM      9  C   UNL     1      27.449  37.801   4.621  1.00  0.00     0.000 C 
BRANCH   9  10
ATOM     10  C   UNL     1      26.038  37.958   4.030  1.00  0.00     0.006 C 
BRANCH  10  11
ATOM     11  C   UNL     1      25.855  37.149   2.739  1.00  0.00     0.053 C 
BRANCH  11  12
ATOM     12  C   UNL     1      25.067  35.896   2.973  1.00  0.00     0.041 C 
ATOM     13  O   UNL     1      25.143  34.939   2.159  1.00  0.00    -0.550 OA
ATOM     14  O   UNL     1      24.270  35.777   4.105  1.00  0.00    -0.550 OA
ENDBRANCH  11  12
ENDBRANCH  10  11
ENDBRANCH   9  10
ENDBRANCH   8   9
ENDBRANCH   7   8
ENDBRANCH   6   7
ENDBRANCH   5   6
ENDBRANCH   4   5
ENDBRANCH   3   4
ENDBRANCH   2   3
ENDBRANCH   1   2
BRANCH   1  15
ATOM     15  C   UNL     1      26.206  41.677   0.798  1.00  0.00     0.000 C 
BRANCH  15  16
ATOM     16  C   UNL     1      26.954  43.021   0.741  1.00  0.00     0.000 C 
BRANCH  16  17
ATOM     17  C   UNL     1      27.575  43.408   2.093  1.00  0.00     0.000 C 
BRANCH  17  18
ATOM     18  C   UNL     1      29.109  43.278   2.094  1.00  0.00    -0.000 C 
BRANCH  18  19
ATOM     19  C   UNL     1      29.685  43.054   0.687  1.00  0.00    -0.000 C 
BRANCH  19  20
ATOM     20  C   UNL     1      30.786  41.984   0.660  1.00  0.00    -0.000 C 
BRANCH  20  21
ATOM     21  C   UNL     1      30.343  40.723   1.418  1.00  0.00    -0.000 C 
BRANCH  21  22
ATOM     22  C   UNL     1      29.478  39.787   0.557  1.00  0.00    -0.000 C 
BRANCH  22  23
ATOM     23  C   UNL     1      30.293  39.062  -0.527  1.00  0.00    -0.000 C 
BRANCH  23  24
ATOM     24  C   UNL     1      30.665  37.626  -0.125  1.00  0.00    -0.000 C 
BRANCH  24  25
ATOM     25  C   UNL     1      32.159  37.324  -0.315  1.00  0.00    -0.003 C 
ATOM     26  C   UNL     1      33.011  38.552  -0.003  1.00  0.00     0.004 C 
ENDBRANCH  24  25
ENDBRANCH  23  24
ENDBRANCH  22  23
ENDBRANCH  21  22
ENDBRANCH  20  21
ENDBRANCH  19  20
ENDBRANCH  18  19
ENDBRANCH  17  18
ENDBRANCH  16  17
ENDBRANCH  15  16
ENDBRANCH   1  15
TORSDOF 22
ENDMDL
MODEL 6
REMARK VINA RESULT:    -3.602      5.008      9.094
REMARK INTER + INTRA:         -12.812
REMARK INTER:                  -9.379
REMARK INTRA:                  -3.433
REMARK UNBOUND:                -4.577
REMARK SMILES CCCCCCCCCCCCCCCCCCCCCCCC(=O)[O-]
REMARK SMILES IDX 13 1 14 2 15 3 16 4 17 5 18 6 19 7 20 8 21 9 22 10 23 11
REMARK SMILES IDX 24 12 25 13 26 14 12 15 11 16 10 17 9 18 8 19 7 20 6 21 5 22
REMARK SMILES IDX 4 23 3 24 2 25 1 26
REMARK H PARENT
REMARK Flexibility Score: inf
ROOT
ATOM      1  C   UNL     1      25.201  46.583   9.633  1.00  0.00     0.000 C 
ENDROOT
BRANCH   1   2
ATOM      2  C   UNL     1      26.453  47.144  10.331  1.00  0.00     0.000 C 
BRANCH   2   3
ATOM      3  C   UNL     1      26.308  47.212  11.861  1.00  0.00     0.000 C 
BRANCH   3   4
ATOM      4  C   UNL     1      25.069  46.497  12.432  1.00  0.00     0.000 C 
BRANCH   4   5
ATOM      5  C   UNL     1      25.374  45.080  12.941  1.00  0.00     0.000 C 
BRANCH   5   6
ATOM      6  C   UNL     1      24.173  44.150  12.720  1.00  0.00     0.000 C 
BRANCH   6   7
ATOM      7  C   UNL     1      22.938  44.888  12.177  1.00  0.00     0.000 C 
BRANCH   7   8
ATOM      8  C   UNL     1      22.454  44.409  10.795  1.00  0.00     0.000 C 
BRANCH   8   9
ATOM      9  C   UNL     1      21.561  45.430  10.059  1.00  0.00     0.000 C 
BRANCH   9  10
ATOM     10  C   UNL     1      21.803  45.430   8.540  1.00  0.00     0.006 C 
BRANCH  10  11
ATOM     11  C   UNL     1      21.465  46.781   7.896  1.00  0.00     0.053 C 
BRANCH  11  12
ATOM     12  C   UNL     1      20.076  46.800   7.337  1.00  0.00     0.041 C 
ATOM     13  O   UNL     1      19.670  47.797   6.683  1.00  0.00    -0.550 OA
ATOM     14  O   UNL     1      19.238  45.706   7.516  1.00  0.00    -0.550 OA
ENDBRANCH  11  12
ENDBRANCH  10  11
ENDBRANCH   9  10
ENDBRANCH   8   9
ENDBRANCH   7   8
ENDBRANCH   6   7
ENDBRANCH   5   6
ENDBRANCH   4   5
ENDBRANCH   3   4
ENDBRANCH   2   3
ENDBRANCH   1   2
BRANCH   1  15
ATOM     15  C   UNL     1      25.533  45.434   8.667  1.00  0.00     0.000 C 
BRANCH  15  16
ATOM     16  C   UNL     1      26.510  44.413   9.277  1.00  0.00     0.000 C 
BRANCH  16  17
ATOM     17  C   UNL     1      25.811  43.112   9.705  1.00  0.00     0.000 C 
BRANCH  17  18
ATOM     18  C   UNL     1      26.644  42.301  10.714  1.00  0.00    -0.000 C 
BRANCH  18  19
ATOM     19  C   UNL     1      26.777  40.822  10.316  1.00  0.00    -0.000 C 
BRANCH  19  20
ATOM     20  C   UNL     1      28.207  40.445   9.901  1.00  0.00    -0.000 C 
BRANCH  20  21
ATOM     21  C   UNL     1      28.254  40.016   8.426  1.00  0.00    -0.000 C 
BRANCH  21  22
ATOM     22  C   UNL     1      28.268  41.211   7.460  1.00  0.00    -0.000 C 
BRANCH  22  23
ATOM     23  C   UNL     1      27.012  41.269   6.573  1.00  0.00    -0.000 C 
BRANCH  23  24
ATOM     24  C   UNL     1      27.307  40.911   5.108  1.00  0.00    -0.000 C 
BRANCH  24  25
ATOM     25  C   UNL     1      26.704  39.560   4.695  1.00  0.00    -0.003 C 
ATOM     26  C   UNL     1      25.191  39.664   4.523  1.00  0.00     0.004 C 
ENDBRANCH  24  25
ENDBRANCH  23  24
ENDBRANCH  22  23
ENDBRANCH  21  22
ENDBRANCH  20  21
ENDBRANCH  19  20
ENDBRANCH  18  19
ENDBRANCH  17  18
ENDBRANCH  16  17
ENDBRANCH  15  16
ENDBRANCH   1  15
TORSDOF 22
ENDMDL
MODEL 7
REMARK VINA RESULT:    -3.594      3.532      6.727
REMARK INTER + INTRA:         -12.794
REMARK INTER:                  -8.480
REMARK INTRA:                  -4.313
REMARK UNBOUND:                -4.577
REMARK SMILES CCCCCCCCCCCCCCCCCCCCCCCC(=O)[O-]
REMARK SMILES IDX 13 1 14 2 15 3 16 4 17 5 18 6 19 7 20 8 21 9 22 10 23 11
REMARK SMILES IDX 24 12 25 13 26 14 12 15 11 16 10 17 9 18 8 19 7 20 6 21 5 22
REMARK SMILES IDX 4 23 3 24 2 25 1 26
REMARK H PARENT
REMARK Flexibility Score: inf
ROOT
ATOM      1  C   UNL     1      26.119  42.352   2.238  1.00  0.00     0.000 C 
ENDROOT
BRANCH   1   2
ATOM      2  C   UNL     1      27.265  41.730   1.421  1.00  0.00     0.000 C 
BRANCH   2   3
ATOM      3  C   UNL     1      27.858  42.699   0.384  1.00  0.00     0.000 C 
BRANCH   3   4
ATOM      4  C   UNL     1      29.171  43.384   0.805  1.00  0.00     0.000 C 
BRANCH   4   5
ATOM      5  C   UNL     1      29.930  42.611   1.895  1.00  0.00     0.000 C 
BRANCH   5   6
ATOM      6  C   UNL     1      30.872  43.543   2.671  1.00  0.00     0.000 C 
BRANCH   6   7
ATOM      7  C   UNL     1      30.641  43.493   4.191  1.00  0.00     0.000 C 
BRANCH   7   8
ATOM      8  C   UNL     1      29.162  43.447   4.619  1.00  0.00     0.000 C 
BRANCH   8   9
ATOM      9  C   UNL     1      28.578  44.827   4.992  1.00  0.00     0.000 C 
BRANCH   9  10
ATOM     10  C   UNL     1      27.463  45.269   4.029  1.00  0.00     0.006 C 
BRANCH  10  11
ATOM     11  C   UNL     1      27.989  46.171   2.904  1.00  0.00     0.053 C 
BRANCH  11  12
ATOM     12  C   UNL     1      26.926  46.481   1.895  1.00  0.00     0.041 C 
ATOM     13  O   UNL     1      25.853  45.823   1.884  1.00  0.00    -0.550 OA
ATOM     14  O   UNL     1      27.110  47.515   0.985  1.00  0.00    -0.550 OA
ENDBRANCH  11  12
ENDBRANCH  10  11
ENDBRANCH   9  10
ENDBRANCH   8   9
ENDBRANCH   7   8
ENDBRANCH   6   7
ENDBRANCH   5   6
ENDBRANCH   4   5
ENDBRANCH   3   4
ENDBRANCH   2   3
ENDBRANCH   1   2
BRANCH   1  15
ATOM     15  C   UNL     1      25.087  41.307   2.692  1.00  0.00     0.000 C 
BRANCH  15  16
ATOM     16  C   UNL     1      24.796  41.382   4.202  1.00  0.00     0.000 C 
BRANCH  16  17
ATOM     17  C   UNL     1      26.007  41.872   5.011  1.00  0.00     0.000 C 
BRANCH  17  18
ATOM     18  C   UNL     1      26.339  40.943   6.193  1.00  0.00    -0.000 C 
BRANCH  18  19
ATOM     19  C   UNL     1      27.734  40.308   6.072  1.00  0.00    -0.000 C 
BRANCH  19  20
ATOM     20  C   UNL     1      28.148  40.060   4.614  1.00  0.00    -0.000 C 
BRANCH  20  21
ATOM     21  C   UNL     1      28.064  38.565   4.268  1.00  0.00    -0.000 C 
BRANCH  21  22
ATOM     22  C   UNL     1      27.679  38.316   2.800  1.00  0.00    -0.000 C 
BRANCH  22  23
ATOM     23  C   UNL     1      26.200  37.927   2.635  1.00  0.00    -0.000 C 
BRANCH  23  24
ATOM     24  C   UNL     1      25.526  37.589   3.974  1.00  0.00    -0.000 C 
BRANCH  24  25
ATOM     25  C   UNL     1      25.474  36.078   4.248  1.00  0.00    -0.003 C 
ATOM     26  C   UNL     1      24.117  35.496   3.861  1.00  0.00     0.004 C 
ENDBRANCH  24  25
ENDBRANCH  23  24
ENDBRANCH  22  23
ENDBRANCH  21  22
ENDBRANCH  20  21
ENDBRANCH  19  20
ENDBRANCH  18  19
ENDBRANCH  17  18
ENDBRANCH  16  17
ENDBRANCH  15  16
ENDBRANCH   1  15
TORSDOF 22
ENDMDL
MODEL 8
REMARK VINA RESULT:    -3.588      1.258      2.697
REMARK INTER + INTRA:         -12.779
REMARK INTER:                  -8.632
REMARK INTRA:                  -4.146
REMARK UNBOUND:                -4.577
REMARK SMILES CCCCCCCCCCCCCCCCCCCCCCCC(=O)[O-]
REMARK SMILES IDX 13 1 14 2 15 3 16 4 17 5 18 6 19 7 20 8 21 9 22 10 23 11
REMARK SMILES IDX 24 12 25 13 26 14 12 15 11 16 10 17 9 18 8 19 7 20 6 21 5 22
REMARK SMILES IDX 4 23 3 24 2 25 1 26
REMARK H PARENT
REMARK Flexibility Score: inf
ROOT
ATOM      1  C   UNL     1      27.756  41.841   0.705  1.00  0.00     0.000 C 
ENDROOT
BRANCH   1   2
ATOM      2  C   UNL     1      26.332  41.936   1.281  1.00  0.00     0.000 C 
BRANCH   2   3
ATOM      3  C   UNL     1      26.232  42.898   2.477  1.00  0.00     0.000 C 
BRANCH   3   4
ATOM      4  C   UNL     1      25.488  42.341   3.704  1.00  0.00     0.000 C 
BRANCH   4   5
ATOM      5  C   UNL     1      24.829  40.979   3.440  1.00  0.00     0.000 C 
BRANCH   5   6
ATOM      6  C   UNL     1      25.131  39.995   4.580  1.00  0.00     0.000 C 
BRANCH   6   7
ATOM      7  C   UNL     1      26.010  38.815   4.132  1.00  0.00     0.000 C 
BRANCH   7   8
ATOM      8  C   UNL     1      25.977  38.522   2.620  1.00  0.00     0.000 C 
BRANCH   8   9
ATOM      9  C   UNL     1      25.950  37.016   2.277  1.00  0.00     0.000 C 
BRANCH   9  10
ATOM     10  C   UNL     1      25.784  36.137   3.528  1.00  0.00     0.006 C 
BRANCH  10  11
ATOM     11  C   UNL     1      24.424  35.428   3.565  1.00  0.00     0.053 C 
BRANCH  11  12
ATOM     12  C   UNL     1      24.434  34.250   4.490  1.00  0.00     0.041 C 
ATOM     13  O   UNL     1      23.568  33.344   4.372  1.00  0.00    -0.550 OA
ATOM     14  O   UNL     1      25.417  34.140   5.466  1.00  0.00    -0.550 OA
ENDBRANCH  11  12
ENDBRANCH  10  11
ENDBRANCH   9  10
ENDBRANCH   8   9
ENDBRANCH   7   8
ENDBRANCH   6   7
ENDBRANCH   5   6
ENDBRANCH   4   5
ENDBRANCH   3   4
ENDBRANCH   2   3
ENDBRANCH   1   2
BRANCH   1  15
ATOM     15  C   UNL     1      28.511  40.599   1.207  1.00  0.00     0.000 C 
BRANCH  15  16
ATOM     16  C   UNL     1      29.611  40.948   2.225  1.00  0.00     0.000 C 
BRANCH  16  17
ATOM     17  C   UNL     1      29.296  40.423   3.635  1.00  0.00     0.000 C 
BRANCH  17  18
ATOM     18  C   UNL     1      28.984  41.556   4.629  1.00  0.00    -0.000 C 
BRANCH  18  19
ATOM     19  C   UNL     1      28.390  41.037   5.948  1.00  0.00    -0.000 C 
BRANCH  19  20
ATOM     20  C   UNL     1      28.797  41.890   7.158  1.00  0.00    -0.000 C 
BRANCH  20  21
ATOM     21  C   UNL     1      27.558  42.463   7.865  1.00  0.00    -0.000 C 
BRANCH  21  22
ATOM     22  C   UNL     1      26.750  43.415   6.968  1.00  0.00    -0.000 C 
BRANCH  22  23
ATOM     23  C   UNL     1      27.481  44.744   6.708  1.00  0.00    -0.000 C 
BRANCH  23  24
ATOM     24  C   UNL     1      27.637  45.047   5.209  1.00  0.00    -0.000 C 
BRANCH  24  25
ATOM     25  C   UNL     1      29.088  45.363   4.816  1.00  0.00    -0.003 C 
ATOM     26  C   UNL     1      30.037  45.136   5.990  1.00  0.00     0.004 C 
ENDBRANCH  24  25
ENDBRANCH  23  24
ENDBRANCH  22  23
ENDBRANCH  21  22
ENDBRANCH  20  21
ENDBRANCH  19  20
ENDBRANCH  18  19
ENDBRANCH  17  18
ENDBRANCH  16  17
ENDBRANCH  15  16
ENDBRANCH   1  15
TORSDOF 22
ENDMDL
MODEL 9
REMARK VINA RESULT:    -3.561      1.286      3.882
REMARK INTER + INTRA:         -12.717
REMARK INTER:                  -8.363
REMARK INTRA:                  -4.354
REMARK UNBOUND:                -4.577
REMARK SMILES CCCCCCCCCCCCCCCCCCCCCCCC(=O)[O-]
REMARK SMILES IDX 13 1 14 2 15 3 16 4 17 5 18 6 19 7 20 8 21 9 22 10 23 11
REMARK SMILES IDX 24 12 25 13 26 14 12 15 11 16 10 17 9 18 8 19 7 20 6 21 5 22
REMARK SMILES IDX 4 23 3 24 2 25 1 26
REMARK H PARENT
REMARK Flexibility Score: inf
ROOT
ATOM      1  C   UNL     1      28.993  42.288   5.442  1.00  0.00     0.000 C 
ENDROOT
BRANCH   1   2
ATOM      2  C   UNL     1      28.472  40.875   5.128  1.00  0.00     0.000 C 
BRANCH   2   3
ATOM      3  C   UNL     1      27.089  40.596   5.740  1.00  0.00     0.000 C 
BRANCH   3   4
ATOM      4  C   UNL     1      25.948  41.484   5.210  1.00  0.00     0.000 C 
BRANCH   4   5
ATOM      5  C   UNL     1      25.130  40.812   4.096  1.00  0.00     0.000 C 
BRANCH   5   6
ATOM      6  C   UNL     1      25.427  41.458   2.735  1.00  0.00     0.000 C 
BRANCH   6   7
ATOM      7  C   UNL     1      26.039  40.471   1.727  1.00  0.00     0.000 C 
BRANCH   7   8
ATOM      8  C   UNL     1      27.577  40.511   1.636  1.00  0.00     0.000 C 
BRANCH   8   9
ATOM      9  C   UNL     1      28.249  39.133   1.821  1.00  0.00     0.000 C 
BRANCH   9  10
ATOM     10  C   UNL     1      27.256  38.060   2.300  1.00  0.00     0.006 C 
BRANCH  10  11
ATOM     11  C   UNL     1      27.527  37.622   3.746  1.00  0.00     0.053 C 
BRANCH  11  12
ATOM     12  C   UNL     1      26.421  36.767   4.285  1.00  0.00     0.041 C 
ATOM     13  O   UNL     1      26.687  35.689   4.879  1.00  0.00    -0.550 OA
ATOM     14  O   UNL     1      25.099  37.174   4.155  1.00  0.00    -0.550 OA
ENDBRANCH  11  12
ENDBRANCH  10  11
ENDBRANCH   9  10
ENDBRANCH   8   9
ENDBRANCH   7   8
ENDBRANCH   6   7
ENDBRANCH   5   6
ENDBRANCH   4   5
ENDBRANCH   3   4
ENDBRANCH   2   3
ENDBRANCH   1   2
BRANCH   1  15
ATOM     15  C   UNL     1      29.479  43.028   4.184  1.00  0.00     0.000 C 
BRANCH  15  16
ATOM     16  C   UNL     1      28.326  43.675   3.397  1.00  0.00     0.000 C 
BRANCH  16  17
ATOM     17  C   UNL     1      27.598  44.761   4.205  1.00  0.00     0.000 C 
BRANCH  17  18
ATOM     18  C   UNL     1      28.571  45.737   4.889  1.00  0.00    -0.000 C 
BRANCH  18  19
ATOM     19  C   UNL     1      28.269  45.922   6.385  1.00  0.00    -0.000 C 
BRANCH  19  20
ATOM     20  C   UNL     1      26.973  45.223   6.819  1.00  0.00    -0.000 C 
BRANCH  20  21
ATOM     21  C   UNL     1      26.616  45.583   8.270  1.00  0.00    -0.000 C 
BRANCH  21  22
ATOM     22  C   UNL     1      26.762  44.391   9.230  1.00  0.00    -0.000 C 
BRANCH  22  23
ATOM     23  C   UNL     1      26.836  43.044   8.492  1.00  0.00    -0.000 C 
BRANCH  23  24
ATOM     24  C   UNL     1      27.842  42.074   9.133  1.00  0.00    -0.000 C 
BRANCH  24  25
ATOM     25  C   UNL     1      27.235  40.692   9.419  1.00  0.00    -0.003 C 
ATOM     26  C   UNL     1      28.245  39.581   9.145  1.00  0.00     0.004 C 
ENDBRANCH  24  25
ENDBRANCH  23  24
ENDBRANCH  22  23
ENDBRANCH  21  22
ENDBRANCH  20  21
ENDBRANCH  19  20
ENDBRANCH  18  19
ENDBRANCH  17  18
ENDBRANCH  16  17
ENDBRANCH  15  16
ENDBRANCH   1  15
TORSDOF 22
ENDMDL
