MODEL 1
REMARK VINA RESULT:    -4.003      0.000      0.000
REMARK INTER + INTRA:          -4.510
REMARK INTER:                  -4.471
REMARK INTRA:                  -0.039
REMARK UNBOUND:                -0.039
REMARK SMILES CCCC(=O)[O-]
REMARK SMILES IDX 3 1 4 2 5 3 6 4 2 5 1 6
REMARK H PARENT
REMARK Flexibility Score: inf
ROOT
ATOM      1  C   UNL     1      14.214  69.935  73.235  1.00  0.00     0.052 C 
ENDROOT
BRANCH   1   2
ATOM      2  C   UNL     1      13.177  70.810  72.599  1.00  0.00     0.041 C 
ATOM      3  O   UNL     1      12.451  70.361  71.674  1.00  0.00    -0.550 OA
ATOM      4  O   UNL     1      13.037  72.131  73.005  1.00  0.00    -0.550 OA
ENDBRANCH   1   2
BRANCH   1   5
ATOM      5  C   UNL     1      14.651  70.477  74.602  1.00  0.00     0.003 C 
ATOM      6  C   UNL     1      13.920  69.795  75.758  1.00  0.00     0.004 C 
ENDBRANCH   1   5
TORSDOF 2
ENDMDL
MODEL 2
REMARK VINA RESULT:    -3.796      0.948      1.543
REMARK INTER + INTRA:          -4.279
REMARK INTER:                  -4.267
REMARK INTRA:                  -0.012
REMARK UNBOUND:                -0.039
REMARK SMILES CCCC(=O)[O-]
REMARK SMILES IDX 3 1 4 2 5 3 6 4 2 5 1 6
REMARK H PARENT
REMARK Flexibility Score: inf
ROOT
ATOM      1  C   UNL     1      14.826  70.673  73.734  1.00  0.00     0.052 C 
ENDROOT
BRANCH   1   2
ATOM      2  C   UNL     1      13.986  71.110  72.573  1.00  0.00     0.041 C 
ATOM      3  O   UNL     1      14.086  72.282  72.124  1.00  0.00    -0.550 OA
ATOM      4  O   UNL     1      13.068  70.233  72.009  1.00  0.00    -0.550 OA
ENDBRANCH   1   2
BRANCH   1   5
ATOM      5  C   UNL     1      14.078  69.682  74.634  1.00  0.00     0.003 C 
ATOM      6  C   UNL     1      14.074  70.115  76.100  1.00  0.00     0.004 C 
ENDBRANCH   1   5
TORSDOF 2
ENDMDL
MODEL 3
REMARK VINA RESULT:    -3.715      2.113      2.342
REMARK INTER + INTRA:          -4.188
REMARK INTER:                  -4.148
REMARK INTRA:                  -0.040
REMARK UNBOUND:                -0.039
REMARK SMILES CCCC(=O)[O-]
REMARK SMILES IDX 3 1 4 2 5 3 6 4 2 5 1 6
REMARK H PARENT
REMARK Flexibility Score: inf
ROOT
ATOM      1  C   UNL     1      14.697  70.263  72.583  1.00  0.00     0.052 C 
ENDROOT
BRANCH   1   2
ATOM      2  C   UNL     1      15.556  71.481  72.429  1.00  0.00     0.041 C 
ATOM      3  O   UNL     1      16.661  71.406  71.831  1.00  0.00    -0.550 OA
ATOM      4  O   UNL     1      15.150  72.693  72.976  1.00  0.00    -0.550 OA
ENDBRANCH   1   2
BRANCH   1   5
ATOM      5  C   UNL     1      13.663  70.437  73.703  1.00  0.00     0.003 C 
ATOM      6  C   UNL     1      14.119  69.807  75.018  1.00  0.00     0.004 C 
ENDBRANCH   1   5
TORSDOF 2
ENDMDL
MODEL 4
REMARK VINA RESULT:    -3.701      8.603      9.503
REMARK INTER + INTRA:          -4.173
REMARK INTER:                  -4.148
REMARK INTRA:                  -0.025
REMARK UNBOUND:                -0.039
REMARK SMILES CCCC(=O)[O-]
REMARK SMILES IDX 3 1 4 2 5 3 6 4 2 5 1 6
REMARK H PARENT
REMARK Flexibility Score: inf
ROOT
ATOM      1  C   UNL     1      13.996  62.758  71.269  1.00  0.00     0.052 C 
ENDROOT
BRANCH   1   2
ATOM      2  C   UNL     1      13.590  61.735  72.285  1.00  0.00     0.041 C 
ATOM      3  O   UNL     1      12.979  62.086  73.329  1.00  0.00    -0.550 OA
ATOM      4  O   UNL     1      13.916  60.397  72.095  1.00  0.00    -0.550 OA
ENDBRANCH   1   2
BRANCH   1   5
ATOM      5  C   UNL     1      14.319  62.113  69.914  1.00  0.00     0.003 C 
ATOM      6  C   UNL     1      13.349  62.551  68.817  1.00  0.00     0.004 C 
ENDBRANCH   1   5
TORSDOF 2
ENDMDL
MODEL 5
REMARK VINA RESULT:    -3.677      2.457      3.241
REMARK INTER + INTRA:          -4.146
REMARK INTER:                  -4.116
REMARK INTRA:                  -0.030
REMARK UNBOUND:                -0.039
REMARK SMILES CCCC(=O)[O-]
REMARK SMILES IDX 3 1 4 2 5 3 6 4 2 5 1 6
REMARK H PARENT
REMARK Flexibility Score: inf
ROOT
ATOM      1  C   UNL     1      15.347  71.222  73.814  1.00  0.00     0.052 C 
ENDROOT
BRANCH   1   2
ATOM      2  C   UNL     1      14.412  70.052  73.768  1.00  0.00     0.041 C 
ATOM      3  O   UNL     1      14.006  69.522  74.836  1.00  0.00    -0.550 OA
ATOM      4  O   UNL     1      14.015  69.526  72.544  1.00  0.00    -0.550 OA
ENDBRANCH   1   2
BRANCH   1   5
ATOM      5  C   UNL     1      15.612  71.791  72.414  1.00  0.00     0.003 C 
ATOM      6  C   UNL     1      17.099  71.800  72.063  1.00  0.00     0.004 C 
ENDBRANCH   1   5
TORSDOF 2
ENDMDL
MODEL 6
REMARK VINA RESULT:    -3.535      8.592      9.059
REMARK INTER + INTRA:          -3.987
REMARK INTER:                  -3.982
REMARK INTRA:                  -0.005
REMARK UNBOUND:                -0.039
REMARK SMILES CCCC(=O)[O-]
REMARK SMILES IDX 3 1 4 2 5 3 6 4 2 5 1 6
REMARK H PARENT
REMARK Flexibility Score: inf
ROOT
ATOM      1  C   UNL     1      13.888  62.637  71.290  1.00  0.00     0.052 C 
ENDROOT
BRANCH   1   2
ATOM      2  C   UNL     1      14.127  62.309  69.848  1.00  0.00     0.041 C 
ATOM      3  O   UNL     1      15.167  61.688  69.502  1.00  0.00    -0.550 OA
ATOM      4  O   UNL     1      13.216  62.717  68.881  1.00  0.00    -0.550 OA
ENDBRANCH   1   2
BRANCH   1   5
ATOM      5  C   UNL     1      13.717  61.370  72.139  1.00  0.00     0.003 C 
ATOM      6  C   UNL     1      13.129  61.669  73.517  1.00  0.00     0.004 C 
ENDBRANCH   1   5
TORSDOF 2
ENDMDL
MODEL 7
REMARK VINA RESULT:    -3.495      8.750      9.508
REMARK INTER + INTRA:          -3.943
REMARK INTER:                  -3.912
REMARK INTRA:                  -0.031
REMARK UNBOUND:                -0.039
REMARK SMILES CCCC(=O)[O-]
REMARK SMILES IDX 3 1 4 2 5 3 6 4 2 5 1 6
REMARK H PARENT
REMARK Flexibility Score: inf
ROOT
ATOM      1  C   UNL     1      14.490  61.947  69.776  1.00  0.00     0.052 C 
ENDROOT
BRANCH   1   2
ATOM      2  C   UNL     1      13.399  61.810  68.758  1.00  0.00     0.041 C 
ATOM      3  O   UNL     1      12.777  62.827  68.354  1.00  0.00    -0.550 OA
ATOM      4  O   UNL     1      13.047  60.553  68.280  1.00  0.00    -0.550 OA
ENDBRANCH   1   2
BRANCH   1   5
ATOM      5  C   UNL     1      14.051  62.813  70.964  1.00  0.00     0.003 C 
ATOM      6  C   UNL     1      13.616  61.975  72.165  1.00  0.00     0.004 C 
ENDBRANCH   1   5
TORSDOF 2
ENDMDL
MODEL 8
REMARK VINA RESULT:    -3.449      1.635      2.246
REMARK INTER + INTRA:          -3.891
REMARK INTER:                  -3.856
REMARK INTRA:                  -0.036
REMARK UNBOUND:                -0.039
REMARK SMILES CCCC(=O)[O-]
REMARK SMILES IDX 3 1 4 2 5 3 6 4 2 5 1 6
REMARK H PARENT
REMARK Flexibility Score: inf
ROOT
ATOM      1  C   UNL     1      14.422  70.111  72.573  1.00  0.00     0.052 C 
ENDROOT
BRANCH   1   2
ATOM      2  C   UNL     1      13.068  70.750  72.520  1.00  0.00     0.041 C 
ATOM      3  O   UNL     1      12.715  71.564  73.414  1.00  0.00    -0.550 OA
ATOM      4  O   UNL     1      12.183  70.421  71.500  1.00  0.00    -0.550 OA
ENDBRANCH   1   2
BRANCH   1   5
ATOM      5  C   UNL     1      15.541  71.135  72.340  1.00  0.00     0.003 C 
ATOM      6  C   UNL     1      16.256  71.518  73.635  1.00  0.00     0.004 C 
ENDBRANCH   1   5
TORSDOF 2
ENDMDL
MODEL 9
REMARK VINA RESULT:    -3.370      2.454      3.387
REMARK INTER + INTRA:          -3.803
REMARK INTER:                  -3.765
REMARK INTRA:                  -0.038
REMARK UNBOUND:                -0.039
REMARK SMILES CCCC(=O)[O-]
REMARK SMILES IDX 3 1 4 2 5 3 6 4 2 5 1 6
REMARK H PARENT
REMARK Flexibility Score: inf
ROOT
ATOM      1  C   UNL     1      14.593  70.362  74.380  1.00  0.00     0.052 C 
ENDROOT
BRANCH   1   2
ATOM      2  C   UNL     1      15.867  71.144  74.487  1.00  0.00     0.041 C 
ATOM      3  O   UNL     1      16.486  71.492  73.448  1.00  0.00    -0.550 OA
ATOM      4  O   UNL     1      16.386  71.459  75.737  1.00  0.00    -0.550 OA
ENDBRANCH   1   2
BRANCH   1   5
ATOM      5  C   UNL     1      14.299  69.952  72.931  1.00  0.00     0.003 C 
ATOM      6  C   UNL     1      13.135  70.738  72.329  1.00  0.00     0.004 C 
ENDBRANCH   1   5
TORSDOF 2
ENDMDL
