MODEL 1
REMARK VINA RESULT:    -5.872      0.000      0.000
REMARK INTER + INTRA:          -6.781
REMARK INTER:                  -6.731
REMARK INTRA:                  -0.051
REMARK UNBOUND:                -0.051
REMARK SMILES O=C([O-])c1cc(O)c(O)c(O)c1
REMARK SMILES IDX 4 1 5 2 12 3 6 4 10 5 8 6 2 7 1 8 3 9 7 10 11 12 9 14
REMARK H PARENT 7 11 11 13 9 15
REMARK Flexibility Score: inf
ROOT
ATOM      1  C   UNL     1     203.377 207.817 278.513  1.00  0.00     0.005 A 
ATOM      2  C   UNL     1     203.781 206.497 278.766  1.00  0.00     0.060 A 
ATOM      3  C   UNL     1     203.770 208.431 277.314  1.00  0.00     0.060 A 
ATOM      4  C   UNL     1     204.565 205.793 277.844  1.00  0.00     0.162 A 
ATOM      5  C   UNL     1     204.555 207.738 276.383  1.00  0.00     0.162 A 
ATOM      6  C   UNL     1     204.958 206.420 276.638  1.00  0.00     0.200 A 
ENDROOT
BRANCH   1   7
ATOM      7  C   UNL     1     202.548 208.554 279.492  1.00  0.00     0.072 C 
ATOM      8  O   UNL     1     201.761 207.938 280.259  1.00  0.00    -0.545 OA
ATOM      9  O   UNL     1     202.625 209.940 279.579  1.00  0.00    -0.545 OA
ENDBRANCH   1   7
BRANCH   4  10
ATOM     10  O   UNL     1     204.928 204.483 278.166  1.00  0.00    -0.504 OA
ATOM     11  H   UNL     1     204.303 203.692 278.107  1.00  0.00     0.293 HD
ENDBRANCH   4  10
BRANCH   5  12
ATOM     12  O   UNL     1     204.942 208.356 275.195  1.00  0.00    -0.504 OA
ATOM     13  H   UNL     1     205.716 209.010 275.164  1.00  0.00     0.293 HD
ENDBRANCH   5  12
BRANCH   6  14
ATOM     14  O   UNL     1     205.740 205.775 275.676  1.00  0.00    -0.502 OA
ATOM     15  H   UNL     1     206.126 206.230 274.863  1.00  0.00     0.293 HD
ENDBRANCH   6  14
TORSDOF 4
ENDMDL
MODEL 2
REMARK VINA RESULT:    -5.817      0.105      2.438
REMARK INTER + INTRA:          -6.718
REMARK INTER:                  -6.667
REMARK INTRA:                  -0.051
REMARK UNBOUND:                -0.051
REMARK SMILES O=C([O-])c1cc(O)c(O)c(O)c1
REMARK SMILES IDX 4 1 5 2 12 3 6 4 10 5 8 6 2 7 1 8 3 9 7 10 11 12 9 14
REMARK H PARENT 7 11 11 13 9 15
REMARK Flexibility Score: inf
ROOT
ATOM      1  C   UNL     1     203.384 207.767 278.501  1.00  0.00     0.005 A 
ATOM      2  C   UNL     1     203.769 208.358 277.286  1.00  0.00     0.060 A 
ATOM      3  C   UNL     1     203.777 206.447 278.770  1.00  0.00     0.060 A 
ATOM      4  C   UNL     1     204.533 207.651 276.351  1.00  0.00     0.162 A 
ATOM      5  C   UNL     1     204.542 205.729 277.842  1.00  0.00     0.162 A 
ATOM      6  C   UNL     1     204.926 206.320 276.631  1.00  0.00     0.200 A 
ENDROOT
BRANCH   1   7
ATOM      7  C   UNL     1     202.576 208.522 279.485  1.00  0.00     0.072 C 
ATOM      8  O   UNL     1     201.867 207.915 280.332  1.00  0.00    -0.545 OA
ATOM      9  O   UNL     1     202.588 209.912 279.488  1.00  0.00    -0.545 OA
ENDBRANCH   1   7
BRANCH   4  10
ATOM     10  O   UNL     1     204.879 208.305 275.166  1.00  0.00    -0.504 OA
ATOM     11  H   UNL     1     204.525 209.211 274.896  1.00  0.00     0.293 HD
ENDBRANCH   4  10
BRANCH   5  12
ATOM     12  O   UNL     1     204.927 204.418 278.118  1.00  0.00    -0.504 OA
ATOM     13  H   UNL     1     205.665 204.209 278.782  1.00  0.00     0.293 HD
ENDBRANCH   5  12
BRANCH   6  14
ATOM     14  O   UNL     1     205.687 205.559 275.741  1.00  0.00    -0.502 OA
ATOM     15  H   UNL     1     205.300 204.887 275.095  1.00  0.00     0.293 HD
ENDBRANCH   6  14
TORSDOF 4
ENDMDL
MODEL 3
REMARK VINA RESULT:    -5.711      1.359      2.883
REMARK INTER + INTRA:          -6.596
REMARK INTER:                  -6.551
REMARK INTRA:                  -0.045
REMARK UNBOUND:                -0.051
REMARK SMILES O=C([O-])c1cc(O)c(O)c(O)c1
REMARK SMILES IDX 4 1 5 2 12 3 6 4 10 5 8 6 2 7 1 8 3 9 7 10 11 12 9 14
REMARK H PARENT 7 11 11 13 9 15
REMARK Flexibility Score: inf
ROOT
ATOM      1  C   UNL     1     203.471 208.352 277.867  1.00  0.00     0.005 A 
ATOM      2  C   UNL     1     204.270 207.801 276.852  1.00  0.00     0.060 A 
ATOM      3  C   UNL     1     203.225 207.598 279.025  1.00  0.00     0.060 A 
ATOM      4  C   UNL     1     204.817 206.519 276.981  1.00  0.00     0.162 A 
ATOM      5  C   UNL     1     203.767 206.314 279.166  1.00  0.00     0.162 A 
ATOM      6  C   UNL     1     204.564 205.765 278.152  1.00  0.00     0.200 A 
ENDROOT
BRANCH   1   7
ATOM      7  C   UNL     1     202.896 209.708 277.723  1.00  0.00     0.072 C 
ATOM      8  O   UNL     1     201.837 209.889 277.065  1.00  0.00    -0.545 OA
ATOM      9  O   UNL     1     203.517 210.803 278.313  1.00  0.00    -0.545 OA
ENDBRANCH   1   7
BRANCH   4  10
ATOM     10  O   UNL     1     205.601 206.039 275.930  1.00  0.00    -0.504 OA
ATOM     11  H   UNL     1     205.951 206.612 275.176  1.00  0.00     0.293 HD
ENDBRANCH   4  10
BRANCH   5  12
ATOM     12  O   UNL     1     203.517 205.571 280.319  1.00  0.00    -0.504 OA
ATOM     13  H   UNL     1     203.877 204.630 280.433  1.00  0.00     0.293 HD
ENDBRANCH   5  12
BRANCH   6  14
ATOM     14  O   UNL     1     205.079 204.481 278.343  1.00  0.00    -0.502 OA
ATOM     15  H   UNL     1     204.864 203.691 277.753  1.00  0.00     0.293 HD
ENDBRANCH   6  14
TORSDOF 4
ENDMDL
MODEL 4
REMARK VINA RESULT:    -5.685      2.105      4.343
REMARK INTER + INTRA:          -6.567
REMARK INTER:                  -6.514
REMARK INTRA:                  -0.053
REMARK UNBOUND:                -0.051
REMARK SMILES O=C([O-])c1cc(O)c(O)c(O)c1
REMARK SMILES IDX 4 1 5 2 12 3 6 4 10 5 8 6 2 7 1 8 3 9 7 10 11 12 9 14
REMARK H PARENT 7 11 11 13 9 15
REMARK Flexibility Score: inf
ROOT
ATOM      1  C   UNL     1     203.397 207.847 279.186  1.00  0.00     0.005 A 
ATOM      2  C   UNL     1     202.251 208.457 279.720  1.00  0.00     0.060 A 
ATOM      3  C   UNL     1     204.254 208.605 278.374  1.00  0.00     0.060 A 
ATOM      4  C   UNL     1     201.956 209.798 279.454  1.00  0.00     0.162 A 
ATOM      5  C   UNL     1     203.971 209.949 278.099  1.00  0.00     0.162 A 
ATOM      6  C   UNL     1     202.826 210.555 278.634  1.00  0.00     0.200 A 
ENDROOT
BRANCH   1   7
ATOM      7  C   UNL     1     203.702 206.427 279.473  1.00  0.00     0.072 C 
ATOM      8  O   UNL     1     204.644 205.841 278.877  1.00  0.00    -0.545 OA
ATOM      9  O   UNL     1     202.950 205.720 280.405  1.00  0.00    -0.545 OA
ENDBRANCH   1   7
BRANCH   4  10
ATOM     10  O   UNL     1     200.799 210.335 280.022  1.00  0.00    -0.504 OA
ATOM     11  H   UNL     1     200.754 211.238 280.471  1.00  0.00     0.293 HD
ENDBRANCH   4  10
BRANCH   5  12
ATOM     12  O   UNL     1     204.828 210.694 277.290  1.00  0.00    -0.504 OA
ATOM     13  H   UNL     1     204.646 210.823 276.301  1.00  0.00     0.293 HD
ENDBRANCH   5  12
BRANCH   6  14
ATOM     14  O   UNL     1     202.591 211.898 278.328  1.00  0.00    -0.502 OA
ATOM     15  H   UNL     1     201.790 212.420 278.651  1.00  0.00     0.293 HD
ENDBRANCH   6  14
TORSDOF 4
ENDMDL
MODEL 5
REMARK VINA RESULT:    -5.671      1.872      4.468
REMARK INTER + INTRA:          -6.550
REMARK INTER:                  -6.498
REMARK INTRA:                  -0.053
REMARK UNBOUND:                -0.051
REMARK SMILES O=C([O-])c1cc(O)c(O)c(O)c1
REMARK SMILES IDX 4 1 5 2 12 3 6 4 10 5 8 6 2 7 1 8 3 9 7 10 11 12 9 14
REMARK H PARENT 7 11 11 13 9 15
REMARK Flexibility Score: inf
ROOT
ATOM      1  C   UNL     1     203.513 207.791 278.994  1.00  0.00     0.005 A 
ATOM      2  C   UNL     1     204.292 208.493 278.060  1.00  0.00     0.060 A 
ATOM      3  C   UNL     1     202.445 208.450 279.621  1.00  0.00     0.060 A 
ATOM      4  C   UNL     1     204.018 209.830 277.751  1.00  0.00     0.162 A 
ATOM      5  C   UNL     1     202.160 209.789 279.321  1.00  0.00     0.162 A 
ATOM      6  C   UNL     1     202.939 210.487 278.388  1.00  0.00     0.200 A 
ENDROOT
BRANCH   1   7
ATOM      7  C   UNL     1     203.810 206.377 279.314  1.00  0.00     0.072 C 
ATOM      8  O   UNL     1     203.257 205.813 280.296  1.00  0.00    -0.545 OA
ATOM      9  O   UNL     1     204.704 205.651 278.536  1.00  0.00    -0.545 OA
ENDBRANCH   1   7
BRANCH   4  10
ATOM     10  O   UNL     1     204.836 210.461 276.811  1.00  0.00    -0.504 OA
ATOM     11  H   UNL     1     205.768 210.798 277.007  1.00  0.00     0.293 HD
ENDBRANCH   4  10
BRANCH   5  12
ATOM     12  O   UNL     1     201.097 210.436 279.950  1.00  0.00    -0.504 OA
ATOM     13  H   UNL     1     200.765 211.340 279.635  1.00  0.00     0.293 HD
ENDBRANCH   5  12
BRANCH   6  14
ATOM     14  O   UNL     1     202.612 211.820 278.127  1.00  0.00    -0.502 OA
ATOM     15  H   UNL     1     201.678 212.197 278.189  1.00  0.00     0.293 HD
ENDBRANCH   6  14
TORSDOF 4
ENDMDL
MODEL 6
REMARK VINA RESULT:    -5.632      1.284      2.734
REMARK INTER + INTRA:          -6.506
REMARK INTER:                  -6.455
REMARK INTRA:                  -0.051
REMARK UNBOUND:                -0.051
REMARK SMILES O=C([O-])c1cc(O)c(O)c(O)c1
REMARK SMILES IDX 4 1 5 2 12 3 6 4 10 5 8 6 2 7 1 8 3 9 7 10 11 12 9 14
REMARK H PARENT 7 11 11 13 9 15
REMARK Flexibility Score: inf
ROOT
ATOM      1  C   UNL     1     203.809 207.290 278.390  1.00  0.00     0.005 A 
ATOM      2  C   UNL     1     204.081 208.612 278.002  1.00  0.00     0.060 A 
ATOM      3  C   UNL     1     204.233 206.238 277.564  1.00  0.00     0.060 A 
ATOM      4  C   UNL     1     204.763 208.889 276.812  1.00  0.00     0.162 A 
ATOM      5  C   UNL     1     204.916 206.502 276.370  1.00  0.00     0.162 A 
ATOM      6  C   UNL     1     205.187 207.822 275.984  1.00  0.00     0.200 A 
ENDROOT
BRANCH   1   7
ATOM      7  C   UNL     1     203.087 207.006 279.650  1.00  0.00     0.072 C 
ATOM      8  O   UNL     1     203.310 205.945 280.291  1.00  0.00    -0.545 OA
ATOM      9  O   UNL     1     202.152 207.908 280.145  1.00  0.00    -0.545 OA
ENDBRANCH   1   7
BRANCH   4  10
ATOM     10  O   UNL     1     204.998 210.228 276.493  1.00  0.00    -0.504 OA
ATOM     11  H   UNL     1     204.573 211.008 276.974  1.00  0.00     0.293 HD
ENDBRANCH   4  10
BRANCH   5  12
ATOM     12  O   UNL     1     205.333 205.449 275.555  1.00  0.00    -0.504 OA
ATOM     13  H   UNL     1     205.053 205.388 274.582  1.00  0.00     0.293 HD
ENDBRANCH   5  12
BRANCH   6  14
ATOM     14  O   UNL     1     205.871 208.028 274.784  1.00  0.00    -0.502 OA
ATOM     15  H   UNL     1     205.420 208.157 273.890  1.00  0.00     0.293 HD
ENDBRANCH   6  14
TORSDOF 4
ENDMDL
MODEL 7
REMARK VINA RESULT:    -5.621      1.322      1.926
REMARK INTER + INTRA:          -6.493
REMARK INTER:                  -6.441
REMARK INTRA:                  -0.053
REMARK UNBOUND:                -0.051
REMARK SMILES O=C([O-])c1cc(O)c(O)c(O)c1
REMARK SMILES IDX 4 1 5 2 12 3 6 4 10 5 8 6 2 7 1 8 3 9 7 10 11 12 9 14
REMARK H PARENT 7 11 11 13 9 15
REMARK Flexibility Score: inf
ROOT
ATOM      1  C   UNL     1     204.048 207.361 278.637  1.00  0.00     0.005 A 
ATOM      2  C   UNL     1     204.520 206.325 277.814  1.00  0.00     0.060 A 
ATOM      3  C   UNL     1     204.204 208.690 278.214  1.00  0.00     0.060 A 
ATOM      4  C   UNL     1     205.138 206.602 276.590  1.00  0.00     0.162 A 
ATOM      5  C   UNL     1     204.822 208.980 276.991  1.00  0.00     0.162 A 
ATOM      6  C   UNL     1     205.292 207.945 276.171  1.00  0.00     0.200 A 
ENDROOT
BRANCH   1   7
ATOM      7  C   UNL     1     203.394 207.061 279.930  1.00  0.00     0.072 C 
ATOM      8  O   UNL     1     203.306 205.874 280.343  1.00  0.00    -0.545 OA
ATOM      9  O   UNL     1     202.867 208.085 280.708  1.00  0.00    -0.545 OA
ENDBRANCH   1   7
BRANCH   4  10
ATOM     10  O   UNL     1     205.581 205.519 275.826  1.00  0.00    -0.504 OA
ATOM     11  H   UNL     1     206.516 205.431 275.456  1.00  0.00     0.293 HD
ENDBRANCH   4  10
BRANCH   5  12
ATOM     12  O   UNL     1     204.975 210.304 276.580  1.00  0.00    -0.504 OA
ATOM     13  H   UNL     1     205.266 211.030 277.225  1.00  0.00     0.293 HD
ENDBRANCH   5  12
BRANCH   6  14
ATOM     14  O   UNL     1     205.902 208.289 274.962  1.00  0.00    -0.502 OA
ATOM     15  H   UNL     1     205.400 208.454 274.102  1.00  0.00     0.293 HD
ENDBRANCH   6  14
TORSDOF 4
ENDMDL
MODEL 8
REMARK VINA RESULT:    -5.595      1.707      2.357
REMARK INTER + INTRA:          -6.463
REMARK INTER:                  -6.410
REMARK INTRA:                  -0.053
REMARK UNBOUND:                -0.051
REMARK SMILES O=C([O-])c1cc(O)c(O)c(O)c1
REMARK SMILES IDX 4 1 5 2 12 3 6 4 10 5 8 6 2 7 1 8 3 9 7 10 11 12 9 14
REMARK H PARENT 7 11 11 13 9 15
REMARK Flexibility Score: inf
ROOT
ATOM      1  C   UNL     1     202.549 208.734 279.227  1.00  0.00     0.005 A 
ATOM      2  C   UNL     1     202.150 207.568 279.899  1.00  0.00     0.060 A 
ATOM      3  C   UNL     1     203.714 208.703 278.446  1.00  0.00     0.060 A 
ATOM      4  C   UNL     1     202.894 206.387 279.800  1.00  0.00     0.162 A 
ATOM      5  C   UNL     1     204.468 207.527 278.338  1.00  0.00     0.162 A 
ATOM      6  C   UNL     1     204.067 206.364 279.010  1.00  0.00     0.200 A 
ENDROOT
BRANCH   1   7
ATOM      7  C   UNL     1     201.757 209.979 279.337  1.00  0.00     0.072 C 
ATOM      8  O   UNL     1     200.687 210.001 280.002  1.00  0.00    -0.545 OA
ATOM      9  O   UNL     1     202.183 211.143 278.708  1.00  0.00    -0.545 OA
ENDBRANCH   1   7
BRANCH   4  10
ATOM     10  O   UNL     1     202.433 205.267 280.497  1.00  0.00    -0.504 OA
ATOM     11  H   UNL     1     201.516 205.198 280.915  1.00  0.00     0.293 HD
ENDBRANCH   4  10
BRANCH   5  12
ATOM     12  O   UNL     1     205.625 207.506 277.560  1.00  0.00    -0.504 OA
ATOM     13  H   UNL     1     206.446 206.982 277.842  1.00  0.00     0.293 HD
ENDBRANCH   5  12
BRANCH   6  14
ATOM     14  O   UNL     1     204.856 205.219 278.868  1.00  0.00    -0.502 OA
ATOM     15  H   UNL     1     204.655 204.336 279.312  1.00  0.00     0.293 HD
ENDBRANCH   6  14
TORSDOF 4
ENDMDL
MODEL 9
REMARK VINA RESULT:    -5.484      2.367      4.360
REMARK INTER + INTRA:          -6.336
REMARK INTER:                  -6.292
REMARK INTRA:                  -0.045
REMARK UNBOUND:                -0.051
REMARK SMILES O=C([O-])c1cc(O)c(O)c(O)c1
REMARK SMILES IDX 4 1 5 2 12 3 6 4 10 5 8 6 2 7 1 8 3 9 7 10 11 12 9 14
REMARK H PARENT 7 11 11 13 9 15
REMARK Flexibility Score: inf
ROOT
ATOM      1  C   UNL     1     203.484 208.093 279.173  1.00  0.00     0.005 A 
ATOM      2  C   UNL     1     204.127 209.095 279.918  1.00  0.00     0.060 A 
ATOM      3  C   UNL     1     202.650 208.467 278.109  1.00  0.00     0.060 A 
ATOM      4  C   UNL     1     203.947 210.449 279.614  1.00  0.00     0.162 A 
ATOM      5  C   UNL     1     202.461 209.819 277.794  1.00  0.00     0.162 A 
ATOM      6  C   UNL     1     203.104 210.817 278.538  1.00  0.00     0.200 A 
ENDROOT
BRANCH   1   7
ATOM      7  C   UNL     1     203.680 206.663 279.502  1.00  0.00     0.072 C 
ATOM      8  O   UNL     1     203.059 206.136 280.462  1.00  0.00    -0.545 OA
ATOM      9  O   UNL     1     204.554 205.883 278.754  1.00  0.00    -0.545 OA
ENDBRANCH   1   7
BRANCH   4  10
ATOM     10  O   UNL     1     204.621 211.387 280.399  1.00  0.00    -0.504 OA
ATOM     11  H   UNL     1     205.009 212.249 280.044  1.00  0.00     0.293 HD
ENDBRANCH   4  10
BRANCH   5  12
ATOM     12  O   UNL     1     201.629 210.181 276.734  1.00  0.00    -0.504 OA
ATOM     13  H   UNL     1     201.761 211.051 276.230  1.00  0.00     0.293 HD
ENDBRANCH   5  12
BRANCH   6  14
ATOM     14  O   UNL     1     202.880 212.150 278.182  1.00  0.00    -0.502 OA
ATOM     15  H   UNL     1     202.276 212.440 277.428  1.00  0.00     0.293 HD
ENDBRANCH   6  14
TORSDOF 4
ENDMDL
