MODEL 1
REMARK VINA RESULT:    -6.658      0.000      0.000
REMARK INTER + INTRA:         -12.619
REMARK INTER:                 -11.523
REMARK INTRA:                  -1.096
REMARK UNBOUND:                -1.096
REMARK SMILES OC[C@@H]1O[C@@H](O[C@@H]2[C@@H](O)[C@H](O)[C@@H](O[C@H]3[C@@H](O)[C@H](O)[C@@H](O)O[C@H]3CO)O[C@H]2CO)[C@H](O)[C@H](O)[C@H]1O
REMARK SMILES IDX 7 1 26 2 25 3 12 4 10 5 8 6 6 7 5 8 3 9 33 10 4 11 31 12
REMARK SMILES IDX 29 13 2 14 1 15 34 17 32 19 30 21 27 23 28 24 9 26 11 28
REMARK SMILES IDX 13 30 14 31 22 32 15 33 21 34 17 35 19 36 23 37 24 38 16 40
REMARK SMILES IDX 18 42 20 44
REMARK H PARENT 1 16 34 18 32 20 30 22 28 25 9 27 11 29 24 39 16 41 18 43
REMARK H PARENT 20 45
REMARK Flexibility Score: inf
ROOT
ATOM      1  C   UNL     1      38.623   7.442  43.217  1.00  0.00     0.184 C 
ATOM      2  C   UNL     1      38.814   6.777  44.607  1.00  0.00     0.178 C 
ATOM      3  O   UNL     1      37.672   6.062  45.072  1.00  0.00    -0.341 OA
ATOM      4  C   UNL     1      37.166   5.091  44.163  1.00  0.00     0.282 C 
ATOM      5  C   UNL     1      36.804   5.716  42.802  1.00  0.00     0.202 C 
ATOM      6  C   UNL     1      38.014   6.448  42.197  1.00  0.00     0.180 C 
ENDROOT
BRANCH   1   7
ATOM      7  O   UNL     1      37.815   8.603  43.395  1.00  0.00    -0.341 OA
BRANCH   7   8
ATOM      8  C   UNL     1      38.248   9.443  44.464  1.00  0.00     0.282 C 
ATOM      9  C   UNL     1      36.143   9.676  45.499  1.00  0.00     0.178 C 
ATOM     10  C   UNL     1      36.080  11.197  45.262  1.00  0.00     0.177 C 
ATOM     11  O   UNL     1      37.493   9.266  45.656  1.00  0.00    -0.341 OA
ATOM     12  C   UNL     1      36.847  11.515  43.964  1.00  0.00     0.179 C 
ATOM     13  C   UNL     1      38.270  10.923  44.017  1.00  0.00     0.202 C 
BRANCH   9  14
ATOM     14  C   UNL     1      35.367   9.240  46.754  1.00  0.00     0.191 C 
BRANCH  14  15
ATOM     15  O   UNL     1      35.182   7.846  46.746  1.00  0.00    -0.394 OA
ATOM     16  H   UNL     1      35.569   7.492  45.900  1.00  0.00     0.210 HD
ENDBRANCH  14  15
ENDBRANCH   9  14
BRANCH  10  17
ATOM     17  O   UNL     1      34.741  11.609  45.139  1.00  0.00    -0.387 OA
ATOM     18  H   UNL     1      34.743  12.602  45.116  1.00  0.00     0.211 HD
ENDBRANCH  10  17
BRANCH  12  19
ATOM     19  O   UNL     1      36.913  12.907  43.784  1.00  0.00    -0.387 OA
ATOM     20  H   UNL     1      37.664  13.078  43.160  1.00  0.00     0.211 HD
ENDBRANCH  12  19
BRANCH  13  21
ATOM     21  O   UNL     1      39.055  11.674  44.911  1.00  0.00    -0.385 OA
ATOM     22  H   UNL     1      38.949  11.258  45.804  1.00  0.00     0.211 HD
ENDBRANCH  13  21
ENDBRANCH   7   8
ENDBRANCH   1   7
BRANCH   2  23
ATOM     23  C   UNL     1      40.124   5.968  44.733  1.00  0.00     0.191 C 
BRANCH  23  24
ATOM     24  O   UNL     1      40.125   5.212  45.917  1.00  0.00    -0.394 OA
ATOM     25  H   UNL     1      41.031   4.808  45.996  1.00  0.00     0.210 HD
ENDBRANCH  23  24
ENDBRANCH   2  23
BRANCH   6  26
ATOM     26  O   UNL     1      38.998   5.525  41.803  1.00  0.00    -0.387 OA
ATOM     27  H   UNL     1      39.150   5.653  40.828  1.00  0.00     0.211 HD
ENDBRANCH   6  26
BRANCH   5  28
ATOM     28  O   UNL     1      35.739   6.615  42.984  1.00  0.00    -0.385 OA
ATOM     29  H   UNL     1      35.231   6.308  43.780  1.00  0.00     0.211 HD
ENDBRANCH   5  28
BRANCH   4  30
ATOM     30  O   UNL     1      38.085   4.017  44.019  1.00  0.00    -0.341 OA
BRANCH  30  31
ATOM     31  C   UNL     1      38.170   3.204  45.185  1.00  0.00     0.184 C 
ATOM     32  C   UNL     1      39.370   2.220  45.080  1.00  0.00     0.178 C 
ATOM     33  C   UNL     1      36.839   2.464  45.379  1.00  0.00     0.180 C 
ATOM     34  O   UNL     1      39.398   1.257  46.129  1.00  0.00    -0.342 OA
ATOM     35  C   UNL     1      36.966   1.433  46.512  1.00  0.00     0.201 C 
ATOM     36  C   UNL     1      38.190   0.523  46.290  1.00  0.00     0.279 C 
BRANCH  32  37
ATOM     37  C   UNL     1      39.570   1.588  43.683  1.00  0.00     0.191 C 
BRANCH  37  38
ATOM     38  O   UNL     1      39.959   2.563  42.754  1.00  0.00    -0.394 OA
ATOM     39  H   UNL     1      40.519   3.219  43.244  1.00  0.00     0.210 HD
ENDBRANCH  37  38
ENDBRANCH  32  37
BRANCH  33  40
ATOM     40  O   UNL     1      36.444   1.838  44.183  1.00  0.00    -0.387 OA
ATOM     41  H   UNL     1      35.620   2.300  43.876  1.00  0.00     0.211 HD
ENDBRANCH  33  40
BRANCH  35  42
ATOM     42  O   UNL     1      37.099   2.087  47.749  1.00  0.00    -0.385 OA
ATOM     43  H   UNL     1      36.183   2.335  48.043  1.00  0.00     0.211 HD
ENDBRANCH  35  42
BRANCH  36  44
ATOM     44  O   UNL     1      37.987  -0.357  45.214  1.00  0.00    -0.366 OA
ATOM     45  H   UNL     1      38.674  -0.140  44.534  1.00  0.00     0.213 HD
ENDBRANCH  36  44
ENDBRANCH  30  31
ENDBRANCH   4  30
TORSDOF 18
ENDMDL
MODEL 2
REMARK VINA RESULT:    -6.369      1.296      7.904
REMARK INTER + INTRA:         -12.119
REMARK INTER:                 -10.356
REMARK INTRA:                  -1.764
REMARK UNBOUND:                -1.096
REMARK SMILES OC[C@@H]1O[C@@H](O[C@@H]2[C@@H](O)[C@H](O)[C@@H](O[C@H]3[C@@H](O)[C@H](O)[C@@H](O)O[C@H]3CO)O[C@H]2CO)[C@H](O)[C@H](O)[C@H]1O
REMARK SMILES IDX 7 1 26 2 25 3 12 4 10 5 8 6 6 7 5 8 3 9 33 10 4 11 31 12
REMARK SMILES IDX 29 13 2 14 1 15 34 17 32 19 30 21 27 23 28 24 9 26 11 28
REMARK SMILES IDX 13 30 14 31 22 32 15 33 21 34 17 35 19 36 23 37 24 38 16 40
REMARK SMILES IDX 18 42 20 44
REMARK H PARENT 1 16 34 18 32 20 30 22 28 25 9 27 11 29 24 39 16 41 18 43
REMARK H PARENT 20 45
REMARK Flexibility Score: inf
ROOT
ATOM      1  C   UNL     1      39.062   5.026  43.423  1.00  0.00     0.184 C 
ATOM      2  C   UNL     1      37.628   5.579  43.642  1.00  0.00     0.178 C 
ATOM      3  O   UNL     1      37.485   6.378  44.814  1.00  0.00    -0.341 OA
ATOM      4  C   UNL     1      38.413   7.452  44.920  1.00  0.00     0.282 C 
ATOM      5  C   UNL     1      39.870   6.955  44.867  1.00  0.00     0.202 C 
ATOM      6  C   UNL     1      40.125   6.141  43.587  1.00  0.00     0.180 C 
ENDROOT
BRANCH   1   7
ATOM      7  O   UNL     1      39.259   3.946  44.333  1.00  0.00    -0.341 OA
BRANCH   7   8
ATOM      8  C   UNL     1      38.554   2.760  43.973  1.00  0.00     0.282 C 
ATOM      9  C   UNL     1      36.854   2.949  45.597  1.00  0.00     0.178 C 
ATOM     10  C   UNL     1      37.259   1.650  46.320  1.00  0.00     0.177 C 
ATOM     11  O   UNL     1      37.154   2.846  44.213  1.00  0.00    -0.341 OA
ATOM     12  C   UNL     1      38.779   1.459  46.156  1.00  0.00     0.179 C 
ATOM     13  C   UNL     1      39.176   1.526  44.668  1.00  0.00     0.202 C 
BRANCH   9  14
ATOM     14  C   UNL     1      35.354   3.261  45.734  1.00  0.00     0.191 C 
BRANCH  14  15
ATOM     15  O   UNL     1      35.165   4.639  45.943  1.00  0.00    -0.394 OA
ATOM     16  H   UNL     1      36.062   5.055  46.055  1.00  0.00     0.210 HD
ENDBRANCH  14  15
ENDBRANCH   9  14
BRANCH  10  17
ATOM     17  O   UNL     1      36.932   1.738  47.685  1.00  0.00    -0.387 OA
ATOM     18  H   UNL     1      35.983   1.459  47.776  1.00  0.00     0.211 HD
ENDBRANCH  10  17
BRANCH  12  19
ATOM     19  O   UNL     1      39.160   0.222  46.700  1.00  0.00    -0.387 OA
ATOM     20  H   UNL     1      39.567  -0.300  45.961  1.00  0.00     0.211 HD
ENDBRANCH  12  19
BRANCH  13  21
ATOM     21  O   UNL     1      38.749   0.354  44.019  1.00  0.00    -0.385 OA
ATOM     22  H   UNL     1      38.952  -0.401  44.629  1.00  0.00     0.211 HD
ENDBRANCH  13  21
ENDBRANCH   7   8
ENDBRANCH   1   7
BRANCH   2  23
ATOM     23  C   UNL     1      37.017   6.238  42.385  1.00  0.00     0.191 C 
BRANCH  23  24
ATOM     24  O   UNL     1      35.671   6.571  42.608  1.00  0.00    -0.394 OA
ATOM     25  H   UNL     1      35.658   7.519  42.909  1.00  0.00     0.210 HD
ENDBRANCH  23  24
ENDBRANCH   2  23
BRANCH   6  26
ATOM     26  O   UNL     1      40.098   6.980  42.460  1.00  0.00    -0.387 OA
ATOM     27  H   UNL     1      39.163   6.986  42.119  1.00  0.00     0.211 HD
ENDBRANCH   6  26
BRANCH   5  28
ATOM     28  O   UNL     1      40.121   6.162  46.000  1.00  0.00    -0.385 OA
ATOM     29  H   UNL     1      41.106   6.070  46.080  1.00  0.00     0.211 HD
ENDBRANCH   5  28
BRANCH   4  30
ATOM     30  O   UNL     1      38.156   8.432  43.923  1.00  0.00    -0.341 OA
BRANCH  30  31
ATOM     31  C   UNL     1      38.145   9.757  44.442  1.00  0.00     0.184 C 
ATOM     32  C   UNL     1      36.812  10.041  45.191  1.00  0.00     0.178 C 
ATOM     33  C   UNL     1      38.377  10.748  43.293  1.00  0.00     0.180 C 
ATOM     34  O   UNL     1      36.663  11.405  45.573  1.00  0.00    -0.342 OA
ATOM     35  C   UNL     1      38.176  12.189  43.788  1.00  0.00     0.201 C 
ATOM     36  C   UNL     1      36.823  12.337  44.510  1.00  0.00     0.279 C 
BRANCH  32  37
ATOM     37  C   UNL     1      35.549   9.472  44.505  1.00  0.00     0.191 C 
BRANCH  37  38
ATOM     38  O   UNL     1      35.289   8.169  44.956  1.00  0.00    -0.394 OA
ATOM     39  H   UNL     1      35.992   7.586  44.567  1.00  0.00     0.210 HD
ENDBRANCH  37  38
ENDBRANCH  32  37
BRANCH  33  40
ATOM     40  O   UNL     1      37.514  10.469  42.218  1.00  0.00    -0.387 OA
ATOM     41  H   UNL     1      37.108  11.333  41.945  1.00  0.00     0.211 HD
ENDBRANCH  33  40
BRANCH  35  42
ATOM     42  O   UNL     1      39.209  12.547  44.671  1.00  0.00    -0.385 OA
ATOM     43  H   UNL     1      39.983  12.823  44.113  1.00  0.00     0.211 HD
ENDBRANCH  35  42
BRANCH  36  44
ATOM     44  O   UNL     1      35.749  12.262  43.607  1.00  0.00    -0.366 OA
ATOM     45  H   UNL     1      35.989  12.827  42.830  1.00  0.00     0.213 HD
ENDBRANCH  36  44
ENDBRANCH  30  31
ENDBRANCH   4  30
TORSDOF 18
ENDMDL
MODEL 3
REMARK VINA RESULT:    -6.115      1.516      8.113
REMARK INTER + INTRA:         -11.679
REMARK INTER:                  -9.554
REMARK INTRA:                  -2.125
REMARK UNBOUND:                -1.096
REMARK SMILES OC[C@@H]1O[C@@H](O[C@@H]2[C@@H](O)[C@H](O)[C@@H](O[C@H]3[C@@H](O)[C@H](O)[C@@H](O)O[C@H]3CO)O[C@H]2CO)[C@H](O)[C@H](O)[C@H]1O
REMARK SMILES IDX 7 1 26 2 25 3 12 4 10 5 8 6 6 7 5 8 3 9 33 10 4 11 31 12
REMARK SMILES IDX 29 13 2 14 1 15 34 17 32 19 30 21 27 23 28 24 9 26 11 28
REMARK SMILES IDX 13 30 14 31 22 32 15 33 21 34 17 35 19 36 23 37 24 38 16 40
REMARK SMILES IDX 18 42 20 44
REMARK H PARENT 1 16 34 18 32 20 30 22 28 25 9 27 11 29 24 39 16 41 18 43
REMARK H PARENT 20 45
REMARK Flexibility Score: inf
ROOT
ATOM      1  C   UNL     1      39.577   5.170  43.636  1.00  0.00     0.184 C 
ATOM      2  C   UNL     1      39.128   5.850  42.315  1.00  0.00     0.178 C 
ATOM      3  O   UNL     1      37.778   6.307  42.325  1.00  0.00    -0.341 OA
ATOM      4  C   UNL     1      37.446   7.158  43.416  1.00  0.00     0.282 C 
ATOM      5  C   UNL     1      37.721   6.481  44.773  1.00  0.00     0.202 C 
ATOM      6  C   UNL     1      39.185   6.022  44.868  1.00  0.00     0.180 C 
ENDROOT
BRANCH   1   7
ATOM      7  O   UNL     1      39.005   3.864  43.673  1.00  0.00    -0.341 OA
BRANCH   7   8
ATOM      8  C   UNL     1      39.736   2.942  44.480  1.00  0.00     0.282 C 
ATOM      9  C   UNL     1      38.516   1.018  43.871  1.00  0.00     0.178 C 
ATOM     10  C   UNL     1      37.992   0.773  45.299  1.00  0.00     0.177 C 
ATOM     11  O   UNL     1      39.794   1.634  43.923  1.00  0.00    -0.341 OA
ATOM     12  C   UNL     1      37.856   2.137  46.004  1.00  0.00     0.179 C 
ATOM     13  C   UNL     1      39.179   2.923  45.922  1.00  0.00     0.202 C 
BRANCH   9  14
ATOM     14  C   UNL     1      38.649  -0.281  43.058  1.00  0.00     0.191 C 
BRANCH  14  15
ATOM     15  O   UNL     1      38.900  -1.365  43.918  1.00  0.00    -0.394 OA
ATOM     16  H   UNL     1      38.044  -1.601  44.366  1.00  0.00     0.210 HD
ENDBRANCH  14  15
ENDBRANCH   9  14
BRANCH  10  17
ATOM     17  O   UNL     1      36.741   0.133  45.249  1.00  0.00    -0.387 OA
ATOM     18  H   UNL     1      36.904  -0.802  44.958  1.00  0.00     0.211 HD
ENDBRANCH  10  17
BRANCH  12  19
ATOM     19  O   UNL     1      37.497   1.939  47.348  1.00  0.00    -0.387 OA
ATOM     20  H   UNL     1      36.580   2.302  47.453  1.00  0.00     0.211 HD
ENDBRANCH  12  19
BRANCH  13  21
ATOM     21  O   UNL     1      40.124   2.338  46.785  1.00  0.00    -0.385 OA
ATOM     22  H   UNL     1      40.134   1.368  46.582  1.00  0.00     0.211 HD
ENDBRANCH  13  21
ENDBRANCH   7   8
ENDBRANCH   1   7
BRANCH   2  23
ATOM     23  C   UNL     1      40.121   6.913  41.795  1.00  0.00     0.191 C 
BRANCH  23  24
ATOM     24  O   UNL     1      39.609   7.550  40.653  1.00  0.00    -0.394 OA
ATOM     25  H   UNL     1      39.924   7.025  39.869  1.00  0.00     0.210 HD
ENDBRANCH  23  24
ENDBRANCH   2  23
BRANCH   6  26
ATOM     26  O   UNL     1      40.041   7.133  44.956  1.00  0.00    -0.387 OA
ATOM     27  H   UNL     1      39.707   7.705  45.699  1.00  0.00     0.211 HD
ENDBRANCH   6  26
BRANCH   5  28
ATOM     28  O   UNL     1      36.860   5.379  44.912  1.00  0.00    -0.385 OA
ATOM     29  H   UNL     1      36.833   4.916  44.034  1.00  0.00     0.211 HD
ENDBRANCH   5  28
BRANCH   4  30
ATOM     30  O   UNL     1      38.124   8.401  43.303  1.00  0.00    -0.341 OA
BRANCH  30  31
ATOM     31  C   UNL     1      37.300   9.512  43.637  1.00  0.00     0.184 C 
ATOM     32  C   UNL     1      37.515  10.677  42.629  1.00  0.00     0.178 C 
ATOM     33  C   UNL     1      37.597   9.942  45.080  1.00  0.00     0.180 C 
ATOM     34  O   UNL     1      36.858  11.880  43.015  1.00  0.00    -0.342 OA
ATOM     35  C   UNL     1      36.867  11.256  45.403  1.00  0.00     0.201 C 
ATOM     36  C   UNL     1      37.162  12.324  44.332  1.00  0.00     0.279 C 
BRANCH  32  37
ATOM     37  C   UNL     1      38.985  10.908  42.209  1.00  0.00     0.191 C 
BRANCH  37  38
ATOM     38  O   UNL     1      39.247  10.291  40.977  1.00  0.00    -0.394 OA
ATOM     39  H   UNL     1      39.894   9.560  41.154  1.00  0.00     0.210 HD
ENDBRANCH  37  38
ENDBRANCH  32  37
BRANCH  33  40
ATOM     40  O   UNL     1      38.982  10.085  45.277  1.00  0.00    -0.387 OA
ATOM     41  H   UNL     1      39.185   9.709  46.173  1.00  0.00     0.211 HD
ENDBRANCH  33  40
BRANCH  35  42
ATOM     42  O   UNL     1      35.480  11.037  45.463  1.00  0.00    -0.385 OA
ATOM     43  H   UNL     1      35.341  10.055  45.416  1.00  0.00     0.211 HD
ENDBRANCH  35  42
BRANCH  36  44
ATOM     44  O   UNL     1      38.488  12.782  44.416  1.00  0.00    -0.366 OA
ATOM     45  H   UNL     1      39.065  12.053  44.073  1.00  0.00     0.213 HD
ENDBRANCH  36  44
ENDBRANCH  30  31
ENDBRANCH   4  30
TORSDOF 18
ENDMDL
MODEL 4
REMARK VINA RESULT:    -6.053      2.013      4.636
REMARK INTER + INTRA:         -11.572
REMARK INTER:                  -9.886
REMARK INTRA:                  -1.685
REMARK UNBOUND:                -1.096
REMARK SMILES OC[C@@H]1O[C@@H](O[C@@H]2[C@@H](O)[C@H](O)[C@@H](O[C@H]3[C@@H](O)[C@H](O)[C@@H](O)O[C@H]3CO)O[C@H]2CO)[C@H](O)[C@H](O)[C@H]1O
REMARK SMILES IDX 7 1 26 2 25 3 12 4 10 5 8 6 6 7 5 8 3 9 33 10 4 11 31 12
REMARK SMILES IDX 29 13 2 14 1 15 34 17 32 19 30 21 27 23 28 24 9 26 11 28
REMARK SMILES IDX 13 30 14 31 22 32 15 33 21 34 17 35 19 36 23 37 24 38 16 40
REMARK SMILES IDX 18 42 20 44
REMARK H PARENT 1 16 34 18 32 20 30 22 28 25 9 27 11 29 24 39 16 41 18 43
REMARK H PARENT 20 45
REMARK Flexibility Score: inf
ROOT
ATOM      1  C   UNL     1      38.410   4.393  44.866  1.00  0.00     0.184 C 
ATOM      2  C   UNL     1      37.018   3.766  44.586  1.00  0.00     0.178 C 
ATOM      3  O   UNL     1      37.043   2.687  43.655  1.00  0.00    -0.341 OA
ATOM      4  C   UNL     1      37.960   1.646  43.973  1.00  0.00     0.282 C 
ATOM      5  C   UNL     1      39.400   2.176  44.112  1.00  0.00     0.202 C 
ATOM      6  C   UNL     1      39.470   3.301  45.159  1.00  0.00     0.180 C 
ENDROOT
BRANCH   1   7
ATOM      7  O   UNL     1      38.760   5.204  43.747  1.00  0.00    -0.341 OA
BRANCH   7   8
ATOM      8  C   UNL     1      37.647   5.877  43.160  1.00  0.00     0.282 C 
ATOM      9  C   UNL     1      38.824   7.801  42.471  1.00  0.00     0.178 C 
ATOM     10  C   UNL     1      38.018   8.745  43.384  1.00  0.00     0.177 C 
ATOM     11  O   UNL     1      38.011   6.710  42.065  1.00  0.00    -0.341 OA
ATOM     12  C   UNL     1      37.587   7.956  44.636  1.00  0.00     0.179 C 
ATOM     13  C   UNL     1      36.857   6.660  44.234  1.00  0.00     0.202 C 
BRANCH   9  14
ATOM     14  C   UNL     1      39.343   8.502  41.204  1.00  0.00     0.191 C 
BRANCH  14  15
ATOM     15  O   UNL     1      38.576   9.650  40.939  1.00  0.00    -0.394 OA
ATOM     16  H   UNL     1      37.696   9.539  41.391  1.00  0.00     0.210 HD
ENDBRANCH  14  15
ENDBRANCH   9  14
BRANCH  10  17
ATOM     17  O   UNL     1      38.812   9.843  43.760  1.00  0.00    -0.387 OA
ATOM     18  H   UNL     1      38.209  10.629  43.829  1.00  0.00     0.211 HD
ENDBRANCH  10  17
BRANCH  12  19
ATOM     19  O   UNL     1      36.748   8.755  45.430  1.00  0.00    -0.387 OA
ATOM     20  H   UNL     1      37.146   8.768  46.338  1.00  0.00     0.211 HD
ENDBRANCH  12  19
BRANCH  13  21
ATOM     21  O   UNL     1      35.579   6.978  43.741  1.00  0.00    -0.385 OA
ATOM     22  H   UNL     1      34.924   6.639  44.403  1.00  0.00     0.211 HD
ENDBRANCH  13  21
ENDBRANCH   7   8
ENDBRANCH   1   7
BRANCH   2  23
ATOM     23  C   UNL     1      36.214   3.441  45.864  1.00  0.00     0.191 C 
BRANCH  23  24
ATOM     24  O   UNL     1      34.962   2.896  45.534  1.00  0.00    -0.394 OA
ATOM     25  H   UNL     1      34.967   1.956  45.859  1.00  0.00     0.210 HD
ENDBRANCH  23  24
ENDBRANCH   2  23
BRANCH   6  26
ATOM     26  O   UNL     1      39.259   2.783  46.449  1.00  0.00    -0.387 OA
ATOM     27  H   UNL     1      39.421   1.802  46.403  1.00  0.00     0.211 HD
ENDBRANCH   6  26
BRANCH   5  28
ATOM     28  O   UNL     1      39.831   2.654  42.863  1.00  0.00    -0.385 OA
ATOM     29  H   UNL     1      39.390   3.532  42.718  1.00  0.00     0.211 HD
ENDBRANCH   5  28
BRANCH   4  30
ATOM     30  O   UNL     1      37.540   0.953  45.140  1.00  0.00    -0.341 OA
BRANCH  30  31
ATOM     31  C   UNL     1      37.862  -0.433  45.104  1.00  0.00     0.184 C 
ATOM     32  C   UNL     1      36.694  -1.251  44.482  1.00  0.00     0.178 C 
ATOM     33  C   UNL     1      38.200  -0.908  46.524  1.00  0.00     0.180 C 
ATOM     34  O   UNL     1      36.878  -2.659  44.587  1.00  0.00    -0.342 OA
ATOM     35  C   UNL     1      38.360  -2.436  46.547  1.00  0.00     0.201 C 
ATOM     36  C   UNL     1      37.141  -3.125  45.905  1.00  0.00     0.279 C 
BRANCH  32  37
ATOM     37  C   UNL     1      35.282  -0.799  44.920  1.00  0.00     0.191 C 
BRANCH  37  38
ATOM     38  O   UNL     1      34.966   0.445  44.355  1.00  0.00    -0.394 OA
ATOM     39  H   UNL     1      35.111   1.126  45.063  1.00  0.00     0.210 HD
ENDBRANCH  37  38
ENDBRANCH  32  37
BRANCH  33  40
ATOM     40  O   UNL     1      37.205  -0.500  47.430  1.00  0.00    -0.387 OA
ATOM     41  H   UNL     1      37.666  -0.010  48.161  1.00  0.00     0.211 HD
ENDBRANCH  33  40
BRANCH  35  42
ATOM     42  O   UNL     1      39.520  -2.813  45.850  1.00  0.00    -0.385 OA
ATOM     43  H   UNL     1      40.234  -2.172  46.109  1.00  0.00     0.211 HD
ENDBRANCH  35  42
BRANCH  36  44
ATOM     44  O   UNL     1      36.000  -3.010  46.717  1.00  0.00    -0.366 OA
ATOM     45  H   UNL     1      35.636  -2.099  46.572  1.00  0.00     0.213 HD
ENDBRANCH  36  44
ENDBRANCH  30  31
ENDBRANCH   4  30
TORSDOF 18
ENDMDL
MODEL 5
REMARK VINA RESULT:    -5.722      2.180      4.383
REMARK INTER + INTRA:         -11.000
REMARK INTER:                  -9.644
REMARK INTRA:                  -1.356
REMARK UNBOUND:                -1.096
REMARK SMILES OC[C@@H]1O[C@@H](O[C@@H]2[C@@H](O)[C@H](O)[C@@H](O[C@H]3[C@@H](O)[C@H](O)[C@@H](O)O[C@H]3CO)O[C@H]2CO)[C@H](O)[C@H](O)[C@H]1O
REMARK SMILES IDX 7 1 26 2 25 3 12 4 10 5 8 6 6 7 5 8 3 9 33 10 4 11 31 12
REMARK SMILES IDX 29 13 2 14 1 15 34 17 32 19 30 21 27 23 28 24 9 26 11 28
REMARK SMILES IDX 13 30 14 31 22 32 15 33 21 34 17 35 19 36 23 37 24 38 16 40
REMARK SMILES IDX 18 42 20 44
REMARK H PARENT 1 16 34 18 32 20 30 22 28 25 9 27 11 29 24 39 16 41 18 43
REMARK H PARENT 20 45
REMARK Flexibility Score: inf
ROOT
ATOM      1  C   UNL     1      38.864   3.753  43.493  1.00  0.00     0.184 C 
ATOM      2  C   UNL     1      40.003   2.719  43.696  1.00  0.00     0.178 C 
ATOM      3  O   UNL     1      40.125   2.241  45.033  1.00  0.00    -0.341 OA
ATOM      4  C   UNL     1      38.925   1.718  45.590  1.00  0.00     0.282 C 
ATOM      5  C   UNL     1      37.784   2.754  45.565  1.00  0.00     0.202 C 
ATOM      6  C   UNL     1      37.541   3.266  44.136  1.00  0.00     0.180 C 
ENDROOT
BRANCH   1   7
ATOM      7  O   UNL     1      39.303   5.000  44.030  1.00  0.00    -0.341 OA
BRANCH   7   8
ATOM      8  C   UNL     1      39.063   6.110  43.167  1.00  0.00     0.282 C 
ATOM      9  C   UNL     1      38.520   7.659  44.860  1.00  0.00     0.178 C 
ATOM     10  C   UNL     1      37.076   7.855  44.360  1.00  0.00     0.177 C 
ATOM     11  O   UNL     1      39.375   7.362  43.765  1.00  0.00    -0.341 OA
ATOM     12  C   UNL     1      36.608   6.539  43.709  1.00  0.00     0.179 C 
ATOM     13  C   UNL     1      37.612   6.079  42.634  1.00  0.00     0.202 C 
BRANCH   9  14
ATOM     14  C   UNL     1      39.076   8.906  45.569  1.00  0.00     0.191 C 
BRANCH  14  15
ATOM     15  O   UNL     1      38.690   8.904  46.921  1.00  0.00    -0.394 OA
ATOM     16  H   UNL     1      39.460   8.573  47.457  1.00  0.00     0.210 HD
ENDBRANCH  14  15
ENDBRANCH   9  14
BRANCH  10  17
ATOM     17  O   UNL     1      36.235   8.182  45.438  1.00  0.00    -0.387 OA
ATOM     18  H   UNL     1      35.992   7.330  45.887  1.00  0.00     0.211 HD
ENDBRANCH  10  17
BRANCH  12  19
ATOM     19  O   UNL     1      35.339   6.723  43.135  1.00  0.00    -0.387 OA
ATOM     20  H   UNL     1      35.207   5.978  42.494  1.00  0.00     0.211 HD
ENDBRANCH  12  19
BRANCH  13  21
ATOM     21  O   UNL     1      37.505   6.916  41.508  1.00  0.00    -0.385 OA
ATOM     22  H   UNL     1      36.536   7.060  41.349  1.00  0.00     0.211 HD
ENDBRANCH  13  21
ENDBRANCH   7   8
ENDBRANCH   1   7
BRANCH   2  23
ATOM     23  C   UNL     1      40.006   1.584  42.648  1.00  0.00     0.191 C 
BRANCH  23  24
ATOM     24  O   UNL     1      39.279   1.964  41.508  1.00  0.00    -0.394 OA
ATOM     25  H   UNL     1      38.346   2.134  41.808  1.00  0.00     0.210 HD
ENDBRANCH  23  24
ENDBRANCH   2  23
BRANCH   6  26
ATOM     26  O   UNL     1      36.985   2.250  43.340  1.00  0.00    -0.387 OA
ATOM     27  H   UNL     1      37.534   2.189  42.512  1.00  0.00     0.211 HD
ENDBRANCH   6  26
BRANCH   5  28
ATOM     28  O   UNL     1      38.125   3.824  46.409  1.00  0.00    -0.385 OA
ATOM     29  H   UNL     1      37.473   4.553  46.234  1.00  0.00     0.211 HD
ENDBRANCH   5  28
BRANCH   4  30
ATOM     30  O   UNL     1      38.554   0.514  44.933  1.00  0.00    -0.341 OA
BRANCH  30  31
ATOM     31  C   UNL     1      38.910  -0.650  45.671  1.00  0.00     0.184 C 
ATOM     32  C   UNL     1      38.460  -1.935  44.920  1.00  0.00     0.178 C 
ATOM     33  C   UNL     1      38.294  -0.562  47.074  1.00  0.00     0.180 C 
ATOM     34  O   UNL     1      38.621  -3.121  45.691  1.00  0.00    -0.342 OA
ATOM     35  C   UNL     1      38.496  -1.888  47.825  1.00  0.00     0.201 C 
ATOM     36  C   UNL     1      38.011  -3.079  46.976  1.00  0.00     0.279 C 
BRANCH  32  37
ATOM     37  C   UNL     1      37.068  -1.842  44.253  1.00  0.00     0.191 C 
BRANCH  37  38
ATOM     38  O   UNL     1      36.679  -3.092  43.749  1.00  0.00    -0.394 OA
ATOM     39  H   UNL     1      37.471  -3.475  43.290  1.00  0.00     0.210 HD
ENDBRANCH  37  38
ENDBRANCH  32  37
BRANCH  33  40
ATOM     40  O   UNL     1      36.927  -0.243  46.993  1.00  0.00    -0.387 OA
ATOM     41  H   UNL     1      36.518  -0.510  47.858  1.00  0.00     0.211 HD
ENDBRANCH  33  40
BRANCH  35  42
ATOM     42  O   UNL     1      39.855  -2.068  48.134  1.00  0.00    -0.385 OA
ATOM     43  H   UNL     1      39.917  -2.880  48.702  1.00  0.00     0.211 HD
ENDBRANCH  35  42
BRANCH  36  44
ATOM     44  O   UNL     1      36.610  -3.097  46.869  1.00  0.00    -0.366 OA
ATOM     45  H   UNL     1      36.344  -4.046  46.764  1.00  0.00     0.213 HD
ENDBRANCH  36  44
ENDBRANCH  30  31
ENDBRANCH   4  30
TORSDOF 18
ENDMDL
MODEL 6
REMARK VINA RESULT:    -5.713      1.844      3.567
REMARK INTER + INTRA:         -10.985
REMARK INTER:                  -9.740
REMARK INTRA:                  -1.244
REMARK UNBOUND:                -1.096
REMARK SMILES OC[C@@H]1O[C@@H](O[C@@H]2[C@@H](O)[C@H](O)[C@@H](O[C@H]3[C@@H](O)[C@H](O)[C@@H](O)O[C@H]3CO)O[C@H]2CO)[C@H](O)[C@H](O)[C@H]1O
REMARK SMILES IDX 7 1 26 2 25 3 12 4 10 5 8 6 6 7 5 8 3 9 33 10 4 11 31 12
REMARK SMILES IDX 29 13 2 14 1 15 34 17 32 19 30 21 27 23 28 24 9 26 11 28
REMARK SMILES IDX 13 30 14 31 22 32 15 33 21 34 17 35 19 36 23 37 24 38 16 40
REMARK SMILES IDX 18 42 20 44
REMARK H PARENT 1 16 34 18 32 20 30 22 28 25 9 27 11 29 24 39 16 41 18 43
REMARK H PARENT 20 45
REMARK Flexibility Score: inf
ROOT
ATOM      1  C   UNL     1      37.047   4.535  43.753  1.00  0.00     0.184 C 
ATOM      2  C   UNL     1      38.355   3.915  44.313  1.00  0.00     0.178 C 
ATOM      3  O   UNL     1      38.260   3.480  45.666  1.00  0.00    -0.341 OA
ATOM      4  C   UNL     1      37.181   2.592  45.933  1.00  0.00     0.282 C 
ATOM      5  C   UNL     1      35.824   3.210  45.544  1.00  0.00     0.202 C 
ATOM      6  C   UNL     1      35.822   3.641  44.068  1.00  0.00     0.180 C 
ENDROOT
BRANCH   1   7
ATOM      7  O   UNL     1      36.917   5.848  44.295  1.00  0.00    -0.341 OA
BRANCH   7   8
ATOM      8  C   UNL     1      38.164   6.512  44.490  1.00  0.00     0.282 C 
ATOM      9  C   UNL     1      37.270   8.645  44.950  1.00  0.00     0.178 C 
ATOM     10  C   UNL     1      37.916   9.295  43.711  1.00  0.00     0.177 C 
ATOM     11  O   UNL     1      38.088   7.585  45.421  1.00  0.00    -0.341 OA
ATOM     12  C   UNL     1      38.027   8.226  42.607  1.00  0.00     0.179 C 
ATOM     13  C   UNL     1      38.752   6.973  43.136  1.00  0.00     0.202 C 
BRANCH   9  14
ATOM     14  C   UNL     1      37.071   9.640  46.105  1.00  0.00     0.191 C 
BRANCH  14  15
ATOM     15  O   UNL     1      35.892  10.380  45.908  1.00  0.00    -0.394 OA
ATOM     16  H   UNL     1      35.974  11.226  46.425  1.00  0.00     0.210 HD
ENDBRANCH  14  15
ENDBRANCH   9  14
BRANCH  10  17
ATOM     17  O   UNL     1      37.123  10.366  43.262  1.00  0.00    -0.387 OA
ATOM     18  H   UNL     1      36.715  10.086  42.402  1.00  0.00     0.211 HD
ENDBRANCH  10  17
BRANCH  12  19
ATOM     19  O   UNL     1      38.722   8.755  41.507  1.00  0.00    -0.387 OA
ATOM     20  H   UNL     1      39.632   8.982  41.829  1.00  0.00     0.211 HD
ENDBRANCH  12  19
BRANCH  13  21
ATOM     21  O   UNL     1      40.121   7.256  43.288  1.00  0.00    -0.385 OA
ATOM     22  H   UNL     1      40.491   7.378  42.376  1.00  0.00     0.211 HD
ENDBRANCH  13  21
ENDBRANCH   7   8
ENDBRANCH   1   7
BRANCH   2  23
ATOM     23  C   UNL     1      38.989   2.857  43.382  1.00  0.00     0.191 C 
BRANCH  23  24
ATOM     24  O   UNL     1      39.368   3.437  42.161  1.00  0.00    -0.394 OA
ATOM     25  H   UNL     1      39.404   4.420  42.312  1.00  0.00     0.210 HD
ENDBRANCH  23  24
ENDBRANCH   2  23
BRANCH   6  26
ATOM     26  O   UNL     1      35.841   2.514  43.229  1.00  0.00    -0.387 OA
ATOM     27  H   UNL     1      35.532   1.738  43.770  1.00  0.00     0.211 HD
ENDBRANCH   6  26
BRANCH   5  28
ATOM     28  O   UNL     1      35.577   4.320  46.370  1.00  0.00    -0.385 OA
ATOM     29  H   UNL     1      35.865   4.071  47.287  1.00  0.00     0.211 HD
ENDBRANCH   5  28
BRANCH   4  30
ATOM     30  O   UNL     1      37.392   1.343  45.289  1.00  0.00    -0.341 OA
BRANCH  30  31
ATOM     31  C   UNL     1      37.144   0.233  46.143  1.00  0.00     0.184 C 
ATOM     32  C   UNL     1      38.038   0.308  47.414  1.00  0.00     0.178 C 
ATOM     33  C   UNL     1      37.374  -1.066  45.358  1.00  0.00     0.180 C 
ATOM     34  O   UNL     1      37.970  -0.866  48.217  1.00  0.00    -0.342 OA
ATOM     35  C   UNL     1      37.305  -2.275  46.304  1.00  0.00     0.201 C 
ATOM     36  C   UNL     1      38.233  -2.077  47.518  1.00  0.00     0.279 C 
BRANCH  32  37
ATOM     37  C   UNL     1      39.490   0.774  47.158  1.00  0.00     0.191 C 
BRANCH  37  38
ATOM     38  O   UNL     1      39.776   1.925  47.905  1.00  0.00    -0.394 OA
ATOM     39  H   UNL     1      38.904   2.314  48.177  1.00  0.00     0.210 HD
ENDBRANCH  37  38
ENDBRANCH  32  37
BRANCH  33  40
ATOM     40  O   UNL     1      38.613  -1.028  44.694  1.00  0.00    -0.387 OA
ATOM     41  H   UNL     1      38.597  -1.754  44.017  1.00  0.00     0.211 HD
ENDBRANCH  33  40
BRANCH  35  42
ATOM     42  O   UNL     1      35.988  -2.460  46.759  1.00  0.00    -0.385 OA
ATOM     43  H   UNL     1      35.992  -2.285  47.737  1.00  0.00     0.211 HD
ENDBRANCH  35  42
BRANCH  36  44
ATOM     44  O   UNL     1      39.586  -2.162  47.149  1.00  0.00    -0.366 OA
ATOM     45  H   UNL     1      39.780  -3.122  46.998  1.00  0.00     0.213 HD
ENDBRANCH  36  44
ENDBRANCH  30  31
ENDBRANCH   4  30
TORSDOF 18
ENDMDL
MODEL 7
REMARK VINA RESULT:    -5.626      1.577      8.090
REMARK INTER + INTRA:         -10.834
REMARK INTER:                  -9.447
REMARK INTRA:                  -1.387
REMARK UNBOUND:                -1.096
REMARK SMILES OC[C@@H]1O[C@@H](O[C@@H]2[C@@H](O)[C@H](O)[C@@H](O[C@H]3[C@@H](O)[C@H](O)[C@@H](O)O[C@H]3CO)O[C@H]2CO)[C@H](O)[C@H](O)[C@H]1O
REMARK SMILES IDX 7 1 26 2 25 3 12 4 10 5 8 6 6 7 5 8 3 9 33 10 4 11 31 12
REMARK SMILES IDX 29 13 2 14 1 15 34 17 32 19 30 21 27 23 28 24 9 26 11 28
REMARK SMILES IDX 13 30 14 31 22 32 15 33 21 34 17 35 19 36 23 37 24 38 16 40
REMARK SMILES IDX 18 42 20 44
REMARK H PARENT 1 16 34 18 32 20 30 22 28 25 9 27 11 29 24 39 16 41 18 43
REMARK H PARENT 20 45
REMARK Flexibility Score: inf
ROOT
ATOM      1  C   UNL     1      35.378   4.902  44.193  1.00  0.00     0.184 C 
ATOM      2  C   UNL     1      35.870   5.686  45.438  1.00  0.00     0.178 C 
ATOM      3  O   UNL     1      37.153   6.286  45.279  1.00  0.00    -0.341 OA
ATOM      4  C   UNL     1      37.285   7.116  44.131  1.00  0.00     0.282 C 
ATOM      5  C   UNL     1      36.961   6.351  42.833  1.00  0.00     0.202 C 
ATOM      6  C   UNL     1      35.555   5.733  42.898  1.00  0.00     0.180 C 
ENDROOT
BRANCH   1   7
ATOM      7  O   UNL     1      36.086   3.665  44.146  1.00  0.00    -0.341 OA
BRANCH   7   8
ATOM      8  C   UNL     1      36.930   3.447  45.275  1.00  0.00     0.282 C 
ATOM      9  C   UNL     1      38.669   2.360  44.111  1.00  0.00     0.178 C 
ATOM     10  C   UNL     1      38.488   1.033  44.872  1.00  0.00     0.177 C 
ATOM     11  O   UNL     1      38.315   3.450  44.948  1.00  0.00    -0.341 OA
ATOM     12  C   UNL     1      37.003   0.897  45.260  1.00  0.00     0.179 C 
ATOM     13  C   UNL     1      36.523   2.152  46.016  1.00  0.00     0.202 C 
BRANCH   9  14
ATOM     14  C   UNL     1      40.116   2.578  43.636  1.00  0.00     0.191 C 
BRANCH  14  15
ATOM     15  O   UNL     1      40.125   3.314  42.438  1.00  0.00    -0.394 OA
ATOM     16  H   UNL     1      40.279   2.675  41.691  1.00  0.00     0.210 HD
ENDBRANCH  14  15
ENDBRANCH   9  14
BRANCH  10  17
ATOM     17  O   UNL     1      38.870  -0.046  44.055  1.00  0.00    -0.387 OA
ATOM     18  H   UNL     1      39.610  -0.517  44.521  1.00  0.00     0.211 HD
ENDBRANCH  10  17
BRANCH  12  19
ATOM     19  O   UNL     1      36.827  -0.243  46.061  1.00  0.00    -0.387 OA
ATOM     20  H   UNL     1      36.134  -0.798  45.617  1.00  0.00     0.211 HD
ENDBRANCH  12  19
BRANCH  13  21
ATOM     21  O   UNL     1      37.075   2.155  47.310  1.00  0.00    -0.385 OA
ATOM     22  H   UNL     1      37.054   3.095  47.627  1.00  0.00     0.211 HD
ENDBRANCH  13  21
ENDBRANCH   7   8
ENDBRANCH   1   7
BRANCH   2  23
ATOM     23  C   UNL     1      34.817   6.660  46.015  1.00  0.00     0.191 C 
BRANCH  23  24
ATOM     24  O   UNL     1      34.782   6.574  47.416  1.00  0.00    -0.394 OA
ATOM     25  H   UNL     1      35.696   6.800  47.738  1.00  0.00     0.210 HD
ENDBRANCH  23  24
ENDBRANCH   2  23
BRANCH   6  26
ATOM     26  O   UNL     1      34.575   6.741  42.855  1.00  0.00    -0.387 OA
ATOM     27  H   UNL     1      33.705   6.316  43.084  1.00  0.00     0.211 HD
ENDBRANCH   6  26
BRANCH   5  28
ATOM     28  O   UNL     1      37.923   5.343  42.649  1.00  0.00    -0.385 OA
ATOM     29  H   UNL     1      38.456   5.591  41.849  1.00  0.00     0.211 HD
ENDBRANCH   5  28
BRANCH   4  30
ATOM     30  O   UNL     1      36.485   8.283  44.266  1.00  0.00    -0.341 OA
BRANCH  30  31
ATOM     31  C   UNL     1      37.129   9.453  43.774  1.00  0.00     0.184 C 
ATOM     32  C   UNL     1      38.359   9.814  44.655  1.00  0.00     0.178 C 
ATOM     33  C   UNL     1      36.111  10.600  43.717  1.00  0.00     0.180 C 
ATOM     34  O   UNL     1      38.934  11.074  44.326  1.00  0.00    -0.342 OA
ATOM     35  C   UNL     1      36.820  11.921  43.377  1.00  0.00     0.201 C 
ATOM     36  C   UNL     1      38.015  12.159  44.319  1.00  0.00     0.279 C 
BRANCH  32  37
ATOM     37  C   UNL     1      38.141   9.636  46.176  1.00  0.00     0.191 C 
BRANCH  37  38
ATOM     38  O   UNL     1      38.933   8.587  46.667  1.00  0.00    -0.394 OA
ATOM     39  H   UNL     1      39.346   8.911  47.510  1.00  0.00     0.210 HD
ENDBRANCH  37  38
ENDBRANCH  32  37
BRANCH  33  40
ATOM     40  O   UNL     1      35.421  10.709  44.937  1.00  0.00    -0.387 OA
ATOM     41  H   UNL     1      34.618  10.128  44.866  1.00  0.00     0.211 HD
ENDBRANCH  33  40
BRANCH  35  42
ATOM     42  O   UNL     1      37.279  11.896  42.049  1.00  0.00    -0.385 OA
ATOM     43  H   UNL     1      38.250  11.689  42.083  1.00  0.00     0.211 HD
ENDBRANCH  35  42
BRANCH  36  44
ATOM     44  O   UNL     1      37.589  12.467  45.622  1.00  0.00    -0.366 OA
ATOM     45  H   UNL     1      37.091  13.322  45.565  1.00  0.00     0.213 HD
ENDBRANCH  36  44
ENDBRANCH  30  31
ENDBRANCH   4  30
TORSDOF 18
ENDMDL
MODEL 8
REMARK VINA RESULT:    -5.584      1.344      2.811
REMARK INTER + INTRA:         -10.760
REMARK INTER:                  -8.936
REMARK INTRA:                  -1.824
REMARK UNBOUND:                -1.096
REMARK SMILES OC[C@@H]1O[C@@H](O[C@@H]2[C@@H](O)[C@H](O)[C@@H](O[C@H]3[C@@H](O)[C@H](O)[C@@H](O)O[C@H]3CO)O[C@H]2CO)[C@H](O)[C@H](O)[C@H]1O
REMARK SMILES IDX 7 1 26 2 25 3 12 4 10 5 8 6 6 7 5 8 3 9 33 10 4 11 31 12
REMARK SMILES IDX 29 13 2 14 1 15 34 17 32 19 30 21 27 23 28 24 9 26 11 28
REMARK SMILES IDX 13 30 14 31 22 32 15 33 21 34 17 35 19 36 23 37 24 38 16 40
REMARK SMILES IDX 18 42 20 44
REMARK H PARENT 1 16 34 18 32 20 30 22 28 25 9 27 11 29 24 39 16 41 18 43
REMARK H PARENT 20 45
REMARK Flexibility Score: inf
ROOT
ATOM      1  C   UNL     1      38.077   7.345  44.462  1.00  0.00     0.184 C 
ATOM      2  C   UNL     1      36.929   6.460  43.906  1.00  0.00     0.178 C 
ATOM      3  O   UNL     1      37.320   5.603  42.836  1.00  0.00    -0.341 OA
ATOM      4  C   UNL     1      38.443   4.776  43.116  1.00  0.00     0.282 C 
ATOM      5  C   UNL     1      39.676   5.606  43.525  1.00  0.00     0.202 C 
ATOM      6  C   UNL     1      39.353   6.508  44.728  1.00  0.00     0.180 C 
ENDROOT
BRANCH   1   7
ATOM      7  O   UNL     1      38.303   8.403  43.533  1.00  0.00    -0.341 OA
BRANCH   7   8
ATOM      8  C   UNL     1      38.646   9.642  44.151  1.00  0.00     0.282 C 
ATOM      9  C   UNL     1      36.639   9.909  45.360  1.00  0.00     0.178 C 
ATOM     10  C   UNL     1      36.240  11.196  44.612  1.00  0.00     0.177 C 
ATOM     11  O   UNL     1      38.054   9.811  45.433  1.00  0.00    -0.341 OA
ATOM     12  C   UNL     1      36.805  11.118  43.181  1.00  0.00     0.179 C 
ATOM     13  C   UNL     1      38.319  10.826  43.212  1.00  0.00     0.202 C 
BRANCH   9  14
ATOM     14  C   UNL     1      36.087   9.861  46.795  1.00  0.00     0.191 C 
BRANCH  14  15
ATOM     15  O   UNL     1      34.898   9.111  46.829  1.00  0.00    -0.394 OA
ATOM     16  H   UNL     1      34.332   9.471  47.565  1.00  0.00     0.210 HD
ENDBRANCH  14  15
ENDBRANCH   9  14
BRANCH  10  17
ATOM     17  O   UNL     1      34.839  11.310  44.568  1.00  0.00    -0.387 OA
ATOM     18  H   UNL     1      34.622  11.948  43.838  1.00  0.00     0.211 HD
ENDBRANCH  10  17
BRANCH  12  19
ATOM     19  O   UNL     1      36.563  12.329  42.512  1.00  0.00    -0.387 OA
ATOM     20  H   UNL     1      36.372  12.098  41.567  1.00  0.00     0.211 HD
ENDBRANCH  12  19
BRANCH  13  21
ATOM     21  O   UNL     1      39.006  11.975  43.643  1.00  0.00    -0.385 OA
ATOM     22  H   UNL     1      39.965  11.830  43.434  1.00  0.00     0.211 HD
ENDBRANCH  13  21
ENDBRANCH   7   8
ENDBRANCH   1   7
BRANCH   2  23
ATOM     23  C   UNL     1      36.123   5.727  45.002  1.00  0.00     0.191 C 
BRANCH  23  24
ATOM     24  O   UNL     1      35.266   4.774  44.430  1.00  0.00    -0.394 OA
ATOM     25  H   UNL     1      34.338   5.067  44.633  1.00  0.00     0.210 HD
ENDBRANCH  23  24
ENDBRANCH   2  23
BRANCH   6  26
ATOM     26  O   UNL     1      39.168   5.733  45.885  1.00  0.00    -0.387 OA
ATOM     27  H   UNL     1      39.890   5.979  46.524  1.00  0.00     0.211 HD
ENDBRANCH   6  26
BRANCH   5  28
ATOM     28  O   UNL     1      40.080   6.388  42.430  1.00  0.00    -0.385 OA
ATOM     29  H   UNL     1      39.257   6.662  41.947  1.00  0.00     0.211 HD
ENDBRANCH   5  28
BRANCH   4  30
ATOM     30  O   UNL     1      38.114   3.805  44.099  1.00  0.00    -0.341 OA
BRANCH  30  31
ATOM     31  C   UNL     1      38.086   2.480  43.579  1.00  0.00     0.184 C 
ATOM     32  C   UNL     1      37.112   1.589  44.402  1.00  0.00     0.178 C 
ATOM     33  C   UNL     1      39.512   1.913  43.570  1.00  0.00     0.180 C 
ATOM     34  O   UNL     1      37.179   0.211  44.047  1.00  0.00    -0.342 OA
ATOM     35  C   UNL     1      39.486   0.422  43.199  1.00  0.00     0.201 C 
ATOM     36  C   UNL     1      38.487  -0.347  44.084  1.00  0.00     0.279 C 
BRANCH  32  37
ATOM     37  C   UNL     1      37.163   1.815  45.931  1.00  0.00     0.191 C 
BRANCH  37  38
ATOM     38  O   UNL     1      36.198   2.755  46.321  1.00  0.00    -0.394 OA
ATOM     39  H   UNL     1      35.666   2.973  45.511  1.00  0.00     0.210 HD
ENDBRANCH  37  38
ENDBRANCH  32  37
BRANCH  33  40
ATOM     40  O   UNL     1      40.125   2.101  44.822  1.00  0.00    -0.387 OA
ATOM     41  H   UNL     1      40.701   2.906  44.741  1.00  0.00     0.211 HD
ENDBRANCH  33  40
BRANCH  35  42
ATOM     42  O   UNL     1      39.121   0.264  41.851  1.00  0.00    -0.385 OA
ATOM     43  H   UNL     1      38.732   1.129  41.555  1.00  0.00     0.211 HD
ENDBRANCH  35  42
BRANCH  36  44
ATOM     44  O   UNL     1      38.950  -0.456  45.406  1.00  0.00    -0.366 OA
ATOM     45  H   UNL     1      39.176   0.461  45.707  1.00  0.00     0.213 HD
ENDBRANCH  36  44
ENDBRANCH  30  31
ENDBRANCH   4  30
TORSDOF 18
ENDMDL
MODEL 9
REMARK VINA RESULT:    -5.520      2.022      4.389
REMARK INTER + INTRA:         -10.650
REMARK INTER:                  -9.001
REMARK INTRA:                  -1.648
REMARK UNBOUND:                -1.096
REMARK SMILES OC[C@@H]1O[C@@H](O[C@@H]2[C@@H](O)[C@H](O)[C@@H](O[C@H]3[C@@H](O)[C@H](O)[C@@H](O)O[C@H]3CO)O[C@H]2CO)[C@H](O)[C@H](O)[C@H]1O
REMARK SMILES IDX 7 1 26 2 25 3 12 4 10 5 8 6 6 7 5 8 3 9 33 10 4 11 31 12
REMARK SMILES IDX 29 13 2 14 1 15 34 17 32 19 30 21 27 23 28 24 9 26 11 28
REMARK SMILES IDX 13 30 14 31 22 32 15 33 21 34 17 35 19 36 23 37 24 38 16 40
REMARK SMILES IDX 18 42 20 44
REMARK H PARENT 1 16 34 18 32 20 30 22 28 25 9 27 11 29 24 39 16 41 18 43
REMARK H PARENT 20 45
REMARK Flexibility Score: inf
ROOT
ATOM      1  C   UNL     1      38.140   3.856  43.969  1.00  0.00     0.184 C 
ATOM      2  C   UNL     1      39.334   3.264  44.765  1.00  0.00     0.178 C 
ATOM      3  O   UNL     1      39.007   2.865  46.094  1.00  0.00    -0.341 OA
ATOM      4  C   UNL     1      37.901   1.976  46.194  1.00  0.00     0.282 C 
ATOM      5  C   UNL     1      36.630   2.570  45.558  1.00  0.00     0.202 C 
ATOM      6  C   UNL     1      36.883   2.959  44.092  1.00  0.00     0.180 C 
ENDROOT
BRANCH   1   7
ATOM      7  O   UNL     1      37.912   5.182  44.442  1.00  0.00    -0.341 OA
BRANCH   7   8
ATOM      8  C   UNL     1      37.039   5.943  43.610  1.00  0.00     0.282 C 
ATOM      9  C   UNL     1      38.593   7.628  43.053  1.00  0.00     0.178 C 
ATOM     10  C   UNL     1      37.780   8.746  43.733  1.00  0.00     0.177 C 
ATOM     11  O   UNL     1      37.718   6.624  42.561  1.00  0.00    -0.341 OA
ATOM     12  C   UNL     1      37.013   8.132  44.921  1.00  0.00     0.179 C 
ATOM     13  C   UNL     1      36.187   6.914  44.461  1.00  0.00     0.202 C 
BRANCH   9  14
ATOM     14  C   UNL     1      39.436   8.141  41.874  1.00  0.00     0.191 C 
BRANCH  14  15
ATOM     15  O   UNL     1      38.684   9.045  41.101  1.00  0.00    -0.394 OA
ATOM     16  H   UNL     1      39.164   9.181  40.240  1.00  0.00     0.210 HD
ENDBRANCH  14  15
ENDBRANCH   9  14
BRANCH  10  17
ATOM     17  O   UNL     1      38.643   9.757  44.192  1.00  0.00    -0.387 OA
ATOM     18  H   UNL     1      39.565   9.389  44.161  1.00  0.00     0.211 HD
ENDBRANCH  10  17
BRANCH  12  19
ATOM     19  O   UNL     1      36.167   9.100  45.487  1.00  0.00    -0.387 OA
ATOM     20  H   UNL     1      35.314   8.641  45.699  1.00  0.00     0.211 HD
ENDBRANCH  12  19
BRANCH  13  21
ATOM     21  O   UNL     1      35.084   7.356  43.709  1.00  0.00    -0.385 OA
ATOM     22  H   UNL     1      34.314   6.787  43.968  1.00  0.00     0.211 HD
ENDBRANCH  13  21
ENDBRANCH   7   8
ENDBRANCH   1   7
BRANCH   2  23
ATOM     23  C   UNL     1      40.125   2.186  43.990  1.00  0.00     0.191 C 
BRANCH  23  24
ATOM     24  O   UNL     1      40.125   2.468  42.615  1.00  0.00    -0.394 OA
ATOM     25  H   UNL     1      39.613   1.737  42.175  1.00  0.00     0.210 HD
ENDBRANCH  23  24
ENDBRANCH   2  23
BRANCH   6  26
ATOM     26  O   UNL     1      37.053   1.809  43.302  1.00  0.00    -0.387 OA
ATOM     27  H   UNL     1      36.160   1.381  43.207  1.00  0.00     0.211 HD
ENDBRANCH   6  26
BRANCH   5  28
ATOM     28  O   UNL     1      36.239   3.700  46.296  1.00  0.00    -0.385 OA
ATOM     29  H   UNL     1      35.975   4.399  45.642  1.00  0.00     0.211 HD
ENDBRANCH   5  28
BRANCH   4  30
ATOM     30  O   UNL     1      38.227   0.711  45.633  1.00  0.00    -0.341 OA
BRANCH  30  31
ATOM     31  C   UNL     1      37.751  -0.379  46.415  1.00  0.00     0.184 C 
ATOM     32  C   UNL     1      38.416  -0.376  47.822  1.00  0.00     0.178 C 
ATOM     33  C   UNL     1      38.013  -1.690  45.661  1.00  0.00     0.180 C 
ATOM     34  O   UNL     1      38.122  -1.543  48.583  1.00  0.00    -0.342 OA
ATOM     35  C   UNL     1      37.690  -2.892  46.562  1.00  0.00     0.201 C 
ATOM     36  C   UNL     1      38.407  -2.769  47.920  1.00  0.00     0.279 C 
BRANCH  32  37
ATOM     37  C   UNL     1      39.922  -0.024  47.826  1.00  0.00     0.191 C 
BRANCH  37  38
ATOM     38  O   UNL     1      40.122   1.275  48.316  1.00  0.00    -0.394 OA
ATOM     39  H   UNL     1      39.752   1.293  49.237  1.00  0.00     0.210 HD
ENDBRANCH  37  38
ENDBRANCH  32  37
BRANCH  33  40
ATOM     40  O   UNL     1      39.347  -1.747  45.220  1.00  0.00    -0.387 OA
ATOM     41  H   UNL     1      39.911  -1.420  45.970  1.00  0.00     0.211 HD
ENDBRANCH  33  40
BRANCH  35  42
ATOM     42  O   UNL     1      36.304  -2.975  46.781  1.00  0.00    -0.385 OA
ATOM     43  H   UNL     1      35.911  -3.412  45.981  1.00  0.00     0.211 HD
ENDBRANCH  35  42
BRANCH  36  44
ATOM     44  O   UNL     1      39.793  -2.959  47.788  1.00  0.00    -0.366 OA
ATOM     45  H   UNL     1      40.197  -2.738  48.666  1.00  0.00     0.213 HD
ENDBRANCH  36  44
ENDBRANCH  30  31
ENDBRANCH   4  30
TORSDOF 18
ENDMDL
