MODEL 1
REMARK VINA RESULT:    -4.978      0.000      0.000
REMARK INTER + INTRA:          -6.275
REMARK INTER:                  -5.851
REMARK INTRA:                  -0.424
REMARK UNBOUND:                -0.424
REMARK SMILES C=C[C@@]1(C)CC[C@@H](C(=C)C)C[C@@H]1C(=C)C
REMARK SMILES IDX 7 1 6 2 5 3 3 4 12 5 11 6 4 7 8 8 10 9 9 10 13 11 14 12
REMARK SMILES IDX 15 13 2 14 1 15
REMARK H PARENT
REMARK Flexibility Score: inf
ROOT
ATOM      1  C   UNL     1       5.019  -2.630  17.457  1.00  0.00     0.015 C 
ATOM      2  C   UNL     1       4.904  -2.424  15.939  1.00  0.00     0.009 C 
ATOM      3  C   UNL     1       3.496  -2.764  15.424  1.00  0.00     0.012 C 
ATOM      4  C   UNL     1       2.369  -1.967  16.143  1.00  0.00    -0.008 C 
ATOM      5  C   UNL     1       2.501  -2.071  17.713  1.00  0.00     0.024 C 
ATOM      6  C   UNL     1       3.945  -1.827  18.216  1.00  0.00     0.017 C 
ATOM      7  C   UNL     1       1.005  -2.517  15.656  1.00  0.00     0.016 C 
ENDROOT
BRANCH   1   8
ATOM      8  C   UNL     1       6.416  -2.272  17.952  1.00  0.00    -0.077 C 
ATOM      9  C   UNL     1       7.648  -2.603  17.145  1.00  0.00     0.039 C 
ATOM     10  C   UNL     1       6.575  -1.641  19.128  1.00  0.00     0.008 C 
ENDBRANCH   1   8
BRANCH   5  11
ATOM     11  C   UNL     1       1.845  -3.297  18.372  1.00  0.00    -0.077 C 
ATOM     12  C   UNL     1       2.392  -4.525  18.357  1.00  0.00     0.008 C 
ATOM     13  C   UNL     1       0.517  -3.145  19.078  1.00  0.00     0.039 C 
ENDBRANCH   5  11
BRANCH   4  14
ATOM     14  C   UNL     1       2.466  -0.500  15.707  1.00  0.00    -0.028 C 
ATOM     15  C   UNL     1       2.653  -0.116  14.436  1.00  0.00     0.004 C 
ENDBRANCH   4  14
TORSDOF 3
ENDMDL
MODEL 2
REMARK VINA RESULT:    -4.961      2.142      3.870
REMARK INTER + INTRA:          -6.255
REMARK INTER:                  -5.838
REMARK INTRA:                  -0.417
REMARK UNBOUND:                -0.424
REMARK SMILES C=C[C@@]1(C)CC[C@@H](C(=C)C)C[C@@H]1C(=C)C
REMARK SMILES IDX 7 1 6 2 5 3 3 4 12 5 11 6 4 7 8 8 10 9 9 10 13 11 14 12
REMARK SMILES IDX 15 13 2 14 1 15
REMARK H PARENT
REMARK Flexibility Score: inf
ROOT
ATOM      1  C   UNL     1       3.264  -2.004  14.896  1.00  0.00     0.015 C 
ATOM      2  C   UNL     1       2.790  -0.544  14.950  1.00  0.00     0.009 C 
ATOM      3  C   UNL     1       1.446  -0.355  14.228  1.00  0.00     0.012 C 
ATOM      4  C   UNL     1       0.322  -1.286  14.769  1.00  0.00    -0.008 C 
ATOM      5  C   UNL     1       0.796  -2.791  14.822  1.00  0.00     0.024 C 
ATOM      6  C   UNL     1       2.197  -2.962  15.458  1.00  0.00     0.017 C 
ATOM      7  C   UNL     1      -0.920  -1.120  13.859  1.00  0.00     0.016 C 
ENDROOT
BRANCH   1   8
ATOM      8  C   UNL     1       4.590  -2.175  15.630  1.00  0.00    -0.077 C 
ATOM      9  C   UNL     1       5.911  -1.972  14.929  1.00  0.00     0.039 C 
ATOM     10  C   UNL     1       4.603  -2.506  16.932  1.00  0.00     0.008 C 
ENDBRANCH   1   8
BRANCH   5  11
ATOM     11  C   UNL     1       0.633  -3.603  13.525  1.00  0.00    -0.077 C 
ATOM     12  C   UNL     1      -0.292  -4.566  13.367  1.00  0.00     0.008 C 
ATOM     13  C   UNL     1       1.546  -3.328  12.352  1.00  0.00     0.039 C 
ENDBRANCH   5  11
BRANCH   4  14
ATOM     14  C   UNL     1      -0.060  -0.809  16.176  1.00  0.00    -0.028 C 
ATOM     15  C   UNL     1      -1.132  -0.046  16.434  1.00  0.00     0.004 C 
ENDBRANCH   4  14
TORSDOF 3
ENDMDL
MODEL 3
REMARK VINA RESULT:    -4.924      1.888      4.265
REMARK INTER + INTRA:          -6.211
REMARK INTER:                  -5.745
REMARK INTRA:                  -0.466
REMARK UNBOUND:                -0.424
REMARK SMILES C=C[C@@]1(C)CC[C@@H](C(=C)C)C[C@@H]1C(=C)C
REMARK SMILES IDX 7 1 6 2 5 3 3 4 12 5 11 6 4 7 8 8 10 9 9 10 13 11 14 12
REMARK SMILES IDX 15 13 2 14 1 15
REMARK H PARENT
REMARK Flexibility Score: inf
ROOT
ATOM      1  C   UNL     1       3.136  -3.061  17.297  1.00  0.00     0.015 C 
ATOM      2  C   UNL     1       1.660  -3.468  17.172  1.00  0.00     0.009 C 
ATOM      3  C   UNL     1       1.243  -4.445  18.282  1.00  0.00     0.012 C 
ATOM      4  C   UNL     1       1.510  -3.897  19.715  1.00  0.00    -0.008 C 
ATOM      5  C   UNL     1       2.993  -3.377  19.865  1.00  0.00     0.024 C 
ATOM      6  C   UNL     1       3.441  -2.475  18.689  1.00  0.00     0.017 C 
ATOM      7  C   UNL     1       1.206  -5.029  20.727  1.00  0.00     0.016 C 
ENDROOT
BRANCH   1   8
ATOM      8  C   UNL     1       3.527  -2.079  16.197  1.00  0.00    -0.077 C 
ATOM      9  C   UNL     1       2.605  -0.961  15.774  1.00  0.00     0.039 C 
ATOM     10  C   UNL     1       4.716  -2.192  15.583  1.00  0.00     0.008 C 
ENDBRANCH   1   8
BRANCH   5  11
ATOM     11  C   UNL     1       4.051  -4.432  20.236  1.00  0.00    -0.077 C 
ATOM     12  C   UNL     1       4.625  -5.251  19.337  1.00  0.00     0.008 C 
ATOM     13  C   UNL     1       4.484  -4.581  21.676  1.00  0.00     0.039 C 
ENDBRANCH   5  11
BRANCH   4  14
ATOM     14  C   UNL     1       0.526  -2.752  19.982  1.00  0.00    -0.028 C 
ATOM     15  C   UNL     1       0.118  -2.397  21.209  1.00  0.00     0.004 C 
ENDBRANCH   4  14
TORSDOF 3
ENDMDL
MODEL 4
REMARK VINA RESULT:    -4.884      2.550      5.661
REMARK INTER + INTRA:          -6.165
REMARK INTER:                  -5.732
REMARK INTRA:                  -0.433
REMARK UNBOUND:                -0.424
REMARK SMILES C=C[C@@]1(C)CC[C@@H](C(=C)C)C[C@@H]1C(=C)C
REMARK SMILES IDX 7 1 6 2 5 3 3 4 12 5 11 6 4 7 8 8 10 9 9 10 13 11 14 12
REMARK SMILES IDX 15 13 2 14 1 15
REMARK H PARENT
REMARK Flexibility Score: inf
ROOT
ATOM      1  C   UNL     1      -0.125  -3.390  13.888  1.00  0.00     0.015 C 
ATOM      2  C   UNL     1      -0.482  -1.970  13.423  1.00  0.00     0.009 C 
ATOM      3  C   UNL     1       0.260  -0.901  14.240  1.00  0.00     0.012 C 
ATOM      4  C   UNL     1       1.807  -1.079  14.225  1.00  0.00    -0.008 C 
ATOM      5  C   UNL     1       2.221  -2.554  14.605  1.00  0.00     0.024 C 
ATOM      6  C   UNL     1       1.396  -3.627  13.853  1.00  0.00     0.017 C 
ATOM      7  C   UNL     1       2.420  -0.052  15.209  1.00  0.00     0.016 C 
ENDROOT
BRANCH   1   8
ATOM      8  C   UNL     1      -0.858  -4.437  13.056  1.00  0.00    -0.077 C 
ATOM      9  C   UNL     1      -0.197  -5.735  12.661  1.00  0.00     0.039 C 
ATOM     10  C   UNL     1      -2.124  -4.221  12.662  1.00  0.00     0.008 C 
ENDBRANCH   1   8
BRANCH   5  11
ATOM     11  C   UNL     1       2.354  -2.858  16.108  1.00  0.00    -0.077 C 
ATOM     12  C   UNL     1       1.313  -3.200  16.888  1.00  0.00     0.008 C 
ATOM     13  C   UNL     1       3.710  -2.774  16.770  1.00  0.00     0.039 C 
ENDBRANCH   5  11
BRANCH   4  14
ATOM     14  C   UNL     1       2.314  -0.741  12.817  1.00  0.00    -0.028 C 
ATOM     15  C   UNL     1       3.469  -1.203  12.315  1.00  0.00     0.004 C 
ENDBRANCH   4  14
TORSDOF 3
ENDMDL
MODEL 5
REMARK VINA RESULT:    -4.842      1.343      4.741
REMARK INTER + INTRA:          -6.115
REMARK INTER:                  -5.740
REMARK INTRA:                  -0.376
REMARK UNBOUND:                -0.424
REMARK SMILES C=C[C@@]1(C)CC[C@@H](C(=C)C)C[C@@H]1C(=C)C
REMARK SMILES IDX 7 1 6 2 5 3 3 4 12 5 11 6 4 7 8 8 10 9 9 10 13 11 14 12
REMARK SMILES IDX 15 13 2 14 1 15
REMARK H PARENT
REMARK Flexibility Score: inf
ROOT
ATOM      1  C   UNL     1       1.064  -3.862  18.689  1.00  0.00     0.015 C 
ATOM      2  C   UNL     1       2.496  -4.417  18.750  1.00  0.00     0.009 C 
ATOM      3  C   UNL     1       3.319  -4.007  17.519  1.00  0.00     0.012 C 
ATOM      4  C   UNL     1       3.368  -2.466  17.299  1.00  0.00    -0.008 C 
ATOM      5  C   UNL     1       1.922  -1.834  17.322  1.00  0.00     0.024 C 
ATOM      6  C   UNL     1       1.062  -2.333  18.510  1.00  0.00     0.017 C 
ATOM      7  C   UNL     1       4.078  -2.196  15.950  1.00  0.00     0.016 C 
ENDROOT
BRANCH   1   8
ATOM      8  C   UNL     1       0.269  -4.267  19.925  1.00  0.00    -0.077 C 
ATOM      9  C   UNL     1      -0.224  -3.240  20.916  1.00  0.00     0.039 C 
ATOM     10  C   UNL     1      -0.016  -5.560  20.152  1.00  0.00     0.008 C 
ENDBRANCH   1   8
BRANCH   5  11
ATOM     11  C   UNL     1       1.152  -1.846  15.990  1.00  0.00    -0.077 C 
ATOM     12  C   UNL     1       0.686  -0.733  15.396  1.00  0.00     0.008 C 
ATOM     13  C   UNL     1       0.887  -3.160  15.292  1.00  0.00     0.039 C 
ENDBRANCH   5  11
BRANCH   4  14
ATOM     14  C   UNL     1       4.225  -1.850  18.413  1.00  0.00    -0.028 C 
ATOM     15  C   UNL     1       5.494  -2.210  18.655  1.00  0.00     0.004 C 
ENDBRANCH   4  14
TORSDOF 3
ENDMDL
MODEL 6
REMARK VINA RESULT:    -4.838      1.729      5.037
REMARK INTER + INTRA:          -6.111
REMARK INTER:                  -5.688
REMARK INTRA:                  -0.422
REMARK UNBOUND:                -0.424
REMARK SMILES C=C[C@@]1(C)CC[C@@H](C(=C)C)C[C@@H]1C(=C)C
REMARK SMILES IDX 7 1 6 2 5 3 3 4 12 5 11 6 4 7 8 8 10 9 9 10 13 11 14 12
REMARK SMILES IDX 15 13 2 14 1 15
REMARK H PARENT
REMARK Flexibility Score: inf
ROOT
ATOM      1  C   UNL     1       0.439  -1.799  14.687  1.00  0.00     0.015 C 
ATOM      2  C   UNL     1       1.499  -0.706  14.476  1.00  0.00     0.009 C 
ATOM      3  C   UNL     1       2.374  -0.513  15.724  1.00  0.00     0.012 C 
ATOM      4  C   UNL     1       3.067  -1.824  16.198  1.00  0.00    -0.008 C 
ATOM      5  C   UNL     1       2.030  -3.006  16.339  1.00  0.00     0.024 C 
ATOM      6  C   UNL     1       1.083  -3.129  15.121  1.00  0.00     0.017 C 
ATOM      7  C   UNL     1       3.776  -1.534  17.544  1.00  0.00     0.016 C 
ENDROOT
BRANCH   1   8
ATOM      8  C   UNL     1      -0.408  -1.987  13.434  1.00  0.00    -0.077 C 
ATOM      9  C   UNL     1      -1.858  -1.571  13.392  1.00  0.00     0.039 C 
ATOM     10  C   UNL     1       0.132  -2.528  12.329  1.00  0.00     0.008 C 
ENDBRANCH   1   8
BRANCH   5  11
ATOM     11  C   UNL     1       1.281  -3.098  17.681  1.00  0.00    -0.077 C 
ATOM     12  C   UNL     1       0.447  -2.143  18.128  1.00  0.00     0.008 C 
ATOM     13  C   UNL     1       1.476  -4.309  18.563  1.00  0.00     0.039 C 
ENDBRANCH   5  11
BRANCH   4  14
ATOM     14  C   UNL     1       4.144  -2.195  15.170  1.00  0.00    -0.028 C 
ATOM     15  C   UNL     1       5.459  -2.153  15.428  1.00  0.00     0.004 C 
ENDBRANCH   4  14
TORSDOF 3
ENDMDL
MODEL 7
REMARK VINA RESULT:    -4.815      1.293      4.319
REMARK INTER + INTRA:          -6.084
REMARK INTER:                  -5.887
REMARK INTRA:                  -0.197
REMARK UNBOUND:                -0.424
REMARK SMILES C=C[C@@]1(C)CC[C@@H](C(=C)C)C[C@@H]1C(=C)C
REMARK SMILES IDX 7 1 6 2 5 3 3 4 12 5 11 6 4 7 8 8 10 9 9 10 13 11 14 12
REMARK SMILES IDX 15 13 2 14 1 15
REMARK H PARENT
REMARK Flexibility Score: inf
ROOT
ATOM      1  C   UNL     1       1.563  -2.645  18.272  1.00  0.00     0.015 C 
ATOM      2  C   UNL     1       0.829  -1.843  17.187  1.00  0.00     0.009 C 
ATOM      3  C   UNL     1       1.812  -1.129  16.245  1.00  0.00     0.012 C 
ATOM      4  C   UNL     1       2.833  -2.095  15.576  1.00  0.00    -0.008 C 
ATOM      5  C   UNL     1       3.547  -3.010  16.646  1.00  0.00     0.024 C 
ATOM      6  C   UNL     1       2.559  -3.644  17.656  1.00  0.00     0.017 C 
ATOM      7  C   UNL     1       3.860  -1.241  14.792  1.00  0.00     0.016 C 
ENDROOT
BRANCH   1   8
ATOM      8  C   UNL     1       0.573  -3.358  19.187  1.00  0.00    -0.077 C 
ATOM      9  C   UNL     1       0.535  -4.864  19.286  1.00  0.00     0.039 C 
ATOM     10  C   UNL     1      -0.289  -2.648  19.934  1.00  0.00     0.008 C 
ENDBRANCH   1   8
BRANCH   5  11
ATOM     11  C   UNL     1       4.791  -2.415  17.330  1.00  0.00    -0.077 C 
ATOM     12  C   UNL     1       4.760  -1.837  18.544  1.00  0.00     0.008 C 
ATOM     13  C   UNL     1       6.127  -2.465  16.626  1.00  0.00     0.039 C 
ENDBRANCH   5  11
BRANCH   4  14
ATOM     14  C   UNL     1       2.077  -2.966  14.565  1.00  0.00    -0.028 C 
ATOM     15  C   UNL     1       1.370  -2.467  13.540  1.00  0.00     0.004 C 
ENDBRANCH   4  14
TORSDOF 3
ENDMDL
MODEL 8
REMARK VINA RESULT:    -4.717      2.827      5.099
REMARK INTER + INTRA:          -5.968
REMARK INTER:                  -5.496
REMARK INTRA:                  -0.472
REMARK UNBOUND:                -0.424
REMARK SMILES C=C[C@@]1(C)CC[C@@H](C(=C)C)C[C@@H]1C(=C)C
REMARK SMILES IDX 7 1 6 2 5 3 3 4 12 5 11 6 4 7 8 8 10 9 9 10 13 11 14 12
REMARK SMILES IDX 15 13 2 14 1 15
REMARK H PARENT
REMARK Flexibility Score: inf
ROOT
ATOM      1  C   UNL     1       4.464  -2.959  19.023  1.00  0.00     0.015 C 
ATOM      2  C   UNL     1       5.309  -2.815  20.298  1.00  0.00     0.009 C 
ATOM      3  C   UNL     1       4.502  -3.167  21.558  1.00  0.00     0.012 C 
ATOM      4  C   UNL     1       3.875  -4.592  21.508  1.00  0.00    -0.008 C 
ATOM      5  C   UNL     1       3.073  -4.822  20.168  1.00  0.00     0.024 C 
ATOM      6  C   UNL     1       3.854  -4.369  18.909  1.00  0.00     0.017 C 
ATOM      7  C   UNL     1       2.961  -4.759  22.746  1.00  0.00     0.016 C 
ENDROOT
BRANCH   1   8
ATOM      8  C   UNL     1       5.286  -2.621  17.783  1.00  0.00    -0.077 C 
ATOM      9  C   UNL     1       4.628  -2.336  16.454  1.00  0.00     0.039 C 
ATOM     10  C   UNL     1       6.626  -2.564  17.856  1.00  0.00     0.008 C 
ENDBRANCH   1   8
BRANCH   5  11
ATOM     11  C   UNL     1       1.610  -4.345  20.159  1.00  0.00    -0.077 C 
ATOM     12  C   UNL     1       1.256  -3.050  20.082  1.00  0.00     0.008 C 
ATOM     13  C   UNL     1       0.493  -5.359  20.243  1.00  0.00     0.039 C 
ENDBRANCH   5  11
BRANCH   4  14
ATOM     14  C   UNL     1       5.010  -5.618  21.620  1.00  0.00    -0.028 C 
ATOM     15  C   UNL     1       5.535  -6.016  22.788  1.00  0.00     0.004 C 
ENDBRANCH   4  14
TORSDOF 3
ENDMDL
MODEL 9
REMARK VINA RESULT:    -4.674      2.854      4.445
REMARK INTER + INTRA:          -5.918
REMARK INTER:                  -5.450
REMARK INTRA:                  -0.468
REMARK UNBOUND:                -0.424
REMARK SMILES C=C[C@@]1(C)CC[C@@H](C(=C)C)C[C@@H]1C(=C)C
REMARK SMILES IDX 7 1 6 2 5 3 3 4 12 5 11 6 4 7 8 8 10 9 9 10 13 11 14 12
REMARK SMILES IDX 15 13 2 14 1 15
REMARK H PARENT
REMARK Flexibility Score: inf
ROOT
ATOM      1  C   UNL     1       3.556  -5.148  21.083  1.00  0.00     0.015 C 
ATOM      2  C   UNL     1       4.714  -5.251  20.079  1.00  0.00     0.009 C 
ATOM      3  C   UNL     1       4.319  -4.706  18.697  1.00  0.00     0.012 C 
ATOM      4  C   UNL     1       3.798  -3.240  18.741  1.00  0.00    -0.008 C 
ATOM      5  C   UNL     1       2.668  -3.061  19.829  1.00  0.00     0.024 C 
ATOM      6  C   UNL     1       3.032  -3.704  21.190  1.00  0.00     0.017 C 
ATOM      7  C   UNL     1       3.281  -2.870  17.329  1.00  0.00     0.016 C 
ENDROOT
BRANCH   1   8
ATOM      8  C   UNL     1       3.972  -5.679  22.451  1.00  0.00    -0.077 C 
ATOM      9  C   UNL     1       5.245  -5.219  23.122  1.00  0.00     0.039 C 
ATOM     10  C   UNL     1       3.200  -6.570  23.093  1.00  0.00     0.008 C 
ENDBRANCH   1   8
BRANCH   5  11
ATOM     11  C   UNL     1       1.234  -3.396  19.383  1.00  0.00    -0.077 C 
ATOM     12  C   UNL     1       0.799  -4.651  19.173  1.00  0.00     0.008 C 
ATOM     13  C   UNL     1       0.241  -2.279  19.158  1.00  0.00     0.039 C 
ENDBRANCH   5  11
BRANCH   4  14
ATOM     14  C   UNL     1       4.982  -2.320  19.063  1.00  0.00    -0.028 C 
ATOM     15  C   UNL     1       6.157  -2.372  18.418  1.00  0.00     0.004 C 
ENDBRANCH   4  14
TORSDOF 3
ENDMDL
