MODEL 1
REMARK VINA RESULT:    -5.446      0.000      0.000
REMARK INTER + INTRA:          -7.791
REMARK INTER:                  -7.356
REMARK INTRA:                  -0.434
REMARK UNBOUND:                -0.434
REMARK SMILES CCCCCCC=CC(=O)[O-]
REMARK SMILES IDX 5 1 6 2 7 3 8 4 9 5 10 6 11 7 4 8 3 9 2 10 1 11
REMARK H PARENT
REMARK Flexibility Score: inf
ROOT
ATOM      1  C   UNL     1     128.313 126.702 123.984  1.00  0.00     0.004 C 
ENDROOT
BRANCH   1   2
ATOM      2  C   UNL     1     129.731 127.294 123.996  1.00  0.00     0.027 C 
BRANCH   2   3
ATOM      3  C   UNL     1     130.789 126.239 124.194  1.00  0.00    -0.025 C 
ATOM      4  C   UNL     1     131.437 125.974 125.341  1.00  0.00     0.020 C 
BRANCH   4   5
ATOM      5  C   UNL     1     131.283 126.687 126.626  1.00  0.00     0.064 C 
ATOM      6  O   UNL     1     132.128 127.527 127.031  1.00  0.00    -0.545 OA
ATOM      7  O   UNL     1     130.183 126.400 127.423  1.00  0.00    -0.545 OA
ENDBRANCH   4   5
ENDBRANCH   2   3
ENDBRANCH   1   2
BRANCH   1   8
ATOM      8  C   UNL     1     127.636 126.853 122.613  1.00  0.00     0.000 C 
BRANCH   8   9
ATOM      9  C   UNL     1     128.069 128.154 121.927  1.00  0.00    -0.000 C 
BRANCH   9  10
ATOM     10  C   UNL     1     126.933 129.185 121.938  1.00  0.00    -0.003 C 
ATOM     11  C   UNL     1     125.596 128.527 122.266  1.00  0.00     0.004 C 
ENDBRANCH   9  10
ENDBRANCH   8   9
ENDBRANCH   1   8
TORSDOF 6
ENDMDL
MODEL 2
REMARK VINA RESULT:    -5.383      1.286      1.657
REMARK INTER + INTRA:          -7.706
REMARK INTER:                  -7.213
REMARK INTRA:                  -0.492
REMARK UNBOUND:                -0.434
REMARK SMILES CCCCCCC=CC(=O)[O-]
REMARK SMILES IDX 5 1 6 2 7 3 8 4 9 5 10 6 11 7 4 8 3 9 2 10 1 11
REMARK H PARENT
REMARK Flexibility Score: inf
ROOT
ATOM      1  C   UNL     1     129.329 127.919 123.621  1.00  0.00     0.004 C 
ENDROOT
BRANCH   1   2
ATOM      2  C   UNL     1     129.347 128.653 124.972  1.00  0.00     0.027 C 
BRANCH   2   3
ATOM      3  C   UNL     1     129.049 127.732 126.127  1.00  0.00    -0.025 C 
ATOM      4  C   UNL     1     129.956 127.092 126.882  1.00  0.00     0.020 C 
BRANCH   4   5
ATOM      5  C   UNL     1     131.424 127.118 126.710  1.00  0.00     0.064 C 
ATOM      6  O   UNL     1     132.172 127.814 127.446  1.00  0.00    -0.545 OA
ATOM      7  O   UNL     1     131.992 126.372 125.686  1.00  0.00    -0.545 OA
ENDBRANCH   4   5
ENDBRANCH   2   3
ENDBRANCH   1   2
BRANCH   1   8
ATOM      8  C   UNL     1     128.088 127.027 123.466  1.00  0.00     0.000 C 
BRANCH   8   9
ATOM      9  C   UNL     1     127.477 127.175 122.067  1.00  0.00    -0.000 C 
BRANCH   9  10
ATOM     10  C   UNL     1     127.215 128.649 121.735  1.00  0.00    -0.003 C 
ATOM     11  C   UNL     1     125.776 129.039 122.061  1.00  0.00     0.004 C 
ENDBRANCH   9  10
ENDBRANCH   8   9
ENDBRANCH   1   8
TORSDOF 6
ENDMDL
MODEL 3
REMARK VINA RESULT:    -5.230      1.502      2.156
REMARK INTER + INTRA:          -7.499
REMARK INTER:                  -7.049
REMARK INTRA:                  -0.450
REMARK UNBOUND:                -0.434
REMARK SMILES CCCCCCC=CC(=O)[O-]
REMARK SMILES IDX 5 1 6 2 7 3 8 4 9 5 10 6 11 7 4 8 3 9 2 10 1 11
REMARK H PARENT
REMARK Flexibility Score: inf
ROOT
ATOM      1  C   UNL     1     129.770 127.291 124.299  1.00  0.00     0.004 C 
ENDROOT
BRANCH   1   2
ATOM      2  C   UNL     1     130.831 126.185 124.414  1.00  0.00     0.027 C 
BRANCH   2   3
ATOM      3  C   UNL     1     131.518 126.187 125.755  1.00  0.00    -0.025 C 
ATOM      4  C   UNL     1     131.167 125.454 126.825  1.00  0.00     0.020 C 
BRANCH   4   5
ATOM      5  C   UNL     1     130.014 124.534 126.923  1.00  0.00     0.064 C 
ATOM      6  O   UNL     1     130.148 123.284 126.849  1.00  0.00    -0.545 OA
ATOM      7  O   UNL     1     128.742 125.067 127.075  1.00  0.00    -0.545 OA
ENDBRANCH   4   5
ENDBRANCH   2   3
ENDBRANCH   1   2
BRANCH   1   8
ATOM      8  C   UNL     1     128.383 126.725 123.959  1.00  0.00     0.000 C 
BRANCH   8   9
ATOM      9  C   UNL     1     128.103 126.822 122.455  1.00  0.00    -0.000 C 
BRANCH   9  10
ATOM     10  C   UNL     1     128.131 128.281 121.984  1.00  0.00    -0.003 C 
ATOM     11  C   UNL     1     126.728 128.882 121.968  1.00  0.00     0.004 C 
ENDBRANCH   9  10
ENDBRANCH   8   9
ENDBRANCH   1   8
TORSDOF 6
ENDMDL
MODEL 4
REMARK VINA RESULT:    -5.115      2.822      5.038
REMARK INTER + INTRA:          -7.343
REMARK INTER:                  -6.743
REMARK INTRA:                  -0.600
REMARK UNBOUND:                -0.434
REMARK SMILES CCCCCCC=CC(=O)[O-]
REMARK SMILES IDX 5 1 6 2 7 3 8 4 9 5 10 6 11 7 4 8 3 9 2 10 1 11
REMARK H PARENT
REMARK Flexibility Score: inf
ROOT
ATOM      1  C   UNL     1     130.836 125.745 127.303  1.00  0.00     0.004 C 
ENDROOT
BRANCH   1   2
ATOM      2  C   UNL     1     131.628 126.462 126.198  1.00  0.00     0.027 C 
BRANCH   2   3
ATOM      3  C   UNL     1     131.251 125.982 124.820  1.00  0.00    -0.025 C 
ATOM      4  C   UNL     1     130.241 126.450 124.069  1.00  0.00     0.020 C 
BRANCH   4   5
ATOM      5  C   UNL     1     129.266 127.493 124.452  1.00  0.00     0.064 C 
ATOM      6  O   UNL     1     128.313 127.261 125.240  1.00  0.00    -0.545 OA
ATOM      7  O   UNL     1     129.393 128.762 123.903  1.00  0.00    -0.545 OA
ENDBRANCH   4   5
ENDBRANCH   2   3
ENDBRANCH   1   2
BRANCH   1   8
ATOM      8  C   UNL     1     130.482 124.302 126.914  1.00  0.00     0.000 C 
BRANCH   8   9
ATOM      9  C   UNL     1     129.054 123.951 127.349  1.00  0.00    -0.000 C 
BRANCH   9  10
ATOM     10  C   UNL     1     128.373 125.149 128.021  1.00  0.00    -0.003 C 
ATOM     11  C   UNL     1     127.445 124.696 129.145  1.00  0.00     0.004 C 
ENDBRANCH   9  10
ENDBRANCH   8   9
ENDBRANCH   1   8
TORSDOF 6
ENDMDL
MODEL 5
REMARK VINA RESULT:    -5.094      3.216      5.670
REMARK INTER + INTRA:          -7.315
REMARK INTER:                  -6.755
REMARK INTRA:                  -0.560
REMARK UNBOUND:                -0.434
REMARK SMILES CCCCCCC=CC(=O)[O-]
REMARK SMILES IDX 5 1 6 2 7 3 8 4 9 5 10 6 11 7 4 8 3 9 2 10 1 11
REMARK H PARENT
REMARK Flexibility Score: inf
ROOT
ATOM      1  C   UNL     1     129.197 128.348 126.054  1.00  0.00     0.004 C 
ENDROOT
BRANCH   1   2
ATOM      2  C   UNL     1     129.331 128.148 124.537  1.00  0.00     0.027 C 
BRANCH   2   3
ATOM      3  C   UNL     1     128.664 126.881 124.065  1.00  0.00    -0.025 C 
ATOM      4  C   UNL     1     127.803 126.776 123.040  1.00  0.00     0.020 C 
BRANCH   4   5
ATOM      5  C   UNL     1     127.297 127.878 122.195  1.00  0.00     0.064 C 
ATOM      6  O   UNL     1     126.140 128.353 122.337  1.00  0.00    -0.545 OA
ATOM      7  O   UNL     1     128.116 128.387 121.196  1.00  0.00    -0.545 OA
ENDBRANCH   4   5
ENDBRANCH   2   3
ENDBRANCH   1   2
BRANCH   1   8
ATOM      8  C   UNL     1     129.300 127.021 126.822  1.00  0.00     0.000 C 
BRANCH   8   9
ATOM      9  C   UNL     1     130.668 126.884 127.501  1.00  0.00    -0.000 C 
BRANCH   9  10
ATOM     10  C   UNL     1     131.364 125.585 127.079  1.00  0.00    -0.003 C 
ATOM     11  C   UNL     1     130.346 124.490 126.771  1.00  0.00     0.004 C 
ENDBRANCH   9  10
ENDBRANCH   8   9
ENDBRANCH   1   8
TORSDOF 6
ENDMDL
MODEL 6
REMARK VINA RESULT:    -4.918      4.496      5.897
REMARK INTER + INTRA:          -7.077
REMARK INTER:                  -6.584
REMARK INTRA:                  -0.493
REMARK UNBOUND:                -0.434
REMARK SMILES CCCCCCC=CC(=O)[O-]
REMARK SMILES IDX 5 1 6 2 7 3 8 4 9 5 10 6 11 7 4 8 3 9 2 10 1 11
REMARK H PARENT
REMARK Flexibility Score: inf
ROOT
ATOM      1  C   UNL     1     129.981 124.184 126.170  1.00  0.00     0.004 C 
ENDROOT
BRANCH   1   2
ATOM      2  C   UNL     1     129.131 123.921 127.423  1.00  0.00     0.027 C 
BRANCH   2   3
ATOM      3  C   UNL     1     128.571 125.191 128.011  1.00  0.00    -0.025 C 
ATOM      4  C   UNL     1     127.455 125.295 128.751  1.00  0.00     0.020 C 
BRANCH   4   5
ATOM      5  C   UNL     1     126.524 124.202 129.101  1.00  0.00     0.064 C 
ATOM      6  O   UNL     1     125.320 124.205 128.734  1.00  0.00    -0.545 OA
ATOM      7  O   UNL     1     126.987 123.151 129.881  1.00  0.00    -0.545 OA
ENDBRANCH   4   5
ENDBRANCH   2   3
ENDBRANCH   1   2
BRANCH   1   8
ATOM      8  C   UNL     1     130.132 125.685 125.879  1.00  0.00     0.000 C 
BRANCH   8   9
ATOM      9  C   UNL     1     131.566 126.022 125.456  1.00  0.00    -0.000 C 
BRANCH   9  10
ATOM     10  C   UNL     1     132.427 126.385 126.673  1.00  0.00    -0.003 C 
ATOM     11  C   UNL     1     131.770 127.483 127.504  1.00  0.00     0.004 C 
ENDBRANCH   9  10
ENDBRANCH   8   9
ENDBRANCH   1   8
TORSDOF 6
ENDMDL
MODEL 7
REMARK VINA RESULT:    -4.699      5.407      7.146
REMARK INTER + INTRA:          -6.782
REMARK INTER:                  -6.412
REMARK INTRA:                  -0.370
REMARK UNBOUND:                -0.434
REMARK SMILES CCCCCCC=CC(=O)[O-]
REMARK SMILES IDX 5 1 6 2 7 3 8 4 9 5 10 6 11 7 4 8 3 9 2 10 1 11
REMARK H PARENT
REMARK Flexibility Score: inf
ROOT
ATOM      1  C   UNL     1     128.036 125.283 128.477  1.00  0.00     0.004 C 
ENDROOT
BRANCH   1   2
ATOM      2  C   UNL     1     127.048 124.801 129.551  1.00  0.00     0.027 C 
BRANCH   2   3
ATOM      3  C   UNL     1     125.788 124.229 128.953  1.00  0.00    -0.025 C 
ATOM      4  C   UNL     1     124.570 124.795 128.985  1.00  0.00     0.020 C 
BRANCH   4   5
ATOM      5  C   UNL     1     124.205 126.065 129.648  1.00  0.00     0.064 C 
ATOM      6  O   UNL     1     123.531 126.095 130.711  1.00  0.00    -0.545 OA
ATOM      7  O   UNL     1     124.596 127.262 129.065  1.00  0.00    -0.545 OA
ENDBRANCH   4   5
ENDBRANCH   2   3
ENDBRANCH   1   2
BRANCH   1   8
ATOM      8  C   UNL     1     128.621 124.117 127.666  1.00  0.00     0.000 C 
BRANCH   8   9
ATOM      9  C   UNL     1     129.990 124.486 127.082  1.00  0.00    -0.000 C 
BRANCH   9  10
ATOM     10  C   UNL     1     130.407 125.899 127.509  1.00  0.00    -0.003 C 
ATOM     11  C   UNL     1     131.807 126.236 127.003  1.00  0.00     0.004 C 
ENDBRANCH   9  10
ENDBRANCH   8   9
ENDBRANCH   1   8
TORSDOF 6
ENDMDL
MODEL 8
REMARK VINA RESULT:    -4.627      3.718      4.888
REMARK INTER + INTRA:          -6.684
REMARK INTER:                  -6.329
REMARK INTRA:                  -0.355
REMARK UNBOUND:                -0.434
REMARK SMILES CCCCCCC=CC(=O)[O-]
REMARK SMILES IDX 5 1 6 2 7 3 8 4 9 5 10 6 11 7 4 8 3 9 2 10 1 11
REMARK H PARENT
REMARK Flexibility Score: inf
ROOT
ATOM      1  C   UNL     1     129.914 124.714 126.248  1.00  0.00     0.004 C 
ENDROOT
BRANCH   1   2
ATOM      2  C   UNL     1     128.946 124.237 127.341  1.00  0.00     0.027 C 
BRANCH   2   3
ATOM      3  C   UNL     1     128.393 125.379 128.155  1.00  0.00    -0.025 C 
ATOM      4  C   UNL     1     127.305 125.337 128.941  1.00  0.00     0.020 C 
BRANCH   4   5
ATOM      5  C   UNL     1     126.402 124.183 129.135  1.00  0.00     0.064 C 
ATOM      6  O   UNL     1     125.204 124.198 128.748  1.00  0.00    -0.545 OA
ATOM      7  O   UNL     1     126.884 123.057 129.790  1.00  0.00    -0.545 OA
ENDBRANCH   4   5
ENDBRANCH   2   3
ENDBRANCH   1   2
BRANCH   1   8
ATOM      8  C   UNL     1     129.831 126.231 126.025  1.00  0.00     0.000 C 
BRANCH   8   9
ATOM      9  C   UNL     1     130.076 126.586 124.554  1.00  0.00    -0.000 C 
BRANCH   9  10
ATOM     10  C   UNL     1     128.954 127.478 124.009  1.00  0.00    -0.003 C 
ATOM     11  C   UNL     1     127.973 126.673 123.162  1.00  0.00     0.004 C 
ENDBRANCH   9  10
ENDBRANCH   8   9
ENDBRANCH   1   8
TORSDOF 6
ENDMDL
MODEL 9
REMARK VINA RESULT:    -4.591      4.324      6.067
REMARK INTER + INTRA:          -6.636
REMARK INTER:                  -6.183
REMARK INTRA:                  -0.454
REMARK UNBOUND:                -0.434
REMARK SMILES CCCCCCC=CC(=O)[O-]
REMARK SMILES IDX 5 1 6 2 7 3 8 4 9 5 10 6 11 7 4 8 3 9 2 10 1 11
REMARK H PARENT
REMARK Flexibility Score: inf
ROOT
ATOM      1  C   UNL     1     128.874 124.011 127.171  1.00  0.00     0.004 C 
ENDROOT
BRANCH   1   2
ATOM      2  C   UNL     1     128.119 125.118 127.922  1.00  0.00     0.027 C 
BRANCH   2   3
ATOM      3  C   UNL     1     127.747 124.706 129.324  1.00  0.00    -0.025 C 
ATOM      4  C   UNL     1     126.501 124.633 129.822  1.00  0.00     0.020 C 
BRANCH   4   5
ATOM      5  C   UNL     1     125.249 124.983 129.121  1.00  0.00     0.064 C 
ATOM      6  O   UNL     1     124.604 124.141 128.443  1.00  0.00    -0.545 OA
ATOM      7  O   UNL     1     124.784 126.290 129.191  1.00  0.00    -0.545 OA
ENDBRANCH   4   5
ENDBRANCH   2   3
ENDBRANCH   1   2
BRANCH   1   8
ATOM      8  C   UNL     1     130.377 124.310 127.062  1.00  0.00     0.000 C 
BRANCH   8   9
ATOM      9  C   UNL     1     130.621 125.781 126.707  1.00  0.00    -0.000 C 
BRANCH   9  10
ATOM     10  C   UNL     1     130.952 125.939 125.218  1.00  0.00    -0.003 C 
ATOM     11  C   UNL     1     129.766 126.517 124.449  1.00  0.00     0.004 C 
ENDBRANCH   9  10
ENDBRANCH   8   9
ENDBRANCH   1   8
TORSDOF 6
ENDMDL
