MODEL 1
REMARK VINA RESULT:    -5.325      0.000      0.000
REMARK INTER + INTRA:          -6.981
REMARK INTER:                  -6.571
REMARK INTRA:                  -0.410
REMARK UNBOUND:                -0.410
REMARK SMILES CCCCC(=O)c1ccccc1
REMARK SMILES IDX 4 1 3 2 2 3 1 4 5 5 6 6 7 7 8 8 12 9 9 10 11 11 10 12
REMARK H PARENT
REMARK Flexibility Score: inf
ROOT
ATOM      1  C   UNL     1     -35.080  43.087  40.433  1.00  0.00     0.081 C 
ENDROOT
BRANCH   1   2
ATOM      2  C   UNL     1     -34.570  42.529  41.774  1.00  0.00     0.008 C 
BRANCH   2   3
ATOM      3  C   UNL     1     -33.473  41.459  41.625  1.00  0.00    -0.003 C 
ATOM      4  C   UNL     1     -32.268  41.938  40.818  1.00  0.00     0.004 C 
ENDBRANCH   2   3
ENDBRANCH   1   2
BRANCH   1   5
ATOM      5  C   UNL     1     -34.791  44.558  40.255  1.00  0.00     0.162 C 
ATOM      6  O   UNL     1     -35.161  45.368  41.149  1.00  0.00    -0.294 OA
BRANCH   5   7
ATOM      7  C   UNL     1     -34.123  45.084  39.039  1.00  0.00     0.017 A 
ATOM      8  C   UNL     1     -34.897  45.618  37.992  1.00  0.00     0.012 A 
ATOM      9  C   UNL     1     -32.722  45.044  38.898  1.00  0.00     0.012 A 
ATOM     10  C   UNL     1     -34.283  46.118  36.840  1.00  0.00     0.001 A 
ATOM     11  C   UNL     1     -32.114  45.544  37.742  1.00  0.00     0.001 A 
ATOM     12  C   UNL     1     -32.892  46.083  36.716  1.00  0.00     0.000 A 
ENDBRANCH   5   7
ENDBRANCH   1   5
TORSDOF 4
ENDMDL
MODEL 2
REMARK VINA RESULT:    -5.222      2.071      5.353
REMARK INTER + INTRA:          -6.853
REMARK INTER:                  -6.267
REMARK INTRA:                  -0.586
REMARK UNBOUND:                -0.410
REMARK SMILES CCCCC(=O)c1ccccc1
REMARK SMILES IDX 4 1 3 2 2 3 1 4 5 5 6 6 7 7 8 8 12 9 9 10 11 11 10 12
REMARK H PARENT
REMARK Flexibility Score: inf
ROOT
ATOM      1  C   UNL     1     -35.212  42.548  40.487  1.00  0.00     0.081 C 
ENDROOT
BRANCH   1   2
ATOM      2  C   UNL     1     -34.821  44.038  40.517  1.00  0.00     0.008 C 
BRANCH   2   3
ATOM      3  C   UNL     1     -34.225  44.549  39.194  1.00  0.00    -0.003 C 
ATOM      4  C   UNL     1     -32.728  44.841  39.278  1.00  0.00     0.004 C 
ENDBRANCH   2   3
ENDBRANCH   1   2
BRANCH   1   5
ATOM      5  C   UNL     1     -34.019  41.624  40.447  1.00  0.00     0.162 C 
ATOM      6  O   UNL     1     -33.874  40.853  39.458  1.00  0.00    -0.294 OA
BRANCH   5   7
ATOM      7  C   UNL     1     -33.036  41.564  41.556  1.00  0.00     0.017 A 
ATOM      8  C   UNL     1     -31.659  41.548  41.269  1.00  0.00     0.012 A 
ATOM      9  C   UNL     1     -33.452  41.502  42.901  1.00  0.00     0.012 A 
ATOM     10  C   UNL     1     -30.719  41.492  42.303  1.00  0.00     0.001 A 
ATOM     11  C   UNL     1     -32.507  41.444  43.931  1.00  0.00     0.001 A 
ATOM     12  C   UNL     1     -31.143  41.442  43.633  1.00  0.00     0.000 A 
ENDBRANCH   5   7
ENDBRANCH   1   5
TORSDOF 4
ENDMDL
MODEL 3
REMARK VINA RESULT:    -5.221      2.074      5.227
REMARK INTER + INTRA:          -6.852
REMARK INTER:                  -6.226
REMARK INTRA:                  -0.626
REMARK UNBOUND:                -0.410
REMARK SMILES CCCCC(=O)c1ccccc1
REMARK SMILES IDX 4 1 3 2 2 3 1 4 5 5 6 6 7 7 8 8 12 9 9 10 11 11 10 12
REMARK H PARENT
REMARK Flexibility Score: inf
ROOT
ATOM      1  C   UNL     1     -35.154  42.584  40.389  1.00  0.00     0.081 C 
ENDROOT
BRANCH   1   2
ATOM      2  C   UNL     1     -34.714  44.050  40.217  1.00  0.00     0.008 C 
BRANCH   2   3
ATOM      3  C   UNL     1     -33.937  44.316  38.915  1.00  0.00    -0.003 C 
ATOM      4  C   UNL     1     -32.517  44.828  39.152  1.00  0.00     0.004 C 
ENDBRANCH   2   3
ENDBRANCH   1   2
BRANCH   1   5
ATOM      5  C   UNL     1     -34.002  41.610  40.345  1.00  0.00     0.162 C 
ATOM      6  O   UNL     1     -33.926  40.793  39.386  1.00  0.00    -0.294 OA
BRANCH   5   7
ATOM      7  C   UNL     1     -32.979  41.557  41.418  1.00  0.00     0.017 A 
ATOM      8  C   UNL     1     -33.380  41.549  42.766  1.00  0.00     0.012 A 
ATOM      9  C   UNL     1     -31.603  41.533  41.118  1.00  0.00     0.012 A 
ATOM     10  C   UNL     1     -32.429  41.499  43.790  1.00  0.00     0.001 A 
ATOM     11  C   UNL     1     -30.656  41.485  42.146  1.00  0.00     0.001 A 
ATOM     12  C   UNL     1     -31.068  41.465  43.479  1.00  0.00     0.000 A 
ENDBRANCH   5   7
ENDBRANCH   1   5
TORSDOF 4
ENDMDL
MODEL 4
REMARK VINA RESULT:    -5.148      9.512     11.016
REMARK INTER + INTRA:          -6.762
REMARK INTER:                  -6.142
REMARK INTRA:                  -0.620
REMARK UNBOUND:                -0.410
REMARK SMILES CCCCC(=O)c1ccccc1
REMARK SMILES IDX 4 1 3 2 2 3 1 4 5 5 6 6 7 7 8 8 12 9 9 10 11 11 10 12
REMARK H PARENT
REMARK Flexibility Score: inf
ROOT
ATOM      1  C   UNL     1     -38.180  39.116  46.655  1.00  0.00     0.081 C 
ENDROOT
BRANCH   1   2
ATOM      2  C   UNL     1     -39.630  38.597  46.698  1.00  0.00     0.008 C 
BRANCH   2   3
ATOM      3  C   UNL     1     -39.974  37.823  47.983  1.00  0.00    -0.003 C 
ATOM      4  C   UNL     1     -40.260  36.343  47.738  1.00  0.00     0.004 C 
ENDBRANCH   2   3
ENDBRANCH   1   2
BRANCH   1   5
ATOM      5  C   UNL     1     -37.153  38.014  46.746  1.00  0.00     0.162 C 
ATOM      6  O   UNL     1     -36.390  37.968  47.751  1.00  0.00    -0.294 OA
BRANCH   5   7
ATOM      7  C   UNL     1     -36.986  37.008  45.669  1.00  0.00     0.017 A 
ATOM      8  C   UNL     1     -36.974  37.418  44.324  1.00  0.00     0.012 A 
ATOM      9  C   UNL     1     -36.857  35.635  45.963  1.00  0.00     0.012 A 
ATOM     10  C   UNL     1     -36.818  36.482  43.297  1.00  0.00     0.001 A 
ATOM     11  C   UNL     1     -36.702  34.704  44.931  1.00  0.00     0.001 A 
ATOM     12  C   UNL     1     -36.680  35.126  43.601  1.00  0.00     0.000 A 
ENDBRANCH   5   7
ENDBRANCH   1   5
TORSDOF 4
ENDMDL
MODEL 5
REMARK VINA RESULT:    -5.147      0.939      4.891
REMARK INTER + INTRA:          -6.761
REMARK INTER:                  -6.434
REMARK INTRA:                  -0.328
REMARK UNBOUND:                -0.410
REMARK SMILES CCCCC(=O)c1ccccc1
REMARK SMILES IDX 4 1 3 2 2 3 1 4 5 5 6 6 7 7 8 8 12 9 9 10 11 11 10 12
REMARK H PARENT
REMARK Flexibility Score: inf
ROOT
ATOM      1  C   UNL     1     -34.383  44.495  38.009  1.00  0.00     0.081 C 
ENDROOT
BRANCH   1   2
ATOM      2  C   UNL     1     -34.474  45.829  37.245  1.00  0.00     0.008 C 
BRANCH   2   3
ATOM      3  C   UNL     1     -33.157  46.247  36.568  1.00  0.00    -0.003 C 
ATOM      4  C   UNL     1     -31.915  45.711  37.277  1.00  0.00     0.004 C 
ENDBRANCH   2   3
ENDBRANCH   1   2
BRANCH   1   5
ATOM      5  C   UNL     1     -34.700  44.631  39.479  1.00  0.00     0.162 C 
ATOM      6  O   UNL     1     -35.231  45.698  39.895  1.00  0.00    -0.294 OA
BRANCH   5   7
ATOM      7  C   UNL     1     -34.367  43.565  40.455  1.00  0.00     0.017 A 
ATOM      8  C   UNL     1     -33.181  42.823  40.303  1.00  0.00     0.012 A 
ATOM      9  C   UNL     1     -35.227  43.260  41.529  1.00  0.00     0.012 A 
ATOM     10  C   UNL     1     -32.853  41.815  41.214  1.00  0.00     0.001 A 
ATOM     11  C   UNL     1     -34.894  42.249  42.436  1.00  0.00     0.001 A 
ATOM     12  C   UNL     1     -33.708  41.529  42.281  1.00  0.00     0.000 A 
ENDBRANCH   5   7
ENDBRANCH   1   5
TORSDOF 4
ENDMDL
MODEL 6
REMARK VINA RESULT:    -5.130      9.315     11.363
REMARK INTER + INTRA:          -6.740
REMARK INTER:                  -6.212
REMARK INTRA:                  -0.527
REMARK UNBOUND:                -0.410
REMARK SMILES CCCCC(=O)c1ccccc1
REMARK SMILES IDX 4 1 3 2 2 3 1 4 5 5 6 6 7 7 8 8 12 9 9 10 11 11 10 12
REMARK H PARENT
REMARK Flexibility Score: inf
ROOT
ATOM      1  C   UNL     1     -36.678  35.099  45.816  1.00  0.00     0.081 C 
ENDROOT
BRANCH   1   2
ATOM      2  C   UNL     1     -35.954  35.251  44.465  1.00  0.00     0.008 C 
BRANCH   2   3
ATOM      3  C   UNL     1     -36.905  35.415  43.266  1.00  0.00    -0.003 C 
ATOM      4  C   UNL     1     -37.020  36.858  42.779  1.00  0.00     0.004 C 
ENDBRANCH   2   3
ENDBRANCH   1   2
BRANCH   1   5
ATOM      5  C   UNL     1     -36.800  36.400  46.572  1.00  0.00     0.162 C 
ATOM      6  O   UNL     1     -35.786  36.862  47.165  1.00  0.00    -0.294 OA
BRANCH   5   7
ATOM      7  C   UNL     1     -38.088  37.129  46.674  1.00  0.00     0.017 A 
ATOM      8  C   UNL     1     -39.140  36.588  47.435  1.00  0.00     0.012 A 
ATOM      9  C   UNL     1     -38.292  38.352  46.004  1.00  0.00     0.012 A 
ATOM     10  C   UNL     1     -40.360  37.263  47.541  1.00  0.00     0.001 A 
ATOM     11  C   UNL     1     -39.515  39.021  46.112  1.00  0.00     0.001 A 
ATOM     12  C   UNL     1     -40.547  38.480  46.882  1.00  0.00     0.000 A 
ENDBRANCH   5   7
ENDBRANCH   1   5
TORSDOF 4
ENDMDL
MODEL 7
REMARK VINA RESULT:    -5.115     10.154     12.973
REMARK INTER + INTRA:          -6.721
REMARK INTER:                  -6.192
REMARK INTRA:                  -0.530
REMARK UNBOUND:                -0.410
REMARK SMILES CCCCC(=O)c1ccccc1
REMARK SMILES IDX 4 1 3 2 2 3 1 4 5 5 6 6 7 7 8 8 12 9 9 10 11 11 10 12
REMARK H PARENT
REMARK Flexibility Score: inf
ROOT
ATOM      1  C   UNL     1     -38.820  39.082  46.418  1.00  0.00     0.081 C 
ENDROOT
BRANCH   1   2
ATOM      2  C   UNL     1     -37.862  38.102  45.716  1.00  0.00     0.008 C 
BRANCH   2   3
ATOM      3  C   UNL     1     -36.999  37.276  46.686  1.00  0.00    -0.003 C 
ATOM      4  C   UNL     1     -36.992  35.782  46.368  1.00  0.00     0.004 C 
ENDBRANCH   2   3
ENDBRANCH   1   2
BRANCH   1   5
ATOM      5  C   UNL     1     -40.186  38.493  46.675  1.00  0.00     0.162 C 
ATOM      6  O   UNL     1     -41.111  38.704  45.842  1.00  0.00    -0.294 OA
BRANCH   5   7
ATOM      7  C   UNL     1     -40.485  37.710  47.898  1.00  0.00     0.017 A 
ATOM      8  C   UNL     1     -40.305  36.315  47.897  1.00  0.00     0.012 A 
ATOM      9  C   UNL     1     -40.968  38.332  49.067  1.00  0.00     0.012 A 
ATOM     10  C   UNL     1     -40.583  35.562  49.042  1.00  0.00     0.001 A 
ATOM     11  C   UNL     1     -41.245  37.573  50.209  1.00  0.00     0.001 A 
ATOM     12  C   UNL     1     -41.051  36.191  50.197  1.00  0.00     0.000 A 
ENDBRANCH   5   7
ENDBRANCH   1   5
TORSDOF 4
ENDMDL
MODEL 8
REMARK VINA RESULT:    -4.987      8.960     11.200
REMARK INTER + INTRA:          -6.563
REMARK INTER:                  -6.003
REMARK INTRA:                  -0.561
REMARK UNBOUND:                -0.410
REMARK SMILES CCCCC(=O)c1ccccc1
REMARK SMILES IDX 4 1 3 2 2 3 1 4 5 5 6 6 7 7 8 8 12 9 9 10 11 11 10 12
REMARK H PARENT
REMARK Flexibility Score: inf
ROOT
ATOM      1  C   UNL     1     -35.490  36.984  46.442  1.00  0.00     0.081 C 
ENDROOT
BRANCH   1   2
ATOM      2  C   UNL     1     -35.220  37.759  47.745  1.00  0.00     0.008 C 
BRANCH   2   3
ATOM      3  C   UNL     1     -34.757  39.209  47.519  1.00  0.00    -0.003 C 
ATOM      4  C   UNL     1     -34.851  39.654  46.061  1.00  0.00     0.004 C 
ENDBRANCH   2   3
ENDBRANCH   1   2
BRANCH   1   5
ATOM      5  C   UNL     1     -36.844  36.317  46.419  1.00  0.00     0.162 C 
ATOM      6  O   UNL     1     -36.910  35.067  46.258  1.00  0.00    -0.294 OA
BRANCH   5   7
ATOM      7  C   UNL     1     -38.102  37.094  46.537  1.00  0.00     0.017 A 
ATOM      8  C   UNL     1     -38.260  38.286  45.806  1.00  0.00     0.012 A 
ATOM      9  C   UNL     1     -39.146  36.674  47.386  1.00  0.00     0.012 A 
ATOM     10  C   UNL     1     -39.439  39.030  45.906  1.00  0.00     0.001 A 
ATOM     11  C   UNL     1     -40.322  37.423  47.484  1.00  0.00     0.001 A 
ATOM     12  C   UNL     1     -40.471  38.598  46.743  1.00  0.00     0.000 A 
ENDBRANCH   5   7
ENDBRANCH   1   5
TORSDOF 4
ENDMDL
MODEL 9
REMARK VINA RESULT:    -4.866      3.546      6.137
REMARK INTER + INTRA:          -6.414
REMARK INTER:                  -5.660
REMARK INTRA:                  -0.754
REMARK UNBOUND:                -0.410
REMARK SMILES CCCCC(=O)c1ccccc1
REMARK SMILES IDX 4 1 3 2 2 3 1 4 5 5 6 6 7 7 8 8 12 9 9 10 11 11 10 12
REMARK H PARENT
REMARK Flexibility Score: inf
ROOT
ATOM      1  C   UNL     1     -35.368  42.755  43.554  1.00  0.00     0.081 C 
ENDROOT
BRANCH   1   2
ATOM      2  C   UNL     1     -35.651  42.316  42.105  1.00  0.00     0.008 C 
BRANCH   2   3
ATOM      3  C   UNL     1     -34.925  43.164  41.046  1.00  0.00    -0.003 C 
ATOM      4  C   UNL     1     -33.602  42.556  40.587  1.00  0.00     0.004 C 
ENDBRANCH   2   3
ENDBRANCH   1   2
BRANCH   1   5
ATOM      5  C   UNL     1     -34.648  41.702  44.362  1.00  0.00     0.162 C 
ATOM      6  O   UNL     1     -35.114  41.368  45.486  1.00  0.00    -0.294 OA
BRANCH   5   7
ATOM      7  C   UNL     1     -33.387  41.080  43.892  1.00  0.00     0.017 A 
ATOM      8  C   UNL     1     -32.177  41.791  43.991  1.00  0.00     0.012 A 
ATOM      9  C   UNL     1     -33.373  39.789  43.326  1.00  0.00     0.012 A 
ATOM     10  C   UNL     1     -30.979  41.218  43.553  1.00  0.00     0.001 A 
ATOM     11  C   UNL     1     -32.172  39.222  42.888  1.00  0.00     0.001 A 
ATOM     12  C   UNL     1     -30.976  39.934  43.004  1.00  0.00     0.000 A 
ENDBRANCH   5   7
ENDBRANCH   1   5
TORSDOF 4
ENDMDL
