MODEL 1
REMARK VINA RESULT:    27.444      0.000      0.000
REMARK INTER + INTRA:          33.289
REMARK INTER:                  33.060
REMARK INTRA:                   0.229
REMARK UNBOUND:                 0.229
REMARK SMILES O=c1c(O)c(-c2ccc(O)c(O)c2)oc2cc(O)cc(O)c12
REMARK SMILES IDX 5 1 3 2 2 3 1 4 22 5 20 6 19 7 17 8 16 9 15 10 14 11 6 12
REMARK SMILES IDX 7 13 8 14 9 15 13 16 11 17 10 18 12 20 4 22 21 24 18 26
REMARK H PARENT 10 19 12 21 4 23 21 25 18 27
REMARK Flexibility Score: inf
ROOT
ATOM      1  C   UNL     1     -22.378  29.232  -7.469  1.00  0.00     0.180 A 
ATOM      2  C   UNL     1     -21.909  30.295  -8.260  1.00  0.00     0.208 A 
ATOM      3  C   UNL     1     -22.820  31.267  -8.702  1.00  0.00     0.238 A 
ATOM      4  O   UNL     1     -22.405  32.186  -9.456  1.00  0.00    -0.285 OA
ATOM      5  C   UNL     1     -24.184  31.174  -8.336  1.00  0.00     0.111 A 
ATOM      6  C   UNL     1     -25.187  32.123  -8.695  1.00  0.00     0.134 A 
ATOM      7  C   UNL     1     -26.528  31.862  -8.388  1.00  0.00     0.093 A 
ATOM      8  C   UNL     1     -26.895  30.719  -7.678  1.00  0.00     0.123 A 
ATOM      9  C   UNL     1     -25.915  29.812  -7.270  1.00  0.00     0.094 A 
ATOM     10  C   UNL     1     -24.573  30.028  -7.593  1.00  0.00     0.146 A 
ATOM     11  O   UNL     1     -23.673  29.136  -7.196  1.00  0.00    -0.452 OA
ENDROOT
BRANCH   1  12
ATOM     12  C   UNL     1     -21.473  28.183  -6.943  1.00  0.00     0.025 A 
ATOM     13  C   UNL     1     -20.422  27.712  -7.745  1.00  0.00     0.016 A 
ATOM     14  C   UNL     1     -19.569  26.710  -7.278  1.00  0.00     0.051 A 
ATOM     15  C   UNL     1     -19.762  26.151  -6.011  1.00  0.00     0.157 A 
ATOM     16  C   UNL     1     -21.679  27.607  -5.677  1.00  0.00     0.062 A 
ATOM     17  C   UNL     1     -20.825  26.598  -5.206  1.00  0.00     0.158 A 
BRANCH  15  18
ATOM     18  O   UNL     1     -18.893  25.154  -5.570  1.00  0.00    -0.504 OA
ATOM     19  H   UNL     1     -19.082  24.604  -4.740  1.00  0.00     0.293 HD
ENDBRANCH  15  18
BRANCH  17  20
ATOM     20  O   UNL     1     -21.030  26.036  -3.947  1.00  0.00    -0.504 OA
ATOM     21  H   UNL     1     -20.306  25.504  -3.479  1.00  0.00     0.293 HD
ENDBRANCH  17  20
ENDBRANCH   1  12
BRANCH   2  22
ATOM     22  O   UNL     1     -20.562  30.356  -8.628  1.00  0.00    -0.502 OA
ATOM     23  H   UNL     1     -19.901  29.623  -8.398  1.00  0.00     0.293 HD
ENDBRANCH   2  22
BRANCH   6  24
ATOM     24  O   UNL     1     -24.917  33.343  -9.324  1.00  0.00    -0.507 OA
ATOM     25  H   UNL     1     -25.086  34.249  -8.915  1.00  0.00     0.293 HD
ENDBRANCH   6  24
BRANCH   8  26
ATOM     26  O   UNL     1     -28.236  30.498  -7.377  1.00  0.00    -0.508 OA
ATOM     27  H   UNL     1     -28.541  30.296  -6.432  1.00  0.00     0.293 HD
ENDBRANCH   8  26
TORSDOF 6
ENDMDL
MODEL 2
REMARK VINA RESULT:    28.548      1.355      2.811
REMARK INTER + INTRA:          34.618
REMARK INTER:                  34.806
REMARK INTRA:                  -0.187
REMARK UNBOUND:                 0.229
REMARK SMILES O=c1c(O)c(-c2ccc(O)c(O)c2)oc2cc(O)cc(O)c12
REMARK SMILES IDX 5 1 3 2 2 3 1 4 22 5 20 6 19 7 17 8 16 9 15 10 14 11 6 12
REMARK SMILES IDX 7 13 8 14 9 15 13 16 11 17 10 18 12 20 4 22 21 24 18 26
REMARK H PARENT 10 19 12 21 4 23 21 25 18 27
REMARK Flexibility Score: inf
ROOT
ATOM      1  C   UNL     1     -22.784  28.726  -7.374  1.00  0.00     0.180 A 
ATOM      2  C   UNL     1     -24.109  28.318  -7.609  1.00  0.00     0.208 A 
ATOM      3  C   UNL     1     -25.010  29.231  -8.180  1.00  0.00     0.238 A 
ATOM      4  O   UNL     1     -26.209  28.878  -8.338  1.00  0.00    -0.285 OA
ATOM      5  C   UNL     1     -24.574  30.533  -8.523  1.00  0.00     0.111 A 
ATOM      6  C   UNL     1     -25.391  31.525  -9.143  1.00  0.00     0.134 A 
ATOM      7  C   UNL     1     -24.891  32.822  -9.317  1.00  0.00     0.093 A 
ATOM      8  C   UNL     1     -23.584  33.145  -8.956  1.00  0.00     0.123 A 
ATOM      9  C   UNL     1     -22.756  32.166  -8.404  1.00  0.00     0.094 A 
ATOM     10  C   UNL     1     -23.238  30.873  -8.184  1.00  0.00     0.146 A 
ATOM     11  O   UNL     1     -22.421  29.974  -7.646  1.00  0.00    -0.452 OA
ENDROOT
BRANCH   1  12
ATOM     12  C   UNL     1     -21.769  27.813  -6.800  1.00  0.00     0.025 A 
ATOM     13  C   UNL     1     -20.721  27.349  -7.611  1.00  0.00     0.016 A 
ATOM     14  C   UNL     1     -19.763  26.472  -7.097  1.00  0.00     0.051 A 
ATOM     15  C   UNL     1     -19.846  26.032  -5.772  1.00  0.00     0.157 A 
ATOM     16  C   UNL     1     -21.863  27.354  -5.475  1.00  0.00     0.062 A 
ATOM     17  C   UNL     1     -20.904  26.471  -4.957  1.00  0.00     0.158 A 
BRANCH  15  18
ATOM     18  O   UNL     1     -18.875  25.157  -5.286  1.00  0.00    -0.504 OA
ATOM     19  H   UNL     1     -18.234  24.669  -5.900  1.00  0.00     0.293 HD
ENDBRANCH  15  18
BRANCH  17  20
ATOM     20  O   UNL     1     -21.001  26.024  -3.640  1.00  0.00    -0.504 OA
ATOM     21  H   UNL     1     -20.916  25.042  -3.405  1.00  0.00     0.293 HD
ENDBRANCH  17  20
ENDBRANCH   1  12
BRANCH   2  22
ATOM     22  O   UNL     1     -24.524  27.035  -7.243  1.00  0.00    -0.502 OA
ATOM     23  H   UNL     1     -25.393  26.630  -7.572  1.00  0.00     0.293 HD
ENDBRANCH   2  22
BRANCH   6  24
ATOM     24  O   UNL     1     -26.681  31.284  -9.626  1.00  0.00    -0.507 OA
ATOM     25  H   UNL     1     -27.321  30.608  -9.240  1.00  0.00     0.293 HD
ENDBRANCH   6  24
BRANCH   8  26
ATOM     26  O   UNL     1     -23.114  34.440  -9.158  1.00  0.00    -0.508 OA
ATOM     27  H   UNL     1     -23.318  35.185  -8.504  1.00  0.00     0.293 HD
ENDBRANCH   8  26
TORSDOF 6
ENDMDL
MODEL 3
REMARK VINA RESULT:    29.301      3.471      6.265
REMARK INTER + INTRA:          35.525
REMARK INTER:                  35.051
REMARK INTRA:                   0.475
REMARK UNBOUND:                 0.229
REMARK SMILES O=c1c(O)c(-c2ccc(O)c(O)c2)oc2cc(O)cc(O)c12
REMARK SMILES IDX 5 1 3 2 2 3 1 4 22 5 20 6 19 7 17 8 16 9 15 10 14 11 6 12
REMARK SMILES IDX 7 13 8 14 9 15 13 16 11 17 10 18 12 20 4 22 21 24 18 26
REMARK H PARENT 10 19 12 21 4 23 21 25 18 27
REMARK Flexibility Score: inf
ROOT
ATOM      1  C   UNL     1     -24.854  31.248  -8.331  1.00  0.00     0.180 A 
ATOM      2  C   UNL     1     -26.159  31.625  -7.972  1.00  0.00     0.208 A 
ATOM      3  C   UNL     1     -27.065  30.634  -7.561  1.00  0.00     0.238 A 
ATOM      4  O   UNL     1     -28.248  30.971  -7.294  1.00  0.00    -0.285 OA
ATOM      5  C   UNL     1     -26.651  29.282  -7.499  1.00  0.00     0.111 A 
ATOM      6  C   UNL     1     -27.472  28.202  -7.060  1.00  0.00     0.134 A 
ATOM      7  C   UNL     1     -27.001  26.887  -7.164  1.00  0.00     0.093 A 
ATOM      8  C   UNL     1     -25.714  26.619  -7.629  1.00  0.00     0.123 A 
ATOM      9  C   UNL     1     -24.879  27.673  -8.006  1.00  0.00     0.094 A 
ATOM     10  C   UNL     1     -25.335  28.992  -7.948  1.00  0.00     0.146 A 
ATOM     11  O   UNL     1     -24.514  29.965  -8.325  1.00  0.00    -0.452 OA
ENDROOT
BRANCH   1  12
ATOM     12  C   UNL     1     -23.834  32.238  -8.750  1.00  0.00     0.025 A 
ATOM     13  C   UNL     1     -22.540  31.802  -9.073  1.00  0.00     0.016 A 
ATOM     14  C   UNL     1     -21.557  32.719  -9.451  1.00  0.00     0.051 A 
ATOM     15  C   UNL     1     -21.846  34.087  -9.495  1.00  0.00     0.157 A 
ATOM     16  C   UNL     1     -24.118  33.615  -8.775  1.00  0.00     0.062 A 
ATOM     17  C   UNL     1     -23.132  34.539  -9.152  1.00  0.00     0.158 A 
BRANCH  15  18
ATOM     18  O   UNL     1     -20.845  34.980  -9.878  1.00  0.00    -0.504 OA
ATOM     19  H   UNL     1     -20.683  35.222 -10.848  1.00  0.00     0.293 HD
ENDBRANCH  15  18
BRANCH  17  20
ATOM     20  O   UNL     1     -23.423  35.902  -9.181  1.00  0.00    -0.504 OA
ATOM     21  H   UNL     1     -24.353  36.250  -8.981  1.00  0.00     0.293 HD
ENDBRANCH  17  20
ENDBRANCH   1  12
BRANCH   2  22
ATOM     22  O   UNL     1     -26.554  32.963  -8.062  1.00  0.00    -0.502 OA
ATOM     23  H   UNL     1     -25.954  33.728  -7.774  1.00  0.00     0.293 HD
ENDBRANCH   2  22
BRANCH   6  24
ATOM     24  O   UNL     1     -28.740  28.366  -6.492  1.00  0.00    -0.507 OA
ATOM     25  H   UNL     1     -29.215  29.250  -6.395  1.00  0.00     0.293 HD
ENDBRANCH   6  24
BRANCH   8  26
ATOM     26  O   UNL     1     -25.271  25.301  -7.705  1.00  0.00    -0.508 OA
ATOM     27  H   UNL     1     -24.285  25.075  -7.755  1.00  0.00     0.293 HD
ENDBRANCH   8  26
TORSDOF 6
ENDMDL
