MODEL 1
REMARK VINA RESULT:    -5.949      0.000      0.000
REMARK INTER + INTRA:          -9.585
REMARK INTER:                  -8.209
REMARK INTRA:                  -1.375
REMARK UNBOUND:                -1.375
REMARK SMILES CC[C@H](CC[C@H](C)[C@@H]1CC[C@H]2[C@@H]3CC=C4C[C@@H](O)CC[C@]4(C)[C@H]3CC[C@]21C)C(C)C
REMARK SMILES IDX 5 1 4 2 3 3 2 4 1 5 28 6 29 7 30 8 6 9 7 10 8 11 9 12 26 13
REMARK SMILES IDX 10 14 11 15 25 16 27 17 12 18 24 19 23 20 13 21 21 22 14 23
REMARK SMILES IDX 15 24 20 25 22 26 16 27 19 28 17 29 18 30
REMARK H PARENT 18 31
REMARK Flexibility Score: inf
ROOT
ATOM      1  C   UNL     1      -6.420  30.845  47.588  1.00  0.00     0.004 C 
ENDROOT
BRANCH   1   2
ATOM      2  C   UNL     1      -5.523  32.091  47.765  1.00  0.00     0.004 C 
BRANCH   2   3
ATOM      3  C   UNL     1      -6.316  33.409  47.982  1.00  0.00    -0.009 C 
BRANCH   3   4
ATOM      4  C   UNL     1      -5.689  34.286  49.111  1.00  0.00     0.000 C 
ATOM      5  C   UNL     1      -6.117  33.939  50.543  1.00  0.00     0.004 C 
ENDBRANCH   3   4
BRANCH   3   6
ATOM      6  C   UNL     1      -6.620  34.185  46.654  1.00  0.00    -0.014 C 
ATOM      7  C   UNL     1      -5.627  33.826  45.533  1.00  0.00     0.007 C 
ATOM      8  C   UNL     1      -8.060  34.032  46.145  1.00  0.00     0.007 C 
ENDBRANCH   3   6
ENDBRANCH   2   3
ENDBRANCH   1   2
BRANCH   1   9
ATOM      9  C   UNL     1      -5.767  29.724  46.724  1.00  0.00    -0.011 C 
ATOM     10  C   UNL     1      -4.224  29.888  46.784  1.00  0.00     0.008 C 
BRANCH   9  11
ATOM     11  C   UNL     1      -6.297  29.648  45.233  1.00  0.00    -0.002 C 
ATOM     12  C   UNL     1      -7.506  30.562  44.973  1.00  0.00     0.005 C 
ATOM     13  C   UNL     1      -6.822  28.245  44.724  1.00  0.00    -0.026 C 
ATOM     14  C   UNL     1      -8.718  29.731  45.317  1.00  0.00     0.005 C 
ATOM     15  C   UNL     1      -8.381  28.299  44.874  1.00  0.00    -0.001 C 
ATOM     16  C   UNL     1      -6.420  28.095  43.230  1.00  0.00     0.007 C 
ATOM     17  C   UNL     1      -6.269  27.022  45.502  1.00  0.00     0.012 C 
ATOM     18  C   UNL     1      -9.190  27.895  43.592  1.00  0.00     0.000 C 
ATOM     19  C   UNL     1      -7.043  26.867  42.555  1.00  0.00     0.005 C 
ATOM     20  C   UNL     1      -8.564  26.681  42.854  1.00  0.00     0.003 C 
ATOM     21  C   UNL     1     -10.652  27.580  43.985  1.00  0.00     0.031 C 
ATOM     22  C   UNL     1      -9.402  26.264  41.583  1.00  0.00    -0.008 C 
ATOM     23  C   UNL     1     -11.440  26.843  42.939  1.00  0.00    -0.027 C 
ATOM     24  C   UNL     1     -10.882  26.111  41.955  1.00  0.00    -0.065 C 
ATOM     25  C   UNL     1      -8.853  24.899  41.056  1.00  0.00     0.014 C 
ATOM     26  C   UNL     1      -9.327  27.330  40.451  1.00  0.00     0.016 C 
ATOM     27  C   UNL     1     -11.803  25.330  41.034  1.00  0.00     0.063 C 
ATOM     28  C   UNL     1      -9.770  24.208  40.037  1.00  0.00     0.033 C 
ATOM     29  C   UNL     1     -11.169  23.993  40.630  1.00  0.00     0.118 C 
BRANCH  29  30
ATOM     30  O   UNL     1     -11.995  23.307  39.721  1.00  0.00    -0.393 OA
ATOM     31  H   UNL     1     -11.407  22.861  39.055  1.00  0.00     0.210 HD
ENDBRANCH  29  30
ENDBRANCH   9  11
ENDBRANCH   1   9
TORSDOF 7
ENDMDL
MODEL 2
REMARK VINA RESULT:    -5.914      1.858      2.781
REMARK INTER + INTRA:          -9.536
REMARK INTER:                  -7.175
REMARK INTRA:                  -2.361
REMARK UNBOUND:                -1.375
REMARK SMILES CC[C@H](CC[C@H](C)[C@@H]1CC[C@H]2[C@@H]3CC=C4C[C@@H](O)CC[C@]4(C)[C@H]3CC[C@]21C)C(C)C
REMARK SMILES IDX 5 1 4 2 3 3 2 4 1 5 28 6 29 7 30 8 6 9 7 10 8 11 9 12 26 13
REMARK SMILES IDX 10 14 11 15 25 16 27 17 12 18 24 19 23 20 13 21 21 22 14 23
REMARK SMILES IDX 15 24 20 25 22 26 16 27 19 28 17 29 18 30
REMARK H PARENT 18 31
REMARK Flexibility Score: inf
ROOT
ATOM      1  C   UNL     1      -4.462  32.058  45.226  1.00  0.00     0.004 C 
ENDROOT
BRANCH   1   2
ATOM      2  C   UNL     1      -5.153  33.366  45.676  1.00  0.00     0.004 C 
BRANCH   2   3
ATOM      3  C   UNL     1      -6.632  33.178  46.110  1.00  0.00    -0.009 C 
BRANCH   3   4
ATOM      4  C   UNL     1      -6.820  33.388  47.645  1.00  0.00     0.000 C 
ATOM      5  C   UNL     1      -5.529  33.515  48.465  1.00  0.00     0.004 C 
ENDBRANCH   3   4
BRANCH   3   6
ATOM      6  C   UNL     1      -7.654  33.966  45.219  1.00  0.00    -0.014 C 
ATOM      7  C   UNL     1      -7.052  34.359  43.858  1.00  0.00     0.007 C 
ATOM      8  C   UNL     1      -8.997  33.252  45.011  1.00  0.00     0.007 C 
ENDBRANCH   3   6
ENDBRANCH   2   3
ENDBRANCH   1   2
BRANCH   1   9
ATOM      9  C   UNL     1      -5.021  30.784  45.929  1.00  0.00    -0.011 C 
ATOM     10  C   UNL     1      -3.923  30.216  46.869  1.00  0.00     0.008 C 
BRANCH   9  11
ATOM     11  C   UNL     1      -5.586  29.681  44.943  1.00  0.00    -0.002 C 
ATOM     12  C   UNL     1      -5.317  29.998  43.463  1.00  0.00     0.005 C 
ATOM     13  C   UNL     1      -7.149  29.435  44.955  1.00  0.00    -0.026 C 
ATOM     14  C   UNL     1      -6.493  30.830  43.011  1.00  0.00     0.005 C 
ATOM     15  C   UNL     1      -7.714  30.261  43.749  1.00  0.00    -0.001 C 
ATOM     16  C   UNL     1      -7.398  27.916  44.744  1.00  0.00     0.007 C 
ATOM     17  C   UNL     1      -7.866  29.868  46.261  1.00  0.00     0.012 C 
ATOM     18  C   UNL     1      -8.648  29.463  42.773  1.00  0.00     0.000 C 
ATOM     19  C   UNL     1      -8.876  27.567  44.532  1.00  0.00     0.005 C 
ATOM     20  C   UNL     1      -9.611  28.505  43.524  1.00  0.00     0.003 C 
ATOM     21  C   UNL     1      -9.457  30.458  41.908  1.00  0.00     0.031 C 
ATOM     22  C   UNL     1     -10.566  27.730  42.534  1.00  0.00    -0.008 C 
ATOM     23  C   UNL     1     -10.634  29.857  41.194  1.00  0.00    -0.027 C 
ATOM     24  C   UNL     1     -11.243  28.717  41.574  1.00  0.00    -0.065 C 
ATOM     25  C   UNL     1     -11.657  26.993  43.377  1.00  0.00     0.014 C 
ATOM     26  C   UNL     1      -9.797  26.698  41.658  1.00  0.00     0.016 C 
ATOM     27  C   UNL     1     -12.490  28.286  40.824  1.00  0.00     0.063 C 
ATOM     28  C   UNL     1     -12.841  26.475  42.550  1.00  0.00     0.033 C 
ATOM     29  C   UNL     1     -13.498  27.622  41.770  1.00  0.00     0.118 C 
BRANCH  29  30
ATOM     30  O   UNL     1     -14.620  27.162  41.058  1.00  0.00    -0.393 OA
ATOM     31  H   UNL     1     -14.401  27.202  40.089  1.00  0.00     0.210 HD
ENDBRANCH  29  30
ENDBRANCH   9  11
ENDBRANCH   1   9
TORSDOF 7
ENDMDL
MODEL 3
REMARK VINA RESULT:    -5.802      0.771      1.611
REMARK INTER + INTRA:          -9.383
REMARK INTER:                  -7.579
REMARK INTRA:                  -1.804
REMARK UNBOUND:                -1.375
REMARK SMILES CC[C@H](CC[C@H](C)[C@@H]1CC[C@H]2[C@@H]3CC=C4C[C@@H](O)CC[C@]4(C)[C@H]3CC[C@]21C)C(C)C
REMARK SMILES IDX 5 1 4 2 3 3 2 4 1 5 28 6 29 7 30 8 6 9 7 10 8 11 9 12 26 13
REMARK SMILES IDX 10 14 11 15 25 16 27 17 12 18 24 19 23 20 13 21 21 22 14 23
REMARK SMILES IDX 15 24 20 25 22 26 16 27 19 28 17 29 18 30
REMARK H PARENT 18 31
REMARK Flexibility Score: inf
ROOT
ATOM      1  C   UNL     1      -6.093  30.622  47.298  1.00  0.00     0.004 C 
ENDROOT
BRANCH   1   2
ATOM      2  C   UNL     1      -4.977  31.690  47.244  1.00  0.00     0.004 C 
BRANCH   2   3
ATOM      3  C   UNL     1      -5.462  33.080  46.749  1.00  0.00    -0.009 C 
BRANCH   3   4
ATOM      4  C   UNL     1      -5.232  33.264  45.216  1.00  0.00     0.000 C 
ATOM      5  C   UNL     1      -4.172  32.353  44.584  1.00  0.00     0.004 C 
ENDBRANCH   3   4
BRANCH   3   6
ATOM      6  C   UNL     1      -6.905  33.452  47.236  1.00  0.00    -0.014 C 
ATOM      7  C   UNL     1      -6.893  34.612  48.247  1.00  0.00     0.007 C 
ATOM      8  C   UNL     1      -7.898  33.755  46.105  1.00  0.00     0.007 C 
ENDBRANCH   3   6
ENDBRANCH   2   3
ENDBRANCH   1   2
BRANCH   1   9
ATOM      9  C   UNL     1      -5.759  29.328  46.495  1.00  0.00    -0.011 C 
ATOM     10  C   UNL     1      -4.218  29.130  46.495  1.00  0.00     0.008 C 
BRANCH   9  11
ATOM     11  C   UNL     1      -6.362  29.287  45.031  1.00  0.00    -0.002 C 
ATOM     12  C   UNL     1      -7.509  30.289  44.821  1.00  0.00     0.005 C 
ATOM     13  C   UNL     1      -7.014  27.925  44.558  1.00  0.00    -0.026 C 
ATOM     14  C   UNL     1      -8.763  29.553  45.226  1.00  0.00     0.005 C 
ATOM     15  C   UNL     1      -8.556  28.098  44.779  1.00  0.00    -0.001 C 
ATOM     16  C   UNL     1      -6.695  27.738  43.049  1.00  0.00     0.007 C 
ATOM     17  C   UNL     1      -6.520  26.667  45.319  1.00  0.00     0.012 C 
ATOM     18  C   UNL     1      -9.452  27.752  43.539  1.00  0.00     0.000 C 
ATOM     19  C   UNL     1      -7.439  26.559  42.413  1.00  0.00     0.005 C 
ATOM     20  C   UNL     1      -8.954  26.491  42.782  1.00  0.00     0.003 C 
ATOM     21  C   UNL     1     -10.914  27.550  44.001  1.00  0.00     0.031 C 
ATOM     22  C   UNL     1      -9.880  26.133  41.554  1.00  0.00    -0.008 C 
ATOM     23  C   UNL     1     -11.803  26.871  42.998  1.00  0.00    -0.027 C 
ATOM     24  C   UNL     1     -11.348  26.094  41.996  1.00  0.00    -0.065 C 
ATOM     25  C   UNL     1      -9.461  24.728  41.014  1.00  0.00     0.014 C 
ATOM     26  C   UNL     1      -9.777  27.185  40.411  1.00  0.00     0.016 C 
ATOM     27  C   UNL     1     -12.367  25.382  41.124  1.00  0.00     0.063 C 
ATOM     28  C   UNL     1     -10.474  24.104  40.043  1.00  0.00     0.033 C 
ATOM     29  C   UNL     1     -11.856  23.999  40.701  1.00  0.00     0.118 C 
BRANCH  29  30
ATOM     30  O   UNL     1     -12.773  23.373  39.837  1.00  0.00    -0.393 OA
ATOM     31  H   UNL     1     -13.082  22.537  40.278  1.00  0.00     0.210 HD
ENDBRANCH  29  30
ENDBRANCH   9  11
ENDBRANCH   1   9
TORSDOF 7
ENDMDL
MODEL 4
REMARK VINA RESULT:    -5.603      1.980      3.670
REMARK INTER + INTRA:          -9.107
REMARK INTER:                  -7.131
REMARK INTRA:                  -1.976
REMARK UNBOUND:                -1.375
REMARK SMILES CC[C@H](CC[C@H](C)[C@@H]1CC[C@H]2[C@@H]3CC=C4C[C@@H](O)CC[C@]4(C)[C@H]3CC[C@]21C)C(C)C
REMARK SMILES IDX 5 1 4 2 3 3 2 4 1 5 28 6 29 7 30 8 6 9 7 10 8 11 9 12 26 13
REMARK SMILES IDX 10 14 11 15 25 16 27 17 12 18 24 19 23 20 13 21 21 22 14 23
REMARK SMILES IDX 15 24 20 25 22 26 16 27 19 28 17 29 18 30
REMARK H PARENT 18 31
REMARK Flexibility Score: inf
ROOT
ATOM      1  C   UNL     1      -4.905  29.773  43.771  1.00  0.00     0.004 C 
ENDROOT
BRANCH   1   2
ATOM      2  C   UNL     1      -4.720  29.580  45.294  1.00  0.00     0.004 C 
BRANCH   2   3
ATOM      3  C   UNL     1      -5.949  28.943  45.999  1.00  0.00    -0.009 C 
BRANCH   3   4
ATOM      4  C   UNL     1      -5.640  27.503  46.517  1.00  0.00     0.000 C 
ATOM      5  C   UNL     1      -6.563  26.393  45.996  1.00  0.00     0.004 C 
ENDBRANCH   3   4
BRANCH   3   6
ATOM      6  C   UNL     1      -6.620  29.882  47.060  1.00  0.00    -0.014 C 
ATOM      7  C   UNL     1      -5.746  31.106  47.387  1.00  0.00     0.007 C 
ATOM      8  C   UNL     1      -8.041  30.336  46.696  1.00  0.00     0.007 C 
ENDBRANCH   3   6
ENDBRANCH   2   3
ENDBRANCH   1   2
BRANCH   1   9
ATOM      9  C   UNL     1      -5.192  28.447  43.004  1.00  0.00    -0.011 C 
ATOM     10  C   UNL     1      -3.879  27.978  42.318  1.00  0.00     0.008 C 
BRANCH   9  11
ATOM     11  C   UNL     1      -6.400  28.524  41.983  1.00  0.00    -0.002 C 
ATOM     12  C   UNL     1      -7.407  29.635  42.320  1.00  0.00     0.005 C 
ATOM     13  C   UNL     1      -7.331  27.250  41.869  1.00  0.00    -0.026 C 
ATOM     14  C   UNL     1      -8.403  29.002  43.261  1.00  0.00     0.005 C 
ATOM     15  C   UNL     1      -8.573  27.555  42.775  1.00  0.00    -0.001 C 
ATOM     16  C   UNL     1      -7.761  27.099  40.383  1.00  0.00     0.007 C 
ATOM     17  C   UNL     1      -6.673  25.920  42.323  1.00  0.00     0.012 C 
ATOM     18  C   UNL     1      -9.968  27.346  42.089  1.00  0.00     0.000 C 
ATOM     19  C   UNL     1      -8.829  26.022  40.167  1.00  0.00     0.005 C 
ATOM     20  C   UNL     1     -10.004  26.078  41.193  1.00  0.00     0.003 C 
ATOM     21  C   UNL     1     -11.067  27.261  43.173  1.00  0.00     0.031 C 
ATOM     22  C   UNL     1     -11.421  25.861  40.532  1.00  0.00    -0.008 C 
ATOM     23  C   UNL     1     -12.381  26.710  42.696  1.00  0.00    -0.027 C 
ATOM     24  C   UNL     1     -12.519  25.938  41.600  1.00  0.00    -0.065 C 
ATOM     25  C   UNL     1     -11.442  24.447  39.865  1.00  0.00     0.014 C 
ATOM     26  C   UNL     1     -11.747  26.947  39.465  1.00  0.00     0.016 C 
ATOM     27  C   UNL     1     -13.890  25.361  41.299  1.00  0.00     0.063 C 
ATOM     28  C   UNL     1     -12.845  23.962  39.473  1.00  0.00     0.033 C 
ATOM     29  C   UNL     1     -13.774  23.956  40.695  1.00  0.00     0.118 C 
BRANCH  29  30
ATOM     30  O   UNL     1     -15.043  23.456  40.353  1.00  0.00    -0.393 OA
ATOM     31  H   UNL     1     -15.503  24.146  39.804  1.00  0.00     0.210 HD
ENDBRANCH  29  30
ENDBRANCH   9  11
ENDBRANCH   1   9
TORSDOF 7
ENDMDL
MODEL 5
REMARK VINA RESULT:    -5.533      3.520      9.652
REMARK INTER + INTRA:          -9.011
REMARK INTER:                  -6.718
REMARK INTRA:                  -2.294
REMARK UNBOUND:                -1.375
REMARK SMILES CC[C@H](CC[C@H](C)[C@@H]1CC[C@H]2[C@@H]3CC=C4C[C@@H](O)CC[C@]4(C)[C@H]3CC[C@]21C)C(C)C
REMARK SMILES IDX 5 1 4 2 3 3 2 4 1 5 28 6 29 7 30 8 6 9 7 10 8 11 9 12 26 13
REMARK SMILES IDX 10 14 11 15 25 16 27 17 12 18 24 19 23 20 13 21 21 22 14 23
REMARK SMILES IDX 15 24 20 25 22 26 16 27 19 28 17 29 18 30
REMARK H PARENT 18 31
REMARK Flexibility Score: inf
ROOT
ATOM      1  C   UNL     1     -12.655  25.168  38.383  1.00  0.00     0.004 C 
ENDROOT
BRANCH   1   2
ATOM      2  C   UNL     1     -12.973  23.673  38.616  1.00  0.00     0.004 C 
BRANCH   2   3
ATOM      3  C   UNL     1     -13.193  23.303  40.108  1.00  0.00    -0.009 C 
BRANCH   3   4
ATOM      4  C   UNL     1     -14.621  22.726  40.361  1.00  0.00     0.000 C 
ATOM      5  C   UNL     1     -15.718  23.214  39.405  1.00  0.00     0.004 C 
ENDBRANCH   3   4
BRANCH   3   6
ATOM      6  C   UNL     1     -12.031  22.446  40.721  1.00  0.00    -0.014 C 
ATOM      7  C   UNL     1     -10.862  22.268  39.736  1.00  0.00     0.007 C 
ATOM      8  C   UNL     1     -11.506  22.960  42.068  1.00  0.00     0.007 C 
ENDBRANCH   3   6
ENDBRANCH   2   3
ENDBRANCH   1   2
BRANCH   1   9
ATOM      9  C   UNL     1     -12.860  26.054  39.650  1.00  0.00    -0.011 C 
ATOM     10  C   UNL     1     -14.213  26.804  39.515  1.00  0.00     0.008 C 
BRANCH   9  11
ATOM     11  C   UNL     1     -11.663  27.042  39.964  1.00  0.00    -0.002 C 
ATOM     12  C   UNL     1     -10.404  26.751  39.131  1.00  0.00     0.005 C 
ATOM     13  C   UNL     1     -11.096  27.042  41.440  1.00  0.00    -0.026 C 
ATOM     14  C   UNL     1      -9.618  25.741  39.931  1.00  0.00     0.005 C 
ATOM     15  C   UNL     1      -9.827  26.123  41.404  1.00  0.00    -0.001 C 
ATOM     16  C   UNL     1     -10.704  28.501  41.805  1.00  0.00     0.007 C 
ATOM     17  C   UNL     1     -12.083  26.520  42.518  1.00  0.00     0.012 C 
ATOM     18  C   UNL     1      -8.528  26.752  42.018  1.00  0.00     0.000 C 
ATOM     19  C   UNL     1      -9.952  28.613  43.136  1.00  0.00     0.005 C 
ATOM     20  C   UNL     1      -8.814  27.559  43.313  1.00  0.00     0.003 C 
ATOM     21  C   UNL     1      -7.501  25.633  42.307  1.00  0.00     0.031 C 
ATOM     22  C   UNL     1      -7.497  28.162  43.939  1.00  0.00    -0.008 C 
ATOM     23  C   UNL     1      -6.372  26.033  43.213  1.00  0.00    -0.027 C 
ATOM     24  C   UNL     1      -6.428  27.070  44.072  1.00  0.00    -0.065 C 
ATOM     25  C   UNL     1      -7.838  28.732  45.354  1.00  0.00     0.014 C 
ATOM     26  C   UNL     1      -6.887  29.290  43.055  1.00  0.00     0.016 C 
ATOM     27  C   UNL     1      -5.252  27.291  45.006  1.00  0.00     0.063 C 
ATOM     28  C   UNL     1      -6.608  29.049  46.214  1.00  0.00     0.033 C 
ATOM     29  C   UNL     1      -5.725  27.803  46.372  1.00  0.00     0.118 C 
BRANCH  29  30
ATOM     30  O   UNL     1      -4.627  28.073  47.209  1.00  0.00    -0.393 OA
ATOM     31  H   UNL     1      -4.578  27.347  47.887  1.00  0.00     0.210 HD
ENDBRANCH  29  30
ENDBRANCH   9  11
ENDBRANCH   1   9
TORSDOF 7
ENDMDL
MODEL 6
REMARK VINA RESULT:    -5.488     11.810     14.638
REMARK INTER + INTRA:          -8.949
REMARK INTER:                  -6.569
REMARK INTRA:                  -2.380
REMARK UNBOUND:                -1.375
REMARK SMILES CC[C@H](CC[C@H](C)[C@@H]1CC[C@H]2[C@@H]3CC=C4C[C@@H](O)CC[C@]4(C)[C@H]3CC[C@]21C)C(C)C
REMARK SMILES IDX 5 1 4 2 3 3 2 4 1 5 28 6 29 7 30 8 6 9 7 10 8 11 9 12 26 13
REMARK SMILES IDX 10 14 11 15 25 16 27 17 12 18 24 19 23 20 13 21 21 22 14 23
REMARK SMILES IDX 15 24 20 25 22 26 16 27 19 28 17 29 18 30
REMARK H PARENT 18 31
REMARK Flexibility Score: inf
ROOT
ATOM      1  C   UNL     1     -17.140  27.157  33.860  1.00  0.00     0.004 C 
ENDROOT
BRANCH   1   2
ATOM      2  C   UNL     1     -18.111  26.234  33.089  1.00  0.00     0.004 C 
BRANCH   2   3
ATOM      3  C   UNL     1     -18.262  24.820  33.714  1.00  0.00    -0.009 C 
BRANCH   3   4
ATOM      4  C   UNL     1     -19.562  24.698  34.569  1.00  0.00     0.000 C 
ATOM      5  C   UNL     1     -19.357  24.426  36.065  1.00  0.00     0.004 C 
ENDBRANCH   3   4
BRANCH   3   6
ATOM      6  C   UNL     1     -18.050  23.653  32.688  1.00  0.00    -0.014 C 
ATOM      7  C   UNL     1     -17.462  22.396  33.355  1.00  0.00     0.007 C 
ATOM      8  C   UNL     1     -19.302  23.281  31.883  1.00  0.00     0.007 C 
ENDBRANCH   3   6
ENDBRANCH   2   3
ENDBRANCH   1   2
BRANCH   1   9
ATOM      9  C   UNL     1     -16.489  26.479  35.104  1.00  0.00    -0.011 C 
ATOM     10  C   UNL     1     -16.808  27.336  36.360  1.00  0.00     0.008 C 
BRANCH   9  11
ATOM     11  C   UNL     1     -14.938  26.191  34.962  1.00  0.00    -0.002 C 
ATOM     12  C   UNL     1     -14.381  26.550  33.574  1.00  0.00     0.005 C 
ATOM     13  C   UNL     1     -14.463  24.692  35.137  1.00  0.00    -0.026 C 
ATOM     14  C   UNL     1     -14.563  25.308  32.736  1.00  0.00     0.005 C 
ATOM     15  C   UNL     1     -14.315  24.125  33.684  1.00  0.00    -0.001 C 
ATOM     16  C   UNL     1     -13.088  24.705  35.862  1.00  0.00     0.007 C 
ATOM     17  C   UNL     1     -15.432  23.792  35.949  1.00  0.00     0.012 C 
ATOM     18  C   UNL     1     -12.945  23.427  33.375  1.00  0.00     0.000 C 
ATOM     19  C   UNL     1     -12.417  23.328  35.916  1.00  0.00     0.005 C 
ATOM     20  C   UNL     1     -12.443  22.556  34.559  1.00  0.00     0.003 C 
ATOM     21  C   UNL     1     -13.085  22.560  32.102  1.00  0.00     0.031 C 
ATOM     22  C   UNL     1     -11.079  21.834  34.226  1.00  0.00    -0.008 C 
ATOM     23  C   UNL     1     -11.978  21.566  31.893  1.00  0.00    -0.027 C 
ATOM     24  C   UNL     1     -11.182  21.109  32.879  1.00  0.00    -0.065 C 
ATOM     25  C   UNL     1     -10.783  20.795  35.356  1.00  0.00     0.014 C 
ATOM     26  C   UNL     1      -9.893  22.837  34.114  1.00  0.00     0.016 C 
ATOM     27  C   UNL     1     -10.176  20.022  32.542  1.00  0.00     0.063 C 
ATOM     28  C   UNL     1      -9.674  19.793  35.008  1.00  0.00     0.033 C 
ATOM     29  C   UNL     1     -10.013  19.044  33.711  1.00  0.00     0.118 C 
BRANCH  29  30
ATOM     30  O   UNL     1      -9.029  18.082  33.421  1.00  0.00    -0.393 OA
ATOM     31  H   UNL     1      -8.882  18.086  32.437  1.00  0.00     0.210 HD
ENDBRANCH  29  30
ENDBRANCH   9  11
ENDBRANCH   1   9
TORSDOF 7
ENDMDL
MODEL 7
REMARK VINA RESULT:    -5.421     11.564     13.773
REMARK INTER + INTRA:          -8.856
REMARK INTER:                  -6.771
REMARK INTRA:                  -2.085
REMARK UNBOUND:                -1.375
REMARK SMILES CC[C@H](CC[C@H](C)[C@@H]1CC[C@H]2[C@@H]3CC=C4C[C@@H](O)CC[C@]4(C)[C@H]3CC[C@]21C)C(C)C
REMARK SMILES IDX 5 1 4 2 3 3 2 4 1 5 28 6 29 7 30 8 6 9 7 10 8 11 9 12 26 13
REMARK SMILES IDX 10 14 11 15 25 16 27 17 12 18 24 19 23 20 13 21 21 22 14 23
REMARK SMILES IDX 15 24 20 25 22 26 16 27 19 28 17 29 18 30
REMARK H PARENT 18 31
REMARK Flexibility Score: inf
ROOT
ATOM      1  C   UNL     1      -8.973  20.924  31.875  1.00  0.00     0.004 C 
ENDROOT
BRANCH   1   2
ATOM      2  C   UNL     1      -9.728  22.273  31.875  1.00  0.00     0.004 C 
BRANCH   2   3
ATOM      3  C   UNL     1     -10.544  22.536  33.171  1.00  0.00    -0.009 C 
BRANCH   3   4
ATOM      4  C   UNL     1     -10.057  23.819  33.915  1.00  0.00     0.000 C 
ATOM      5  C   UNL     1      -9.327  23.584  35.244  1.00  0.00     0.004 C 
ENDBRANCH   3   4
BRANCH   3   6
ATOM      6  C   UNL     1     -12.096  22.459  32.962  1.00  0.00    -0.014 C 
ATOM      7  C   UNL     1     -12.533  21.113  32.355  1.00  0.00     0.007 C 
ATOM      8  C   UNL     1     -12.921  22.756  34.222  1.00  0.00     0.007 C 
ENDBRANCH   3   6
ENDBRANCH   2   3
ENDBRANCH   1   2
BRANCH   1   9
ATOM      9  C   UNL     1      -7.997  20.756  33.078  1.00  0.00    -0.011 C 
ATOM     10  C   UNL     1      -6.539  20.813  32.544  1.00  0.00     0.008 C 
BRANCH   9  11
ATOM     11  C   UNL     1      -8.255  19.466  33.961  1.00  0.00    -0.002 C 
ATOM     12  C   UNL     1      -9.709  18.972  33.899  1.00  0.00     0.005 C 
ATOM     13  C   UNL     1      -8.011  19.598  35.519  1.00  0.00    -0.026 C 
ATOM     14  C   UNL     1     -10.433  19.716  34.995  1.00  0.00     0.005 C 
ATOM     15  C   UNL     1      -9.425  19.846  36.146  1.00  0.00    -0.001 C 
ATOM     16  C   UNL     1      -7.414  18.256  36.027  1.00  0.00     0.007 C 
ATOM     17  C   UNL     1      -7.051  20.745  35.934  1.00  0.00     0.012 C 
ATOM     18  C   UNL     1      -9.802  18.901  37.340  1.00  0.00     0.000 C 
ATOM     19  C   UNL     1      -7.318  18.175  37.555  1.00  0.00     0.005 C 
ATOM     20  C   UNL     1      -8.606  18.650  38.298  1.00  0.00     0.003 C 
ATOM     21  C   UNL     1     -10.989  19.509  38.123  1.00  0.00     0.031 C 
ATOM     22  C   UNL     1      -9.004  17.723  39.512  1.00  0.00    -0.008 C 
ATOM     23  C   UNL     1     -11.221  18.909  39.480  1.00  0.00    -0.027 C 
ATOM     24  C   UNL     1     -10.279  18.250  40.182  1.00  0.00    -0.065 C 
ATOM     25  C   UNL     1      -7.830  17.732  40.545  1.00  0.00     0.014 C 
ATOM     26  C   UNL     1      -9.296  16.260  39.066  1.00  0.00     0.016 C 
ATOM     27  C   UNL     1     -10.622  17.793  41.588  1.00  0.00     0.063 C 
ATOM     28  C   UNL     1      -8.200  17.149  41.916  1.00  0.00     0.033 C 
ATOM     29  C   UNL     1      -9.402  17.895  42.512  1.00  0.00     0.118 C 
BRANCH  29  30
ATOM     30  O   UNL     1      -9.707  17.404  43.794  1.00  0.00    -0.393 OA
ATOM     31  H   UNL     1     -10.523  16.841  43.717  1.00  0.00     0.210 HD
ENDBRANCH  29  30
ENDBRANCH   9  11
ENDBRANCH   1   9
TORSDOF 7
ENDMDL
MODEL 8
REMARK VINA RESULT:    -5.361      3.070      8.929
REMARK INTER + INTRA:          -8.773
REMARK INTER:                  -6.775
REMARK INTRA:                  -1.998
REMARK UNBOUND:                -1.375
REMARK SMILES CC[C@H](CC[C@H](C)[C@@H]1CC[C@H]2[C@@H]3CC=C4C[C@@H](O)CC[C@]4(C)[C@H]3CC[C@]21C)C(C)C
REMARK SMILES IDX 5 1 4 2 3 3 2 4 1 5 28 6 29 7 30 8 6 9 7 10 8 11 9 12 26 13
REMARK SMILES IDX 10 14 11 15 25 16 27 17 12 18 24 19 23 20 13 21 21 22 14 23
REMARK SMILES IDX 15 24 20 25 22 26 16 27 19 28 17 29 18 30
REMARK H PARENT 18 31
REMARK Flexibility Score: inf
ROOT
ATOM      1  C   UNL     1     -11.157  25.751  39.248  1.00  0.00     0.004 C 
ENDROOT
BRANCH   1   2
ATOM      2  C   UNL     1     -12.608  25.253  39.439  1.00  0.00     0.004 C 
BRANCH   2   3
ATOM      3  C   UNL     1     -12.977  24.947  40.916  1.00  0.00    -0.009 C 
BRANCH   3   4
ATOM      4  C   UNL     1     -11.753  24.414  41.723  1.00  0.00     0.000 C 
ATOM      5  C   UNL     1     -11.736  22.903  41.994  1.00  0.00     0.004 C 
ENDBRANCH   3   4
BRANCH   3   6
ATOM      6  C   UNL     1     -13.761  26.108  41.621  1.00  0.00    -0.014 C 
ATOM      7  C   UNL     1     -12.904  26.824  42.681  1.00  0.00     0.007 C 
ATOM      8  C   UNL     1     -14.371  27.137  40.659  1.00  0.00     0.007 C 
ENDBRANCH   3   6
ENDBRANCH   2   3
ENDBRANCH   1   2
BRANCH   1   9
ATOM      9  C   UNL     1     -11.025  27.304  39.249  1.00  0.00    -0.011 C 
ATOM     10  C   UNL     1     -11.310  27.826  37.814  1.00  0.00     0.008 C 
BRANCH   9  11
ATOM     11  C   UNL     1      -9.649  27.848  39.815  1.00  0.00    -0.002 C 
ATOM     12  C   UNL     1      -8.724  26.734  40.331  1.00  0.00     0.005 C 
ATOM     13  C   UNL     1      -9.717  28.829  41.055  1.00  0.00    -0.026 C 
ATOM     14  C   UNL     1      -9.102  26.538  41.779  1.00  0.00     0.005 C 
ATOM     15  C   UNL     1      -9.447  27.936  42.313  1.00  0.00    -0.001 C 
ATOM     16  C   UNL     1      -8.597  29.893  40.888  1.00  0.00     0.007 C 
ATOM     17  C   UNL     1     -11.070  29.570  41.226  1.00  0.00     0.012 C 
ATOM     18  C   UNL     1      -8.332  28.465  43.281  1.00  0.00     0.000 C 
ATOM     19  C   UNL     1      -8.420  30.786  42.121  1.00  0.00     0.005 C 
ATOM     20  C   UNL     1      -8.394  30.005  43.472  1.00  0.00     0.003 C 
ATOM     21  C   UNL     1      -8.459  27.756  44.650  1.00  0.00     0.031 C 
ATOM     22  C   UNL     1      -7.287  30.523  44.471  1.00  0.00    -0.008 C 
ATOM     23  C   UNL     1      -7.702  28.410  45.770  1.00  0.00    -0.027 C 
ATOM     24  C   UNL     1      -7.320  29.702  45.766  1.00  0.00    -0.065 C 
ATOM     25  C   UNL     1      -7.581  32.023  44.798  1.00  0.00     0.014 C 
ATOM     26  C   UNL     1      -5.852  30.387  43.884  1.00  0.00     0.016 C 
ATOM     27  C   UNL     1      -6.658  30.257  47.015  1.00  0.00     0.063 C 
ATOM     28  C   UNL     1      -6.795  32.567  45.999  1.00  0.00     0.033 C 
ATOM     29  C   UNL     1      -7.064  31.717  47.248  1.00  0.00     0.118 C 
BRANCH  29  30
ATOM     30  O   UNL     1      -6.393  32.247  48.365  1.00  0.00    -0.393 OA
ATOM     31  H   UNL     1      -6.994  32.917  48.789  1.00  0.00     0.210 HD
ENDBRANCH  29  30
ENDBRANCH   9  11
ENDBRANCH   1   9
TORSDOF 7
ENDMDL
MODEL 9
REMARK VINA RESULT:    -5.354      2.083      3.887
REMARK INTER + INTRA:          -8.764
REMARK INTER:                  -6.284
REMARK INTRA:                  -2.480
REMARK UNBOUND:                -1.375
REMARK SMILES CC[C@H](CC[C@H](C)[C@@H]1CC[C@H]2[C@@H]3CC=C4C[C@@H](O)CC[C@]4(C)[C@H]3CC[C@]21C)C(C)C
REMARK SMILES IDX 5 1 4 2 3 3 2 4 1 5 28 6 29 7 30 8 6 9 7 10 8 11 9 12 26 13
REMARK SMILES IDX 10 14 11 15 25 16 27 17 12 18 24 19 23 20 13 21 21 22 14 23
REMARK SMILES IDX 15 24 20 25 22 26 16 27 19 28 17 29 18 30
REMARK H PARENT 18 31
REMARK Flexibility Score: inf
ROOT
ATOM      1  C   UNL     1      -5.681  29.103  46.256  1.00  0.00     0.004 C 
ENDROOT
BRANCH   1   2
ATOM      2  C   UNL     1      -4.571  29.739  45.389  1.00  0.00     0.004 C 
BRANCH   2   3
ATOM      3  C   UNL     1      -5.106  30.514  44.154  1.00  0.00    -0.009 C 
BRANCH   3   4
ATOM      4  C   UNL     1      -4.909  32.055  44.305  1.00  0.00     0.000 C 
ATOM      5  C   UNL     1      -6.188  32.902  44.247  1.00  0.00     0.004 C 
ENDBRANCH   3   4
BRANCH   3   6
ATOM      6  C   UNL     1      -4.615  29.931  42.784  1.00  0.00    -0.014 C 
ATOM      7  C   UNL     1      -3.875  28.592  42.957  1.00  0.00     0.007 C 
ATOM      8  C   UNL     1      -5.716  29.787  41.725  1.00  0.00     0.007 C 
ENDBRANCH   3   6
ENDBRANCH   2   3
ENDBRANCH   1   2
BRANCH   1   9
ATOM      9  C   UNL     1      -7.123  29.483  45.801  1.00  0.00    -0.011 C 
ATOM     10  C   UNL     1      -7.753  30.411  46.876  1.00  0.00     0.008 C 
BRANCH   9  11
ATOM     11  C   UNL     1      -8.055  28.247  45.465  1.00  0.00    -0.002 C 
ATOM     12  C   UNL     1      -7.286  26.921  45.356  1.00  0.00     0.005 C 
ATOM     13  C   UNL     1      -8.844  28.291  44.094  1.00  0.00    -0.026 C 
ATOM     14  C   UNL     1      -6.849  26.827  43.915  1.00  0.00     0.005 C 
ATOM     15  C   UNL     1      -7.993  27.438  43.092  1.00  0.00    -0.001 C 
ATOM     16  C   UNL     1     -10.238  27.642  44.320  1.00  0.00     0.007 C 
ATOM     17  C   UNL     1      -9.059  29.713  43.511  1.00  0.00     0.012 C 
ATOM     18  C   UNL     1      -8.788  26.330  42.315  1.00  0.00     0.000 C 
ATOM     19  C   UNL     1     -11.029  27.435  43.024  1.00  0.00     0.005 C 
ATOM     20  C   UNL     1     -10.191  26.816  41.861  1.00  0.00     0.003 C 
ATOM     21  C   UNL     1      -7.964  25.870  41.090  1.00  0.00     0.031 C 
ATOM     22  C   UNL     1     -10.970  25.705  41.054  1.00  0.00    -0.008 C 
ATOM     23  C   UNL     1      -8.740  25.088  40.068  1.00  0.00    -0.027 C 
ATOM     24  C   UNL     1     -10.080  25.142  39.939  1.00  0.00    -0.065 C 
ATOM     25  C   UNL     1     -12.245  26.354  40.425  1.00  0.00     0.014 C 
ATOM     26  C   UNL     1     -11.385  24.504  41.955  1.00  0.00     0.016 C 
ATOM     27  C   UNL     1     -10.720  24.384  38.790  1.00  0.00     0.063 C 
ATOM     28  C   UNL     1     -12.920  25.491  39.351  1.00  0.00     0.033 C 
ATOM     29  C   UNL     1     -11.927  25.148  38.233  1.00  0.00     0.118 C 
BRANCH  29  30
ATOM     30  O   UNL     1     -12.557  24.408  37.216  1.00  0.00    -0.393 OA
ATOM     31  H   UNL     1     -12.164  23.495  37.218  1.00  0.00     0.210 HD
ENDBRANCH  29  30
ENDBRANCH   9  11
ENDBRANCH   1   9
TORSDOF 7
ENDMDL
