MODEL 1
REMARK VINA RESULT:    -3.665      0.000      0.000
REMARK INTER + INTRA:          -5.218
REMARK INTER:                  -4.951
REMARK INTRA:                  -0.267
REMARK UNBOUND:                -0.267
REMARK SMILES CCCCCCCC(=O)[O-]
REMARK SMILES IDX 5 1 6 2 7 3 8 4 9 5 10 6 4 7 3 8 2 9 1 10
REMARK H PARENT
REMARK Flexibility Score: inf
ROOT
ATOM      1  C   UNL     1       7.492   6.553  34.140  1.00  0.00     0.000 C 
ENDROOT
BRANCH   1   2
ATOM      2  C   UNL     1       7.368   6.362  35.660  1.00  0.00     0.006 C 
BRANCH   2   3
ATOM      3  C   UNL     1       8.706   6.009  36.321  1.00  0.00     0.053 C 
BRANCH   3   4
ATOM      4  C   UNL     1       9.123   4.622  35.947  1.00  0.00     0.041 C 
ATOM      5  O   UNL     1      10.324   4.378  35.657  1.00  0.00    -0.550 OA
ATOM      6  O   UNL     1       8.196   3.588  35.968  1.00  0.00    -0.550 OA
ENDBRANCH   3   4
ENDBRANCH   2   3
ENDBRANCH   1   2
BRANCH   1   7
ATOM      7  C   UNL     1       6.582   7.675  33.609  1.00  0.00     0.000 C 
BRANCH   7   8
ATOM      8  C   UNL     1       7.378   8.845  33.008  1.00  0.00    -0.000 C 
BRANCH   8   9
ATOM      9  C   UNL     1       6.582  10.158  33.002  1.00  0.00    -0.003 C 
ATOM     10  C   UNL     1       5.876  10.378  34.337  1.00  0.00     0.004 C 
ENDBRANCH   8   9
ENDBRANCH   7   8
ENDBRANCH   1   7
TORSDOF 6
ENDMDL
MODEL 2
REMARK VINA RESULT:    -3.624      1.153      1.553
REMARK INTER + INTRA:          -5.162
REMARK INTER:                  -4.971
REMARK INTRA:                  -0.191
REMARK UNBOUND:                -0.267
REMARK SMILES CCCCCCCC(=O)[O-]
REMARK SMILES IDX 5 1 6 2 7 3 8 4 9 5 10 6 4 7 3 8 2 9 1 10
REMARK H PARENT
REMARK Flexibility Score: inf
ROOT
ATOM      1  C   UNL     1       7.683   6.339  34.498  1.00  0.00     0.000 C 
ENDROOT
BRANCH   1   2
ATOM      2  C   UNL     1       8.165   5.939  35.902  1.00  0.00     0.006 C 
BRANCH   2   3
ATOM      3  C   UNL     1       8.471   4.440  36.015  1.00  0.00     0.053 C 
BRANCH   3   4
ATOM      4  C   UNL     1       9.949   4.209  36.026  1.00  0.00     0.041 C 
ATOM      5  O   UNL     1      10.489   3.612  36.994  1.00  0.00    -0.550 OA
ATOM      6  O   UNL     1      10.723   4.606  34.944  1.00  0.00    -0.550 OA
ENDBRANCH   3   4
ENDBRANCH   2   3
ENDBRANCH   1   2
BRANCH   1   7
ATOM      7  C   UNL     1       6.292   6.999  34.517  1.00  0.00     0.000 C 
BRANCH   7   8
ATOM      8  C   UNL     1       6.368   8.534  34.497  1.00  0.00    -0.000 C 
BRANCH   8   9
ATOM      9  C   UNL     1       7.050   9.075  33.232  1.00  0.00    -0.003 C 
ATOM     10  C   UNL     1       6.535  10.468  32.882  1.00  0.00     0.004 C 
ENDBRANCH   8   9
ENDBRANCH   7   8
ENDBRANCH   1   7
TORSDOF 6
ENDMDL
MODEL 3
REMARK VINA RESULT:    -3.576      3.434      5.606
REMARK INTER + INTRA:          -5.097
REMARK INTER:                  -4.815
REMARK INTRA:                  -0.282
REMARK UNBOUND:                -0.267
REMARK SMILES CCCCCCCC(=O)[O-]
REMARK SMILES IDX 5 1 6 2 7 3 8 4 9 5 10 6 4 7 3 8 2 9 1 10
REMARK H PARENT
REMARK Flexibility Score: inf
ROOT
ATOM      1  C   UNL     1       7.373   6.444  34.169  1.00  0.00     0.000 C 
ENDROOT
BRANCH   1   2
ATOM      2  C   UNL     1       6.515   7.465  33.406  1.00  0.00     0.006 C 
BRANCH   2   3
ATOM      3  C   UNL     1       7.292   8.738  33.048  1.00  0.00     0.053 C 
BRANCH   3   4
ATOM      4  C   UNL     1       6.542   9.952  33.498  1.00  0.00     0.041 C 
ATOM      5  O   UNL     1       6.188  10.824  32.661  1.00  0.00    -0.550 OA
ATOM      6  O   UNL     1       6.189  10.096  34.833  1.00  0.00    -0.550 OA
ENDBRANCH   3   4
ENDBRANCH   2   3
ENDBRANCH   1   2
BRANCH   1   7
ATOM      7  C   UNL     1       7.420   6.725  35.682  1.00  0.00     0.000 C 
BRANCH   7   8
ATOM      8  C   UNL     1       8.258   5.689  36.448  1.00  0.00    -0.000 C 
BRANCH   8   9
ATOM      9  C   UNL     1       9.514   5.259  35.676  1.00  0.00    -0.003 C 
ATOM     10  C   UNL     1      10.051   3.929  36.198  1.00  0.00     0.004 C 
ENDBRANCH   8   9
ENDBRANCH   7   8
ENDBRANCH   1   7
TORSDOF 6
ENDMDL
MODEL 4
REMARK VINA RESULT:    -3.407      1.880      3.103
REMARK INTER + INTRA:          -4.869
REMARK INTER:                  -4.558
REMARK INTRA:                  -0.311
REMARK UNBOUND:                -0.267
REMARK SMILES CCCCCCCC(=O)[O-]
REMARK SMILES IDX 5 1 6 2 7 3 8 4 9 5 10 6 4 7 3 8 2 9 1 10
REMARK H PARENT
REMARK Flexibility Score: inf
ROOT
ATOM      1  C   UNL     1       7.035   9.434  33.677  1.00  0.00     0.000 C 
ENDROOT
BRANCH   1   2
ATOM      2  C   UNL     1       6.788   8.034  33.094  1.00  0.00     0.006 C 
BRANCH   2   3
ATOM      3  C   UNL     1       6.106   7.092  34.093  1.00  0.00     0.053 C 
BRANCH   3   4
ATOM      4  C   UNL     1       7.082   6.637  35.132  1.00  0.00     0.041 C 
ATOM      5  O   UNL     1       8.138   6.042  34.791  1.00  0.00    -0.550 OA
ATOM      6  O   UNL     1       6.851   6.916  36.472  1.00  0.00    -0.550 OA
ENDBRANCH   3   4
ENDBRANCH   2   3
ENDBRANCH   1   2
BRANCH   1   7
ATOM      7  C   UNL     1       6.406  10.550  32.824  1.00  0.00     0.000 C 
BRANCH   7   8
ATOM      8  C   UNL     1       5.875  11.715  33.675  1.00  0.00    -0.000 C 
BRANCH   8   9
ATOM      9  C   UNL     1       5.891  11.403  35.178  1.00  0.00    -0.003 C 
ATOM     10  C   UNL     1       6.233  12.646  35.994  1.00  0.00     0.004 C 
ENDBRANCH   8   9
ENDBRANCH   7   8
ENDBRANCH   1   7
TORSDOF 6
ENDMDL
MODEL 5
REMARK VINA RESULT:    -3.008     22.188     23.149
REMARK INTER + INTRA:          -4.330
REMARK INTER:                  -4.000
REMARK INTRA:                  -0.330
REMARK UNBOUND:                -0.267
REMARK SMILES CCCCCCCC(=O)[O-]
REMARK SMILES IDX 5 1 6 2 7 3 8 4 9 5 10 6 4 7 3 8 2 9 1 10
REMARK H PARENT
REMARK Flexibility Score: inf
ROOT
ATOM      1  C   UNL     1      17.548  18.942  19.491  1.00  0.00     0.000 C 
ENDROOT
BRANCH   1   2
ATOM      2  C   UNL     1      18.201  20.306  19.766  1.00  0.00     0.006 C 
BRANCH   2   3
ATOM      3  C   UNL     1      19.731  20.259  19.660  1.00  0.00     0.053 C 
BRANCH   3   4
ATOM      4  C   UNL     1      20.357  20.968  20.819  1.00  0.00     0.041 C 
ATOM      5  O   UNL     1      19.657  21.296  21.814  1.00  0.00    -0.550 OA
ATOM      6  O   UNL     1      21.722  21.220  20.824  1.00  0.00    -0.550 OA
ENDBRANCH   3   4
ENDBRANCH   2   3
ENDBRANCH   1   2
BRANCH   1   7
ATOM      7  C   UNL     1      17.082  18.794  18.032  1.00  0.00     0.000 C 
BRANCH   7   8
ATOM      8  C   UNL     1      18.042  17.937  17.190  1.00  0.00    -0.000 C 
BRANCH   8   9
ATOM      9  C   UNL     1      18.582  16.725  17.963  1.00  0.00    -0.003 C 
ATOM     10  C   UNL     1      18.367  15.433  17.179  1.00  0.00     0.004 C 
ENDBRANCH   8   9
ENDBRANCH   7   8
ENDBRANCH   1   7
TORSDOF 6
ENDMDL
MODEL 6
REMARK VINA RESULT:    -2.700      3.416      5.493
REMARK INTER + INTRA:          -3.914
REMARK INTER:                  -3.582
REMARK INTRA:                  -0.332
REMARK UNBOUND:                -0.267
REMARK SMILES CCCCCCCC(=O)[O-]
REMARK SMILES IDX 5 1 6 2 7 3 8 4 9 5 10 6 4 7 3 8 2 9 1 10
REMARK H PARENT
REMARK Flexibility Score: inf
ROOT
ATOM      1  C   UNL     1       8.253   5.903  35.525  1.00  0.00     0.000 C 
ENDROOT
BRANCH   1   2
ATOM      2  C   UNL     1       7.338   6.470  34.429  1.00  0.00     0.006 C 
BRANCH   2   3
ATOM      3  C   UNL     1       6.507   7.664  34.914  1.00  0.00     0.053 C 
BRANCH   3   4
ATOM      4  C   UNL     1       6.714   8.844  34.017  1.00  0.00     0.041 C 
ATOM      5  O   UNL     1       6.237   9.967  34.328  1.00  0.00    -0.550 OA
ATOM      6  O   UNL     1       7.475   8.714  32.863  1.00  0.00    -0.550 OA
ENDBRANCH   3   4
ENDBRANCH   2   3
ENDBRANCH   1   2
BRANCH   1   7
ATOM      7  C   UNL     1       7.533   4.887  36.429  1.00  0.00     0.000 C 
BRANCH   7   8
ATOM      8  C   UNL     1       7.859   3.432  36.057  1.00  0.00    -0.000 C 
BRANCH   8   9
ATOM      9  C   UNL     1       6.599   2.592  35.802  1.00  0.00    -0.003 C 
ATOM     10  C   UNL     1       5.875   3.055  34.541  1.00  0.00     0.004 C 
ENDBRANCH   8   9
ENDBRANCH   7   8
ENDBRANCH   1   7
TORSDOF 6
ENDMDL
MODEL 7
REMARK VINA RESULT:    -2.681      2.827      5.776
REMARK INTER + INTRA:          -3.889
REMARK INTER:                  -3.618
REMARK INTRA:                  -0.271
REMARK UNBOUND:                -0.267
REMARK SMILES CCCCCCCC(=O)[O-]
REMARK SMILES IDX 5 1 6 2 7 3 8 4 9 5 10 6 4 7 3 8 2 9 1 10
REMARK H PARENT
REMARK Flexibility Score: inf
ROOT
ATOM      1  C   UNL     1       8.886   5.802  35.983  1.00  0.00     0.000 C 
ENDROOT
BRANCH   1   2
ATOM      2  C   UNL     1       7.454   5.635  35.451  1.00  0.00     0.006 C 
BRANCH   2   3
ATOM      3  C   UNL     1       6.773   6.978  35.162  1.00  0.00     0.053 C 
BRANCH   3   4
ATOM      4  C   UNL     1       6.574   7.157  33.690  1.00  0.00     0.041 C 
ATOM      5  O   UNL     1       5.875   6.334  33.041  1.00  0.00    -0.550 OA
ATOM      6  O   UNL     1       7.118   8.258  33.043  1.00  0.00    -0.550 OA
ENDBRANCH   3   4
ENDBRANCH   2   3
ENDBRANCH   1   2
BRANCH   1   7
ATOM      7  C   UNL     1       9.356   4.589  36.807  1.00  0.00     0.000 C 
BRANCH   7   8
ATOM      8  C   UNL     1      10.252   3.638  35.998  1.00  0.00    -0.000 C 
BRANCH   8   9
ATOM      9  C   UNL     1       9.972   2.160  36.304  1.00  0.00    -0.003 C 
ATOM     10  C   UNL     1       8.474   1.904  36.452  1.00  0.00     0.004 C 
ENDBRANCH   8   9
ENDBRANCH   7   8
ENDBRANCH   1   7
TORSDOF 6
ENDMDL
MODEL 8
REMARK VINA RESULT:    -2.584     22.609     23.489
REMARK INTER + INTRA:          -3.758
REMARK INTER:                  -3.313
REMARK INTRA:                  -0.445
REMARK UNBOUND:                -0.267
REMARK SMILES CCCCCCCC(=O)[O-]
REMARK SMILES IDX 5 1 6 2 7 3 8 4 9 5 10 6 4 7 3 8 2 9 1 10
REMARK H PARENT
REMARK Flexibility Score: inf
ROOT
ATOM      1  C   UNL     1      17.748  21.388  18.093  1.00  0.00     0.000 C 
ENDROOT
BRANCH   1   2
ATOM      2  C   UNL     1      18.270  21.098  19.509  1.00  0.00     0.006 C 
BRANCH   2   3
ATOM      3  C   UNL     1      19.689  20.517  19.507  1.00  0.00     0.053 C 
BRANCH   3   4
ATOM      4  C   UNL     1      20.424  20.930  20.743  1.00  0.00     0.041 C 
ATOM      5  O   UNL     1      21.683  20.935  20.759  1.00  0.00    -0.550 OA
ATOM      6  O   UNL     1      19.719  21.356  21.861  1.00  0.00    -0.550 OA
ENDBRANCH   3   4
ENDBRANCH   2   3
ENDBRANCH   1   2
BRANCH   1   7
ATOM      7  C   UNL     1      16.417  20.676  17.796  1.00  0.00     0.000 C 
BRANCH   7   8
ATOM      8  C   UNL     1      16.452  19.182  18.160  1.00  0.00    -0.000 C 
BRANCH   8   9
ATOM      9  C   UNL     1      17.371  18.372  17.234  1.00  0.00    -0.003 C 
ATOM     10  C   UNL     1      18.257  17.422  18.036  1.00  0.00     0.004 C 
ENDBRANCH   8   9
ENDBRANCH   7   8
ENDBRANCH   1   7
TORSDOF 6
ENDMDL
MODEL 9
REMARK VINA RESULT:    -2.558     20.537     21.373
REMARK INTER + INTRA:          -3.722
REMARK INTER:                  -3.132
REMARK INTRA:                  -0.590
REMARK UNBOUND:                -0.267
REMARK SMILES CCCCCCCC(=O)[O-]
REMARK SMILES IDX 5 1 6 2 7 3 8 4 9 5 10 6 4 7 3 8 2 9 1 10
REMARK H PARENT
REMARK Flexibility Score: inf
ROOT
ATOM      1  C   UNL     1      22.409   4.853  20.259  1.00  0.00     0.000 C 
ENDROOT
BRANCH   1   2
ATOM      2  C   UNL     1      21.503   3.653  20.577  1.00  0.00     0.006 C 
BRANCH   2   3
ATOM      3  C   UNL     1      20.182   3.689  19.800  1.00  0.00     0.053 C 
BRANCH   3   4
ATOM      4  C   UNL     1      20.105   2.539  18.846  1.00  0.00     0.041 C 
ATOM      5  O   UNL     1      18.998   2.199  18.352  1.00  0.00    -0.550 OA
ATOM      6  O   UNL     1      21.263   1.875  18.464  1.00  0.00    -0.550 OA
ENDBRANCH   3   4
ENDBRANCH   2   3
ENDBRANCH   1   2
BRANCH   1   7
ATOM      7  C   UNL     1      23.450   4.536  19.171  1.00  0.00     0.000 C 
BRANCH   7   8
ATOM      8  C   UNL     1      22.962   4.907  17.761  1.00  0.00    -0.000 C 
BRANCH   8   9
ATOM      9  C   UNL     1      22.264   6.274  17.720  1.00  0.00    -0.003 C 
ATOM     10  C   UNL     1      20.877   6.164  17.094  1.00  0.00     0.004 C 
ENDBRANCH   8   9
ENDBRANCH   7   8
ENDBRANCH   1   7
TORSDOF 6
ENDMDL
