MODEL 1
REMARK VINA RESULT:    -2.932      0.000      0.000
REMARK INTER + INTRA:          -3.805
REMARK INTER:                  -3.703
REMARK INTRA:                  -0.101
REMARK UNBOUND:                -0.101
REMARK SMILES CCCCCCO
REMARK SMILES IDX 4 1 3 2 2 3 1 4 5 5 6 6 7 7
REMARK H PARENT 7 8
REMARK Flexibility Score: inf
ROOT
ATOM      1  C   UNL     1     161.231 172.444 169.652  1.00  0.00     0.002 C 
ENDROOT
BRANCH   1   2
ATOM      2  C   UNL     1     162.429 171.528 169.364  1.00  0.00    -0.000 C 
BRANCH   2   3
ATOM      3  C   UNL     1     163.269 172.011 168.171  1.00  0.00    -0.003 C 
ATOM      4  C   UNL     1     162.936 173.444 167.756  1.00  0.00     0.004 C 
ENDBRANCH   2   3
ENDBRANCH   1   2
BRANCH   1   5
ATOM      5  C   UNL     1     159.930 171.637 169.726  1.00  0.00     0.028 C 
BRANCH   5   6
ATOM      6  C   UNL     1     158.902 172.151 168.714  1.00  0.00     0.156 C 
BRANCH   6   7
ATOM      7  O   UNL     1     158.530 171.123 167.837  1.00  0.00    -0.396 OA
ATOM      8  H   UNL     1     157.548 171.009 167.932  1.00  0.00     0.210 HD
ENDBRANCH   6   7
ENDBRANCH   5   6
ENDBRANCH   1   5
TORSDOF 5
ENDMDL
MODEL 2
REMARK VINA RESULT:    -2.921      0.801      1.367
REMARK INTER + INTRA:          -3.791
REMARK INTER:                  -3.673
REMARK INTRA:                  -0.118
REMARK UNBOUND:                -0.101
REMARK SMILES CCCCCCO
REMARK SMILES IDX 4 1 3 2 2 3 1 4 5 5 6 6 7 7
REMARK H PARENT 7 8
REMARK Flexibility Score: inf
ROOT
ATOM      1  C   UNL     1     160.177 171.051 170.505  1.00  0.00     0.002 C 
ENDROOT
BRANCH   1   2
ATOM      2  C   UNL     1     161.380 171.986 170.317  1.00  0.00    -0.000 C 
BRANCH   2   3
ATOM      3  C   UNL     1     162.578 171.281 169.661  1.00  0.00    -0.003 C 
ATOM      4  C   UNL     1     163.061 171.992 168.397  1.00  0.00     0.004 C 
ENDBRANCH   2   3
ENDBRANCH   1   2
BRANCH   1   5
ATOM      5  C   UNL     1     158.870 171.758 170.129  1.00  0.00     0.028 C 
BRANCH   5   6
ATOM      6  C   UNL     1     158.873 172.179 168.657  1.00  0.00     0.156 C 
BRANCH   6   7
ATOM      7  O   UNL     1     158.517 171.096 167.842  1.00  0.00    -0.396 OA
ATOM      8  H   UNL     1     159.184 170.380 168.013  1.00  0.00     0.210 HD
ENDBRANCH   6   7
ENDBRANCH   5   6
ENDBRANCH   1   5
TORSDOF 5
ENDMDL
MODEL 3
REMARK VINA RESULT:    -2.884     15.120     16.182
REMARK INTER + INTRA:          -3.744
REMARK INTER:                  -3.612
REMARK INTRA:                  -0.132
REMARK UNBOUND:                -0.101
REMARK SMILES CCCCCCO
REMARK SMILES IDX 4 1 3 2 2 3 1 4 5 5 6 6 7 7
REMARK H PARENT 7 8
REMARK Flexibility Score: inf
ROOT
ATOM      1  C   UNL     1     169.984 158.903 170.018  1.00  0.00     0.002 C 
ENDROOT
BRANCH   1   2
ATOM      2  C   UNL     1     168.700 159.682 169.700  1.00  0.00    -0.000 C 
BRANCH   2   3
ATOM      3  C   UNL     1     168.097 159.296 168.340  1.00  0.00    -0.003 C 
ATOM      4  C   UNL     1     168.320 157.825 167.990  1.00  0.00     0.004 C 
ENDBRANCH   2   3
ENDBRANCH   1   2
BRANCH   1   5
ATOM      5  C   UNL     1     171.225 159.767 169.768  1.00  0.00     0.028 C 
BRANCH   5   6
ATOM      6  C   UNL     1     172.141 159.130 168.720  1.00  0.00     0.156 C 
BRANCH   6   7
ATOM      7  O   UNL     1     172.696 160.118 167.895  1.00  0.00    -0.396 OA
ATOM      8  H   UNL     1     172.743 160.948 168.438  1.00  0.00     0.210 HD
ENDBRANCH   6   7
ENDBRANCH   5   6
ENDBRANCH   1   5
TORSDOF 5
ENDMDL
MODEL 4
REMARK VINA RESULT:    -2.816     14.823     15.998
REMARK INTER + INTRA:          -3.658
REMARK INTER:                  -3.551
REMARK INTRA:                  -0.108
REMARK UNBOUND:                -0.101
REMARK SMILES CCCCCCO
REMARK SMILES IDX 4 1 3 2 2 3 1 4 5 5 6 6 7 7
REMARK H PARENT 7 8
REMARK Flexibility Score: inf
ROOT
ATOM      1  C   UNL     1     170.591 159.897 170.503  1.00  0.00     0.002 C 
ENDROOT
BRANCH   1   2
ATOM      2  C   UNL     1     169.674 159.233 169.466  1.00  0.00    -0.000 C 
BRANCH   2   3
ATOM      3  C   UNL     1     168.281 159.880 169.411  1.00  0.00    -0.003 C 
ATOM      4  C   UNL     1     167.693 160.137 170.798  1.00  0.00     0.004 C 
ENDBRANCH   2   3
ENDBRANCH   1   2
BRANCH   1   5
ATOM      5  C   UNL     1     172.067 159.698 170.136  1.00  0.00     0.028 C 
BRANCH   5   6
ATOM      6  C   UNL     1     172.213 159.123 168.725  1.00  0.00     0.156 C 
BRANCH   6   7
ATOM      7  O   UNL     1     172.703 160.102 167.851  1.00  0.00    -0.396 OA
ATOM      8  H   UNL     1     172.505 160.981 168.269  1.00  0.00     0.210 HD
ENDBRANCH   6   7
ENDBRANCH   5   6
ENDBRANCH   1   5
TORSDOF 5
ENDMDL
MODEL 5
REMARK VINA RESULT:    -2.813      9.101     10.055
REMARK INTER + INTRA:          -3.654
REMARK INTER:                  -3.569
REMARK INTRA:                  -0.085
REMARK UNBOUND:                -0.101
REMARK SMILES CCCCCCO
REMARK SMILES IDX 4 1 3 2 2 3 1 4 5 5 6 6 7 7
REMARK H PARENT 7 8
REMARK Flexibility Score: inf
ROOT
ATOM      1  C   UNL     1     169.095 166.604 168.342  1.00  0.00     0.002 C 
ENDROOT
BRANCH   1   2
ATOM      2  C   UNL     1     168.340 166.645 169.679  1.00  0.00    -0.000 C 
BRANCH   2   3
ATOM      3  C   UNL     1     166.944 166.009 169.589  1.00  0.00    -0.003 C 
ATOM      4  C   UNL     1     166.746 165.198 168.309  1.00  0.00     0.004 C 
ENDBRANCH   2   3
ENDBRANCH   1   2
BRANCH   1   5
ATOM      5  C   UNL     1     170.453 167.305 168.457  1.00  0.00     0.028 C 
BRANCH   5   6
ATOM      6  C   UNL     1     170.288 168.762 168.896  1.00  0.00     0.156 C 
BRANCH   6   7
ATOM      7  O   UNL     1     170.460 169.620 167.801  1.00  0.00    -0.396 OA
ATOM      8  H   UNL     1     169.574 169.699 167.359  1.00  0.00     0.210 HD
ENDBRANCH   6   7
ENDBRANCH   5   6
ENDBRANCH   1   5
TORSDOF 5
ENDMDL
MODEL 6
REMARK VINA RESULT:    -2.806      7.986      8.493
REMARK INTER + INTRA:          -3.646
REMARK INTER:                  -3.609
REMARK INTRA:                  -0.037
REMARK UNBOUND:                -0.101
REMARK SMILES CCCCCCO
REMARK SMILES IDX 4 1 3 2 2 3 1 4 5 5 6 6 7 7
REMARK H PARENT 7 8
REMARK Flexibility Score: inf
ROOT
ATOM      1  C   UNL     1     161.967 164.247 169.113  1.00  0.00     0.002 C 
ENDROOT
BRANCH   1   2
ATOM      2  C   UNL     1     163.295 164.745 169.700  1.00  0.00    -0.000 C 
BRANCH   2   3
ATOM      3  C   UNL     1     164.089 165.612 168.711  1.00  0.00    -0.003 C 
ATOM      4  C   UNL     1     165.600 165.509 168.916  1.00  0.00     0.004 C 
ENDBRANCH   2   3
ENDBRANCH   1   2
BRANCH   1   5
ATOM      5  C   UNL     1     161.591 162.878 169.692  1.00  0.00     0.028 C 
BRANCH   5   6
ATOM      6  C   UNL     1     160.358 162.300 168.991  1.00  0.00     0.156 C 
BRANCH   6   7
ATOM      7  O   UNL     1     160.747 161.473 167.930  1.00  0.00    -0.396 OA
ATOM      8  H   UNL     1     160.050 160.770 167.846  1.00  0.00     0.210 HD
ENDBRANCH   6   7
ENDBRANCH   5   6
ENDBRANCH   1   5
TORSDOF 5
ENDMDL
MODEL 7
REMARK VINA RESULT:    -2.732      8.458      9.872
REMARK INTER + INTRA:          -3.552
REMARK INTER:                  -3.521
REMARK INTRA:                  -0.031
REMARK UNBOUND:                -0.101
REMARK SMILES CCCCCCO
REMARK SMILES IDX 4 1 3 2 2 3 1 4 5 5 6 6 7 7
REMARK H PARENT 7 8
REMARK Flexibility Score: inf
ROOT
ATOM      1  C   UNL     1     167.099 165.129 167.333  1.00  0.00     0.002 C 
ENDROOT
BRANCH   1   2
ATOM      2  C   UNL     1     166.335 165.432 168.629  1.00  0.00    -0.000 C 
BRANCH   2   3
ATOM      3  C   UNL     1     164.897 165.909 168.369  1.00  0.00    -0.003 C 
ATOM      4  C   UNL     1     163.873 165.217 169.267  1.00  0.00     0.004 C 
ENDBRANCH   2   3
ENDBRANCH   1   2
BRANCH   1   5
ATOM      5  C   UNL     1     168.476 165.804 167.338  1.00  0.00     0.028 C 
BRANCH   5   6
ATOM      6  C   UNL     1     169.065 165.869 165.926  1.00  0.00     0.156 C 
BRANCH   6   7
ATOM      7  O   UNL     1     170.264 166.593 165.934  1.00  0.00    -0.396 OA
ATOM      8  H   UNL     1     170.589 166.618 164.995  1.00  0.00     0.210 HD
ENDBRANCH   6   7
ENDBRANCH   5   6
ENDBRANCH   1   5
TORSDOF 5
ENDMDL
MODEL 8
REMARK VINA RESULT:    -2.638      2.816      4.287
REMARK INTER + INTRA:          -3.433
REMARK INTER:                  -3.366
REMARK INTRA:                  -0.067
REMARK UNBOUND:                -0.101
REMARK SMILES CCCCCCO
REMARK SMILES IDX 4 1 3 2 2 3 1 4 5 5 6 6 7 7
REMARK H PARENT 7 8
REMARK Flexibility Score: inf
ROOT
ATOM      1  C   UNL     1     163.284 172.089 167.956  1.00  0.00     0.002 C 
ENDROOT
BRANCH   1   2
ATOM      2  C   UNL     1     162.600 171.559 169.225  1.00  0.00    -0.000 C 
BRANCH   2   3
ATOM      3  C   UNL     1     161.125 171.979 169.320  1.00  0.00    -0.003 C 
ATOM      4  C   UNL     1     160.363 171.218 170.405  1.00  0.00     0.004 C 
ENDBRANCH   2   3
ENDBRANCH   1   2
BRANCH   1   5
ATOM      5  C   UNL     1     163.192 173.618 167.882  1.00  0.00     0.028 C 
BRANCH   5   6
ATOM      6  C   UNL     1     163.506 174.123 166.472  1.00  0.00     0.156 C 
BRANCH   6   7
ATOM      7  O   UNL     1     164.781 173.696 166.077  1.00  0.00    -0.396 OA
ATOM      8  H   UNL     1     165.126 174.379 165.443  1.00  0.00     0.210 HD
ENDBRANCH   6   7
ENDBRANCH   5   6
ENDBRANCH   1   5
TORSDOF 5
ENDMDL
MODEL 9
REMARK VINA RESULT:    -2.505     10.431     11.561
REMARK INTER + INTRA:          -3.266
REMARK INTER:                  -3.062
REMARK INTRA:                  -0.204
REMARK UNBOUND:                -0.101
REMARK SMILES CCCCCCO
REMARK SMILES IDX 4 1 3 2 2 3 1 4 5 5 6 6 7 7
REMARK H PARENT 7 8
REMARK Flexibility Score: inf
ROOT
ATOM      1  C   UNL     1     170.965 169.023 169.016  1.00  0.00     0.002 C 
ENDROOT
BRANCH   1   2
ATOM      2  C   UNL     1     169.769 168.341 169.697  1.00  0.00    -0.000 C 
BRANCH   2   3
ATOM      3  C   UNL     1     169.453 166.964 169.094  1.00  0.00    -0.003 C 
ATOM      4  C   UNL     1     169.926 166.830 167.647  1.00  0.00     0.004 C 
ENDBRANCH   2   3
ENDBRANCH   1   2
BRANCH   1   5
ATOM      5  C   UNL     1     172.119 169.223 170.005  1.00  0.00     0.028 C 
BRANCH   5   6
ATOM      6  C   UNL     1     173.156 168.104 169.879  1.00  0.00     0.156 C 
BRANCH   6   7
ATOM      7  O   UNL     1     173.376 167.798 168.530  1.00  0.00    -0.396 OA
ATOM      8  H   UNL     1     174.276 168.150 168.301  1.00  0.00     0.210 HD
ENDBRANCH   6   7
ENDBRANCH   5   6
ENDBRANCH   1   5
TORSDOF 5
ENDMDL
