MODEL 1
REMARK VINA RESULT:    -2.831      0.000      0.000
REMARK INTER + INTRA:         -13.987
REMARK INTER:                  -7.465
REMARK INTRA:                  -6.522
REMARK UNBOUND:                -6.522
REMARK SMILES CCCCCCCCCCCCCCCCCCCCCCCCCCCCCC(=O)[O-]
REMARK SMILES IDX 16 1 17 2 18 3 19 4 20 5 21 6 22 7 23 8 24 9 25 10 26 11
REMARK SMILES IDX 27 12 28 13 29 14 30 15 31 16 32 17 15 18 14 19 13 20 12 21
REMARK SMILES IDX 11 22 10 23 9 24 8 25 7 26 6 27 5 28 4 29 3 30 2 31 1 32
REMARK H PARENT
REMARK Flexibility Score: inf
ROOT
ATOM      1  C   UNL     1     -14.614  30.873  94.504  1.00  0.00     0.000 C 
ENDROOT
BRANCH   1   2
ATOM      2  C   UNL     1     -13.872  29.629  95.021  1.00  0.00     0.000 C 
BRANCH   2   3
ATOM      3  C   UNL     1     -13.576  28.616  93.895  1.00  0.00     0.000 C 
BRANCH   3   4
ATOM      4  C   UNL     1     -14.393  28.853  92.612  1.00  0.00     0.000 C 
BRANCH   4   5
ATOM      5  C   UNL     1     -14.778  27.547  91.898  1.00  0.00     0.000 C 
BRANCH   5   6
ATOM      6  C   UNL     1     -15.575  27.777  90.599  1.00  0.00     0.000 C 
BRANCH   6   7
ATOM      7  C   UNL     1     -15.308  29.115  89.885  1.00  0.00     0.000 C 
BRANCH   7   8
ATOM      8  C   UNL     1     -16.570  29.982  89.735  1.00  0.00     0.000 C 
BRANCH   8   9
ATOM      9  C   UNL     1     -16.269  31.489  89.840  1.00  0.00     0.000 C 
BRANCH   9  10
ATOM     10  C   UNL     1     -15.346  31.873  91.012  1.00  0.00     0.000 C 
BRANCH  10  11
ATOM     11  C   UNL     1     -13.925  32.245  90.550  1.00  0.00     0.000 C 
BRANCH  11  12
ATOM     12  C   UNL     1     -12.921  32.300  91.712  1.00  0.00     0.000 C 
BRANCH  12  13
ATOM     13  C   UNL     1     -11.792  31.264  91.567  1.00  0.00     0.006 C 
BRANCH  13  14
ATOM     14  C   UNL     1     -11.947  30.411  90.300  1.00  0.00     0.053 C 
BRANCH  14  15
ATOM     15  C   UNL     1     -11.516  28.992  90.516  1.00  0.00     0.041 C 
ATOM     16  O   UNL     1     -11.895  28.086  89.726  1.00  0.00    -0.550 OA
ATOM     17  O   UNL     1     -10.709  28.667  91.599  1.00  0.00    -0.550 OA
ENDBRANCH  14  15
ENDBRANCH  13  14
ENDBRANCH  12  13
ENDBRANCH  11  12
ENDBRANCH  10  11
ENDBRANCH   9  10
ENDBRANCH   8   9
ENDBRANCH   7   8
ENDBRANCH   6   7
ENDBRANCH   5   6
ENDBRANCH   4   5
ENDBRANCH   3   4
ENDBRANCH   2   3
ENDBRANCH   1   2
BRANCH   1  18
ATOM     18  C   UNL     1     -15.610  31.439  95.531  1.00  0.00     0.000 C 
BRANCH  18  19
ATOM     19  C   UNL     1     -15.390  30.865  96.942  1.00  0.00     0.000 C 
BRANCH  19  20
ATOM     20  C   UNL     1     -16.693  30.379  97.599  1.00  0.00     0.000 C 
BRANCH  20  21
ATOM     21  C   UNL     1     -16.612  28.999  98.278  1.00  0.00     0.000 C 
BRANCH  21  22
ATOM     22  C   UNL     1     -16.286  27.838  97.314  1.00  0.00     0.000 C 
BRANCH  22  23
ATOM     23  C   UNL     1     -17.457  27.515  96.368  1.00  0.00     0.000 C 
BRANCH  23  24
ATOM     24  C   UNL     1     -17.113  27.781  94.893  1.00  0.00    -0.000 C 
BRANCH  24  25
ATOM     25  C   UNL     1     -18.298  28.361  94.107  1.00  0.00    -0.000 C 
BRANCH  25  26
ATOM     26  C   UNL     1     -17.823  29.412  93.093  1.00  0.00    -0.000 C 
BRANCH  26  27
ATOM     27  C   UNL     1     -18.473  30.790  93.306  1.00  0.00    -0.000 C 
BRANCH  27  28
ATOM     28  C   UNL     1     -19.085  30.943  94.709  1.00  0.00    -0.000 C 
BRANCH  28  29
ATOM     29  C   UNL     1     -19.973  32.193  94.843  1.00  0.00    -0.000 C 
BRANCH  29  30
ATOM     30  C   UNL     1     -19.229  33.492  95.217  1.00  0.00    -0.000 C 
BRANCH  30  31
ATOM     31  C   UNL     1     -18.680  34.295  94.025  1.00  0.00    -0.003 C 
ATOM     32  C   UNL     1     -17.192  34.621  94.158  1.00  0.00     0.004 C 
ENDBRANCH  30  31
ENDBRANCH  29  30
ENDBRANCH  28  29
ENDBRANCH  27  28
ENDBRANCH  26  27
ENDBRANCH  25  26
ENDBRANCH  24  25
ENDBRANCH  23  24
ENDBRANCH  22  23
ENDBRANCH  21  22
ENDBRANCH  20  21
ENDBRANCH  19  20
ENDBRANCH  18  19
ENDBRANCH   1  18
TORSDOF 28
ENDMDL
MODEL 2
REMARK VINA RESULT:    -2.798      4.525      8.325
REMARK INTER + INTRA:         -13.901
REMARK INTER:                  -9.435
REMARK INTRA:                  -4.465
REMARK UNBOUND:                -6.522
REMARK SMILES CCCCCCCCCCCCCCCCCCCCCCCCCCCCCC(=O)[O-]
REMARK SMILES IDX 16 1 17 2 18 3 19 4 20 5 21 6 22 7 23 8 24 9 25 10 26 11
REMARK SMILES IDX 27 12 28 13 29 14 30 15 31 16 32 17 15 18 14 19 13 20 12 21
REMARK SMILES IDX 11 22 10 23 9 24 8 25 7 26 6 27 5 28 4 29 3 30 2 31 1 32
REMARK H PARENT
REMARK Flexibility Score: inf
ROOT
ATOM      1  C   UNL     1     -19.035  35.800  93.523  1.00  0.00     0.000 C 
ENDROOT
BRANCH   1   2
ATOM      2  C   UNL     1     -18.546  35.962  92.073  1.00  0.00     0.000 C 
BRANCH   2   3
ATOM      3  C   UNL     1     -19.546  36.755  91.205  1.00  0.00     0.000 C 
BRANCH   3   4
ATOM      4  C   UNL     1     -18.937  37.994  90.525  1.00  0.00     0.000 C 
BRANCH   4   5
ATOM      5  C   UNL     1     -19.220  39.297  91.290  1.00  0.00     0.000 C 
BRANCH   5   6
ATOM      6  C   UNL     1     -20.321  39.148  92.357  1.00  0.00     0.000 C 
BRANCH   6   7
ATOM      7  C   UNL     1     -20.607  40.409  93.195  1.00  0.00     0.000 C 
BRANCH   7   8
ATOM      8  C   UNL     1     -19.367  41.296  93.396  1.00  0.00     0.000 C 
BRANCH   8   9
ATOM      9  C   UNL     1     -18.768  41.166  94.809  1.00  0.00     0.000 C 
BRANCH   9  10
ATOM     10  C   UNL     1     -17.233  41.277  94.862  1.00  0.00     0.000 C 
BRANCH  10  11
ATOM     11  C   UNL     1     -16.557  39.957  95.279  1.00  0.00     0.000 C 
BRANCH  11  12
ATOM     12  C   UNL     1     -16.847  38.808  94.300  1.00  0.00     0.000 C 
BRANCH  12  13
ATOM     13  C   UNL     1     -16.189  39.025  92.925  1.00  0.00     0.006 C 
BRANCH  13  14
ATOM     14  C   UNL     1     -15.256  37.868  92.540  1.00  0.00     0.053 C 
BRANCH  14  15
ATOM     15  C   UNL     1     -13.850  38.330  92.303  1.00  0.00     0.041 C 
ATOM     16  O   UNL     1     -13.430  39.389  92.843  1.00  0.00    -0.550 OA
ATOM     17  O   UNL     1     -13.008  37.601  91.473  1.00  0.00    -0.550 OA
ENDBRANCH  14  15
ENDBRANCH  13  14
ENDBRANCH  12  13
ENDBRANCH  11  12
ENDBRANCH  10  11
ENDBRANCH   9  10
ENDBRANCH   8   9
ENDBRANCH   7   8
ENDBRANCH   6   7
ENDBRANCH   5   6
ENDBRANCH   4   5
ENDBRANCH   3   4
ENDBRANCH   2   3
ENDBRANCH   1   2
BRANCH   1  18
ATOM     18  C   UNL     1     -20.561  35.635  93.618  1.00  0.00     0.000 C 
BRANCH  18  19
ATOM     19  C   UNL     1     -20.972  34.482  94.551  1.00  0.00     0.000 C 
BRANCH  19  20
ATOM     20  C   UNL     1     -19.773  33.651  95.038  1.00  0.00     0.000 C 
BRANCH  20  21
ATOM     21  C   UNL     1     -19.980  32.124  95.019  1.00  0.00     0.000 C 
BRANCH  21  22
ATOM     22  C   UNL     1     -19.062  31.375  94.030  1.00  0.00     0.000 C 
BRANCH  22  23
ATOM     23  C   UNL     1     -17.780  32.162  93.705  1.00  0.00     0.000 C 
BRANCH  23  24
ATOM     24  C   UNL     1     -17.077  31.648  92.438  1.00  0.00    -0.000 C 
BRANCH  24  25
ATOM     25  C   UNL     1     -17.659  30.317  91.940  1.00  0.00    -0.000 C 
BRANCH  25  26
ATOM     26  C   UNL     1     -16.575  29.462  91.267  1.00  0.00    -0.000 C 
BRANCH  26  27
ATOM     27  C   UNL     1     -15.867  28.510  92.247  1.00  0.00    -0.000 C 
BRANCH  27  28
ATOM     28  C   UNL     1     -16.637  28.342  93.568  1.00  0.00    -0.000 C 
BRANCH  28  29
ATOM     29  C   UNL     1     -15.746  28.524  94.809  1.00  0.00    -0.000 C 
BRANCH  29  30
ATOM     30  C   UNL     1     -16.268  29.535  95.851  1.00  0.00    -0.000 C 
BRANCH  30  31
ATOM     31  C   UNL     1     -17.626  29.179  96.481  1.00  0.00    -0.003 C 
ATOM     32  C   UNL     1     -18.065  30.174  97.557  1.00  0.00     0.004 C 
ENDBRANCH  30  31
ENDBRANCH  29  30
ENDBRANCH  28  29
ENDBRANCH  27  28
ENDBRANCH  26  27
ENDBRANCH  25  26
ENDBRANCH  24  25
ENDBRANCH  23  24
ENDBRANCH  22  23
ENDBRANCH  21  22
ENDBRANCH  20  21
ENDBRANCH  19  20
ENDBRANCH  18  19
ENDBRANCH   1  18
TORSDOF 28
ENDMDL
MODEL 3
REMARK VINA RESULT:    -2.792      4.610      9.421
REMARK INTER + INTRA:         -13.883
REMARK INTER:                  -7.834
REMARK INTRA:                  -6.049
REMARK UNBOUND:                -6.522
REMARK SMILES CCCCCCCCCCCCCCCCCCCCCCCCCCCCCC(=O)[O-]
REMARK SMILES IDX 16 1 17 2 18 3 19 4 20 5 21 6 22 7 23 8 24 9 25 10 26 11
REMARK SMILES IDX 27 12 28 13 29 14 30 15 31 16 32 17 15 18 14 19 13 20 12 21
REMARK SMILES IDX 11 22 10 23 9 24 8 25 7 26 6 27 5 28 4 29 3 30 2 31 1 32
REMARK H PARENT
REMARK Flexibility Score: inf
ROOT
ATOM      1  C   UNL     1     -17.407  41.149  94.515  1.00  0.00     0.000 C 
ENDROOT
BRANCH   1   2
ATOM      2  C   UNL     1     -17.373  40.790  96.011  1.00  0.00     0.000 C 
BRANCH   2   3
ATOM      3  C   UNL     1     -18.488  41.501  96.808  1.00  0.00     0.000 C 
BRANCH   3   4
ATOM      4  C   UNL     1     -19.225  40.584  97.801  1.00  0.00     0.000 C 
BRANCH   4   5
ATOM      5  C   UNL     1     -20.307  39.722  97.131  1.00  0.00     0.000 C 
BRANCH   5   6
ATOM      6  C   UNL     1     -20.113  38.212  97.366  1.00  0.00     0.000 C 
BRANCH   6   7
ATOM      7  C   UNL     1     -19.811  37.378  96.107  1.00  0.00     0.000 C 
BRANCH   7   8
ATOM      8  C   UNL     1     -20.938  36.394  95.749  1.00  0.00     0.000 C 
BRANCH   8   9
ATOM      9  C   UNL     1     -20.458  35.251  94.835  1.00  0.00     0.000 C 
BRANCH   9  10
ATOM     10  C   UNL     1     -20.936  33.850  95.264  1.00  0.00     0.000 C 
BRANCH  10  11
ATOM     11  C   UNL     1     -20.140  32.719  94.586  1.00  0.00     0.000 C 
BRANCH  11  12
ATOM     12  C   UNL     1     -19.618  31.679  95.589  1.00  0.00     0.000 C 
BRANCH  12  13
ATOM     13  C   UNL     1     -18.566  30.741  94.973  1.00  0.00     0.006 C 
BRANCH  13  14
ATOM     14  C   UNL     1     -17.557  31.496  94.096  1.00  0.00     0.053 C 
BRANCH  14  15
ATOM     15  C   UNL     1     -16.194  31.550  94.719  1.00  0.00     0.041 C 
ATOM     16  O   UNL     1     -15.937  32.403  95.610  1.00  0.00    -0.550 OA
ATOM     17  O   UNL     1     -15.203  30.669  94.303  1.00  0.00    -0.550 OA
ENDBRANCH  14  15
ENDBRANCH  13  14
ENDBRANCH  12  13
ENDBRANCH  11  12
ENDBRANCH  10  11
ENDBRANCH   9  10
ENDBRANCH   8   9
ENDBRANCH   7   8
ENDBRANCH   6   7
ENDBRANCH   5   6
ENDBRANCH   4   5
ENDBRANCH   3   4
ENDBRANCH   2   3
ENDBRANCH   1   2
BRANCH   1  18
ATOM     18  C   UNL     1     -18.823  41.494  94.022  1.00  0.00     0.000 C 
BRANCH  18  19
ATOM     19  C   UNL     1     -19.313  40.535  92.922  1.00  0.00     0.000 C 
BRANCH  19  20
ATOM     20  C   UNL     1     -20.566  39.745  93.333  1.00  0.00     0.000 C 
BRANCH  20  21
ATOM     21  C   UNL     1     -20.693  38.342  92.711  1.00  0.00     0.000 C 
BRANCH  21  22
ATOM     22  C   UNL     1     -19.576  37.995  91.703  1.00  0.00     0.000 C 
BRANCH  22  23
ATOM     23  C   UNL     1     -19.507  36.487  91.399  1.00  0.00     0.000 C 
BRANCH  23  24
ATOM     24  C   UNL     1     -18.395  36.139  90.395  1.00  0.00    -0.000 C 
BRANCH  24  25
ATOM     25  C   UNL     1     -17.342  35.191  90.988  1.00  0.00    -0.000 C 
BRANCH  25  26
ATOM     26  C   UNL     1     -17.671  34.851  92.449  1.00  0.00    -0.000 C 
BRANCH  26  27
ATOM     27  C   UNL     1     -16.482  35.074  93.400  1.00  0.00    -0.000 C 
BRANCH  27  28
ATOM     28  C   UNL     1     -16.810  36.064  94.532  1.00  0.00    -0.000 C 
BRANCH  28  29
ATOM     29  C   UNL     1     -16.829  37.529  94.061  1.00  0.00    -0.000 C 
BRANCH  29  30
ATOM     30  C   UNL     1     -15.648  37.946  93.161  1.00  0.00    -0.000 C 
BRANCH  30  31
ATOM     31  C   UNL     1     -16.016  38.872  91.989  1.00  0.00    -0.003 C 
ATOM     32  C   UNL     1     -15.467  38.385  90.647  1.00  0.00     0.004 C 
ENDBRANCH  30  31
ENDBRANCH  29  30
ENDBRANCH  28  29
ENDBRANCH  27  28
ENDBRANCH  26  27
ENDBRANCH  25  26
ENDBRANCH  24  25
ENDBRANCH  23  24
ENDBRANCH  22  23
ENDBRANCH  21  22
ENDBRANCH  20  21
ENDBRANCH  19  20
ENDBRANCH  18  19
ENDBRANCH   1  18
TORSDOF 28
ENDMDL
MODEL 4
REMARK VINA RESULT:    -2.722      4.870      8.690
REMARK INTER + INTRA:         -13.701
REMARK INTER:                  -7.440
REMARK INTRA:                  -6.261
REMARK UNBOUND:                -6.522
REMARK SMILES CCCCCCCCCCCCCCCCCCCCCCCCCCCCCC(=O)[O-]
REMARK SMILES IDX 16 1 17 2 18 3 19 4 20 5 21 6 22 7 23 8 24 9 25 10 26 11
REMARK SMILES IDX 27 12 28 13 29 14 30 15 31 16 32 17 15 18 14 19 13 20 12 21
REMARK SMILES IDX 11 22 10 23 9 24 8 25 7 26 6 27 5 28 4 29 3 30 2 31 1 32
REMARK H PARENT
REMARK Flexibility Score: inf
ROOT
ATOM      1  C   UNL     1     -17.397  40.917  95.623  1.00  0.00     0.000 C 
ENDROOT
BRANCH   1   2
ATOM      2  C   UNL     1     -17.696  41.134  94.129  1.00  0.00     0.000 C 
BRANCH   2   3
ATOM      3  C   UNL     1     -19.199  41.360  93.862  1.00  0.00     0.000 C 
BRANCH   3   4
ATOM      4  C   UNL     1     -19.801  40.394  92.825  1.00  0.00     0.000 C 
BRANCH   4   5
ATOM      5  C   UNL     1     -18.869  39.217  92.492  1.00  0.00     0.000 C 
BRANCH   5   6
ATOM      6  C   UNL     1     -18.819  38.888  90.988  1.00  0.00     0.000 C 
BRANCH   6   7
ATOM      7  C   UNL     1     -19.435  37.534  90.585  1.00  0.00     0.000 C 
BRANCH   7   8
ATOM      8  C   UNL     1     -18.511  36.339  90.874  1.00  0.00     0.000 C 
BRANCH   8   9
ATOM      9  C   UNL     1     -17.068  36.577  90.390  1.00  0.00     0.000 C 
BRANCH   9  10
ATOM     10  C   UNL     1     -16.168  35.328  90.437  1.00  0.00     0.000 C 
BRANCH  10  11
ATOM     11  C   UNL     1     -15.400  35.199  91.766  1.00  0.00     0.000 C 
BRANCH  11  12
ATOM     12  C   UNL     1     -15.614  33.837  92.444  1.00  0.00     0.000 C 
BRANCH  12  13
ATOM     13  C   UNL     1     -16.841  33.089  91.893  1.00  0.00     0.006 C 
BRANCH  13  14
ATOM     14  C   UNL     1     -16.472  31.718  91.310  1.00  0.00     0.053 C 
BRANCH  14  15
ATOM     15  C   UNL     1     -17.207  30.599  91.984  1.00  0.00     0.041 C 
ATOM     16  O   UNL     1     -16.943  29.401  91.693  1.00  0.00    -0.550 OA
ATOM     17  O   UNL     1     -18.194  30.879  92.920  1.00  0.00    -0.550 OA
ENDBRANCH  14  15
ENDBRANCH  13  14
ENDBRANCH  12  13
ENDBRANCH  11  12
ENDBRANCH  10  11
ENDBRANCH   9  10
ENDBRANCH   8   9
ENDBRANCH   7   8
ENDBRANCH   6   7
ENDBRANCH   5   6
ENDBRANCH   4   5
ENDBRANCH   3   4
ENDBRANCH   2   3
ENDBRANCH   1   2
BRANCH   1  18
ATOM     18  C   UNL     1     -18.486  41.505  96.536  1.00  0.00     0.000 C 
BRANCH  18  19
ATOM     19  C   UNL     1     -19.042  40.470  97.530  1.00  0.00     0.000 C 
BRANCH  19  20
ATOM     20  C   UNL     1     -19.369  39.121  96.869  1.00  0.00     0.000 C 
BRANCH  20  21
ATOM     21  C   UNL     1     -20.826  38.957  96.394  1.00  0.00     0.000 C 
BRANCH  21  22
ATOM     22  C   UNL     1     -21.003  37.953  95.236  1.00  0.00     0.000 C 
BRANCH  22  23
ATOM     23  C   UNL     1     -20.354  36.590  95.536  1.00  0.00     0.000 C 
BRANCH  23  24
ATOM     24  C   UNL     1     -19.820  35.900  94.269  1.00  0.00    -0.000 C 
BRANCH  24  25
ATOM     25  C   UNL     1     -18.376  35.404  94.432  1.00  0.00    -0.000 C 
BRANCH  25  26
ATOM     26  C   UNL     1     -17.527  36.429  95.200  1.00  0.00    -0.000 C 
BRANCH  26  27
ATOM     27  C   UNL     1     -16.789  37.411  94.274  1.00  0.00    -0.000 C 
BRANCH  27  28
ATOM     28  C   UNL     1     -15.361  37.718  94.757  1.00  0.00    -0.000 C 
BRANCH  28  29
ATOM     29  C   UNL     1     -14.476  38.335  93.660  1.00  0.00    -0.000 C 
BRANCH  29  30
ATOM     30  C   UNL     1     -15.236  38.887  92.436  1.00  0.00    -0.000 C 
BRANCH  30  31
ATOM     31  C   UNL     1     -14.370  39.134  91.188  1.00  0.00    -0.003 C 
ATOM     32  C   UNL     1     -13.261  38.095  91.016  1.00  0.00     0.004 C 
ENDBRANCH  30  31
ENDBRANCH  29  30
ENDBRANCH  28  29
ENDBRANCH  27  28
ENDBRANCH  26  27
ENDBRANCH  25  26
ENDBRANCH  24  25
ENDBRANCH  23  24
ENDBRANCH  22  23
ENDBRANCH  21  22
ENDBRANCH  20  21
ENDBRANCH  19  20
ENDBRANCH  18  19
ENDBRANCH   1  18
TORSDOF 28
ENDMDL
MODEL 5
REMARK VINA RESULT:    -2.716     13.588     16.719
REMARK INTER + INTRA:         -13.683
REMARK INTER:                  -7.424
REMARK INTRA:                  -6.258
REMARK UNBOUND:                -6.522
REMARK SMILES CCCCCCCCCCCCCCCCCCCCCCCCCCCCCC(=O)[O-]
REMARK SMILES IDX 16 1 17 2 18 3 19 4 20 5 21 6 22 7 23 8 24 9 25 10 26 11
REMARK SMILES IDX 27 12 28 13 29 14 30 15 31 16 32 17 15 18 14 19 13 20 12 21
REMARK SMILES IDX 11 22 10 23 9 24 8 25 7 26 6 27 5 28 4 29 3 30 2 31 1 32
REMARK H PARENT
REMARK Flexibility Score: inf
ROOT
ATOM      1  C   UNL     1      -1.853  39.320  93.187  1.00  0.00     0.000 C 
ENDROOT
BRANCH   1   2
ATOM      2  C   UNL     1      -1.079  39.644  91.897  1.00  0.00     0.000 C 
BRANCH   2   3
ATOM      3  C   UNL     1      -1.243  38.544  90.827  1.00  0.00     0.000 C 
BRANCH   3   4
ATOM      4  C   UNL     1      -2.065  38.983  89.601  1.00  0.00     0.000 C 
BRANCH   4   5
ATOM      5  C   UNL     1      -2.760  40.340  89.802  1.00  0.00     0.000 C 
BRANCH   5   6
ATOM      6  C   UNL     1      -4.261  40.211  90.129  1.00  0.00     0.000 C 
BRANCH   6   7
ATOM      7  C   UNL     1      -4.862  41.365  90.953  1.00  0.00     0.000 C 
BRANCH   7   8
ATOM      8  C   UNL     1      -5.467  40.902  92.289  1.00  0.00     0.000 C 
BRANCH   8   9
ATOM      9  C   UNL     1      -4.675  41.414  93.507  1.00  0.00     0.000 C 
BRANCH   9  10
ATOM     10  C   UNL     1      -5.459  41.387  94.833  1.00  0.00     0.000 C 
BRANCH  10  11
ATOM     11  C   UNL     1      -4.908  42.384  95.869  1.00  0.00     0.000 C 
BRANCH  11  12
ATOM     12  C   UNL     1      -3.746  43.226  95.319  1.00  0.00     0.000 C 
BRANCH  12  13
ATOM     13  C   UNL     1      -2.946  43.926  96.432  1.00  0.00     0.006 C 
BRANCH  13  14
ATOM     14  C   UNL     1      -3.234  45.433  96.493  1.00  0.00     0.053 C 
BRANCH  14  15
ATOM     15  C   UNL     1      -3.998  45.814  97.725  1.00  0.00     0.041 C 
ATOM     16  O   UNL     1      -5.130  45.308  97.951  1.00  0.00    -0.550 OA
ATOM     17  O   UNL     1      -3.469  46.740  98.615  1.00  0.00    -0.550 OA
ENDBRANCH  14  15
ENDBRANCH  13  14
ENDBRANCH  12  13
ENDBRANCH  11  12
ENDBRANCH  10  11
ENDBRANCH   9  10
ENDBRANCH   8   9
ENDBRANCH   7   8
ENDBRANCH   6   7
ENDBRANCH   5   6
ENDBRANCH   4   5
ENDBRANCH   3   4
ENDBRANCH   2   3
ENDBRANCH   1   2
BRANCH   1  18
ATOM     18  C   UNL     1      -1.111  38.317  94.087  1.00  0.00     0.000 C 
BRANCH  18  19
ATOM     19  C   UNL     1      -1.106  38.744  95.565  1.00  0.00     0.000 C 
BRANCH  19  20
ATOM     20  C   UNL     1      -1.835  40.076  95.805  1.00  0.00     0.000 C 
BRANCH  20  21
ATOM     21  C   UNL     1      -2.107  40.420  97.282  1.00  0.00     0.000 C 
BRANCH  21  22
ATOM     22  C   UNL     1      -2.816  39.299  98.072  1.00  0.00     0.000 C 
BRANCH  22  23
ATOM     23  C   UNL     1      -4.343  39.481  98.108  1.00  0.00     0.000 C 
BRANCH  23  24
ATOM     24  C   UNL     1      -5.071  38.552  97.121  1.00  0.00    -0.000 C 
BRANCH  24  25
ATOM     25  C   UNL     1      -4.425  37.161  97.036  1.00  0.00    -0.000 C 
BRANCH  25  26
ATOM     26  C   UNL     1      -4.226  36.737  95.573  1.00  0.00    -0.000 C 
BRANCH  26  27
ATOM     27  C   UNL     1      -4.712  37.797  94.569  1.00  0.00    -0.000 C 
BRANCH  27  28
ATOM     28  C   UNL     1      -5.356  37.174  93.318  1.00  0.00    -0.000 C 
BRANCH  28  29
ATOM     29  C   UNL     1      -4.394  37.108  92.119  1.00  0.00    -0.000 C 
BRANCH  29  30
ATOM     30  C   UNL     1      -4.015  35.685  91.657  1.00  0.00    -0.000 C 
BRANCH  30  31
ATOM     31  C   UNL     1      -3.035  34.940  92.580  1.00  0.00    -0.003 C 
ATOM     32  C   UNL     1      -1.570  35.179  92.213  1.00  0.00     0.004 C 
ENDBRANCH  30  31
ENDBRANCH  29  30
ENDBRANCH  28  29
ENDBRANCH  27  28
ENDBRANCH  26  27
ENDBRANCH  25  26
ENDBRANCH  24  25
ENDBRANCH  23  24
ENDBRANCH  22  23
ENDBRANCH  21  22
ENDBRANCH  20  21
ENDBRANCH  19  20
ENDBRANCH  18  19
ENDBRANCH   1  18
TORSDOF 28
ENDMDL
MODEL 6
REMARK VINA RESULT:    -2.708      5.084      8.898
REMARK INTER + INTRA:         -13.663
REMARK INTER:                  -7.664
REMARK INTRA:                  -5.999
REMARK UNBOUND:                -6.522
REMARK SMILES CCCCCCCCCCCCCCCCCCCCCCCCCCCCCC(=O)[O-]
REMARK SMILES IDX 16 1 17 2 18 3 19 4 20 5 21 6 22 7 23 8 24 9 25 10 26 11
REMARK SMILES IDX 27 12 28 13 29 14 30 15 31 16 32 17 15 18 14 19 13 20 12 21
REMARK SMILES IDX 11 22 10 23 9 24 8 25 7 26 6 27 5 28 4 29 3 30 2 31 1 32
REMARK H PARENT
REMARK Flexibility Score: inf
ROOT
ATOM      1  C   UNL     1     -18.984  39.348  92.301  1.00  0.00     0.000 C 
ENDROOT
BRANCH   1   2
ATOM      2  C   UNL     1     -19.600  39.261  90.894  1.00  0.00     0.000 C 
BRANCH   2   3
ATOM      3  C   UNL     1     -19.240  37.940  90.180  1.00  0.00     0.000 C 
BRANCH   3   4
ATOM      4  C   UNL     1     -19.392  36.691  91.068  1.00  0.00     0.000 C 
BRANCH   4   5
ATOM      5  C   UNL     1     -18.136  35.803  91.070  1.00  0.00     0.000 C 
BRANCH   5   6
ATOM      6  C   UNL     1     -17.029  36.314  90.129  1.00  0.00     0.000 C 
BRANCH   6   7
ATOM      7  C   UNL     1     -16.152  35.224  89.484  1.00  0.00     0.000 C 
BRANCH   7   8
ATOM      8  C   UNL     1     -16.678  33.800  89.729  1.00  0.00     0.000 C 
BRANCH   8   9
ATOM      9  C   UNL     1     -15.687  32.932  90.527  1.00  0.00     0.000 C 
BRANCH   9  10
ATOM     10  C   UNL     1     -14.925  33.688  91.632  1.00  0.00     0.000 C 
BRANCH  10  11
ATOM     11  C   UNL     1     -15.726  33.787  92.943  1.00  0.00     0.000 C 
BRANCH  11  12
ATOM     12  C   UNL     1     -16.122  32.410  93.501  1.00  0.00     0.000 C 
BRANCH  12  13
ATOM     13  C   UNL     1     -17.616  32.101  93.304  1.00  0.00     0.006 C 
BRANCH  13  14
ATOM     14  C   UNL     1     -18.517  33.076  94.076  1.00  0.00     0.053 C 
BRANCH  14  15
ATOM     15  C   UNL     1     -19.700  32.389  94.690  1.00  0.00     0.041 C 
ATOM     16  O   UNL     1     -20.849  32.897  94.592  1.00  0.00    -0.550 OA
ATOM     17  O   UNL     1     -19.531  31.197  95.383  1.00  0.00    -0.550 OA
ENDBRANCH  14  15
ENDBRANCH  13  14
ENDBRANCH  12  13
ENDBRANCH  11  12
ENDBRANCH  10  11
ENDBRANCH   9  10
ENDBRANCH   8   9
ENDBRANCH   7   8
ENDBRANCH   6   7
ENDBRANCH   5   6
ENDBRANCH   4   5
ENDBRANCH   3   4
ENDBRANCH   2   3
ENDBRANCH   1   2
BRANCH   1  18
ATOM     18  C   UNL     1     -19.775  40.278  93.237  1.00  0.00     0.000 C 
BRANCH  18  19
ATOM     19  C   UNL     1     -18.919  41.438  93.776  1.00  0.00     0.000 C 
BRANCH  19  20
ATOM     20  C   UNL     1     -17.492  41.004  94.149  1.00  0.00     0.000 C 
BRANCH  20  21
ATOM     21  C   UNL     1     -17.108  41.206  95.628  1.00  0.00     0.000 C 
BRANCH  21  22
ATOM     22  C   UNL     1     -18.315  41.379  96.575  1.00  0.00     0.000 C 
BRANCH  22  23
ATOM     23  C   UNL     1     -18.695  40.069  97.287  1.00  0.00     0.000 C 
BRANCH  23  24
ATOM     24  C   UNL     1     -20.189  39.733  97.145  1.00  0.00    -0.000 C 
BRANCH  24  25
ATOM     25  C   UNL     1     -20.431  38.453  96.331  1.00  0.00    -0.000 C 
BRANCH  25  26
ATOM     26  C   UNL     1     -19.150  37.611  96.240  1.00  0.00    -0.000 C 
BRANCH  26  27
ATOM     27  C   UNL     1     -19.035  36.833  94.918  1.00  0.00    -0.000 C 
BRANCH  27  28
ATOM     28  C   UNL     1     -17.574  36.606  94.492  1.00  0.00    -0.000 C 
BRANCH  28  29
ATOM     29  C   UNL     1     -16.610  37.654  95.074  1.00  0.00    -0.000 C 
BRANCH  29  30
ATOM     30  C   UNL     1     -15.175  37.613  94.510  1.00  0.00    -0.000 C 
BRANCH  30  31
ATOM     31  C   UNL     1     -15.080  37.478  92.980  1.00  0.00    -0.003 C 
ATOM     32  C   UNL     1     -15.301  38.803  92.249  1.00  0.00     0.004 C 
ENDBRANCH  30  31
ENDBRANCH  29  30
ENDBRANCH  28  29
ENDBRANCH  27  28
ENDBRANCH  26  27
ENDBRANCH  25  26
ENDBRANCH  24  25
ENDBRANCH  23  24
ENDBRANCH  22  23
ENDBRANCH  21  22
ENDBRANCH  20  21
ENDBRANCH  19  20
ENDBRANCH  18  19
ENDBRANCH   1  18
TORSDOF 28
ENDMDL
MODEL 7
REMARK VINA RESULT:    -2.702      4.559      8.706
REMARK INTER + INTRA:         -13.647
REMARK INTER:                  -8.885
REMARK INTRA:                  -4.763
REMARK UNBOUND:                -6.522
REMARK SMILES CCCCCCCCCCCCCCCCCCCCCCCCCCCCCC(=O)[O-]
REMARK SMILES IDX 16 1 17 2 18 3 19 4 20 5 21 6 22 7 23 8 24 9 25 10 26 11
REMARK SMILES IDX 27 12 28 13 29 14 30 15 31 16 32 17 15 18 14 19 13 20 12 21
REMARK SMILES IDX 11 22 10 23 9 24 8 25 7 26 6 27 5 28 4 29 3 30 2 31 1 32
REMARK H PARENT
REMARK Flexibility Score: inf
ROOT
ATOM      1  C   UNL     1     -19.255  37.760  91.793  1.00  0.00     0.000 C 
ENDROOT
BRANCH   1   2
ATOM      2  C   UNL     1     -19.114  39.289  91.903  1.00  0.00     0.000 C 
BRANCH   2   3
ATOM      3  C   UNL     1     -20.415  39.960  92.392  1.00  0.00     0.000 C 
BRANCH   3   4
ATOM      4  C   UNL     1     -20.184  41.143  93.350  1.00  0.00     0.000 C 
BRANCH   4   5
ATOM      5  C   UNL     1     -18.705  41.330  93.725  1.00  0.00     0.000 C 
BRANCH   5   6
ATOM      6  C   UNL     1     -18.476  41.480  95.241  1.00  0.00     0.000 C 
BRANCH   6   7
ATOM      7  C   UNL     1     -17.270  40.708  95.809  1.00  0.00     0.000 C 
BRANCH   7   8
ATOM      8  C   UNL     1     -17.658  39.364  96.447  1.00  0.00     0.000 C 
BRANCH   8   9
ATOM      9  C   UNL     1     -17.719  38.217  95.420  1.00  0.00     0.000 C 
BRANCH   9  10
ATOM     10  C   UNL     1     -16.368  37.524  95.159  1.00  0.00     0.000 C 
BRANCH  10  11
ATOM     11  C   UNL     1     -16.037  37.417  93.659  1.00  0.00     0.000 C 
BRANCH  11  12
ATOM     12  C   UNL     1     -15.784  38.787  93.009  1.00  0.00     0.000 C 
BRANCH  12  13
ATOM     13  C   UNL     1     -14.858  38.697  91.784  1.00  0.00     0.006 C 
BRANCH  13  14
ATOM     14  C   UNL     1     -15.644  38.627  90.466  1.00  0.00     0.053 C 
BRANCH  14  15
ATOM     15  C   UNL     1     -15.575  37.269  89.837  1.00  0.00     0.041 C 
ATOM     16  O   UNL     1     -14.788  37.055  88.875  1.00  0.00    -0.550 OA
ATOM     17  O   UNL     1     -16.390  36.244  90.300  1.00  0.00    -0.550 OA
ENDBRANCH  14  15
ENDBRANCH  13  14
ENDBRANCH  12  13
ENDBRANCH  11  12
ENDBRANCH  10  11
ENDBRANCH   9  10
ENDBRANCH   8   9
ENDBRANCH   7   8
ENDBRANCH   6   7
ENDBRANCH   5   6
ENDBRANCH   4   5
ENDBRANCH   3   4
ENDBRANCH   2   3
ENDBRANCH   1   2
BRANCH   1  18
ATOM     18  C   UNL     1     -20.582  37.244  92.374  1.00  0.00     0.000 C 
BRANCH  18  19
ATOM     19  C   UNL     1     -20.378  36.090  93.372  1.00  0.00     0.000 C 
BRANCH  19  20
ATOM     20  C   UNL     1     -19.030  35.374  93.190  1.00  0.00     0.000 C 
BRANCH  20  21
ATOM     21  C   UNL     1     -18.626  34.431  94.340  1.00  0.00     0.000 C 
BRANCH  21  22
ATOM     22  C   UNL     1     -19.767  34.118  95.331  1.00  0.00     0.000 C 
BRANCH  22  23
ATOM     23  C   UNL     1     -20.513  32.819  94.978  1.00  0.00     0.000 C 
BRANCH  23  24
ATOM     24  C   UNL     1     -19.567  31.712  94.483  1.00  0.00    -0.000 C 
BRANCH  24  25
ATOM     25  C   UNL     1     -18.949  30.906  95.635  1.00  0.00    -0.000 C 
BRANCH  25  26
ATOM     26  C   UNL     1     -17.439  30.718  95.425  1.00  0.00    -0.000 C 
BRANCH  26  27
ATOM     27  C   UNL     1     -17.030  29.241  95.295  1.00  0.00    -0.000 C 
BRANCH  27  28
ATOM     28  C   UNL     1     -17.529  28.603  93.986  1.00  0.00    -0.000 C 
BRANCH  28  29
ATOM     29  C   UNL     1     -16.391  28.301  92.995  1.00  0.00    -0.000 C 
BRANCH  29  30
ATOM     30  C   UNL     1     -16.272  29.282  91.810  1.00  0.00    -0.000 C 
BRANCH  30  31
ATOM     31  C   UNL     1     -17.384  30.343  91.728  1.00  0.00    -0.003 C 
ATOM     32  C   UNL     1     -16.858  31.772  91.865  1.00  0.00     0.004 C 
ENDBRANCH  30  31
ENDBRANCH  29  30
ENDBRANCH  28  29
ENDBRANCH  27  28
ENDBRANCH  26  27
ENDBRANCH  25  26
ENDBRANCH  24  25
ENDBRANCH  23  24
ENDBRANCH  22  23
ENDBRANCH  21  22
ENDBRANCH  20  21
ENDBRANCH  19  20
ENDBRANCH  18  19
ENDBRANCH   1  18
TORSDOF 28
ENDMDL
MODEL 8
REMARK VINA RESULT:    -2.688     13.915     17.493
REMARK INTER + INTRA:         -13.610
REMARK INTER:                  -8.052
REMARK INTRA:                  -5.558
REMARK UNBOUND:                -6.522
REMARK SMILES CCCCCCCCCCCCCCCCCCCCCCCCCCCCCC(=O)[O-]
REMARK SMILES IDX 16 1 17 2 18 3 19 4 20 5 21 6 22 7 23 8 24 9 25 10 26 11
REMARK SMILES IDX 27 12 28 13 29 14 30 15 31 16 32 17 15 18 14 19 13 20 12 21
REMARK SMILES IDX 11 22 10 23 9 24 8 25 7 26 6 27 5 28 4 29 3 30 2 31 1 32
REMARK H PARENT
REMARK Flexibility Score: inf
ROOT
ATOM      1  C   UNL     1      -3.472  41.465  96.866  1.00  0.00     0.000 C 
ENDROOT
BRANCH   1   2
ATOM      2  C   UNL     1      -3.108  42.427  95.721  1.00  0.00     0.000 C 
BRANCH   2   3
ATOM      3  C   UNL     1      -2.712  43.826  96.239  1.00  0.00     0.000 C 
BRANCH   3   4
ATOM      4  C   UNL     1      -2.548  44.879  95.128  1.00  0.00     0.000 C 
BRANCH   4   5
ATOM      5  C   UNL     1      -2.427  46.311  95.674  1.00  0.00     0.000 C 
BRANCH   5   6
ATOM      6  C   UNL     1      -2.069  46.362  97.172  1.00  0.00     0.000 C 
BRANCH   6   7
ATOM      7  C   UNL     1      -3.103  47.056  98.078  1.00  0.00     0.000 C 
BRANCH   7   8
ATOM      8  C   UNL     1      -4.235  46.119  98.531  1.00  0.00     0.000 C 
BRANCH   8   9
ATOM      9  C   UNL     1      -5.529  46.319  97.718  1.00  0.00     0.000 C 
BRANCH   9  10
ATOM     10  C   UNL     1      -6.074  45.035  97.064  1.00  0.00     0.000 C 
BRANCH  10  11
ATOM     11  C   UNL     1      -6.069  45.106  95.525  1.00  0.00     0.000 C 
BRANCH  11  12
ATOM     12  C   UNL     1      -6.482  43.779  94.870  1.00  0.00     0.000 C 
BRANCH  12  13
ATOM     13  C   UNL     1      -6.924  42.725  95.900  1.00  0.00     0.006 C 
BRANCH  13  14
ATOM     14  C   UNL     1      -8.227  42.023  95.490  1.00  0.00     0.053 C 
BRANCH  14  15
ATOM     15  C   UNL     1      -9.432  42.651  96.123  1.00  0.00     0.041 C 
ATOM     16  O   UNL     1     -10.577  42.160  95.932  1.00  0.00    -0.550 OA
ATOM     17  O   UNL     1      -9.292  43.786  96.912  1.00  0.00    -0.550 OA
ENDBRANCH  14  15
ENDBRANCH  13  14
ENDBRANCH  12  13
ENDBRANCH  11  12
ENDBRANCH  10  11
ENDBRANCH   9  10
ENDBRANCH   8   9
ENDBRANCH   7   8
ENDBRANCH   6   7
ENDBRANCH   5   6
ENDBRANCH   4   5
ENDBRANCH   3   4
ENDBRANCH   2   3
ENDBRANCH   1   2
BRANCH   1  18
ATOM     18  C   UNL     1      -2.386  40.405  97.116  1.00  0.00     0.000 C 
BRANCH  18  19
ATOM     19  C   UNL     1      -1.608  40.045  95.838  1.00  0.00     0.000 C 
BRANCH  19  20
ATOM     20  C   UNL     1      -1.229  38.557  95.767  1.00  0.00     0.000 C 
BRANCH  20  21
ATOM     21  C   UNL     1      -1.200  37.952  94.351  1.00  0.00     0.000 C 
BRANCH  21  22
ATOM     22  C   UNL     1      -1.250  38.997  93.216  1.00  0.00     0.000 C 
BRANCH  22  23
ATOM     23  C   UNL     1      -2.292  38.646  92.140  1.00  0.00     0.000 C 
BRANCH  23  24
ATOM     24  C   UNL     1      -3.239  39.818  91.832  1.00  0.00    -0.000 C 
BRANCH  24  25
ATOM     25  C   UNL     1      -3.876  40.410  93.099  1.00  0.00    -0.000 C 
BRANCH  25  26
ATOM     26  C   UNL     1      -5.373  40.075  93.167  1.00  0.00    -0.000 C 
BRANCH  26  27
ATOM     27  C   UNL     1      -5.777  39.397  94.487  1.00  0.00    -0.000 C 
BRANCH  27  28
ATOM     28  C   UNL     1      -4.883  38.194  94.831  1.00  0.00    -0.000 C 
BRANCH  28  29
ATOM     29  C   UNL     1      -4.881  37.857  96.333  1.00  0.00    -0.000 C 
BRANCH  29  30
ATOM     30  C   UNL     1      -4.155  36.550  96.713  1.00  0.00    -0.000 C 
BRANCH  30  31
ATOM     31  C   UNL     1      -5.068  35.422  97.223  1.00  0.00    -0.003 C 
ATOM     32  C   UNL     1      -6.552  35.791  97.185  1.00  0.00     0.004 C 
ENDBRANCH  30  31
ENDBRANCH  29  30
ENDBRANCH  28  29
ENDBRANCH  27  28
ENDBRANCH  26  27
ENDBRANCH  25  26
ENDBRANCH  24  25
ENDBRANCH  23  24
ENDBRANCH  22  23
ENDBRANCH  21  22
ENDBRANCH  20  21
ENDBRANCH  19  20
ENDBRANCH  18  19
ENDBRANCH   1  18
TORSDOF 28
ENDMDL
MODEL 9
REMARK VINA RESULT:    -2.668      5.024      8.535
REMARK INTER + INTRA:         -13.557
REMARK INTER:                  -7.816
REMARK INTRA:                  -5.741
REMARK UNBOUND:                -6.522
REMARK SMILES CCCCCCCCCCCCCCCCCCCCCCCCCCCCCC(=O)[O-]
REMARK SMILES IDX 16 1 17 2 18 3 19 4 20 5 21 6 22 7 23 8 24 9 25 10 26 11
REMARK SMILES IDX 27 12 28 13 29 14 30 15 31 16 32 17 15 18 14 19 13 20 12 21
REMARK SMILES IDX 11 22 10 23 9 24 8 25 7 26 6 27 5 28 4 29 3 30 2 31 1 32
REMARK H PARENT
REMARK Flexibility Score: inf
ROOT
ATOM      1  C   UNL     1     -16.234  40.318  95.525  1.00  0.00     0.000 C 
ENDROOT
BRANCH   1   2
ATOM      2  C   UNL     1     -17.062  41.289  94.666  1.00  0.00     0.000 C 
BRANCH   2   3
ATOM      3  C   UNL     1     -18.567  41.230  95.005  1.00  0.00     0.000 C 
BRANCH   3   4
ATOM      4  C   UNL     1     -19.469  40.940  93.792  1.00  0.00     0.000 C 
BRANCH   4   5
ATOM      5  C   UNL     1     -18.786  40.053  92.737  1.00  0.00     0.000 C 
BRANCH   5   6
ATOM      6  C   UNL     1     -19.785  39.308  91.831  1.00  0.00     0.000 C 
BRANCH   6   7
ATOM      7  C   UNL     1     -20.459  38.074  92.460  1.00  0.00     0.000 C 
BRANCH   7   8
ATOM      8  C   UNL     1     -20.031  36.751  91.804  1.00  0.00     0.000 C 
BRANCH   8   9
ATOM      9  C   UNL     1     -19.222  36.967  90.510  1.00  0.00     0.000 C 
BRANCH   9  10
ATOM     10  C   UNL     1     -17.880  36.211  90.465  1.00  0.00     0.000 C 
BRANCH  10  11
ATOM     11  C   UNL     1     -16.666  37.154  90.558  1.00  0.00     0.000 C 
BRANCH  11  12
ATOM     12  C   UNL     1     -16.353  37.574  92.003  1.00  0.00     0.000 C 
BRANCH  12  13
ATOM     13  C   UNL     1     -15.438  38.810  92.073  1.00  0.00     0.006 C 
BRANCH  13  14
ATOM     14  C   UNL     1     -14.169  38.546  92.896  1.00  0.00     0.053 C 
BRANCH  14  15
ATOM     15  C   UNL     1     -13.261  39.739  92.935  1.00  0.00     0.041 C 
ATOM     16  O   UNL     1     -12.727  40.164  91.875  1.00  0.00    -0.550 OA
ATOM     17  O   UNL     1     -12.993  40.370  94.143  1.00  0.00    -0.550 OA
ENDBRANCH  14  15
ENDBRANCH  13  14
ENDBRANCH  12  13
ENDBRANCH  11  12
ENDBRANCH  10  11
ENDBRANCH   9  10
ENDBRANCH   8   9
ENDBRANCH   7   8
ENDBRANCH   6   7
ENDBRANCH   5   6
ENDBRANCH   4   5
ENDBRANCH   3   4
ENDBRANCH   2   3
ENDBRANCH   1   2
BRANCH   1  18
ATOM     18  C   UNL     1     -17.110  39.363  96.351  1.00  0.00     0.000 C 
BRANCH  18  19
ATOM     19  C   UNL     1     -16.948  37.894  95.921  1.00  0.00     0.000 C 
BRANCH  19  20
ATOM     20  C   UNL     1     -18.169  37.356  95.157  1.00  0.00     0.000 C 
BRANCH  20  21
ATOM     21  C   UNL     1     -19.461  37.230  95.987  1.00  0.00     0.000 C 
BRANCH  21  22
ATOM     22  C   UNL     1     -20.322  35.999  95.633  1.00  0.00     0.000 C 
BRANCH  22  23
ATOM     23  C   UNL     1     -19.526  34.924  94.873  1.00  0.00     0.000 C 
BRANCH  23  24
ATOM     24  C   UNL     1     -20.263  33.576  94.812  1.00  0.00    -0.000 C 
BRANCH  24  25
ATOM     25  C   UNL     1     -19.924  32.664  96.000  1.00  0.00    -0.000 C 
BRANCH  25  26
ATOM     26  C   UNL     1     -19.051  31.482  95.553  1.00  0.00    -0.000 C 
BRANCH  26  27
ATOM     27  C   UNL     1     -19.307  31.065  94.094  1.00  0.00    -0.000 C 
BRANCH  27  28
ATOM     28  C   UNL     1     -18.004  30.858  93.302  1.00  0.00    -0.000 C 
BRANCH  28  29
ATOM     29  C   UNL     1     -16.742  31.107  94.148  1.00  0.00    -0.000 C 
BRANCH  29  30
ATOM     30  C   UNL     1     -15.806  32.214  93.623  1.00  0.00    -0.000 C 
BRANCH  30  31
ATOM     31  C   UNL     1     -16.487  33.565  93.343  1.00  0.00    -0.003 C 
ATOM     32  C   UNL     1     -15.794  34.739  94.037  1.00  0.00     0.004 C 
ENDBRANCH  30  31
ENDBRANCH  29  30
ENDBRANCH  28  29
ENDBRANCH  27  28
ENDBRANCH  26  27
ENDBRANCH  25  26
ENDBRANCH  24  25
ENDBRANCH  23  24
ENDBRANCH  22  23
ENDBRANCH  21  22
ENDBRANCH  20  21
ENDBRANCH  19  20
ENDBRANCH  18  19
ENDBRANCH   1  18
TORSDOF 28
ENDMDL
