MODEL 1
REMARK VINA RESULT:    -5.712      0.000      0.000
REMARK INTER + INTRA:          -6.337
REMARK INTER:                  -6.212
REMARK INTRA:                  -0.125
REMARK UNBOUND:                -0.125
REMARK SMILES Cc1ccc(C(C)C)cc1O
REMARK SMILES IDX 1 1 2 2 10 3 9 4 5 5 4 6 3 7 11 8 6 10 7 11 8 12
REMARK H PARENT 11 9
REMARK Flexibility Score: inf
ROOT
ATOM      1  C   UNL     1      -0.302  61.388  -8.883  1.00  0.00     0.048 C 
ATOM      2  C   UNL     1      -1.245  61.490 -10.048  1.00  0.00    -0.009 A 
ATOM      3  C   UNL     1      -1.521  62.739 -10.629  1.00  0.00     0.118 A 
ATOM      4  C   UNL     1      -2.402  62.827 -11.717  1.00  0.00     0.050 A 
ATOM      5  C   UNL     1      -3.017  61.676 -12.237  1.00  0.00    -0.042 A 
ATOM      6  C   UNL     1      -2.735  60.429 -11.648  1.00  0.00     0.004 A 
ATOM      7  C   UNL     1      -1.858  60.338 -10.566  1.00  0.00     0.007 A 
ENDROOT
BRANCH   3   8
ATOM      8  O   UNL     1      -0.918  63.891 -10.125  1.00  0.00    -0.508 OA
ATOM      9  H   UNL     1      -0.244  63.851  -9.369  1.00  0.00     0.293 HD
ENDBRANCH   3   8
BRANCH   5  10
ATOM     10  C   UNL     1      -3.968  61.788 -13.414  1.00  0.00     0.013 C 
ATOM     11  C   UNL     1      -5.364  61.269 -13.049  1.00  0.00     0.012 C 
ATOM     12  C   UNL     1      -3.414  61.061 -14.645  1.00  0.00     0.012 C 
ENDBRANCH   5  10
TORSDOF 2
ENDMDL
MODEL 2
REMARK VINA RESULT:    -5.429     14.648     16.719
REMARK INTER + INTRA:          -6.030
REMARK INTER:                  -5.905
REMARK INTRA:                  -0.125
REMARK UNBOUND:                -0.125
REMARK SMILES Cc1ccc(C(C)C)cc1O
REMARK SMILES IDX 1 1 2 2 10 3 9 4 5 5 4 6 3 7 11 8 6 10 7 11 8 12
REMARK H PARENT 11 9
REMARK Flexibility Score: inf
ROOT
ATOM      1  C   UNL     1      -2.535  68.065 -24.300  1.00  0.00     0.048 C 
ATOM      2  C   UNL     1      -3.658  68.116 -25.297  1.00  0.00    -0.009 A 
ATOM      3  C   UNL     1      -3.590  67.362 -26.481  1.00  0.00     0.118 A 
ATOM      4  C   UNL     1      -4.641  67.415 -27.407  1.00  0.00     0.050 A 
ATOM      5  C   UNL     1      -5.770  68.217 -27.167  1.00  0.00    -0.042 A 
ATOM      6  C   UNL     1      -5.829  68.969 -25.978  1.00  0.00     0.004 A 
ATOM      7  C   UNL     1      -4.784  68.918 -25.054  1.00  0.00     0.007 A 
ENDROOT
BRANCH   3   8
ATOM      8  O   UNL     1      -2.476  66.561 -26.734  1.00  0.00    -0.508 OA
ATOM      9  H   UNL     1      -2.567  65.568 -26.918  1.00  0.00     0.293 HD
ENDBRANCH   3   8
BRANCH   5  10
ATOM     10  C   UNL     1      -6.899  68.263 -28.179  1.00  0.00     0.013 C 
ATOM     11  C   UNL     1      -7.234  69.708 -28.569  1.00  0.00     0.012 C 
ATOM     12  C   UNL     1      -8.141  67.531 -27.657  1.00  0.00     0.012 C 
ENDBRANCH   5  10
TORSDOF 2
ENDMDL
MODEL 3
REMARK VINA RESULT:    -5.201     12.178     14.518
REMARK INTER + INTRA:          -5.782
REMARK INTER:                  -5.656
REMARK INTRA:                  -0.126
REMARK UNBOUND:                -0.125
REMARK SMILES Cc1ccc(C(C)C)cc1O
REMARK SMILES IDX 1 1 2 2 10 3 9 4 5 5 4 6 3 7 11 8 6 10 7 11 8 12
REMARK H PARENT 11 9
REMARK Flexibility Score: inf
ROOT
ATOM      1  C   UNL     1      -6.099  69.265 -26.373  1.00  0.00     0.048 C 
ATOM      2  C   UNL     1      -5.413  68.942 -25.077  1.00  0.00    -0.009 A 
ATOM      3  C   UNL     1      -6.164  68.768 -23.902  1.00  0.00     0.118 A 
ATOM      4  C   UNL     1      -5.518  68.465 -22.694  1.00  0.00     0.050 A 
ATOM      5  C   UNL     1      -4.119  68.334 -22.642  1.00  0.00    -0.042 A 
ATOM      6  C   UNL     1      -3.375  68.511 -23.824  1.00  0.00     0.004 A 
ATOM      7  C   UNL     1      -4.016  68.811 -25.027  1.00  0.00     0.007 A 
ENDROOT
BRANCH   3   8
ATOM      8  O   UNL     1      -7.553  68.894 -23.936  1.00  0.00    -0.508 OA
ATOM      9  H   UNL     1      -8.124  68.319 -24.546  1.00  0.00     0.293 HD
ENDBRANCH   3   8
BRANCH   5  10
ATOM     10  C   UNL     1      -3.435  68.007 -21.329  1.00  0.00     0.013 C 
ATOM     11  C   UNL     1      -4.196  68.611 -20.143  1.00  0.00     0.012 C 
ATOM     12  C   UNL     1      -1.972  68.467 -21.337  1.00  0.00     0.012 C 
ENDBRANCH   5  10
TORSDOF 2
ENDMDL
MODEL 4
REMARK VINA RESULT:    -5.186     10.922     11.687
REMARK INTER + INTRA:          -5.765
REMARK INTER:                  -5.645
REMARK INTRA:                  -0.120
REMARK UNBOUND:                -0.125
REMARK SMILES Cc1ccc(C(C)C)cc1O
REMARK SMILES IDX 1 1 2 2 10 3 9 4 5 5 4 6 3 7 11 8 6 10 7 11 8 12
REMARK H PARENT 11 9
REMARK Flexibility Score: inf
ROOT
ATOM      1  C   UNL     1       0.054  69.236 -20.513  1.00  0.00     0.048 C 
ATOM      2  C   UNL     1      -1.399  68.897 -20.686  1.00  0.00    -0.009 A 
ATOM      3  C   UNL     1      -2.285  69.000 -19.600  1.00  0.00     0.118 A 
ATOM      4  C   UNL     1      -3.641  68.682 -19.769  1.00  0.00     0.050 A 
ATOM      5  C   UNL     1      -4.129  68.259 -21.017  1.00  0.00    -0.042 A 
ATOM      6  C   UNL     1      -3.234  68.159 -22.099  1.00  0.00     0.004 A 
ATOM      7  C   UNL     1      -1.884  68.475 -21.934  1.00  0.00     0.007 A 
ENDROOT
BRANCH   3   8
ATOM      8  O   UNL     1      -1.816  69.419 -18.355  1.00  0.00    -0.508 OA
ATOM      9  H   UNL     1      -2.387  69.981 -17.734  1.00  0.00     0.293 HD
ENDBRANCH   3   8
BRANCH   5  10
ATOM     10  C   UNL     1      -5.598  67.919 -21.183  1.00  0.00     0.013 C 
ATOM     11  C   UNL     1      -6.198  68.633 -22.400  1.00  0.00     0.012 C 
ATOM     12  C   UNL     1      -6.388  68.243 -19.909  1.00  0.00     0.012 C 
ENDBRANCH   5  10
TORSDOF 2
ENDMDL
MODEL 5
REMARK VINA RESULT:    -5.177      2.080      4.640
REMARK INTER + INTRA:          -5.755
REMARK INTER:                  -5.630
REMARK INTRA:                  -0.126
REMARK UNBOUND:                -0.125
REMARK SMILES Cc1ccc(C(C)C)cc1O
REMARK SMILES IDX 1 1 2 2 10 3 9 4 5 5 4 6 3 7 11 8 6 10 7 11 8 12
REMARK H PARENT 11 9
REMARK Flexibility Score: inf
ROOT
ATOM      1  C   UNL     1      -3.280  61.912 -14.858  1.00  0.00     0.048 C 
ATOM      2  C   UNL     1      -2.705  61.871 -13.471  1.00  0.00    -0.009 A 
ATOM      3  C   UNL     1      -3.082  60.853 -12.578  1.00  0.00     0.118 A 
ATOM      4  C   UNL     1      -2.540  60.820 -11.284  1.00  0.00     0.050 A 
ATOM      5  C   UNL     1      -1.621  61.797 -10.866  1.00  0.00    -0.042 A 
ATOM      6  C   UNL     1      -1.250  62.812 -11.767  1.00  0.00     0.004 A 
ATOM      7  C   UNL     1      -1.786  62.848 -13.055  1.00  0.00     0.007 A 
ENDROOT
BRANCH   3   8
ATOM      8  O   UNL     1      -3.993  59.876 -12.978  1.00  0.00    -0.508 OA
ATOM      9  H   UNL     1      -4.945  60.110 -13.236  1.00  0.00     0.293 HD
ENDBRANCH   3   8
BRANCH   5  10
ATOM     10  C   UNL     1      -1.045  61.747  -9.463  1.00  0.00     0.013 C 
ATOM     11  C   UNL     1      -0.888  63.156  -8.878  1.00  0.00     0.012 C 
ATOM     12  C   UNL     1       0.288  60.989  -9.438  1.00  0.00     0.012 C 
ENDBRANCH   5  10
TORSDOF 2
ENDMDL
MODEL 6
REMARK VINA RESULT:    -5.163     10.711     12.859
REMARK INTER + INTRA:          -5.740
REMARK INTER:                  -5.615
REMARK INTRA:                  -0.125
REMARK UNBOUND:                -0.125
REMARK SMILES Cc1ccc(C(C)C)cc1O
REMARK SMILES IDX 1 1 2 2 10 3 9 4 5 5 4 6 3 7 11 8 6 10 7 11 8 12
REMARK H PARENT 11 9
REMARK Flexibility Score: inf
ROOT
ATOM      1  C   UNL     1      -8.563  68.891 -22.000  1.00  0.00     0.048 C 
ATOM      2  C   UNL     1      -7.126  68.682 -21.616  1.00  0.00    -0.009 A 
ATOM      3  C   UNL     1      -6.113  68.771 -22.585  1.00  0.00     0.118 A 
ATOM      4  C   UNL     1      -4.773  68.575 -22.220  1.00  0.00     0.050 A 
ATOM      5  C   UNL     1      -4.427  68.288 -20.888  1.00  0.00    -0.042 A 
ATOM      6  C   UNL     1      -5.449  68.200 -19.924  1.00  0.00     0.004 A 
ATOM      7  C   UNL     1      -6.783  68.395 -20.285  1.00  0.00     0.007 A 
ENDROOT
BRANCH   3   8
ATOM      8  O   UNL     1      -6.439  69.056 -23.911  1.00  0.00    -0.508 OA
ATOM      9  H   UNL     1      -5.770  68.931 -24.662  1.00  0.00     0.293 HD
ENDBRANCH   3   8
BRANCH   5  10
ATOM     10  C   UNL     1      -2.973  68.078 -20.509  1.00  0.00     0.013 C 
ATOM     11  C   UNL     1      -2.758  66.694 -19.883  1.00  0.00     0.012 C 
ATOM     12  C   UNL     1      -2.478  69.188 -19.575  1.00  0.00     0.012 C 
ENDBRANCH   5  10
TORSDOF 2
ENDMDL
MODEL 7
REMARK VINA RESULT:    -5.136     11.628     13.488
REMARK INTER + INTRA:          -5.711
REMARK INTER:                  -5.585
REMARK INTRA:                  -0.126
REMARK UNBOUND:                -0.125
REMARK SMILES Cc1ccc(C(C)C)cc1O
REMARK SMILES IDX 1 1 2 2 10 3 9 4 5 5 4 6 3 7 11 8 6 10 7 11 8 12
REMARK H PARENT 11 9
REMARK Flexibility Score: inf
ROOT
ATOM      1  C   UNL     1      -2.302  67.641 -20.006  1.00  0.00     0.048 C 
ATOM      2  C   UNL     1      -2.813  67.948 -21.384  1.00  0.00    -0.009 A 
ATOM      3  C   UNL     1      -1.924  68.016 -22.471  1.00  0.00     0.118 A 
ATOM      4  C   UNL     1      -2.408  68.303 -23.756  1.00  0.00     0.050 A 
ATOM      5  C   UNL     1      -3.778  68.526 -23.973  1.00  0.00    -0.042 A 
ATOM      6  C   UNL     1      -4.661  68.456 -22.879  1.00  0.00     0.004 A 
ATOM      7  C   UNL     1      -4.182  68.170 -21.599  1.00  0.00     0.007 A 
ENDROOT
BRANCH   3   8
ATOM      8  O   UNL     1      -0.561  67.796 -22.272  1.00  0.00    -0.508 OA
ATOM      9  H   UNL     1       0.034  67.443 -23.013  1.00  0.00     0.293 HD
ENDBRANCH   3   8
BRANCH   5  10
ATOM     10  C   UNL     1      -4.286  68.835 -25.369  1.00  0.00     0.013 C 
ATOM     11  C   UNL     1      -5.778  69.188 -25.350  1.00  0.00     0.012 C 
ATOM     12  C   UNL     1      -4.006  67.674 -26.330  1.00  0.00     0.012 C 
ENDBRANCH   5  10
TORSDOF 2
ENDMDL
MODEL 8
REMARK VINA RESULT:    -5.107     11.071     12.595
REMARK INTER + INTRA:          -5.679
REMARK INTER:                  -5.553
REMARK INTRA:                  -0.126
REMARK UNBOUND:                -0.125
REMARK SMILES Cc1ccc(C(C)C)cc1O
REMARK SMILES IDX 1 1 2 2 10 3 9 4 5 5 4 6 3 7 11 8 6 10 7 11 8 12
REMARK H PARENT 11 9
REMARK Flexibility Score: inf
ROOT
ATOM      1  C   UNL     1      -7.448  68.476 -22.929  1.00  0.00     0.048 C 
ATOM      2  C   UNL     1      -6.139  68.347 -22.204  1.00  0.00    -0.009 A 
ATOM      3  C   UNL     1      -6.048  68.679 -20.841  1.00  0.00     0.118 A 
ATOM      4  C   UNL     1      -4.822  68.555 -20.170  1.00  0.00     0.050 A 
ATOM      5  C   UNL     1      -3.676  68.101 -20.845  1.00  0.00    -0.042 A 
ATOM      6  C   UNL     1      -3.778  67.772 -22.210  1.00  0.00     0.004 A 
ATOM      7  C   UNL     1      -4.996  67.893 -22.881  1.00  0.00     0.007 A 
ENDROOT
BRANCH   3   8
ATOM      8  O   UNL     1      -7.176  69.130 -20.156  1.00  0.00    -0.508 OA
ATOM      9  H   UNL     1      -7.866  68.486 -19.786  1.00  0.00     0.293 HD
ENDBRANCH   3   8
BRANCH   5  10
ATOM     10  C   UNL     1      -2.359  67.974 -20.105  1.00  0.00     0.013 C 
ATOM     11  C   UNL     1      -1.923  69.320 -19.513  1.00  0.00     0.012 C 
ATOM     12  C   UNL     1      -1.268  67.392 -21.012  1.00  0.00     0.012 C 
ENDBRANCH   5  10
TORSDOF 2
ENDMDL
