MODEL 1
REMARK VINA RESULT:    -5.967      0.000      0.000
REMARK INTER + INTRA:          -7.182
REMARK INTER:                  -7.014
REMARK INTRA:                  -0.168
REMARK UNBOUND:                -0.168
REMARK SMILES O=c1c(O)c(-c2ccc(O)c(O)c2)oc2cc(O)ccc12
REMARK SMILES IDX 5 1 3 2 2 3 1 4 21 5 15 6 14 7 16 8 17 9 19 10 20 11 6 12
REMARK SMILES IDX 7 13 8 14 9 15 13 16 11 17 10 18 12 20 4 22 18 24
REMARK H PARENT 10 19 12 21 4 23 18 25
REMARK Flexibility Score: inf
ROOT
ATOM      1  C   UNL     1      -4.150   9.278   5.046  1.00  0.00     0.180 A 
ATOM      2  C   UNL     1      -5.077   9.410   6.100  1.00  0.00     0.208 A 
ATOM      3  C   UNL     1      -4.596   9.645   7.398  1.00  0.00     0.235 A 
ATOM      4  O   UNL     1      -5.404   9.756   8.360  1.00  0.00    -0.285 OA
ATOM      5  C   UNL     1      -3.213   9.763   7.611  1.00  0.00     0.069 A 
ATOM      6  C   UNL     1      -2.352   9.641   6.499  1.00  0.00     0.142 A 
ATOM      7  O   UNL     1      -2.847   9.410   5.288  1.00  0.00    -0.452 OA
ATOM      8  C   UNL     1      -0.968   9.763   6.668  1.00  0.00     0.094 A 
ATOM      9  C   UNL     1      -0.432  10.002   7.940  1.00  0.00     0.119 A 
ATOM     10  C   UNL     1      -1.283  10.122   9.044  1.00  0.00     0.047 A 
ATOM     11  C   UNL     1      -2.666  10.003   8.885  1.00  0.00     0.020 A 
ENDROOT
BRANCH   1  12
ATOM     12  C   UNL     1      -4.577   9.010   3.654  1.00  0.00     0.025 A 
ATOM     13  C   UNL     1      -4.260   9.932   2.646  1.00  0.00     0.016 A 
ATOM     14  C   UNL     1      -4.636   9.689   1.323  1.00  0.00     0.051 A 
ATOM     15  C   UNL     1      -5.320   8.520   0.978  1.00  0.00     0.157 A 
ATOM     16  C   UNL     1      -5.244   7.822   3.307  1.00  0.00     0.062 A 
ATOM     17  C   UNL     1      -5.622   7.569   1.982  1.00  0.00     0.158 A 
BRANCH  15  18
ATOM     18  O   UNL     1      -5.674   8.341  -0.361  1.00  0.00    -0.504 OA
ATOM     19  H   UNL     1      -6.202   9.013  -0.900  1.00  0.00     0.293 HD
ENDBRANCH  15  18
BRANCH  17  20
ATOM     20  O   UNL     1      -6.284   6.370   1.711  1.00  0.00    -0.504 OA
ATOM     21  H   UNL     1      -6.741   6.164   0.835  1.00  0.00     0.293 HD
ENDBRANCH  17  20
ENDBRANCH   1  12
BRANCH   2  22
ATOM     22  O   UNL     1      -6.449   9.337   5.850  1.00  0.00    -0.502 OA
ATOM     23  H   UNL     1      -6.915   8.462   5.639  1.00  0.00     0.293 HD
ENDBRANCH   2  22
BRANCH   9  24
ATOM     24  O   UNL     1       0.944  10.124   8.118  1.00  0.00    -0.508 OA
ATOM     25  H   UNL     1       1.598   9.540   7.609  1.00  0.00     0.293 HD
ENDBRANCH   9  24
TORSDOF 5
ENDMDL
MODEL 2
REMARK VINA RESULT:    -5.728      1.508      3.396
REMARK INTER + INTRA:          -6.901
REMARK INTER:                  -6.765
REMARK INTRA:                  -0.135
REMARK UNBOUND:                -0.168
REMARK SMILES O=c1c(O)c(-c2ccc(O)c(O)c2)oc2cc(O)ccc12
REMARK SMILES IDX 5 1 3 2 2 3 1 4 21 5 15 6 14 7 16 8 17 9 19 10 20 11 6 12
REMARK SMILES IDX 7 13 8 14 9 15 13 16 11 17 10 18 12 20 4 22 18 24
REMARK H PARENT 10 19 12 21 4 23 18 25
REMARK Flexibility Score: inf
ROOT
ATOM      1  C   UNL     1      -4.717   9.078   5.168  1.00  0.00     0.180 A 
ATOM      2  C   UNL     1      -3.421   9.167   5.717  1.00  0.00     0.208 A 
ATOM      3  C   UNL     1      -3.285   9.462   7.082  1.00  0.00     0.235 A 
ATOM      4  O   UNL     1      -2.135   9.557   7.596  1.00  0.00    -0.285 OA
ATOM      5  C   UNL     1      -4.434   9.640   7.869  1.00  0.00     0.069 A 
ATOM      6  C   UNL     1      -5.695   9.512   7.249  1.00  0.00     0.142 A 
ATOM      7  O   UNL     1      -5.782   9.241   5.951  1.00  0.00    -0.452 OA
ATOM      8  C   UNL     1      -6.864   9.672   8.000  1.00  0.00     0.094 A 
ATOM      9  C   UNL     1      -6.788   9.963   9.369  1.00  0.00     0.119 A 
ATOM     10  C   UNL     1      -5.540  10.093   9.986  1.00  0.00     0.047 A 
ATOM     11  C   UNL     1      -4.366   9.933   9.244  1.00  0.00     0.020 A 
ENDROOT
BRANCH   1  12
ATOM     12  C   UNL     1      -4.944   8.790   3.734  1.00  0.00     0.025 A 
ATOM     13  C   UNL     1      -4.467   9.687   2.767  1.00  0.00     0.016 A 
ATOM     14  C   UNL     1      -4.653   9.425   1.408  1.00  0.00     0.051 A 
ATOM     15  C   UNL     1      -5.302   8.261   0.987  1.00  0.00     0.157 A 
ATOM     16  C   UNL     1      -5.577   7.608   3.313  1.00  0.00     0.062 A 
ATOM     17  C   UNL     1      -5.764   7.335   1.952  1.00  0.00     0.158 A 
BRANCH  15  18
ATOM     18  O   UNL     1      -5.462   8.063  -0.386  1.00  0.00    -0.504 OA
ATOM     19  H   UNL     1      -5.314   7.177  -0.850  1.00  0.00     0.293 HD
ENDBRANCH  15  18
BRANCH  17  20
ATOM     20  O   UNL     1      -6.403   6.142   1.609  1.00  0.00    -0.504 OA
ATOM     21  H   UNL     1      -7.365   5.933   1.833  1.00  0.00     0.293 HD
ENDBRANCH  17  20
ENDBRANCH   1  12
BRANCH   2  22
ATOM     22  O   UNL     1      -2.297   8.936   4.920  1.00  0.00    -0.502 OA
ATOM     23  H   UNL     1      -2.182   8.088   4.379  1.00  0.00     0.293 HD
ENDBRANCH   2  22
BRANCH   9  24
ATOM     24  O   UNL     1      -7.947  10.125  10.125  1.00  0.00    -0.508 OA
ATOM     25  H   UNL     1      -8.354  11.040  10.283  1.00  0.00     0.293 HD
ENDBRANCH   9  24
TORSDOF 5
ENDMDL
MODEL 3
REMARK VINA RESULT:    -5.726     15.284     16.798
REMARK INTER + INTRA:          -6.898
REMARK INTER:                  -6.638
REMARK INTRA:                  -0.261
REMARK UNBOUND:                -0.168
REMARK SMILES O=c1c(O)c(-c2ccc(O)c(O)c2)oc2cc(O)ccc12
REMARK SMILES IDX 5 1 3 2 2 3 1 4 21 5 15 6 14 7 16 8 17 9 19 10 20 11 6 12
REMARK SMILES IDX 7 13 8 14 9 15 13 16 11 17 10 18 12 20 4 22 18 24
REMARK H PARENT 10 19 12 21 4 23 18 25
REMARK Flexibility Score: inf
ROOT
ATOM      1  C   UNL     1      -4.238  -6.574   7.535  1.00  0.00     0.180 A 
ATOM      2  C   UNL     1      -3.479  -6.881   8.683  1.00  0.00     0.208 A 
ATOM      3  C   UNL     1      -2.402  -7.773   8.563  1.00  0.00     0.235 A 
ATOM      4  O   UNL     1      -1.713  -8.073   9.577  1.00  0.00    -0.285 OA
ATOM      5  C   UNL     1      -2.096  -8.321   7.307  1.00  0.00     0.069 A 
ATOM      6  C   UNL     1      -2.890  -7.946   6.202  1.00  0.00     0.142 A 
ATOM      7  O   UNL     1      -3.906  -7.105   6.359  1.00  0.00    -0.452 OA
ATOM      8  C   UNL     1      -2.611  -8.462   4.932  1.00  0.00     0.094 A 
ATOM      9  C   UNL     1      -1.546  -9.354   4.751  1.00  0.00     0.119 A 
ATOM     10  C   UNL     1      -0.758  -9.729   5.844  1.00  0.00     0.047 A 
ATOM     11  C   UNL     1      -1.028  -9.217   7.117  1.00  0.00     0.020 A 
ENDROOT
BRANCH   1  12
ATOM     12  C   UNL     1      -5.399  -5.658   7.584  1.00  0.00     0.025 A 
ATOM     13  C   UNL     1      -6.697  -6.189   7.594  1.00  0.00     0.016 A 
ATOM     14  C   UNL     1      -7.806  -5.344   7.660  1.00  0.00     0.051 A 
ATOM     15  C   UNL     1      -7.644  -3.957   7.732  1.00  0.00     0.157 A 
ATOM     16  C   UNL     1      -5.232  -4.265   7.680  1.00  0.00     0.062 A 
ATOM     17  C   UNL     1      -6.339  -3.410   7.749  1.00  0.00     0.158 A 
BRANCH  15  18
ATOM     18  O   UNL     1      -8.794  -3.167   7.788  1.00  0.00    -0.504 OA
ATOM     19  H   UNL     1      -9.568  -3.340   8.414  1.00  0.00     0.293 HD
ENDBRANCH  15  18
BRANCH  17  20
ATOM     20  O   UNL     1      -6.097  -2.038   7.840  1.00  0.00    -0.504 OA
ATOM     21  H   UNL     1      -6.532  -1.348   7.244  1.00  0.00     0.293 HD
ENDBRANCH  17  20
ENDBRANCH   1  12
BRANCH   2  22
ATOM     22  O   UNL     1      -3.776  -6.283   9.910  1.00  0.00    -0.502 OA
ATOM     23  H   UNL     1      -3.394  -6.622  10.785  1.00  0.00     0.293 HD
ENDBRANCH   2  22
BRANCH   9  24
ATOM     24  O   UNL     1      -1.261  -9.872   3.490  1.00  0.00    -0.508 OA
ATOM     25  H   UNL     1      -1.989 -10.020   2.801  1.00  0.00     0.293 HD
ENDBRANCH   9  24
TORSDOF 5
ENDMDL
MODEL 4
REMARK VINA RESULT:    -5.039     15.657     18.198
REMARK INTER + INTRA:          -6.090
REMARK INTER:                  -5.808
REMARK INTRA:                  -0.282
REMARK UNBOUND:                -0.168
REMARK SMILES O=c1c(O)c(-c2ccc(O)c(O)c2)oc2cc(O)ccc12
REMARK SMILES IDX 5 1 3 2 2 3 1 4 21 5 15 6 14 7 16 8 17 9 19 10 20 11 6 12
REMARK SMILES IDX 7 13 8 14 9 15 13 16 11 17 10 18 12 20 4 22 18 24
REMARK H PARENT 10 19 12 21 4 23 18 25
REMARK Flexibility Score: inf
ROOT
ATOM      1  C   UNL     1       6.371   3.102  -7.558  1.00  0.00     0.180 A 
ATOM      2  C   UNL     1       5.616   2.792  -8.708  1.00  0.00     0.208 A 
ATOM      3  C   UNL     1       5.255   1.456  -8.940  1.00  0.00     0.235 A 
ATOM      4  O   UNL     1       4.588   1.151  -9.968  1.00  0.00    -0.285 OA
ATOM      5  C   UNL     1       5.634   0.467  -8.018  1.00  0.00     0.069 A 
ATOM      6  C   UNL     1       6.370   0.862  -6.880  1.00  0.00     0.142 A 
ATOM      7  O   UNL     1       6.699   2.136  -6.701  1.00  0.00    -0.452 OA
ATOM      8  C   UNL     1       6.759  -0.092  -5.932  1.00  0.00     0.094 A 
ATOM      9  C   UNL     1       6.422  -1.440  -6.111  1.00  0.00     0.119 A 
ATOM     10  C   UNL     1       5.695  -1.834  -7.238  1.00  0.00     0.047 A 
ATOM     11  C   UNL     1       5.301  -0.889  -8.189  1.00  0.00     0.020 A 
ENDROOT
BRANCH   1  12
ATOM     12  C   UNL     1       6.806   4.483  -7.253  1.00  0.00     0.025 A 
ATOM     13  C   UNL     1       7.907   5.025  -7.933  1.00  0.00     0.016 A 
ATOM     14  C   UNL     1       8.322   6.332  -7.675  1.00  0.00     0.051 A 
ATOM     15  C   UNL     1       7.642   7.129  -6.748  1.00  0.00     0.157 A 
ATOM     16  C   UNL     1       6.107   5.288  -6.337  1.00  0.00     0.062 A 
ATOM     17  C   UNL     1       6.514   6.602  -6.075  1.00  0.00     0.158 A 
BRANCH  15  18
ATOM     18  O   UNL     1       8.114   8.425  -6.531  1.00  0.00    -0.504 OA
ATOM     19  H   UNL     1       8.772   8.672  -5.806  1.00  0.00     0.293 HD
ENDBRANCH  15  18
BRANCH  17  20
ATOM     20  O   UNL     1       5.773   7.342  -5.152  1.00  0.00    -0.504 OA
ATOM     21  H   UNL     1       6.110   7.601  -4.236  1.00  0.00     0.293 HD
ENDBRANCH  17  20
ENDBRANCH   1  12
BRANCH   2  22
ATOM     22  O   UNL     1       5.210   3.804  -9.582  1.00  0.00    -0.502 OA
ATOM     23  H   UNL     1       5.425   4.780  -9.418  1.00  0.00     0.293 HD
ENDBRANCH   2  22
BRANCH   9  24
ATOM     24  O   UNL     1       6.805  -2.396  -5.172  1.00  0.00    -0.508 OA
ATOM     25  H   UNL     1       7.626  -2.270  -4.592  1.00  0.00     0.293 HD
ENDBRANCH   9  24
TORSDOF 5
ENDMDL
MODEL 5
REMARK VINA RESULT:    -5.025     13.337     15.949
REMARK INTER + INTRA:          -6.075
REMARK INTER:                  -5.752
REMARK INTRA:                  -0.323
REMARK UNBOUND:                -0.168
REMARK SMILES O=c1c(O)c(-c2ccc(O)c(O)c2)oc2cc(O)ccc12
REMARK SMILES IDX 5 1 3 2 2 3 1 4 21 5 15 6 14 7 16 8 17 9 19 10 20 11 6 12
REMARK SMILES IDX 7 13 8 14 9 15 13 16 11 17 10 18 12 20 4 22 18 24
REMARK H PARENT 10 19 12 21 4 23 18 25
REMARK Flexibility Score: inf
ROOT
ATOM      1  C   UNL     1       6.749   6.794  -4.503  1.00  0.00     0.180 A 
ATOM      2  C   UNL     1       7.944   7.045  -5.209  1.00  0.00     0.208 A 
ATOM      3  C   UNL     1       8.237   6.268  -6.340  1.00  0.00     0.235 A 
ATOM      4  O   UNL     1       9.306   6.466  -6.982  1.00  0.00    -0.285 OA
ATOM      5  C   UNL     1       7.330   5.279  -6.752  1.00  0.00     0.069 A 
ATOM      6  C   UNL     1       6.145   5.105  -6.006  1.00  0.00     0.142 A 
ATOM      7  O   UNL     1       5.909   5.855  -4.936  1.00  0.00    -0.452 OA
ATOM      8  C   UNL     1       5.211   4.136  -6.390  1.00  0.00     0.094 A 
ATOM      9  C   UNL     1       5.449   3.334  -7.514  1.00  0.00     0.119 A 
ATOM     10  C   UNL     1       6.624   3.503  -8.255  1.00  0.00     0.047 A 
ATOM     11  C   UNL     1       7.561   4.469  -7.880  1.00  0.00     0.020 A 
ENDROOT
BRANCH   1  12
ATOM     12  C   UNL     1       6.378   7.557  -3.290  1.00  0.00     0.025 A 
ATOM     13  C   UNL     1       5.597   8.715  -3.416  1.00  0.00     0.016 A 
ATOM     14  C   UNL     1       5.219   9.439  -2.284  1.00  0.00     0.051 A 
ATOM     15  C   UNL     1       5.600   9.017  -1.006  1.00  0.00     0.157 A 
ATOM     16  C   UNL     1       6.742   7.117  -2.006  1.00  0.00     0.062 A 
ATOM     17  C   UNL     1       6.366   7.835  -0.864  1.00  0.00     0.158 A 
BRANCH  15  18
ATOM     18  O   UNL     1       5.196   9.790   0.084  1.00  0.00    -0.504 OA
ATOM     19  H   UNL     1       5.816  10.094   0.821  1.00  0.00     0.293 HD
ENDBRANCH  15  18
BRANCH  17  20
ATOM     20  O   UNL     1       6.766   7.340   0.378  1.00  0.00    -0.504 OA
ATOM     21  H   UNL     1       6.235   6.670   0.915  1.00  0.00     0.293 HD
ENDBRANCH  17  20
ENDBRANCH   1  12
BRANCH   2  22
ATOM     22  O   UNL     1       8.804   8.069  -4.804  1.00  0.00    -0.502 OA
ATOM     23  H   UNL     1       9.777   7.902  -4.579  1.00  0.00     0.293 HD
ENDBRANCH   2  22
BRANCH   9  24
ATOM     24  O   UNL     1       4.525   2.367  -7.904  1.00  0.00    -0.508 OA
ATOM     25  H   UNL     1       4.232   1.630  -7.273  1.00  0.00     0.293 HD
ENDBRANCH   9  24
TORSDOF 5
ENDMDL
MODEL 6
REMARK VINA RESULT:    -5.003     15.590     17.063
REMARK INTER + INTRA:          -6.049
REMARK INTER:                  -5.746
REMARK INTRA:                  -0.303
REMARK UNBOUND:                -0.168
REMARK SMILES O=c1c(O)c(-c2ccc(O)c(O)c2)oc2cc(O)ccc12
REMARK SMILES IDX 5 1 3 2 2 3 1 4 21 5 15 6 14 7 16 8 17 9 19 10 20 11 6 12
REMARK SMILES IDX 7 13 8 14 9 15 13 16 11 17 10 18 12 20 4 22 18 24
REMARK H PARENT 10 19 12 21 4 23 18 25
REMARK Flexibility Score: inf
ROOT
ATOM      1  C   UNL     1      -4.298  -7.452   7.183  1.00  0.00     0.180 A 
ATOM      2  C   UNL     1      -5.322  -8.183   7.820  1.00  0.00     0.208 A 
ATOM      3  C   UNL     1      -6.393  -7.484   8.398  1.00  0.00     0.235 A 
ATOM      4  O   UNL     1      -7.317  -8.115   8.982  1.00  0.00    -0.285 OA
ATOM      5  C   UNL     1      -6.430  -6.083   8.312  1.00  0.00     0.069 A 
ATOM      6  C   UNL     1      -5.378  -5.427   7.638  1.00  0.00     0.142 A 
ATOM      7  O   UNL     1      -4.378  -6.125   7.112  1.00  0.00    -0.452 OA
ATOM      8  C   UNL     1      -5.384  -4.032   7.522  1.00  0.00     0.094 A 
ATOM      9  C   UNL     1      -6.430  -3.283   8.076  1.00  0.00     0.119 A 
ATOM     10  C   UNL     1      -7.473  -3.931   8.745  1.00  0.00     0.047 A 
ATOM     11  C   UNL     1      -7.477  -5.323   8.865  1.00  0.00     0.020 A 
ENDROOT
BRANCH   1  12
ATOM     12  C   UNL     1      -3.126  -8.115   6.568  1.00  0.00     0.025 A 
ATOM     13  C   UNL     1      -2.044  -8.492   7.376  1.00  0.00     0.016 A 
ATOM     14  C   UNL     1      -0.937  -9.136   6.819  1.00  0.00     0.051 A 
ATOM     15  C   UNL     1      -0.894  -9.429   5.453  1.00  0.00     0.157 A 
ATOM     16  C   UNL     1      -3.096  -8.428   5.198  1.00  0.00     0.062 A 
ATOM     17  C   UNL     1      -1.991  -9.077   4.632  1.00  0.00     0.158 A 
BRANCH  15  18
ATOM     18  O   UNL     1       0.245 -10.067   4.958  1.00  0.00    -0.504 OA
ATOM     19  H   UNL     1       0.355 -10.360   3.997  1.00  0.00     0.293 HD
ENDBRANCH  15  18
BRANCH  17  20
ATOM     20  O   UNL     1      -2.030  -9.354   3.264  1.00  0.00    -0.504 OA
ATOM     21  H   UNL     1      -2.567 -10.105   2.855  1.00  0.00     0.293 HD
ENDBRANCH  17  20
ENDBRANCH   1  12
BRANCH   2  22
ATOM     22  O   UNL     1      -5.283  -9.580   7.847  1.00  0.00    -0.502 OA
ATOM     23  H   UNL     1      -5.103 -10.133   7.018  1.00  0.00     0.293 HD
ENDBRANCH   2  22
BRANCH   9  24
ATOM     24  O   UNL     1      -6.444  -1.894   7.965  1.00  0.00    -0.508 OA
ATOM     25  H   UNL     1      -5.625  -1.379   7.665  1.00  0.00     0.293 HD
ENDBRANCH   9  24
TORSDOF 5
ENDMDL
MODEL 7
REMARK VINA RESULT:    -4.992     13.359     15.023
REMARK INTER + INTRA:          -6.036
REMARK INTER:                  -5.738
REMARK INTRA:                  -0.298
REMARK UNBOUND:                -0.168
REMARK SMILES O=c1c(O)c(-c2ccc(O)c(O)c2)oc2cc(O)ccc12
REMARK SMILES IDX 5 1 3 2 2 3 1 4 21 5 15 6 14 7 16 8 17 9 19 10 20 11 6 12
REMARK SMILES IDX 7 13 8 14 9 15 13 16 11 17 10 18 12 20 4 22 18 24
REMARK H PARENT 10 19 12 21 4 23 18 25
REMARK Flexibility Score: inf
ROOT
ATOM      1  C   UNL     1       6.357   6.538  -5.506  1.00  0.00     0.180 A 
ATOM      2  C   UNL     1       6.161   7.771  -6.162  1.00  0.00     0.208 A 
ATOM      3  C   UNL     1       5.985   8.928  -5.388  1.00  0.00     0.235 A 
ATOM      4  O   UNL     1       5.798  10.042  -5.952  1.00  0.00    -0.285 OA
ATOM      5  C   UNL     1       6.027   8.836  -3.988  1.00  0.00     0.069 A 
ATOM      6  C   UNL     1       6.251   7.568  -3.408  1.00  0.00     0.142 A 
ATOM      7  O   UNL     1       6.404   6.495  -4.176  1.00  0.00    -0.452 OA
ATOM      8  C   UNL     1       6.309   7.436  -2.016  1.00  0.00     0.094 A 
ATOM      9  C   UNL     1       6.145   8.558  -1.194  1.00  0.00     0.119 A 
ATOM     10  C   UNL     1       5.922   9.815  -1.765  1.00  0.00     0.047 A 
ATOM     11  C   UNL     1       5.863   9.957  -3.154  1.00  0.00     0.020 A 
ENDROOT
BRANCH   1  12
ATOM     12  C   UNL     1       6.531   5.271  -6.252  1.00  0.00     0.025 A 
ATOM     13  C   UNL     1       7.799   4.928  -6.742  1.00  0.00     0.016 A 
ATOM     14  C   UNL     1       7.989   3.729  -7.431  1.00  0.00     0.051 A 
ATOM     15  C   UNL     1       6.926   2.843  -7.631  1.00  0.00     0.157 A 
ATOM     16  C   UNL     1       5.465   4.372  -6.430  1.00  0.00     0.062 A 
ATOM     17  C   UNL     1       5.648   3.165  -7.117  1.00  0.00     0.158 A 
BRANCH  15  18
ATOM     18  O   UNL     1       7.182   1.664  -8.334  1.00  0.00    -0.504 OA
ATOM     19  H   UNL     1       7.806   1.603  -9.126  1.00  0.00     0.293 HD
ENDBRANCH  15  18
BRANCH  17  20
ATOM     20  O   UNL     1       4.543   2.323  -7.259  1.00  0.00    -0.504 OA
ATOM     21  H   UNL     1       4.101   2.116  -8.143  1.00  0.00     0.293 HD
ENDBRANCH  17  20
ENDBRANCH   1  12
BRANCH   2  22
ATOM     22  O   UNL     1       6.173   7.840  -7.558  1.00  0.00    -0.502 OA
ATOM     23  H   UNL     1       6.757   7.237  -8.125  1.00  0.00     0.293 HD
ENDBRANCH   2  22
BRANCH   9  24
ATOM     24  O   UNL     1       6.202   8.435   0.193  1.00  0.00    -0.508 OA
ATOM     25  H   UNL     1       7.081   8.486   0.694  1.00  0.00     0.293 HD
ENDBRANCH   9  24
TORSDOF 5
ENDMDL
MODEL 8
REMARK VINA RESULT:    -4.786     13.484     16.350
REMARK INTER + INTRA:          -5.794
REMARK INTER:                  -5.524
REMARK INTRA:                  -0.270
REMARK UNBOUND:                -0.168
REMARK SMILES O=c1c(O)c(-c2ccc(O)c(O)c2)oc2cc(O)ccc12
REMARK SMILES IDX 5 1 3 2 2 3 1 4 21 5 15 6 14 7 16 8 17 9 19 10 20 11 6 12
REMARK SMILES IDX 7 13 8 14 9 15 13 16 11 17 10 18 12 20 4 22 18 24
REMARK H PARENT 10 19 12 21 4 23 18 25
REMARK Flexibility Score: inf
ROOT
ATOM      1  C   UNL     1       6.338   6.606  -5.467  1.00  0.00     0.180 A 
ATOM      2  C   UNL     1       6.324   7.398  -6.634  1.00  0.00     0.208 A 
ATOM      3  C   UNL     1       6.047   6.784  -7.865  1.00  0.00     0.235 A 
ATOM      4  O   UNL     1       6.039   7.469  -8.925  1.00  0.00    -0.285 OA
ATOM      5  C   UNL     1       5.771   5.407  -7.903  1.00  0.00     0.069 A 
ATOM      6  C   UNL     1       5.781   4.689  -6.688  1.00  0.00     0.142 A 
ATOM      7  O   UNL     1       6.058   5.306  -5.545  1.00  0.00    -0.452 OA
ATOM      8  C   UNL     1       5.502   3.318  -6.683  1.00  0.00     0.094 A 
ATOM      9  C   UNL     1       5.214   2.653  -7.882  1.00  0.00     0.119 A 
ATOM     10  C   UNL     1       5.204   3.362  -9.088  1.00  0.00     0.047 A 
ATOM     11  C   UNL     1       5.481   4.731  -9.103  1.00  0.00     0.020 A 
ENDROOT
BRANCH   1  12
ATOM     12  C   UNL     1       6.640   7.176  -4.135  1.00  0.00     0.025 A 
ATOM     13  C   UNL     1       7.923   7.016  -3.592  1.00  0.00     0.016 A 
ATOM     14  C   UNL     1       8.236   7.563  -2.346  1.00  0.00     0.051 A 
ATOM     15  C   UNL     1       7.284   8.289  -1.625  1.00  0.00     0.157 A 
ATOM     16  C   UNL     1       5.688   7.926  -3.423  1.00  0.00     0.062 A 
ATOM     17  C   UNL     1       5.994   8.480  -2.174  1.00  0.00     0.158 A 
BRANCH  15  18
ATOM     18  O   UNL     1       7.658   8.803  -0.382  1.00  0.00    -0.504 OA
ATOM     19  H   UNL     1       7.048   8.835   0.423  1.00  0.00     0.293 HD
ENDBRANCH  15  18
BRANCH  17  20
ATOM     20  O   UNL     1       4.997   9.210  -1.524  1.00  0.00    -0.504 OA
ATOM     21  H   UNL     1       4.013   8.991  -1.574  1.00  0.00     0.293 HD
ENDBRANCH  17  20
ENDBRANCH   1  12
BRANCH   2  22
ATOM     22  O   UNL     1       6.553   8.774  -6.559  1.00  0.00    -0.502 OA
ATOM     23  H   UNL     1       6.612   9.359  -7.383  1.00  0.00     0.293 HD
ENDBRANCH   2  22
BRANCH   9  24
ATOM     24  O   UNL     1       4.935   1.288  -7.886  1.00  0.00    -0.508 OA
ATOM     25  H   UNL     1       4.201   0.899  -8.466  1.00  0.00     0.293 HD
ENDBRANCH   9  24
TORSDOF 5
ENDMDL
MODEL 9
REMARK VINA RESULT:    -4.621     17.098     18.136
REMARK INTER + INTRA:          -5.599
REMARK INTER:                  -5.282
REMARK INTRA:                  -0.317
REMARK UNBOUND:                -0.168
REMARK SMILES O=c1c(O)c(-c2ccc(O)c(O)c2)oc2cc(O)ccc12
REMARK SMILES IDX 5 1 3 2 2 3 1 4 21 5 15 6 14 7 16 8 17 9 19 10 20 11 6 12
REMARK SMILES IDX 7 13 8 14 9 15 13 16 11 17 10 18 12 20 4 22 18 24
REMARK H PARENT 10 19 12 21 4 23 18 25
REMARK Flexibility Score: inf
ROOT
ATOM      1  C   UNL     1       6.219   2.862  -7.572  1.00  0.00     0.180 A 
ATOM      2  C   UNL     1       5.213   3.047  -8.543  1.00  0.00     0.208 A 
ATOM      3  C   UNL     1       4.966   4.343  -9.023  1.00  0.00     0.235 A 
ATOM      4  O   UNL     1       4.064   4.536  -9.884  1.00  0.00    -0.285 OA
ATOM      5  C   UNL     1       5.734   5.415  -8.542  1.00  0.00     0.069 A 
ATOM      6  C   UNL     1       6.738   5.144  -7.587  1.00  0.00     0.142 A 
ATOM      7  O   UNL     1       6.934   3.905  -7.152  1.00  0.00    -0.452 OA
ATOM      8  C   UNL     1       7.531   6.184  -7.091  1.00  0.00     0.094 A 
ATOM      9  C   UNL     1       7.332   7.498  -7.537  1.00  0.00     0.119 A 
ATOM     10  C   UNL     1       6.337   7.769  -8.482  1.00  0.00     0.047 A 
ATOM     11  C   UNL     1       5.540   6.737  -8.985  1.00  0.00     0.020 A 
ENDROOT
BRANCH   1  12
ATOM     12  C   UNL     1       6.526   1.531  -7.003  1.00  0.00     0.025 A 
ATOM     13  C   UNL     1       5.816   1.080  -5.881  1.00  0.00     0.016 A 
ATOM     14  C   UNL     1       6.076  -0.180  -5.340  1.00  0.00     0.051 A 
ATOM     15  C   UNL     1       7.035  -1.020  -5.914  1.00  0.00     0.157 A 
ATOM     16  C   UNL     1       7.474   0.680  -7.596  1.00  0.00     0.062 A 
ATOM     17  C   UNL     1       7.739  -0.587  -7.063  1.00  0.00     0.158 A 
BRANCH  15  18
ATOM     18  O   UNL     1       7.252  -2.265  -5.320  1.00  0.00    -0.504 OA
ATOM     19  H   UNL     1       7.304  -2.414  -4.322  1.00  0.00     0.293 HD
ENDBRANCH  15  18
BRANCH  17  20
ATOM     20  O   UNL     1       8.696  -1.377  -7.703  1.00  0.00    -0.504 OA
ATOM     21  H   UNL     1       8.483  -2.230  -8.199  1.00  0.00     0.293 HD
ENDBRANCH  17  20
ENDBRANCH   1  12
BRANCH   2  22
ATOM     22  O   UNL     1       4.498   1.954  -9.039  1.00  0.00    -0.502 OA
ATOM     23  H   UNL     1       4.817   1.414  -9.834  1.00  0.00     0.293 HD
ENDBRANCH   2  22
BRANCH   9  24
ATOM     24  O   UNL     1       8.117   8.539  -7.049  1.00  0.00    -0.508 OA
ATOM     25  H   UNL     1       9.055   8.377  -6.699  1.00  0.00     0.293 HD
ENDBRANCH   9  24
TORSDOF 5
ENDMDL
