MODEL 1
REMARK VINA RESULT:    -0.951      0.000      0.000
REMARK INTER + INTRA:          -1.783
REMARK INTER:                  -1.284
REMARK INTRA:                  -0.499
REMARK UNBOUND:                -0.499
REMARK SMILES CCCCCCCC(=O)[O-]
REMARK SMILES IDX 5 1 6 2 7 3 8 4 9 5 10 6 4 7 3 8 2 9 1 10
REMARK H PARENT
REMARK Flexibility Score: inf
ROOT
ATOM      1  C   UNL     1      38.997   0.881  40.321  1.00  0.00     0.000 C 
ENDROOT
BRANCH   1   2
ATOM      2  C   UNL     1      38.640   1.099  41.802  1.00  0.00     0.006 C 
BRANCH   2   3
ATOM      3  C   UNL     1      37.963   2.455  42.040  1.00  0.00     0.053 C 
BRANCH   3   4
ATOM      4  C   UNL     1      36.500   2.411  41.720  1.00  0.00     0.041 C 
ATOM      5  O   UNL     1      35.791   1.453  42.125  1.00  0.00    -0.550 OA
ATOM      6  O   UNL     1      35.915   3.446  41.000  1.00  0.00    -0.550 OA
ENDBRANCH   3   4
ENDBRANCH   2   3
ENDBRANCH   1   2
BRANCH   1   7
ATOM      7  C   UNL     1      40.170   1.759  39.860  1.00  0.00     0.000 C 
BRANCH   7   8
ATOM      8  C   UNL     1      41.417   1.596  40.743  1.00  0.00    -0.000 C 
BRANCH   8   9
ATOM      9  C   UNL     1      42.110   2.945  40.967  1.00  0.00    -0.003 C 
ATOM     10  C   UNL     1      41.110   4.096  40.916  1.00  0.00     0.004 C 
ENDBRANCH   8   9
ENDBRANCH   7   8
ENDBRANCH   1   7
TORSDOF 6
ENDMDL
MODEL 2
REMARK VINA RESULT:    -0.928      2.352      4.515
REMARK INTER + INTRA:          -1.752
REMARK INTER:                  -1.126
REMARK INTRA:                  -0.626
REMARK UNBOUND:                -0.499
REMARK SMILES CCCCCCCC(=O)[O-]
REMARK SMILES IDX 5 1 6 2 7 3 8 4 9 5 10 6 4 7 3 8 2 9 1 10
REMARK H PARENT
REMARK Flexibility Score: inf
ROOT
ATOM      1  C   UNL     1      38.817   3.244  41.169  1.00  0.00     0.000 C 
ENDROOT
BRANCH   1   2
ATOM      2  C   UNL     1      39.230   2.302  40.025  1.00  0.00     0.006 C 
BRANCH   2   3
ATOM      3  C   UNL     1      38.085   2.058  39.035  1.00  0.00     0.053 C 
BRANCH   3   4
ATOM      4  C   UNL     1      37.637   3.328  38.377  1.00  0.00     0.041 C 
ATOM      5  O   UNL     1      36.448   3.721  38.501  1.00  0.00    -0.550 OA
ATOM      6  O   UNL     1      38.544   4.091  37.652  1.00  0.00    -0.550 OA
ENDBRANCH   3   4
ENDBRANCH   2   3
ENDBRANCH   1   2
BRANCH   1   7
ATOM      7  C   UNL     1      37.639   2.698  41.989  1.00  0.00     0.000 C 
BRANCH   7   8
ATOM      8  C   UNL     1      36.489   3.708  42.122  1.00  0.00    -0.000 C 
BRANCH   8   9
ATOM      9  C   UNL     1      35.129   3.012  41.990  1.00  0.00    -0.003 C 
ATOM     10  C   UNL     1      35.290   1.576  41.499  1.00  0.00     0.004 C 
ENDBRANCH   8   9
ENDBRANCH   7   8
ENDBRANCH   1   7
TORSDOF 6
ENDMDL
MODEL 3
REMARK VINA RESULT:    -0.916      2.902      4.856
REMARK INTER + INTRA:          -1.737
REMARK INTER:                  -1.386
REMARK INTRA:                  -0.351
REMARK UNBOUND:                -0.499
REMARK SMILES CCCCCCCC(=O)[O-]
REMARK SMILES IDX 5 1 6 2 7 3 8 4 9 5 10 6 4 7 3 8 2 9 1 10
REMARK H PARENT
REMARK Flexibility Score: inf
ROOT
ATOM      1  C   UNL     1      36.941   1.592  41.918  1.00  0.00     0.000 C 
ENDROOT
BRANCH   1   2
ATOM      2  C   UNL     1      38.460   1.368  42.017  1.00  0.00     0.006 C 
BRANCH   2   3
ATOM      3  C   UNL     1      39.252   2.408  41.215  1.00  0.00     0.053 C 
BRANCH   3   4
ATOM      4  C   UNL     1      40.446   1.803  40.542  1.00  0.00     0.041 C 
ATOM      5  O   UNL     1      41.604   2.027  40.982  1.00  0.00    -0.550 OA
ATOM      6  O   UNL     1      40.275   0.965  39.447  1.00  0.00    -0.550 OA
ENDBRANCH   3   4
ENDBRANCH   2   3
ENDBRANCH   1   2
BRANCH   1   7
ATOM      7  C   UNL     1      36.505   2.088  40.531  1.00  0.00     0.000 C 
BRANCH   7   8
ATOM      8  C   UNL     1      35.440   3.192  40.602  1.00  0.00    -0.000 C 
BRANCH   8   9
ATOM      9  C   UNL     1      35.210   3.640  42.049  1.00  0.00    -0.003 C 
ATOM     10  C   UNL     1      34.645   5.056  42.106  1.00  0.00     0.004 C 
ENDBRANCH   8   9
ENDBRANCH   7   8
ENDBRANCH   1   7
TORSDOF 6
ENDMDL
MODEL 4
REMARK VINA RESULT:    -0.884      3.797      5.095
REMARK INTER + INTRA:          -1.693
REMARK INTER:                  -1.241
REMARK INTRA:                  -0.452
REMARK UNBOUND:                -0.499
REMARK SMILES CCCCCCCC(=O)[O-]
REMARK SMILES IDX 5 1 6 2 7 3 8 4 9 5 10 6 4 7 3 8 2 9 1 10
REMARK H PARENT
REMARK Flexibility Score: inf
ROOT
ATOM      1  C   UNL     1      36.558   3.732  41.458  1.00  0.00     0.000 C 
ENDROOT
BRANCH   1   2
ATOM      2  C   UNL     1      35.215   3.347  42.103  1.00  0.00     0.006 C 
BRANCH   2   3
ATOM      3  C   UNL     1      34.128   3.073  41.056  1.00  0.00     0.053 C 
BRANCH   3   4
ATOM      4  C   UNL     1      33.261   1.914  41.443  1.00  0.00     0.041 C 
ATOM      5  O   UNL     1      33.771   0.884  41.958  1.00  0.00    -0.550 OA
ATOM      6  O   UNL     1      31.885   1.985  41.262  1.00  0.00    -0.550 OA
ENDBRANCH   3   4
ENDBRANCH   2   3
ENDBRANCH   1   2
BRANCH   1   7
ATOM      7  C   UNL     1      37.200   4.962  42.118  1.00  0.00     0.000 C 
BRANCH   7   8
ATOM      8  C   UNL     1      36.271   6.186  42.125  1.00  0.00    -0.000 C 
BRANCH   8   9
ATOM      9  C   UNL     1      35.974   6.656  40.696  1.00  0.00    -0.003 C 
ATOM     10  C   UNL     1      34.508   7.047  40.537  1.00  0.00     0.004 C 
ENDBRANCH   8   9
ENDBRANCH   7   8
ENDBRANCH   1   7
TORSDOF 6
ENDMDL
MODEL 5
REMARK VINA RESULT:    -0.858      2.437      3.253
REMARK INTER + INTRA:          -1.658
REMARK INTER:                  -1.207
REMARK INTRA:                  -0.451
REMARK UNBOUND:                -0.499
REMARK SMILES CCCCCCCC(=O)[O-]
REMARK SMILES IDX 5 1 6 2 7 3 8 4 9 5 10 6 4 7 3 8 2 9 1 10
REMARK H PARENT
REMARK Flexibility Score: inf
ROOT
ATOM      1  C   UNL     1      37.713   2.520  40.294  1.00  0.00     0.000 C 
ENDROOT
BRANCH   1   2
ATOM      2  C   UNL     1      37.244   1.910  41.626  1.00  0.00     0.006 C 
BRANCH   2   3
ATOM      3  C   UNL     1      35.891   1.200  41.493  1.00  0.00     0.053 C 
BRANCH   3   4
ATOM      4  C   UNL     1      34.747   2.119  41.798  1.00  0.00     0.041 C 
ATOM      5  O   UNL     1      34.964   3.315  42.125  1.00  0.00    -0.550 OA
ATOM      6  O   UNL     1      33.440   1.659  41.690  1.00  0.00    -0.550 OA
ENDBRANCH   3   4
ENDBRANCH   2   3
ENDBRANCH   1   2
BRANCH   1   7
ATOM      7  C   UNL     1      38.374   3.895  40.474  1.00  0.00     0.000 C 
BRANCH   7   8
ATOM      8  C   UNL     1      38.435   4.337  41.944  1.00  0.00    -0.000 C 
BRANCH   8   9
ATOM      9  C   UNL     1      37.862   5.748  42.118  1.00  0.00    -0.003 C 
ATOM     10  C   UNL     1      36.806   6.049  41.059  1.00  0.00     0.004 C 
ENDBRANCH   8   9
ENDBRANCH   7   8
ENDBRANCH   1   7
TORSDOF 6
ENDMDL
MODEL 6
REMARK VINA RESULT:    -0.857      2.700      4.164
REMARK INTER + INTRA:          -1.657
REMARK INTER:                  -1.014
REMARK INTRA:                  -0.643
REMARK UNBOUND:                -0.499
REMARK SMILES CCCCCCCC(=O)[O-]
REMARK SMILES IDX 5 1 6 2 7 3 8 4 9 5 10 6 4 7 3 8 2 9 1 10
REMARK H PARENT
REMARK Flexibility Score: inf
ROOT
ATOM      1  C   UNL     1      36.899   4.268  40.868  1.00  0.00     0.000 C 
ENDROOT
BRANCH   1   2
ATOM      2  C   UNL     1      37.500   4.408  39.459  1.00  0.00     0.006 C 
BRANCH   2   3
ATOM      3  C   UNL     1      36.867   3.431  38.461  1.00  0.00     0.053 C 
BRANCH   3   4
ATOM      4  C   UNL     1      37.770   2.271  38.168  1.00  0.00     0.041 C 
ATOM      5  O   UNL     1      38.974   2.467  37.857  1.00  0.00    -0.550 OA
ATOM      6  O   UNL     1      37.286   0.972  38.269  1.00  0.00    -0.550 OA
ENDBRANCH   3   4
ENDBRANCH   2   3
ENDBRANCH   1   2
BRANCH   1   7
ATOM      7  C   UNL     1      37.758   3.393  41.793  1.00  0.00     0.000 C 
BRANCH   7   8
ATOM      8  C   UNL     1      37.093   2.048  42.125  1.00  0.00    -0.000 C 
BRANCH   8   9
ATOM      9  C   UNL     1      37.999   0.877  41.730  1.00  0.00    -0.003 C 
ATOM     10  C   UNL     1      39.399   1.360  41.365  1.00  0.00     0.004 C 
ENDBRANCH   8   9
ENDBRANCH   7   8
ENDBRANCH   1   7
TORSDOF 6
ENDMDL
MODEL 7
REMARK VINA RESULT:    -0.854      2.800      4.609
REMARK INTER + INTRA:          -1.653
REMARK INTER:                  -1.119
REMARK INTRA:                  -0.534
REMARK UNBOUND:                -0.499
REMARK SMILES CCCCCCCC(=O)[O-]
REMARK SMILES IDX 5 1 6 2 7 3 8 4 9 5 10 6 4 7 3 8 2 9 1 10
REMARK H PARENT
REMARK Flexibility Score: inf
ROOT
ATOM      1  C   UNL     1      38.796   4.539  40.766  1.00  0.00     0.000 C 
ENDROOT
BRANCH   1   2
ATOM      2  C   UNL     1      40.328   4.522  40.917  1.00  0.00     0.006 C 
BRANCH   2   3
ATOM      3  C   UNL     1      40.927   3.152  40.576  1.00  0.00     0.053 C 
BRANCH   3   4
ATOM      4  C   UNL     1      40.770   2.821  39.123  1.00  0.00     0.041 C 
ATOM      5  O   UNL     1      40.361   1.683  38.773  1.00  0.00    -0.550 OA
ATOM      6  O   UNL     1      41.046   3.782  38.158  1.00  0.00    -0.550 OA
ENDBRANCH   3   4
ENDBRANCH   2   3
ENDBRANCH   1   2
BRANCH   1   7
ATOM      7  C   UNL     1      38.069   4.292  42.097  1.00  0.00     0.000 C 
BRANCH   7   8
ATOM      8  C   UNL     1      37.143   3.068  42.050  1.00  0.00    -0.000 C 
BRANCH   8   9
ATOM      9  C   UNL     1      37.950   1.767  42.125  1.00  0.00    -0.003 C 
ATOM     10  C   UNL     1      37.675   0.876  40.917  1.00  0.00     0.004 C 
ENDBRANCH   8   9
ENDBRANCH   7   8
ENDBRANCH   1   7
TORSDOF 6
ENDMDL
MODEL 8
REMARK VINA RESULT:    -0.827      1.987      3.019
REMARK INTER + INTRA:          -1.616
REMARK INTER:                  -1.174
REMARK INTRA:                  -0.441
REMARK UNBOUND:                -0.499
REMARK SMILES CCCCCCCC(=O)[O-]
REMARK SMILES IDX 5 1 6 2 7 3 8 4 9 5 10 6 4 7 3 8 2 9 1 10
REMARK H PARENT
REMARK Flexibility Score: inf
ROOT
ATOM      1  C   UNL     1      37.962   2.901  42.119  1.00  0.00     0.000 C 
ENDROOT
BRANCH   1   2
ATOM      2  C   UNL     1      36.654   3.497  41.569  1.00  0.00     0.006 C 
BRANCH   2   3
ATOM      3  C   UNL     1      36.202   2.807  40.277  1.00  0.00     0.053 C 
BRANCH   3   4
ATOM      4  C   UNL     1      36.831   3.425  39.065  1.00  0.00     0.041 C 
ATOM      5  O   UNL     1      37.341   4.574  39.131  1.00  0.00    -0.550 OA
ATOM      6  O   UNL     1      36.879   2.717  37.871  1.00  0.00    -0.550 OA
ENDBRANCH   3   4
ENDBRANCH   2   3
ENDBRANCH   1   2
BRANCH   1   7
ATOM      7  C   UNL     1      38.016   1.371  41.984  1.00  0.00     0.000 C 
BRANCH   7   8
ATOM      8  C   UNL     1      39.337   0.875  41.375  1.00  0.00    -0.000 C 
BRANCH   8   9
ATOM      9  C   UNL     1      40.031   1.991  40.587  1.00  0.00    -0.003 C 
ATOM     10  C   UNL     1      41.517   1.698  40.407  1.00  0.00     0.004 C 
ENDBRANCH   8   9
ENDBRANCH   7   8
ENDBRANCH   1   7
TORSDOF 6
ENDMDL
MODEL 9
REMARK VINA RESULT:    -0.825      2.976      4.484
REMARK INTER + INTRA:          -1.614
REMARK INTER:                  -1.120
REMARK INTRA:                  -0.494
REMARK UNBOUND:                -0.499
REMARK SMILES CCCCCCCC(=O)[O-]
REMARK SMILES IDX 5 1 6 2 7 3 8 4 9 5 10 6 4 7 3 8 2 9 1 10
REMARK H PARENT
REMARK Flexibility Score: inf
ROOT
ATOM      1  C   UNL     1      38.555   4.094  39.343  1.00  0.00     0.000 C 
ENDROOT
BRANCH   1   2
ATOM      2  C   UNL     1      39.795   3.200  39.171  1.00  0.00     0.006 C 
BRANCH   2   3
ATOM      3  C   UNL     1      40.723   3.257  40.391  1.00  0.00     0.053 C 
BRANCH   3   4
ATOM      4  C   UNL     1      40.913   1.906  41.010  1.00  0.00     0.041 C 
ATOM      5  O   UNL     1      39.916   1.189  41.287  1.00  0.00    -0.550 OA
ATOM      6  O   UNL     1      42.195   1.428  41.253  1.00  0.00    -0.550 OA
ENDBRANCH   3   4
ENDBRANCH   2   3
ENDBRANCH   1   2
BRANCH   1   7
ATOM      7  C   UNL     1      37.246   3.290  39.369  1.00  0.00     0.000 C 
BRANCH   7   8
ATOM      8  C   UNL     1      36.877   2.801  40.778  1.00  0.00    -0.000 C 
BRANCH   8   9
ATOM      9  C   UNL     1      37.292   3.825  41.840  1.00  0.00    -0.003 C 
ATOM     10  C   UNL     1      36.165   4.813  42.125  1.00  0.00     0.004 C 
ENDBRANCH   8   9
ENDBRANCH   7   8
ENDBRANCH   1   7
TORSDOF 6
ENDMDL
