MODEL 1
REMARK VINA RESULT:    -5.414      0.000      0.000
REMARK INTER + INTRA:          -6.579
REMARK INTER:                  -6.364
REMARK INTRA:                  -0.215
REMARK UNBOUND:                -0.215
REMARK SMILES O=c1c(O)c(-c2ccc(O)cc2)oc2cc(O)cc(O)c12
REMARK SMILES IDX 5 1 3 2 2 3 1 4 21 5 19 6 18 7 16 8 15 9 14 10 13 11 6 12
REMARK SMILES IDX 7 13 8 14 9 15 12 16 11 17 10 18 4 20 20 22 17 24
REMARK H PARENT 10 19 4 21 20 23 17 25
REMARK Flexibility Score: inf
ROOT
ATOM      1  C   UNL     1      18.887  22.020  15.327  1.00  0.00     0.180 A 
ATOM      2  C   UNL     1      17.554  21.593  15.456  1.00  0.00     0.208 A 
ATOM      3  C   UNL     1      17.085  21.203  16.721  1.00  0.00     0.238 A 
ATOM      4  O   UNL     1      15.870  20.894  16.843  1.00  0.00    -0.285 OA
ATOM      5  C   UNL     1      17.966  21.191  17.829  1.00  0.00     0.111 A 
ATOM      6  C   UNL     1      17.610  20.772  19.147  1.00  0.00     0.134 A 
ATOM      7  C   UNL     1      18.537  20.904  20.187  1.00  0.00     0.093 A 
ATOM      8  C   UNL     1      19.826  21.378  19.948  1.00  0.00     0.123 A 
ATOM      9  C   UNL     1      20.203  21.739  18.655  1.00  0.00     0.094 A 
ATOM     10  C   UNL     1      19.288  21.655  17.602  1.00  0.00     0.146 A 
ATOM     11  O   UNL     1      19.682  22.029  16.391  1.00  0.00    -0.452 OA
ENDROOT
BRANCH   1  12
ATOM     12  C   UNL     1      19.452  22.460  14.031  1.00  0.00     0.021 A 
ATOM     13  C   UNL     1      19.744  21.540  13.007  1.00  0.00     0.016 A 
ATOM     14  C   UNL     1      20.253  21.985  11.782  1.00  0.00     0.047 A 
ATOM     15  C   UNL     1      20.463  23.352  11.562  1.00  0.00     0.115 A 
ATOM     16  C   UNL     1      19.645  23.832  13.792  1.00  0.00     0.016 A 
ATOM     17  C   UNL     1      20.155  24.273  12.568  1.00  0.00     0.047 A 
BRANCH  15  18
ATOM     18  O   UNL     1      20.972  23.805  10.346  1.00  0.00    -0.508 OA
ATOM     19  H   UNL     1      20.710  24.708   9.967  1.00  0.00     0.293 HD
ENDBRANCH  15  18
ENDBRANCH   1  12
BRANCH   2  20
ATOM     20  O   UNL     1      16.720  21.539  14.337  1.00  0.00    -0.502 OA
ATOM     21  H   UNL     1      16.176  20.719  14.103  1.00  0.00     0.293 HD
ENDBRANCH   2  20
BRANCH   6  22
ATOM     22  O   UNL     1      16.378  20.200  19.480  1.00  0.00    -0.507 OA
ATOM     23  H   UNL     1      15.966  19.404  19.017  1.00  0.00     0.293 HD
ENDBRANCH   6  22
BRANCH   8  24
ATOM     24  O   UNL     1      20.728  21.479  21.006  1.00  0.00    -0.508 OA
ATOM     25  H   UNL     1      21.338  20.710  21.258  1.00  0.00     0.293 HD
ENDBRANCH   8  24
TORSDOF 5
ENDMDL
MODEL 2
REMARK VINA RESULT:    -5.389      9.834     12.485
REMARK INTER + INTRA:          -6.549
REMARK INTER:                  -6.365
REMARK INTRA:                  -0.184
REMARK UNBOUND:                -0.215
REMARK SMILES O=c1c(O)c(-c2ccc(O)cc2)oc2cc(O)cc(O)c12
REMARK SMILES IDX 5 1 3 2 2 3 1 4 21 5 19 6 18 7 16 8 15 9 14 10 13 11 6 12
REMARK SMILES IDX 7 13 8 14 9 15 12 16 11 17 10 18 4 20 20 22 17 24
REMARK H PARENT 10 19 4 21 20 23 17 25
REMARK Flexibility Score: inf
ROOT
ATOM      1  C   UNL     1      14.872  19.491   4.554  1.00  0.00     0.180 A 
ATOM      2  C   UNL     1      14.738  18.364   3.725  1.00  0.00     0.208 A 
ATOM      3  C   UNL     1      15.224  17.126   4.177  1.00  0.00     0.238 A 
ATOM      4  O   UNL     1      15.034  16.108   3.461  1.00  0.00    -0.285 OA
ATOM      5  C   UNL     1      15.887  17.041   5.425  1.00  0.00     0.111 A 
ATOM      6  C   UNL     1      16.459  15.847   5.961  1.00  0.00     0.134 A 
ATOM      7  C   UNL     1      16.996  15.860   7.254  1.00  0.00     0.093 A 
ATOM      8  C   UNL     1      17.042  17.034   8.004  1.00  0.00     0.123 A 
ATOM      9  C   UNL     1      16.536  18.218   7.468  1.00  0.00     0.094 A 
ATOM     10  C   UNL     1      15.958  18.230   6.197  1.00  0.00     0.146 A 
ATOM     11  O   UNL     1      15.469  19.374   5.734  1.00  0.00    -0.452 OA
ENDROOT
BRANCH   1  12
ATOM     12  C   UNL     1      14.371  20.827   4.155  1.00  0.00     0.021 A 
ATOM     13  C   UNL     1      15.252  21.861   3.786  1.00  0.00     0.016 A 
ATOM     14  C   UNL     1      14.753  23.105   3.389  1.00  0.00     0.047 A 
ATOM     15  C   UNL     1      13.371  23.328   3.344  1.00  0.00     0.115 A 
ATOM     16  C   UNL     1      12.986  21.053   4.086  1.00  0.00     0.016 A 
ATOM     17  C   UNL     1      12.490  22.299   3.690  1.00  0.00     0.047 A 
BRANCH  15  18
ATOM     18  O   UNL     1      12.863  24.564   2.951  1.00  0.00    -0.508 OA
ATOM     19  H   UNL     1      13.189  25.028   2.111  1.00  0.00     0.293 HD
ENDBRANCH  15  18
ENDBRANCH   1  12
BRANCH   2  20
ATOM     20  O   UNL     1      14.149  18.484   2.464  1.00  0.00    -0.502 OA
ATOM     21  H   UNL     1      13.446  17.838   2.128  1.00  0.00     0.293 HD
ENDBRANCH   2  20
BRANCH   6  22
ATOM     22  O   UNL     1      16.547  14.639   5.263  1.00  0.00    -0.507 OA
ATOM     23  H   UNL     1      15.894  14.328   4.560  1.00  0.00     0.293 HD
ENDBRANCH   6  22
BRANCH   8  24
ATOM     24  O   UNL     1      17.600  17.013   9.281  1.00  0.00    -0.508 OA
ATOM     25  H   UNL     1      17.605  17.837   9.871  1.00  0.00     0.293 HD
ENDBRANCH   8  24
TORSDOF 5
ENDMDL
MODEL 3
REMARK VINA RESULT:    -5.030      2.393      3.591
REMARK INTER + INTRA:          -6.128
REMARK INTER:                  -5.840
REMARK INTRA:                  -0.288
REMARK UNBOUND:                -0.215
REMARK SMILES O=c1c(O)c(-c2ccc(O)cc2)oc2cc(O)cc(O)c12
REMARK SMILES IDX 5 1 3 2 2 3 1 4 21 5 19 6 18 7 16 8 15 9 14 10 13 11 6 12
REMARK SMILES IDX 7 13 8 14 9 15 12 16 11 17 10 18 4 20 20 22 17 24
REMARK H PARENT 10 19 4 21 20 23 17 25
REMARK Flexibility Score: inf
ROOT
ATOM      1  C   UNL     1      19.482  22.299  16.953  1.00  0.00     0.180 A 
ATOM      2  C   UNL     1      19.976  23.564  17.316  1.00  0.00     0.208 A 
ATOM      3  C   UNL     1      19.648  24.084  18.579  1.00  0.00     0.238 A 
ATOM      4  O   UNL     1      20.155  25.183  18.927  1.00  0.00    -0.285 OA
ATOM      5  C   UNL     1      18.786  23.362  19.438  1.00  0.00     0.111 A 
ATOM      6  C   UNL     1      18.352  23.814  20.721  1.00  0.00     0.134 A 
ATOM      7  C   UNL     1      17.584  22.966  21.529  1.00  0.00     0.093 A 
ATOM      8  C   UNL     1      17.182  21.711  21.077  1.00  0.00     0.123 A 
ATOM      9  C   UNL     1      17.555  21.280  19.804  1.00  0.00     0.094 A 
ATOM     10  C   UNL     1      18.353  22.087  18.989  1.00  0.00     0.146 A 
ATOM     11  O   UNL     1      18.702  21.630  17.793  1.00  0.00    -0.452 OA
ENDROOT
BRANCH   1  12
ATOM     12  C   UNL     1      19.795  21.677  15.645  1.00  0.00     0.021 A 
ATOM     13  C   UNL     1      20.858  20.766  15.503  1.00  0.00     0.016 A 
ATOM     14  C   UNL     1      21.118  20.173  14.263  1.00  0.00     0.047 A 
ATOM     15  C   UNL     1      20.313  20.472  13.157  1.00  0.00     0.115 A 
ATOM     16  C   UNL     1      18.980  21.955  14.535  1.00  0.00     0.016 A 
ATOM     17  C   UNL     1      19.243  21.361  13.297  1.00  0.00     0.047 A 
BRANCH  15  18
ATOM     18  O   UNL     1      20.564  19.889  11.917  1.00  0.00    -0.508 OA
ATOM     19  H   UNL     1      19.837  19.401  11.405  1.00  0.00     0.293 HD
ENDBRANCH  15  18
ENDBRANCH   1  12
BRANCH   2  20
ATOM     20  O   UNL     1      20.763  24.296  16.423  1.00  0.00    -0.502 OA
ATOM     21  H   UNL     1      20.441  25.152  15.990  1.00  0.00     0.293 HD
ENDBRANCH   2  20
BRANCH   6  22
ATOM     22  O   UNL     1      18.621  25.087  21.236  1.00  0.00    -0.507 OA
ATOM     23  H   UNL     1      19.412  25.319  21.817  1.00  0.00     0.293 HD
ENDBRANCH   6  22
BRANCH   8  24
ATOM     24  O   UNL     1      16.404  20.900  21.902  1.00  0.00    -0.508 OA
ATOM     25  H   UNL     1      15.769  20.208  21.519  1.00  0.00     0.293 HD
ENDBRANCH   8  24
TORSDOF 5
ENDMDL
MODEL 4
REMARK VINA RESULT:    -4.962      1.476      3.115
REMARK INTER + INTRA:          -6.047
REMARK INTER:                  -5.981
REMARK INTRA:                  -0.067
REMARK UNBOUND:                -0.215
REMARK SMILES O=c1c(O)c(-c2ccc(O)cc2)oc2cc(O)cc(O)c12
REMARK SMILES IDX 5 1 3 2 2 3 1 4 21 5 19 6 18 7 16 8 15 9 14 10 13 11 6 12
REMARK SMILES IDX 7 13 8 14 9 15 12 16 11 17 10 18 4 20 20 22 17 24
REMARK H PARENT 10 19 4 21 20 23 17 25
REMARK Flexibility Score: inf
ROOT
ATOM      1  C   UNL     1      19.461  22.951  15.273  1.00  0.00     0.180 A 
ATOM      2  C   UNL     1      20.135  23.467  16.394  1.00  0.00     0.208 A 
ATOM      3  C   UNL     1      19.805  22.979  17.669  1.00  0.00     0.238 A 
ATOM      4  O   UNL     1      20.463  23.391  18.660  1.00  0.00    -0.285 OA
ATOM      5  C   UNL     1      18.768  22.026  17.814  1.00  0.00     0.111 A 
ATOM      6  C   UNL     1      18.320  21.495  19.062  1.00  0.00     0.134 A 
ATOM      7  C   UNL     1      17.359  20.477  19.074  1.00  0.00     0.093 A 
ATOM      8  C   UNL     1      16.785  20.015  17.891  1.00  0.00     0.123 A 
ATOM      9  C   UNL     1      17.175  20.563  16.670  1.00  0.00     0.094 A 
ATOM     10  C   UNL     1      18.159  21.553  16.622  1.00  0.00     0.146 A 
ATOM     11  O   UNL     1      18.516  22.033  15.437  1.00  0.00    -0.452 OA
ENDROOT
BRANCH   1  12
ATOM     12  C   UNL     1      19.763  23.404  13.895  1.00  0.00     0.021 A 
ATOM     13  C   UNL     1      19.645  24.756  13.525  1.00  0.00     0.016 A 
ATOM     14  C   UNL     1      19.960  25.161  12.223  1.00  0.00     0.047 A 
ATOM     15  C   UNL     1      20.409  24.225  11.284  1.00  0.00     0.115 A 
ATOM     16  C   UNL     1      20.235  22.476  12.952  1.00  0.00     0.016 A 
ATOM     17  C   UNL     1      20.548  22.884  11.652  1.00  0.00     0.047 A 
BRANCH  15  18
ATOM     18  O   UNL     1      20.725  24.618   9.985  1.00  0.00    -0.508 OA
ATOM     19  H   UNL     1      20.709  23.959   9.214  1.00  0.00     0.293 HD
ENDBRANCH  15  18
ENDBRANCH   1  12
BRANCH   2  20
ATOM     20  O   UNL     1      21.101  24.464  16.238  1.00  0.00    -0.502 OA
ATOM     21  H   UNL     1      22.004  24.285  15.818  1.00  0.00     0.293 HD
ENDBRANCH   2  20
BRANCH   6  22
ATOM     22  O   UNL     1      18.763  21.948  20.309  1.00  0.00    -0.507 OA
ATOM     23  H   UNL     1      18.667  22.892  20.649  1.00  0.00     0.293 HD
ENDBRANCH   6  22
BRANCH   8  24
ATOM     24  O   UNL     1      15.818  19.012  17.944  1.00  0.00    -0.508 OA
ATOM     25  H   UNL     1      15.586  18.456  17.128  1.00  0.00     0.293 HD
ENDBRANCH   8  24
TORSDOF 5
ENDMDL
MODEL 5
REMARK VINA RESULT:    -4.951      8.768     10.964
REMARK INTER + INTRA:          -6.035
REMARK INTER:                  -5.976
REMARK INTRA:                  -0.059
REMARK UNBOUND:                -0.215
REMARK SMILES O=c1c(O)c(-c2ccc(O)cc2)oc2cc(O)cc(O)c12
REMARK SMILES IDX 5 1 3 2 2 3 1 4 21 5 19 6 18 7 16 8 15 9 14 10 13 11 6 12
REMARK SMILES IDX 7 13 8 14 9 15 12 16 11 17 10 18 4 20 20 22 17 24
REMARK H PARENT 10 19 4 21 20 23 17 25
REMARK Flexibility Score: inf
ROOT
ATOM      1  C   UNL     1      16.570  19.097   6.459  1.00  0.00     0.180 A 
ATOM      2  C   UNL     1      17.059  19.409   7.739  1.00  0.00     0.208 A 
ATOM      3  C   UNL     1      17.580  18.378   8.538  1.00  0.00     0.238 A 
ATOM      4  O   UNL     1      18.084  18.676   9.653  1.00  0.00    -0.285 OA
ATOM      5  C   UNL     1      17.552  17.041   8.072  1.00  0.00     0.111 A 
ATOM      6  C   UNL     1      18.012  15.912   8.815  1.00  0.00     0.134 A 
ATOM      7  C   UNL     1      18.034  14.650   8.210  1.00  0.00     0.093 A 
ATOM      8  C   UNL     1      17.557  14.464   6.914  1.00  0.00     0.123 A 
ATOM      9  C   UNL     1      17.055  15.550   6.197  1.00  0.00     0.094 A 
ATOM     10  C   UNL     1      17.055  16.829   6.760  1.00  0.00     0.146 A 
ATOM     11  O   UNL     1      16.588  17.839   6.035  1.00  0.00    -0.452 OA
ENDROOT
BRANCH   1  12
ATOM     12  C   UNL     1      16.020  20.131   5.552  1.00  0.00     0.021 A 
ATOM     13  C   UNL     1      16.775  21.259   5.182  1.00  0.00     0.016 A 
ATOM     14  C   UNL     1      16.241  22.209   4.304  1.00  0.00     0.047 A 
ATOM     15  C   UNL     1      14.956  22.036   3.776  1.00  0.00     0.115 A 
ATOM     16  C   UNL     1      14.740  19.955   5.000  1.00  0.00     0.016 A 
ATOM     17  C   UNL     1      14.209  20.906   4.124  1.00  0.00     0.047 A 
BRANCH  15  18
ATOM     18  O   UNL     1      14.415  22.976   2.902  1.00  0.00    -0.508 OA
ATOM     19  H   UNL     1      14.781  23.920   2.847  1.00  0.00     0.293 HD
ENDBRANCH  15  18
ENDBRANCH   1  12
BRANCH   2  20
ATOM     20  O   UNL     1      17.007  20.723   8.213  1.00  0.00    -0.502 OA
ATOM     21  H   UNL     1      17.811  21.336   8.204  1.00  0.00     0.293 HD
ENDBRANCH   2  20
BRANCH   6  22
ATOM     22  O   UNL     1      18.428  15.969  10.149  1.00  0.00    -0.507 OA
ATOM     23  H   UNL     1      18.450  15.184  10.782  1.00  0.00     0.293 HD
ENDBRANCH   6  22
BRANCH   8  24
ATOM     24  O   UNL     1      17.579  13.190   6.349  1.00  0.00    -0.508 OA
ATOM     25  H   UNL     1      16.846  12.514   6.535  1.00  0.00     0.293 HD
ENDBRANCH   8  24
TORSDOF 5
ENDMDL
MODEL 6
REMARK VINA RESULT:    -4.922     11.524     13.605
REMARK INTER + INTRA:          -6.001
REMARK INTER:                  -5.835
REMARK INTRA:                  -0.166
REMARK UNBOUND:                -0.215
REMARK SMILES O=c1c(O)c(-c2ccc(O)cc2)oc2cc(O)cc(O)c12
REMARK SMILES IDX 5 1 3 2 2 3 1 4 21 5 19 6 18 7 16 8 15 9 14 10 13 11 6 12
REMARK SMILES IDX 7 13 8 14 9 15 12 16 11 17 10 18 4 20 20 22 17 24
REMARK H PARENT 10 19 4 21 20 23 17 25
REMARK Flexibility Score: inf
ROOT
ATOM      1  C   UNL     1      14.942  18.870   4.532  1.00  0.00     0.180 A 
ATOM      2  C   UNL     1      15.347  18.498   5.826  1.00  0.00     0.208 A 
ATOM      3  C   UNL     1      15.578  17.140   6.102  1.00  0.00     0.238 A 
ATOM      4  O   UNL     1      16.012  16.822   7.240  1.00  0.00    -0.285 OA
ATOM      5  C   UNL     1      15.345  16.166   5.101  1.00  0.00     0.111 A 
ATOM      6  C   UNL     1      15.502  14.759   5.283  1.00  0.00     0.134 A 
ATOM      7  C   UNL     1      15.346  13.899   4.189  1.00  0.00     0.093 A 
ATOM      8  C   UNL     1      14.977  14.386   2.937  1.00  0.00     0.123 A 
ATOM      9  C   UNL     1      14.767  15.754   2.759  1.00  0.00     0.094 A 
ATOM     10  C   UNL     1      14.953  16.642   3.822  1.00  0.00     0.146 A 
ATOM     11  O   UNL     1      14.763  17.937   3.604  1.00  0.00    -0.452 OA
ENDROOT
BRANCH   1  12
ATOM     12  C   UNL     1      14.694  20.282   4.160  1.00  0.00     0.021 A 
ATOM     13  C   UNL     1      15.736  21.227   4.135  1.00  0.00     0.016 A 
ATOM     14  C   UNL     1      15.481  22.549   3.755  1.00  0.00     0.047 A 
ATOM     15  C   UNL     1      14.188  22.938   3.385  1.00  0.00     0.115 A 
ATOM     16  C   UNL     1      13.404  20.676   3.766  1.00  0.00     0.016 A 
ATOM     17  C   UNL     1      13.152  21.998   3.388  1.00  0.00     0.047 A 
BRANCH  15  18
ATOM     18  O   UNL     1      13.922  24.252   3.007  1.00  0.00    -0.508 OA
ATOM     19  H   UNL     1      13.135  24.764   3.389  1.00  0.00     0.293 HD
ENDBRANCH  15  18
ENDBRANCH   1  12
BRANCH   2  20
ATOM     20  O   UNL     1      15.498  19.465   6.823  1.00  0.00    -0.502 OA
ATOM     21  H   UNL     1      16.390  19.892   7.036  1.00  0.00     0.293 HD
ENDBRANCH   2  20
BRANCH   6  22
ATOM     22  O   UNL     1      15.783  14.155   6.514  1.00  0.00    -0.507 OA
ATOM     23  H   UNL     1      16.682  14.166   6.971  1.00  0.00     0.293 HD
ENDBRANCH   6  22
BRANCH   8  24
ATOM     24  O   UNL     1      14.814  13.499   1.875  1.00  0.00    -0.508 OA
ATOM     25  H   UNL     1      15.224  13.679   0.965  1.00  0.00     0.293 HD
ENDBRANCH   8  24
TORSDOF 5
ENDMDL
MODEL 7
REMARK VINA RESULT:    -4.819      2.009      2.848
REMARK INTER + INTRA:          -5.879
REMARK INTER:                  -5.636
REMARK INTRA:                  -0.243
REMARK UNBOUND:                -0.215
REMARK SMILES O=c1c(O)c(-c2ccc(O)cc2)oc2cc(O)cc(O)c12
REMARK SMILES IDX 5 1 3 2 2 3 1 4 21 5 19 6 18 7 16 8 15 9 14 10 13 11 6 12
REMARK SMILES IDX 7 13 8 14 9 15 12 16 11 17 10 18 4 20 20 22 17 24
REMARK H PARENT 10 19 4 21 20 23 17 25
REMARK Flexibility Score: inf
ROOT
ATOM      1  C   UNL     1      18.550  21.401  17.337  1.00  0.00     0.180 A 
ATOM      2  C   UNL     1      17.502  20.606  17.834  1.00  0.00     0.208 A 
ATOM      3  C   UNL     1      17.048  20.822  19.145  1.00  0.00     0.238 A 
ATOM      4  O   UNL     1      16.061  20.158  19.557  1.00  0.00    -0.285 OA
ATOM      5  C   UNL     1      17.683  21.788  19.962  1.00  0.00     0.111 A 
ATOM      6  C   UNL     1      17.334  22.059  21.320  1.00  0.00     0.134 A 
ATOM      7  C   UNL     1      17.961  23.112  21.997  1.00  0.00     0.093 A 
ATOM      8  C   UNL     1      18.966  23.863  21.388  1.00  0.00     0.123 A 
ATOM      9  C   UNL     1      19.353  23.572  20.080  1.00  0.00     0.094 A 
ATOM     10  C   UNL     1      18.720  22.552  19.365  1.00  0.00     0.146 A 
ATOM     11  O   UNL     1      19.104  22.323  18.116  1.00  0.00    -0.452 OA
ENDROOT
BRANCH   1  12
ATOM     12  C   UNL     1      19.073  21.245  15.960  1.00  0.00     0.021 A 
ATOM     13  C   UNL     1      18.358  21.718  14.845  1.00  0.00     0.016 A 
ATOM     14  C   UNL     1      18.886  21.579  13.557  1.00  0.00     0.047 A 
ATOM     15  C   UNL     1      20.138  20.981  13.370  1.00  0.00     0.115 A 
ATOM     16  C   UNL     1      20.338  20.665  15.765  1.00  0.00     0.016 A 
ATOM     17  C   UNL     1      20.863  20.527  14.476  1.00  0.00     0.047 A 
BRANCH  15  18
ATOM     18  O   UNL     1      20.673  20.837  12.092  1.00  0.00    -0.508 OA
ATOM     19  H   UNL     1      20.764  21.627  11.464  1.00  0.00     0.293 HD
ENDBRANCH  15  18
ENDBRANCH   1  12
BRANCH   2  20
ATOM     20  O   UNL     1      16.940  19.605  17.038  1.00  0.00    -0.502 OA
ATOM     21  H   UNL     1      15.952  19.387  17.055  1.00  0.00     0.293 HD
ENDBRANCH   2  20
BRANCH   6  22
ATOM     22  O   UNL     1      16.406  21.313  22.054  1.00  0.00    -0.507 OA
ATOM     23  H   UNL     1      15.440  21.182  21.800  1.00  0.00     0.293 HD
ENDBRANCH   6  22
BRANCH   8  24
ATOM     24  O   UNL     1      19.580  24.893  22.099  1.00  0.00    -0.508 OA
ATOM     25  H   UNL     1      20.328  25.444  21.693  1.00  0.00     0.293 HD
ENDBRANCH   8  24
TORSDOF 5
ENDMDL
MODEL 8
REMARK VINA RESULT:    -4.695     15.784     17.769
REMARK INTER + INTRA:          -5.734
REMARK INTER:                  -5.452
REMARK INTRA:                  -0.282
REMARK UNBOUND:                -0.215
REMARK SMILES O=c1c(O)c(-c2ccc(O)cc2)oc2cc(O)cc(O)c12
REMARK SMILES IDX 5 1 3 2 2 3 1 4 21 5 19 6 18 7 16 8 15 9 14 10 13 11 6 12
REMARK SMILES IDX 7 13 8 14 9 15 12 16 11 17 10 18 4 20 20 22 17 24
REMARK H PARENT 10 19 4 21 20 23 17 25
REMARK Flexibility Score: inf
ROOT
ATOM      1  C   UNL     1      10.492  14.027   3.115  1.00  0.00     0.180 A 
ATOM      2  C   UNL     1      10.181  12.753   2.610  1.00  0.00     0.208 A 
ATOM      3  C   UNL     1      11.213  11.815   2.449  1.00  0.00     0.238 A 
ATOM      4  O   UNL     1      10.916  10.652   2.067  1.00  0.00    -0.285 OA
ATOM      5  C   UNL     1      12.550  12.179   2.739  1.00  0.00     0.111 A 
ATOM      6  C   UNL     1      13.681  11.323   2.569  1.00  0.00     0.134 A 
ATOM      7  C   UNL     1      14.944  11.756   2.991  1.00  0.00     0.093 A 
ATOM      8  C   UNL     1      15.129  13.034   3.515  1.00  0.00     0.123 A 
ATOM      9  C   UNL     1      14.041  13.899   3.635  1.00  0.00     0.094 A 
ATOM     10  C   UNL     1      12.762  13.482   3.260  1.00  0.00     0.146 A 
ATOM     11  O   UNL     1      11.751  14.329   3.410  1.00  0.00    -0.452 OA
ENDROOT
BRANCH   1  12
ATOM     12  C   UNL     1       9.457  15.065   3.328  1.00  0.00     0.021 A 
ATOM     13  C   UNL     1       8.871  15.269   4.591  1.00  0.00     0.016 A 
ATOM     14  C   UNL     1       7.914  16.272   4.771  1.00  0.00     0.047 A 
ATOM     15  C   UNL     1       7.541  17.091   3.698  1.00  0.00     0.115 A 
ATOM     16  C   UNL     1       9.093  15.906   2.262  1.00  0.00     0.016 A 
ATOM     17  C   UNL     1       8.135  16.907   2.446  1.00  0.00     0.047 A 
BRANCH  15  18
ATOM     18  O   UNL     1       6.587  18.092   3.866  1.00  0.00    -0.508 OA
ATOM     19  H   UNL     1       5.890  18.042   4.601  1.00  0.00     0.293 HD
ENDBRANCH  15  18
ENDBRANCH   1  12
BRANCH   2  20
ATOM     20  O   UNL     1       8.866  12.437   2.257  1.00  0.00    -0.502 OA
ATOM     21  H   UNL     1       8.414  12.828   1.440  1.00  0.00     0.293 HD
ENDBRANCH   2  20
BRANCH   6  22
ATOM     22  O   UNL     1      13.624  10.059   1.973  1.00  0.00    -0.507 OA
ATOM     23  H   UNL     1      13.088   9.279   2.322  1.00  0.00     0.293 HD
ENDBRANCH   6  22
BRANCH   8  24
ATOM     24  O   UNL     1      16.404  13.437   3.908  1.00  0.00    -0.508 OA
ATOM     25  H   UNL     1      16.762  14.359   3.684  1.00  0.00     0.293 HD
ENDBRANCH   8  24
TORSDOF 5
ENDMDL
MODEL 9
REMARK VINA RESULT:    -4.531      1.707      7.029
REMARK INTER + INTRA:          -5.541
REMARK INTER:                  -5.396
REMARK INTRA:                  -0.145
REMARK UNBOUND:                -0.215
REMARK SMILES O=c1c(O)c(-c2ccc(O)cc2)oc2cc(O)cc(O)c12
REMARK SMILES IDX 5 1 3 2 2 3 1 4 21 5 19 6 18 7 16 8 15 9 14 10 13 11 6 12
REMARK SMILES IDX 7 13 8 14 9 15 12 16 11 17 10 18 4 20 20 22 17 24
REMARK H PARENT 10 19 4 21 20 23 17 25
REMARK Flexibility Score: inf
ROOT
ATOM      1  C   UNL     1      19.767  22.298  16.276  1.00  0.00     0.180 A 
ATOM      2  C   UNL     1      20.192  23.614  16.024  1.00  0.00     0.208 A 
ATOM      3  C   UNL     1      20.438  24.006  14.698  1.00  0.00     0.238 A 
ATOM      4  O   UNL     1      20.745  25.206  14.473  1.00  0.00    -0.285 OA
ATOM      5  C   UNL     1      20.312  23.065  13.648  1.00  0.00     0.111 A 
ATOM      6  C   UNL     1      20.580  23.342  12.273  1.00  0.00     0.134 A 
ATOM      7  C   UNL     1      20.318  22.361  11.308  1.00  0.00     0.093 A 
ATOM      8  C   UNL     1      19.860  21.096  11.672  1.00  0.00     0.123 A 
ATOM      9  C   UNL     1      19.647  20.797  13.018  1.00  0.00     0.094 A 
ATOM     10  C   UNL     1      19.862  21.766  14.001  1.00  0.00     0.146 A 
ATOM     11  O   UNL     1      19.626  21.446  15.267  1.00  0.00    -0.452 OA
ENDROOT
BRANCH   1  12
ATOM     12  C   UNL     1      19.473  21.813  17.645  1.00  0.00     0.021 A 
ATOM     13  C   UNL     1      20.483  21.708  18.619  1.00  0.00     0.016 A 
ATOM     14  C   UNL     1      20.175  21.271  19.911  1.00  0.00     0.047 A 
ATOM     15  C   UNL     1      18.855  20.947  20.248  1.00  0.00     0.115 A 
ATOM     16  C   UNL     1      18.148  21.507  17.998  1.00  0.00     0.016 A 
ATOM     17  C   UNL     1      17.843  21.069  19.291  1.00  0.00     0.047 A 
BRANCH  15  18
ATOM     18  O   UNL     1      18.536  20.510  21.532  1.00  0.00    -0.508 OA
ATOM     19  H   UNL     1      17.777  20.925  22.060  1.00  0.00     0.293 HD
ENDBRANCH  15  18
ENDBRANCH   1  12
BRANCH   2  20
ATOM     20  O   UNL     1      20.384  24.506  17.081  1.00  0.00    -0.502 OA
ATOM     21  H   UNL     1      21.256  24.565  17.592  1.00  0.00     0.293 HD
ENDBRANCH   2  20
BRANCH   6  22
ATOM     22  O   UNL     1      21.124  24.543  11.807  1.00  0.00    -0.507 OA
ATOM     23  H   UNL     1      21.334  25.344  12.382  1.00  0.00     0.293 HD
ENDBRANCH   6  22
BRANCH   8  24
ATOM     24  O   UNL     1      19.626  20.140  10.686  1.00  0.00    -0.508 OA
ATOM     25  H   UNL     1      19.448  19.169  10.920  1.00  0.00     0.293 HD
ENDBRANCH   8  24
TORSDOF 5
ENDMDL
