MODEL 1
REMARK VINA RESULT:    -3.053      0.000      0.000
REMARK INTER + INTRA:          -3.969
REMARK INTER:                  -3.678
REMARK INTRA:                  -0.292
REMARK UNBOUND:                -0.292
REMARK SMILES NC(=O)C[C@@H]([NH3+])C(=O)[O-]
REMARK SMILES IDX 4 1 5 2 6 3 7 7 8 8 9 9 2 10 3 11 1 12
REMARK H PARENT 6 4 6 5 6 6 1 13 1 14
REMARK Flexibility Score: inf
ROOT
ATOM      1  C   UNL     1      98.019  71.029  83.155  1.00  0.00     0.171 C 
ENDROOT
BRANCH   1   2
ATOM      2  C   UNL     1      99.248  71.936  83.368  1.00  0.00     0.237 C 
BRANCH   2   3
ATOM      3  N   UNL     1      99.479  72.200  84.795  1.00  0.00    -0.350 N 
ATOM      4  H   UNL     1      99.505  73.229  84.983  1.00  0.00     0.345 HD
ATOM      5  H   UNL     1     100.384  71.772  85.098  1.00  0.00     0.345 HD
ATOM      6  H   UNL     1      98.715  71.767  85.365  1.00  0.00     0.345 HD
ENDBRANCH   2   3
BRANCH   2   7
ATOM      7  C   UNL     1     100.464  71.292  82.758  1.00  0.00     0.100 C 
ATOM      8  O   UNL     1     100.591  70.040  82.772  1.00  0.00    -0.544 OA
ATOM      9  O   UNL     1     101.463  72.076  82.192  1.00  0.00    -0.544 OA
ENDBRANCH   2   7
ENDBRANCH   1   2
BRANCH   1  10
ATOM     10  C   UNL     1      97.228  70.860  84.420  1.00  0.00     0.223 C 
ATOM     11  O   UNL     1      96.614  71.846  84.910  1.00  0.00    -0.275 OA
ATOM     12  N   UNL     1      97.192  69.600  85.090  1.00  0.00    -0.369 N 
ATOM     13  H   UNL     1      97.713  68.778  84.710  1.00  0.00     0.159 HD
ATOM     14  H   UNL     1      96.649  69.490  85.975  1.00  0.00     0.159 HD
ENDBRANCH   1  10
TORSDOF 4
ENDMDL
MODEL 2
REMARK VINA RESULT:    -3.022      9.190     10.183
REMARK INTER + INTRA:          -3.931
REMARK INTER:                  -3.913
REMARK INTRA:                  -0.019
REMARK UNBOUND:                -0.292
REMARK SMILES NC(=O)C[C@@H]([NH3+])C(=O)[O-]
REMARK SMILES IDX 4 1 5 2 6 3 7 7 8 8 9 9 2 10 3 11 1 12
REMARK H PARENT 6 4 6 5 6 6 1 13 1 14
REMARK Flexibility Score: inf
ROOT
ATOM      1  C   UNL     1     102.495  72.250  74.929  1.00  0.00     0.171 C 
ENDROOT
BRANCH   1   2
ATOM      2  C   UNL     1     101.954  70.936  75.528  1.00  0.00     0.237 C 
BRANCH   2   3
ATOM      3  N   UNL     1     100.625  71.125  76.125  1.00  0.00    -0.350 N 
ATOM      4  H   UNL     1      99.956  70.396  75.782  1.00  0.00     0.345 HD
ATOM      5  H   UNL     1     100.255  72.073  75.885  1.00  0.00     0.345 HD
ATOM      6  H   UNL     1     100.692  71.064  77.168  1.00  0.00     0.345 HD
ENDBRANCH   2   3
BRANCH   2   7
ATOM      7  C   UNL     1     101.894  69.879  74.458  1.00  0.00     0.100 C 
ATOM      8  O   UNL     1     102.666  68.885  74.506  1.00  0.00    -0.544 OA
ATOM      9  O   UNL     1     101.000  70.001  73.401  1.00  0.00    -0.544 OA
ENDBRANCH   2   7
ENDBRANCH   1   2
BRANCH   1  10
ATOM     10  C   UNL     1     103.995  72.283  74.926  1.00  0.00     0.223 C 
ATOM     11  O   UNL     1     104.598  73.365  75.163  1.00  0.00    -0.275 OA
ATOM     12  N   UNL     1     104.747  71.107  74.625  1.00  0.00    -0.369 N 
ATOM     13  H   UNL     1     104.264  70.208  74.404  1.00  0.00     0.159 HD
ATOM     14  H   UNL     1     105.790  71.137  74.614  1.00  0.00     0.159 HD
ENDBRANCH   1  10
TORSDOF 4
ENDMDL
MODEL 3
REMARK VINA RESULT:    -3.002      1.489      3.992
REMARK INTER + INTRA:          -3.908
REMARK INTER:                  -3.819
REMARK INTRA:                  -0.089
REMARK UNBOUND:                -0.292
REMARK SMILES NC(=O)C[C@@H]([NH3+])C(=O)[O-]
REMARK SMILES IDX 4 1 5 2 6 3 7 7 8 8 9 9 2 10 3 11 1 12
REMARK H PARENT 6 4 6 5 6 6 1 13 1 14
REMARK Flexibility Score: inf
ROOT
ATOM      1  C   UNL     1      99.202  71.764  82.499  1.00  0.00     0.171 C 
ENDROOT
BRANCH   1   2
ATOM      2  C   UNL     1      98.735  71.492  83.943  1.00  0.00     0.237 C 
BRANCH   2   3
ATOM      3  N   UNL     1      98.961  72.658  84.808  1.00  0.00    -0.350 N 
ATOM      4  H   UNL     1      99.605  73.343  84.348  1.00  0.00     0.345 HD
ATOM      5  H   UNL     1      99.374  72.355  85.720  1.00  0.00     0.345 HD
ATOM      6  H   UNL     1      98.049  73.131  85.012  1.00  0.00     0.345 HD
ENDBRANCH   2   3
BRANCH   2   7
ATOM      7  C   UNL     1      97.276  71.123  83.943  1.00  0.00     0.100 C 
ATOM      8  O   UNL     1      96.858  70.195  83.202  1.00  0.00    -0.544 OA
ATOM      9  O   UNL     1      96.378  71.817  84.746  1.00  0.00    -0.544 OA
ENDBRANCH   2   7
ENDBRANCH   1   2
BRANCH   1  10
ATOM     10  C   UNL     1     100.653  71.427  82.312  1.00  0.00     0.223 C 
ATOM     11  O   UNL     1     101.007  70.222  82.205  1.00  0.00    -0.275 OA
ATOM     12  N   UNL     1     101.640  72.459  82.287  1.00  0.00    -0.369 N 
ATOM     13  H   UNL     1     101.367  73.461  82.397  1.00  0.00     0.159 HD
ATOM     14  H   UNL     1     102.649  72.219  82.167  1.00  0.00     0.159 HD
ENDBRANCH   1  10
TORSDOF 4
ENDMDL
MODEL 4
REMARK VINA RESULT:    -2.947      1.729      4.240
REMARK INTER + INTRA:          -3.841
REMARK INTER:                  -3.752
REMARK INTRA:                  -0.089
REMARK UNBOUND:                -0.292
REMARK SMILES NC(=O)C[C@@H]([NH3+])C(=O)[O-]
REMARK SMILES IDX 4 1 5 2 6 3 7 7 8 8 9 9 2 10 3 11 1 12
REMARK H PARENT 6 4 6 5 6 6 1 13 1 14
REMARK Flexibility Score: inf
ROOT
ATOM      1  C   UNL     1      97.779  71.455  84.282  1.00  0.00     0.171 C 
ENDROOT
BRANCH   1   2
ATOM      2  C   UNL     1      97.060  70.234  83.674  1.00  0.00     0.237 C 
BRANCH   2   3
ATOM      3  N   UNL     1      97.376  69.003  84.412  1.00  0.00    -0.350 N 
ATOM      4  H   UNL     1      98.061  69.195  85.180  1.00  0.00     0.345 HD
ATOM      5  H   UNL     1      97.777  68.288  83.763  1.00  0.00     0.345 HD
ATOM      6  H   UNL     1      96.502  68.603  84.826  1.00  0.00     0.345 HD
ENDBRANCH   2   3
BRANCH   2   7
ATOM      7  C   UNL     1      95.573  70.470  83.675  1.00  0.00     0.100 C 
ATOM      8  O   UNL     1      94.785  69.546  83.341  1.00  0.00    -0.544 OA
ATOM      9  O   UNL     1      95.061  71.713  84.027  1.00  0.00    -0.544 OA
ENDBRANCH   2   7
ENDBRANCH   1   2
BRANCH   1  10
ATOM     10  C   UNL     1      99.060  71.760  83.561  1.00  0.00     0.223 C 
ATOM     11  O   UNL     1      99.075  71.797  82.301  1.00  0.00    -0.275 OA
ATOM     12  N   UNL     1     100.269  71.977  84.289  1.00  0.00    -0.369 N 
ATOM     13  H   UNL     1     100.279  71.928  85.332  1.00  0.00     0.159 HD
ATOM     14  H   UNL     1     101.159  72.180  83.782  1.00  0.00     0.159 HD
ENDBRANCH   1  10
TORSDOF 4
ENDMDL
MODEL 5
REMARK VINA RESULT:    -2.919      9.362     10.347
REMARK INTER + INTRA:          -3.808
REMARK INTER:                  -3.672
REMARK INTRA:                  -0.135
REMARK UNBOUND:                -0.292
REMARK SMILES NC(=O)C[C@@H]([NH3+])C(=O)[O-]
REMARK SMILES IDX 4 1 5 2 6 3 7 7 8 8 9 9 2 10 3 11 1 12
REMARK H PARENT 6 4 6 5 6 6 1 13 1 14
REMARK Flexibility Score: inf
ROOT
ATOM      1  C   UNL     1     102.133  71.875  75.225  1.00  0.00     0.171 C 
ENDROOT
BRANCH   1   2
ATOM      2  C   UNL     1     102.361  70.358  75.377  1.00  0.00     0.237 C 
BRANCH   2   3
ATOM      3  N   UNL     1     101.543  69.798  76.463  1.00  0.00    -0.350 N 
ATOM      4  H   UNL     1     101.689  68.765  76.543  1.00  0.00     0.345 HD
ATOM      5  H   UNL     1     100.531  69.990  76.285  1.00  0.00     0.345 HD
ATOM      6  H   UNL     1     101.800  70.252  77.370  1.00  0.00     0.345 HD
ENDBRANCH   2   3
BRANCH   2   7
ATOM      7  C   UNL     1     102.042  69.664  74.080  1.00  0.00     0.100 C 
ATOM      8  O   UNL     1     102.875  68.875  73.563  1.00  0.00    -0.544 OA
ATOM      9  O   UNL     1     100.834  69.905  73.435  1.00  0.00    -0.544 OA
ENDBRANCH   2   7
ENDBRANCH   1   2
BRANCH   1  10
ATOM     10  C   UNL     1     103.358  72.572  74.711  1.00  0.00     0.223 C 
ATOM     11  O   UNL     1     104.500  72.125  75.001  1.00  0.00    -0.275 OA
ATOM     12  N   UNL     1     103.242  73.758  73.924  1.00  0.00    -0.369 N 
ATOM     13  H   UNL     1     102.305  74.156  73.693  1.00  0.00     0.159 HD
ATOM     14  H   UNL     1     104.099  74.246  73.577  1.00  0.00     0.159 HD
ENDBRANCH   1  10
TORSDOF 4
ENDMDL
MODEL 6
REMARK VINA RESULT:    -2.802      2.010      4.043
REMARK INTER + INTRA:          -3.666
REMARK INTER:                  -3.427
REMARK INTRA:                  -0.239
REMARK UNBOUND:                -0.292
REMARK SMILES NC(=O)C[C@@H]([NH3+])C(=O)[O-]
REMARK SMILES IDX 4 1 5 2 6 3 7 7 8 8 9 9 2 10 3 11 1 12
REMARK H PARENT 6 4 6 5 6 6 1 13 1 14
REMARK Flexibility Score: inf
ROOT
ATOM      1  C   UNL     1      98.376  71.488  82.735  1.00  0.00     0.171 C 
ENDROOT
BRANCH   1   2
ATOM      2  C   UNL     1      97.650  70.975  83.995  1.00  0.00     0.237 C 
BRANCH   2   3
ATOM      3  N   UNL     1      97.510  72.035  85.003  1.00  0.00    -0.350 N 
ATOM      4  H   UNL     1      96.699  72.658  84.777  1.00  0.00     0.345 HD
ATOM      5  H   UNL     1      98.383  72.609  85.044  1.00  0.00     0.345 HD
ATOM      6  H   UNL     1      97.362  71.610  85.948  1.00  0.00     0.345 HD
ENDBRANCH   2   3
BRANCH   2   7
ATOM      7  C   UNL     1      96.296  70.439  83.617  1.00  0.00     0.100 C 
ATOM      8  O   UNL     1      95.279  71.178  83.691  1.00  0.00    -0.544 OA
ATOM      9  O   UNL     1      96.155  69.120  83.201  1.00  0.00    -0.544 OA
ENDBRANCH   2   7
ENDBRANCH   1   2
BRANCH   1  10
ATOM     10  C   UNL     1      99.830  71.749  82.999  1.00  0.00     0.223 C 
ATOM     11  O   UNL     1     100.254  71.787  84.185  1.00  0.00    -0.275 OA
ATOM     12  N   UNL     1     100.733  71.987  81.918  1.00  0.00    -0.369 N 
ATOM     13  H   UNL     1     100.395  71.982  80.930  1.00  0.00     0.159 HD
ATOM     14  H   UNL     1     101.742  72.178  82.107  1.00  0.00     0.159 HD
ENDBRANCH   1  10
TORSDOF 4
ENDMDL
MODEL 7
REMARK VINA RESULT:    -2.514      9.655     10.176
REMARK INTER + INTRA:          -3.320
REMARK INTER:                  -3.055
REMARK INTRA:                  -0.265
REMARK UNBOUND:                -0.292
REMARK SMILES NC(=O)C[C@@H]([NH3+])C(=O)[O-]
REMARK SMILES IDX 4 1 5 2 6 3 7 7 8 8 9 9 2 10 3 11 1 12
REMARK H PARENT 6 4 6 5 6 6 1 13 1 14
REMARK Flexibility Score: inf
ROOT
ATOM      1  C   UNL     1     102.101  71.654  75.162  1.00  0.00     0.171 C 
ENDROOT
BRANCH   1   2
ATOM      2  C   UNL     1     103.627  71.843  75.283  1.00  0.00     0.237 C 
BRANCH   2   3
ATOM      3  N   UNL     1     104.357  70.751  74.625  1.00  0.00    -0.350 N 
ATOM      4  H   UNL     1     104.727  71.058  73.695  1.00  0.00     0.345 HD
ATOM      5  H   UNL     1     103.727  69.928  74.489  1.00  0.00     0.345 HD
ATOM      6  H   UNL     1     105.157  70.444  75.227  1.00  0.00     0.345 HD
ENDBRANCH   2   3
BRANCH   2   7
ATOM      7  C   UNL     1     104.023  73.165  74.682  1.00  0.00     0.100 C 
ATOM      8  O   UNL     1     103.254  73.749  73.875  1.00  0.00    -0.544 OA
ATOM      9  O   UNL     1     105.248  73.740  75.000  1.00  0.00    -0.544 OA
ENDBRANCH   2   7
ENDBRANCH   1   2
BRANCH   1  10
ATOM     10  C   UNL     1     101.745  70.250  74.769  1.00  0.00     0.223 C 
ATOM     11  O   UNL     1     102.132  69.284  75.481  1.00  0.00    -0.275 OA
ATOM     12  N   UNL     1     101.000  69.996  73.578  1.00  0.00    -0.369 N 
ATOM     13  H   UNL     1     100.691  70.782  72.964  1.00  0.00     0.159 HD
ATOM     14  H   UNL     1     100.764  69.016  73.304  1.00  0.00     0.159 HD
ENDBRANCH   1  10
TORSDOF 4
ENDMDL
MODEL 8
REMARK VINA RESULT:    -2.467     12.974     13.785
REMARK INTER + INTRA:          -3.264
REMARK INTER:                  -3.055
REMARK INTRA:                  -0.209
REMARK UNBOUND:                -0.292
REMARK SMILES NC(=O)C[C@@H]([NH3+])C(=O)[O-]
REMARK SMILES IDX 4 1 5 2 6 3 7 7 8 8 9 9 2 10 3 11 1 12
REMARK H PARENT 6 4 6 5 6 6 1 13 1 14
REMARK Flexibility Score: inf
ROOT
ATOM      1  C   UNL     1      99.828  69.471  70.942  1.00  0.00     0.171 C 
ENDROOT
BRANCH   1   2
ATOM      2  C   UNL     1     100.179  70.383  69.748  1.00  0.00     0.237 C 
BRANCH   2   3
ATOM      3  N   UNL     1     100.631  69.600  68.590  1.00  0.00    -0.350 N 
ATOM      4  H   UNL     1     101.667  69.683  68.466  1.00  0.00     0.345 HD
ATOM      5  H   UNL     1     100.152  69.933  67.722  1.00  0.00     0.345 HD
ATOM      6  H   UNL     1     100.382  68.592  68.724  1.00  0.00     0.345 HD
ENDBRANCH   2   3
BRANCH   2   7
ATOM      7  C   UNL     1      98.980  71.213  69.375  1.00  0.00     0.100 C 
ATOM      8  O   UNL     1      97.832  70.698  69.365  1.00  0.00    -0.544 OA
ATOM      9  O   UNL     1      99.136  72.549  69.022  1.00  0.00    -0.544 OA
ENDBRANCH   2   7
ENDBRANCH   1   2
BRANCH   1  10
ATOM     10  C   UNL     1     100.992  69.304  71.874  1.00  0.00     0.223 C 
ATOM     11  O   UNL     1     102.092  68.876  71.432  1.00  0.00    -0.275 OA
ATOM     12  N   UNL     1     100.855  69.596  73.266  1.00  0.00    -0.369 N 
ATOM     13  H   UNL     1      99.945  69.930  73.653  1.00  0.00     0.159 HD
ATOM     14  H   UNL     1     101.665  69.468  73.912  1.00  0.00     0.159 HD
ENDBRANCH   1  10
TORSDOF 4
ENDMDL
MODEL 9
REMARK VINA RESULT:    -2.339      2.286      3.086
REMARK INTER + INTRA:          -3.109
REMARK INTER:                  -2.832
REMARK INTRA:                  -0.277
REMARK UNBOUND:                -0.292
REMARK SMILES NC(=O)C[C@@H]([NH3+])C(=O)[O-]
REMARK SMILES IDX 4 1 5 2 6 3 7 7 8 8 9 9 2 10 3 11 1 12
REMARK H PARENT 6 4 6 5 6 6 1 13 1 14
REMARK Flexibility Score: inf
ROOT
ATOM      1  C   UNL     1      95.939  71.019  83.694  1.00  0.00     0.171 C 
ENDROOT
BRANCH   1   2
ATOM      2  C   UNL     1      97.201  70.695  84.520  1.00  0.00     0.237 C 
BRANCH   2   3
ATOM      3  N   UNL     1      97.662  69.320  84.278  1.00  0.00    -0.350 N 
ATOM      4  H   UNL     1      96.864  68.645  84.335  1.00  0.00     0.345 HD
ATOM      5  H   UNL     1      98.388  69.055  84.982  1.00  0.00     0.345 HD
ATOM      6  H   UNL     1      98.099  69.254  83.329  1.00  0.00     0.345 HD
ENDBRANCH   2   3
BRANCH   2   7
ATOM      7  C   UNL     1      98.293  71.673  84.182  1.00  0.00     0.100 C 
ATOM      8  O   UNL     1      98.591  72.593  84.988  1.00  0.00    -0.544 OA
ATOM      9  O   UNL     1      98.969  71.578  82.970  1.00  0.00    -0.544 OA
ENDBRANCH   2   7
ENDBRANCH   1   2
BRANCH   1  10
ATOM     10  C   UNL     1      94.950  69.891  83.725  1.00  0.00     0.223 C 
ATOM     11  O   UNL     1      95.051  68.948  82.896  1.00  0.00    -0.275 OA
ATOM     12  N   UNL     1      93.876  69.893  84.666  1.00  0.00    -0.369 N 
ATOM     13  H   UNL     1      93.764  70.678  85.346  1.00  0.00     0.159 HD
ATOM     14  H   UNL     1      93.184  69.111  84.677  1.00  0.00     0.159 HD
ENDBRANCH   1  10
TORSDOF 4
ENDMDL
