MODEL 1
REMARK VINA RESULT:    -6.133      0.000      0.000
REMARK INTER + INTRA:          -7.765
REMARK INTER:                  -7.029
REMARK INTRA:                  -0.736
REMARK UNBOUND:                -0.736
REMARK SMILES C=C(C)[C@@H]1CC[C@@]2(C(=O)[O-])CC[C@]3(C)[C@H](CC[C@H]4[C@@]5(C)CC[C@@H](O)C(C)(C)[C@H]5CC[C@@]43C)[C@@H]12
REMARK SMILES IDX 7 1 6 2 33 3 11 4 5 5 15 6 4 7 12 8 16 9 13 10 17 11 31 12
REMARK SMILES IDX 14 13 18 14 30 15 32 16 19 17 29 18 21 19 20 20 28 21 22 22
REMARK SMILES IDX 25 23 23 24 26 25 27 26 8 27 9 28 10 29 2 30 3 31 1 32 24 33
REMARK H PARENT 24 34
REMARK Flexibility Score: inf
ROOT
ATOM      1  C   UNL     1     -11.834 -26.857 -34.881  1.00  0.00     0.014 C 
ATOM      2  C   UNL     1     -11.468 -25.444 -34.391  1.00  0.00     0.014 C 
ATOM      3  C   UNL     1     -10.521 -27.319 -35.625  1.00  0.00     0.012 C 
ATOM      4  C   UNL     1     -13.163 -26.809 -35.722  1.00  0.00     0.014 C 
ATOM      5  C   UNL     1     -10.021 -25.544 -33.951  1.00  0.00     0.009 C 
ATOM      6  C   UNL     1     -10.597 -27.066 -37.160  1.00  0.00     0.000 C 
ATOM      7  C   UNL     1      -9.372 -26.475 -34.974  1.00  0.00     0.018 C 
ATOM      8  C   UNL     1     -13.030 -26.745 -37.260  1.00  0.00     0.008 C 
ATOM      9  C   UNL     1      -9.316 -27.409 -37.962  1.00  0.00     0.005 C 
ATOM     10  C   UNL     1     -11.901 -27.658 -37.833  1.00  0.00    -0.024 C 
ATOM     11  C   UNL     1      -9.359 -26.797 -39.397  1.00  0.00     0.005 C 
ATOM     12  C   UNL     1     -11.783 -27.623 -39.471  1.00  0.00    -0.024 C 
ATOM     13  C   UNL     1     -12.186 -29.124 -37.353  1.00  0.00     0.012 C 
ATOM     14  C   UNL     1     -10.809 -26.454 -39.871  1.00  0.00     0.002 C 
ATOM     15  C   UNL     1     -13.147 -27.416 -40.210  1.00  0.00     0.008 C 
ATOM     16  C   UNL     1     -11.225 -29.007 -39.999  1.00  0.00     0.012 C 
ATOM     17  C   UNL     1     -10.991 -25.787 -41.310  1.00  0.00    -0.026 C 
ATOM     18  C   UNL     1     -13.497 -25.949 -40.502  1.00  0.00     0.005 C 
ATOM     19  C   UNL     1     -10.707 -26.782 -42.470  1.00  0.00     0.010 C 
ATOM     20  C   UNL     1      -9.947 -24.631 -41.394  1.00  0.00     0.012 C 
ATOM     21  C   UNL     1     -12.471 -25.188 -41.428  1.00  0.00     0.003 C 
ATOM     22  C   UNL     1     -11.029 -26.220 -43.853  1.00  0.00     0.033 C 
ATOM     23  C   UNL     1     -12.986 -24.836 -42.916  1.00  0.00    -0.006 C 
ATOM     24  C   UNL     1     -12.528 -25.894 -43.967  1.00  0.00     0.120 C 
ATOM     25  C   UNL     1     -12.471 -23.430 -43.366  1.00  0.00     0.014 C 
ATOM     26  C   UNL     1     -14.538 -24.711 -42.998  1.00  0.00     0.014 C 
ENDROOT
BRANCH   1  27
ATOM     27  C   UNL     1     -12.100 -27.763 -33.679  1.00  0.00     0.048 C 
ATOM     28  O   UNL     1     -11.651 -28.941 -33.642  1.00  0.00    -0.550 OA
ATOM     29  O   UNL     1     -12.750 -27.268 -32.553  1.00  0.00    -0.550 OA
ENDBRANCH   1  27
BRANCH   7  30
ATOM     30  C   UNL     1      -8.251 -27.322 -34.380  1.00  0.00    -0.077 C 
ATOM     31  C   UNL     1      -7.010 -27.655 -35.167  1.00  0.00     0.039 C 
ATOM     32  C   UNL     1      -8.356 -27.792 -33.127  1.00  0.00     0.008 C 
ENDBRANCH   7  30
BRANCH  24  33
ATOM     33  O   UNL     1     -13.277 -27.077 -43.829  1.00  0.00    -0.393 OA
ATOM     34  H   UNL     1     -14.149 -26.825 -43.426  1.00  0.00     0.210 HD
ENDBRANCH  24  33
TORSDOF 3
ENDMDL
MODEL 2
REMARK VINA RESULT:    -5.706      1.818      7.978
REMARK INTER + INTRA:          -7.275
REMARK INTER:                  -6.925
REMARK INTRA:                  -0.351
REMARK UNBOUND:                -0.736
REMARK SMILES C=C(C)[C@@H]1CC[C@@]2(C(=O)[O-])CC[C@]3(C)[C@H](CC[C@H]4[C@@]5(C)CC[C@@H](O)C(C)(C)[C@H]5CC[C@@]43C)[C@@H]12
REMARK SMILES IDX 7 1 6 2 33 3 11 4 5 5 15 6 4 7 12 8 16 9 13 10 17 11 31 12
REMARK SMILES IDX 14 13 18 14 30 15 32 16 19 17 29 18 21 19 20 20 28 21 22 22
REMARK SMILES IDX 25 23 23 24 26 25 27 26 8 27 9 28 10 29 2 30 3 31 1 32 24 33
REMARK H PARENT 24 34
REMARK Flexibility Score: inf
ROOT
ATOM      1  C   UNL     1     -10.481 -26.197 -41.019  1.00  0.00     0.014 C 
ATOM      2  C   UNL     1     -11.257 -24.932 -41.429  1.00  0.00     0.014 C 
ATOM      3  C   UNL     1     -11.626 -27.166 -40.529  1.00  0.00     0.012 C 
ATOM      4  C   UNL     1      -9.354 -25.828 -39.985  1.00  0.00     0.014 C 
ATOM      5  C   UNL     1     -12.520 -25.444 -42.092  1.00  0.00     0.009 C 
ATOM      6  C   UNL     1     -11.815 -27.116 -38.984  1.00  0.00     0.000 C 
ATOM      7  C   UNL     1     -12.916 -26.669 -41.268  1.00  0.00     0.018 C 
ATOM      8  C   UNL     1      -9.672 -26.024 -38.486  1.00  0.00     0.008 C 
ATOM      9  C   UNL     1     -12.979 -27.971 -38.421  1.00  0.00     0.005 C 
ATOM     10  C   UNL     1     -10.471 -27.329 -38.176  1.00  0.00    -0.024 C 
ATOM     11  C   UNL     1     -13.313 -27.583 -36.946  1.00  0.00     0.005 C 
ATOM     12  C   UNL     1     -10.777 -27.561 -36.580  1.00  0.00    -0.024 C 
ATOM     13  C   UNL     1      -9.643 -28.537 -38.739  1.00  0.00     0.012 C 
ATOM     14  C   UNL     1     -12.134 -26.848 -36.228  1.00  0.00     0.002 C 
ATOM     15  C   UNL     1      -9.661 -27.017 -35.625  1.00  0.00     0.008 C 
ATOM     16  C   UNL     1     -10.875 -29.110 -36.271  1.00  0.00     0.012 C 
ATOM     17  C   UNL     1     -12.358 -26.363 -34.723  1.00  0.00    -0.026 C 
ATOM     18  C   UNL     1      -9.877 -25.573 -35.152  1.00  0.00     0.005 C 
ATOM     19  C   UNL     1     -12.407 -27.545 -33.715  1.00  0.00     0.010 C 
ATOM     20  C   UNL     1     -13.741 -25.641 -34.694  1.00  0.00     0.012 C 
ATOM     21  C   UNL     1     -11.201 -25.329 -34.327  1.00  0.00     0.003 C 
ATOM     22  C   UNL     1     -12.457 -27.104 -32.254  1.00  0.00     0.033 C 
ATOM     23  C   UNL     1     -11.010 -25.035 -32.753  1.00  0.00    -0.006 C 
ATOM     24  C   UNL     1     -11.187 -26.319 -31.885  1.00  0.00     0.120 C 
ATOM     25  C   UNL     1     -12.028 -23.954 -32.260  1.00  0.00     0.014 C 
ATOM     26  C   UNL     1      -9.618 -24.415 -32.423  1.00  0.00     0.014 C 
ENDROOT
BRANCH   1  27
ATOM     27  C   UNL     1      -9.783 -26.789 -42.244  1.00  0.00     0.048 C 
ATOM     28  O   UNL     1     -10.002 -26.332 -43.399  1.00  0.00    -0.550 OA
ATOM     29  O   UNL     1      -8.810 -27.771 -42.095  1.00  0.00    -0.550 OA
ENDBRANCH   1  27
BRANCH   7  30
ATOM     30  C   UNL     1     -13.599 -27.749 -42.100  1.00  0.00    -0.077 C 
ATOM     31  C   UNL     1     -15.023 -27.601 -42.572  1.00  0.00     0.039 C 
ATOM     32  C   UNL     1     -12.932 -28.867 -42.430  1.00  0.00     0.008 C 
ENDBRANCH   7  30
BRANCH  24  33
ATOM     33  O   UNL     1     -10.063 -27.156 -32.013  1.00  0.00    -0.393 OA
ATOM     34  H   UNL     1     -10.109 -27.570 -32.915  1.00  0.00     0.210 HD
ENDBRANCH  24  33
TORSDOF 3
ENDMDL
MODEL 3
REMARK VINA RESULT:    -5.405      4.471      7.779
REMARK INTER + INTRA:          -6.931
REMARK INTER:                  -6.247
REMARK INTRA:                  -0.683
REMARK UNBOUND:                -0.736
REMARK SMILES C=C(C)[C@@H]1CC[C@@]2(C(=O)[O-])CC[C@]3(C)[C@H](CC[C@H]4[C@@]5(C)CC[C@@H](O)C(C)(C)[C@H]5CC[C@@]43C)[C@@H]12
REMARK SMILES IDX 7 1 6 2 33 3 11 4 5 5 15 6 4 7 12 8 16 9 13 10 17 11 31 12
REMARK SMILES IDX 14 13 18 14 30 15 32 16 19 17 29 18 21 19 20 20 28 21 22 22
REMARK SMILES IDX 25 23 23 24 26 25 27 26 8 27 9 28 10 29 2 30 3 31 1 32 24 33
REMARK H PARENT 24 34
REMARK Flexibility Score: inf
ROOT
ATOM      1  C   UNL     1     -12.696 -24.802 -42.461  1.00  0.00     0.014 C 
ATOM      2  C   UNL     1     -11.283 -24.253 -42.731  1.00  0.00     0.014 C 
ATOM      3  C   UNL     1     -12.523 -26.350 -42.714  1.00  0.00     0.012 C 
ATOM      4  C   UNL     1     -13.751 -24.038 -43.343  1.00  0.00     0.014 C 
ATOM      5  C   UNL     1     -10.341 -25.289 -42.150  1.00  0.00     0.009 C 
ATOM      6  C   UNL     1     -12.941 -26.758 -44.159  1.00  0.00     0.000 C 
ATOM      7  C   UNL     1     -11.000 -26.630 -42.472  1.00  0.00     0.018 C 
ATOM      8  C   UNL     1     -14.182 -24.701 -44.670  1.00  0.00     0.008 C 
ATOM      9  C   UNL     1     -12.722 -28.247 -44.527  1.00  0.00     0.005 C 
ATOM     10  C   UNL     1     -14.381 -26.246 -44.567  1.00  0.00    -0.024 C 
ATOM     11  C   UNL     1     -12.824 -28.476 -46.068  1.00  0.00     0.005 C 
ATOM     12  C   UNL     1     -14.878 -26.949 -45.965  1.00  0.00    -0.024 C 
ATOM     13  C   UNL     1     -15.434 -26.514 -43.435  1.00  0.00     0.012 C 
ATOM     14  C   UNL     1     -13.605 -27.338 -46.803  1.00  0.00     0.002 C 
ATOM     15  C   UNL     1     -15.803 -26.043 -46.848  1.00  0.00     0.008 C 
ATOM     16  C   UNL     1     -15.738 -28.237 -45.643  1.00  0.00     0.012 C 
ATOM     17  C   UNL     1     -13.752 -27.432 -48.390  1.00  0.00    -0.026 C 
ATOM     18  C   UNL     1     -15.057 -25.195 -47.888  1.00  0.00     0.005 C 
ATOM     19  C   UNL     1     -14.721 -28.563 -48.835  1.00  0.00     0.010 C 
ATOM     20  C   UNL     1     -12.331 -27.764 -48.944  1.00  0.00     0.012 C 
ATOM     21  C   UNL     1     -14.236 -26.016 -48.958  1.00  0.00     0.003 C 
ATOM     22  C   UNL     1     -15.006 -28.572 -50.334  1.00  0.00     0.033 C 
ATOM     23  C   UNL     1     -14.825 -26.008 -50.459  1.00  0.00    -0.006 C 
ATOM     24  C   UNL     1     -15.697 -27.266 -50.760  1.00  0.00     0.120 C 
ATOM     25  C   UNL     1     -13.669 -25.939 -51.511  1.00  0.00     0.014 C 
ATOM     26  C   UNL     1     -15.681 -24.740 -50.761  1.00  0.00     0.014 C 
ENDROOT
BRANCH   1  27
ATOM     27  C   UNL     1     -13.072 -24.551 -41.000  1.00  0.00     0.048 C 
ATOM     28  O   UNL     1     -13.291 -23.383 -40.579  1.00  0.00    -0.550 OA
ATOM     29  O   UNL     1     -13.289 -25.618 -40.134  1.00  0.00    -0.550 OA
ENDBRANCH   1  27
BRANCH   7  30
ATOM     30  C   UNL     1     -10.734 -27.692 -41.410  1.00  0.00    -0.077 C 
ATOM     31  C   UNL     1     -11.782 -28.704 -41.025  1.00  0.00     0.039 C 
ATOM     32  C   UNL     1      -9.544 -27.741 -40.791  1.00  0.00     0.008 C 
ENDBRANCH   7  30
BRANCH  24  33
ATOM     33  O   UNL     1     -16.944 -27.162 -50.114  1.00  0.00    -0.393 OA
ATOM     34  H   UNL     1     -16.868 -27.651 -49.253  1.00  0.00     0.210 HD
ENDBRANCH  24  33
TORSDOF 3
ENDMDL
MODEL 4
REMARK VINA RESULT:    -5.206      4.130      7.311
REMARK INTER + INTRA:          -6.702
REMARK INTER:                  -5.999
REMARK INTRA:                  -0.703
REMARK UNBOUND:                -0.736
REMARK SMILES C=C(C)[C@@H]1CC[C@@]2(C(=O)[O-])CC[C@]3(C)[C@H](CC[C@H]4[C@@]5(C)CC[C@@H](O)C(C)(C)[C@H]5CC[C@@]43C)[C@@H]12
REMARK SMILES IDX 7 1 6 2 33 3 11 4 5 5 15 6 4 7 12 8 16 9 13 10 17 11 31 12
REMARK SMILES IDX 14 13 18 14 30 15 32 16 19 17 29 18 21 19 20 20 28 21 22 22
REMARK SMILES IDX 25 23 23 24 26 25 27 26 8 27 9 28 10 29 2 30 3 31 1 32 24 33
REMARK H PARENT 24 34
REMARK Flexibility Score: inf
ROOT
ATOM      1  C   UNL     1     -15.373 -24.235 -41.214  1.00  0.00     0.014 C 
ATOM      2  C   UNL     1     -14.293 -23.137 -41.224  1.00  0.00     0.014 C 
ATOM      3  C   UNL     1     -14.537 -25.548 -41.472  1.00  0.00     0.012 C 
ATOM      4  C   UNL     1     -16.507 -23.885 -42.246  1.00  0.00     0.014 C 
ATOM      5  C   UNL     1     -13.103 -23.750 -40.514  1.00  0.00     0.009 C 
ATOM      6  C   UNL     1     -14.530 -25.953 -42.976  1.00  0.00     0.000 C 
ATOM      7  C   UNL     1     -13.089 -25.206 -40.977  1.00  0.00     0.018 C 
ATOM      8  C   UNL     1     -16.424 -24.539 -43.644  1.00  0.00     0.008 C 
ATOM      9  C   UNL     1     -13.659 -27.184 -43.337  1.00  0.00     0.005 C 
ATOM     10  C   UNL     1     -15.975 -26.034 -43.614  1.00  0.00    -0.024 C 
ATOM     11  C   UNL     1     -13.430 -27.289 -44.878  1.00  0.00     0.005 C 
ATOM     12  C   UNL     1     -15.924 -26.744 -45.094  1.00  0.00    -0.024 C 
ATOM     13  C   UNL     1     -16.974 -26.811 -42.687  1.00  0.00     0.012 C 
ATOM     14  C   UNL     1     -14.496 -26.503 -45.708  1.00  0.00     0.002 C 
ATOM     15  C   UNL     1     -17.000 -26.214 -46.100  1.00  0.00     0.008 C 
ATOM     16  C   UNL     1     -16.207 -28.295 -44.955  1.00  0.00     0.012 C 
ATOM     17  C   UNL     1     -14.355 -26.500 -47.299  1.00  0.00    -0.026 C 
ATOM     18  C   UNL     1     -16.531 -25.042 -46.975  1.00  0.00     0.005 C 
ATOM     19  C   UNL     1     -14.690 -27.879 -47.931  1.00  0.00     0.010 C 
ATOM     20  C   UNL     1     -12.861 -26.173 -47.608  1.00  0.00     0.012 C 
ATOM     21  C   UNL     1     -15.296 -25.356 -47.907  1.00  0.00     0.003 C 
ATOM     22  C   UNL     1     -14.721 -27.864 -49.458  1.00  0.00     0.033 C 
ATOM     23  C   UNL     1     -15.607 -25.447 -49.487  1.00  0.00    -0.006 C 
ATOM     24  C   UNL     1     -15.823 -26.917 -49.964  1.00  0.00     0.120 C 
ATOM     25  C   UNL     1     -14.443 -24.817 -50.321  1.00  0.00     0.014 C 
ATOM     26  C   UNL     1     -16.858 -24.614 -49.901  1.00  0.00     0.014 C 
ENDROOT
BRANCH   1  27
ATOM     27  C   UNL     1     -16.029 -24.295 -39.835  1.00  0.00     0.048 C 
ATOM     28  O   UNL     1     -16.378 -25.397 -39.330  1.00  0.00    -0.550 OA
ATOM     29  O   UNL     1     -16.154 -23.145 -39.062  1.00  0.00    -0.550 OA
ENDBRANCH   1  27
BRANCH   7  30
ATOM     30  C   UNL     1     -12.565 -26.163 -39.912  1.00  0.00    -0.077 C 
ATOM     31  C   UNL     1     -13.458 -27.187 -39.260  1.00  0.00     0.039 C 
ATOM     32  C   UNL     1     -11.278 -26.106 -39.530  1.00  0.00     0.008 C 
ENDBRANCH   7  30
BRANCH  24  33
ATOM     33  O   UNL     1     -17.079 -27.389 -49.541  1.00  0.00    -0.393 OA
ATOM     34  H   UNL     1     -16.979 -28.360 -49.359  1.00  0.00     0.210 HD
ENDBRANCH  24  33
TORSDOF 3
ENDMDL
MODEL 5
REMARK VINA RESULT:    -5.061      2.278      4.882
REMARK INTER + INTRA:          -6.537
REMARK INTER:                  -5.990
REMARK INTRA:                  -0.547
REMARK UNBOUND:                -0.736
REMARK SMILES C=C(C)[C@@H]1CC[C@@]2(C(=O)[O-])CC[C@]3(C)[C@H](CC[C@H]4[C@@]5(C)CC[C@@H](O)C(C)(C)[C@H]5CC[C@@]43C)[C@@H]12
REMARK SMILES IDX 7 1 6 2 33 3 11 4 5 5 15 6 4 7 12 8 16 9 13 10 17 11 31 12
REMARK SMILES IDX 14 13 18 14 30 15 32 16 19 17 29 18 21 19 20 20 28 21 22 22
REMARK SMILES IDX 25 23 23 24 26 25 27 26 8 27 9 28 10 29 2 30 3 31 1 32 24 33
REMARK H PARENT 24 34
REMARK Flexibility Score: inf
ROOT
ATOM      1  C   UNL     1     -10.042 -27.516 -38.616  1.00  0.00     0.014 C 
ATOM      2  C   UNL     1     -10.454 -28.957 -38.263  1.00  0.00     0.014 C 
ATOM      3  C   UNL     1     -11.414 -26.738 -38.564  1.00  0.00     0.012 C 
ATOM      4  C   UNL     1      -9.251 -27.499 -39.976  1.00  0.00     0.014 C 
ATOM      5  C   UNL     1     -11.510 -28.810 -37.185  1.00  0.00     0.009 C 
ATOM      6  C   UNL     1     -12.065 -26.604 -39.973  1.00  0.00     0.000 C 
ATOM      7  C   UNL     1     -12.320 -27.585 -37.607  1.00  0.00     0.018 C 
ATOM      8  C   UNL     1     -10.046 -27.159 -41.257  1.00  0.00     0.008 C 
ATOM      9  C   UNL     1     -13.460 -25.929 -40.007  1.00  0.00     0.005 C 
ATOM     10  C   UNL     1     -11.086 -26.011 -41.066  1.00  0.00    -0.024 C 
ATOM     11  C   UNL     1     -14.174 -26.161 -41.376  1.00  0.00     0.005 C 
ATOM     12  C   UNL     1     -11.905 -25.619 -42.435  1.00  0.00    -0.024 C 
ATOM     13  C   UNL     1     -10.314 -24.754 -40.532  1.00  0.00     0.012 C 
ATOM     14  C   UNL     1     -13.182 -26.533 -42.526  1.00  0.00     0.002 C 
ATOM     15  C   UNL     1     -11.074 -25.784 -43.752  1.00  0.00     0.008 C 
ATOM     16  C   UNL     1     -12.324 -24.094 -42.392  1.00  0.00     0.012 C 
ATOM     17  C   UNL     1     -13.788 -26.833 -43.972  1.00  0.00    -0.026 C 
ATOM     18  C   UNL     1     -11.208 -27.160 -44.421  1.00  0.00     0.005 C 
ATOM     19  C   UNL     1     -14.324 -25.553 -44.673  1.00  0.00     0.010 C 
ATOM     20  C   UNL     1     -14.987 -27.806 -43.754  1.00  0.00     0.012 C 
ATOM     21  C   UNL     1     -12.671 -27.544 -44.873  1.00  0.00     0.003 C 
ATOM     22  C   UNL     1     -14.760 -25.781 -46.118  1.00  0.00     0.033 C 
ATOM     23  C   UNL     1     -12.938 -27.566 -46.463  1.00  0.00    -0.006 C 
ATOM     24  C   UNL     1     -13.566 -26.233 -46.976  1.00  0.00     0.120 C 
ATOM     25  C   UNL     1     -13.886 -28.747 -46.853  1.00  0.00     0.014 C 
ATOM     26  C   UNL     1     -11.642 -27.839 -47.285  1.00  0.00     0.014 C 
ENDROOT
BRANCH   1  27
ATOM     27  C   UNL     1      -9.094 -26.978 -37.544  1.00  0.00     0.048 C 
ATOM     28  O   UNL     1      -8.832 -25.746 -37.470  1.00  0.00    -0.550 OA
ATOM     29  O   UNL     1      -8.590 -27.822 -36.560  1.00  0.00    -0.550 OA
ENDBRANCH   1  27
BRANCH   7  30
ATOM     30  C   UNL     1     -12.863 -26.796 -36.420  1.00  0.00    -0.077 C 
ATOM     31  C   UNL     1     -11.988 -26.426 -35.251  1.00  0.00     0.039 C 
ATOM     32  C   UNL     1     -14.150 -26.414 -36.398  1.00  0.00     0.008 C 
ENDBRANCH   7  30
BRANCH  24  33
ATOM     33  O   UNL     1     -12.596 -25.214 -47.005  1.00  0.00    -0.393 OA
ATOM     34  H   UNL     1     -11.809 -25.574 -47.493  1.00  0.00     0.210 HD
ENDBRANCH  24  33
TORSDOF 3
ENDMDL
MODEL 6
REMARK VINA RESULT:    -5.014      1.749      8.318
REMARK INTER + INTRA:          -6.482
REMARK INTER:                  -5.814
REMARK INTRA:                  -0.668
REMARK UNBOUND:                -0.736
REMARK SMILES C=C(C)[C@@H]1CC[C@@]2(C(=O)[O-])CC[C@]3(C)[C@H](CC[C@H]4[C@@]5(C)CC[C@@H](O)C(C)(C)[C@H]5CC[C@@]43C)[C@@H]12
REMARK SMILES IDX 7 1 6 2 33 3 11 4 5 5 15 6 4 7 12 8 16 9 13 10 17 11 31 12
REMARK SMILES IDX 14 13 18 14 30 15 32 16 19 17 29 18 21 19 20 20 28 21 22 22
REMARK SMILES IDX 25 23 23 24 26 25 27 26 8 27 9 28 10 29 2 30 3 31 1 32 24 33
REMARK H PARENT 24 34
REMARK Flexibility Score: inf
ROOT
ATOM      1  C   UNL     1     -12.224 -24.496 -43.511  1.00  0.00     0.014 C 
ATOM      2  C   UNL     1     -13.014 -23.247 -43.078  1.00  0.00     0.014 C 
ATOM      3  C   UNL     1     -13.197 -25.676 -43.123  1.00  0.00     0.012 C 
ATOM      4  C   UNL     1     -10.797 -24.488 -42.850  1.00  0.00     0.014 C 
ATOM      5  C   UNL     1     -14.455 -23.549 -43.439  1.00  0.00     0.009 C 
ATOM      6  C   UNL     1     -12.857 -26.282 -41.729  1.00  0.00     0.000 C 
ATOM      7  C   UNL     1     -14.627 -25.033 -43.119  1.00  0.00     0.018 C 
ATOM      8  C   UNL     1     -10.608 -25.310 -41.555  1.00  0.00     0.008 C 
ATOM      9  C   UNL     1     -13.816 -27.391 -41.226  1.00  0.00     0.005 C 
ATOM     10  C   UNL     1     -11.336 -26.691 -41.574  1.00  0.00    -0.024 C 
ATOM     11  C   UNL     1     -13.614 -27.673 -39.703  1.00  0.00     0.005 C 
ATOM     12  C   UNL     1     -11.105 -27.584 -40.216  1.00  0.00    -0.024 C 
ATOM     13  C   UNL     1     -10.818 -27.483 -42.825  1.00  0.00     0.012 C 
ATOM     14  C   UNL     1     -12.220 -27.199 -39.175  1.00  0.00     0.002 C 
ATOM     15  C   UNL     1      -9.703 -27.386 -39.546  1.00  0.00     0.008 C 
ATOM     16  C   UNL     1     -11.189 -29.125 -40.566  1.00  0.00     0.012 C 
ATOM     17  C   UNL     1     -11.898 -27.398 -37.624  1.00  0.00    -0.026 C 
ATOM     18  C   UNL     1      -9.660 -26.289 -38.473  1.00  0.00     0.005 C 
ATOM     19  C   UNL     1     -11.680 -28.889 -37.244  1.00  0.00     0.010 C 
ATOM     20  C   UNL     1     -13.145 -26.875 -36.846  1.00  0.00     0.012 C 
ATOM     21  C   UNL     1     -10.614 -26.522 -37.238  1.00  0.00     0.003 C 
ATOM     22  C   UNL     1     -11.213 -29.094 -35.806  1.00  0.00     0.033 C 
ATOM     23  C   UNL     1      -9.892 -26.886 -35.842  1.00  0.00    -0.006 C 
ATOM     24  C   UNL     1      -9.847 -28.423 -35.582  1.00  0.00     0.120 C 
ATOM     25  C   UNL     1     -10.618 -26.196 -34.642  1.00  0.00     0.014 C 
ATOM     26  C   UNL     1      -8.434 -26.338 -35.762  1.00  0.00     0.014 C 
ENDROOT
BRANCH   1  27
ATOM     27  C   UNL     1     -12.014 -24.469 -45.025  1.00  0.00     0.048 C 
ATOM     28  O   UNL     1     -12.392 -25.429 -45.750  1.00  0.00    -0.550 OA
ATOM     29  O   UNL     1     -11.501 -23.334 -45.645  1.00  0.00    -0.550 OA
ENDBRANCH   1  27
BRANCH   7  30
ATOM     30  C   UNL     1     -15.614 -25.730 -44.051  1.00  0.00    -0.077 C 
ATOM     31  C   UNL     1     -16.406 -26.932 -43.606  1.00  0.00     0.039 C 
ATOM     32  C   UNL     1     -15.793 -25.277 -45.302  1.00  0.00     0.008 C 
ENDBRANCH   7  30
BRANCH  24  33
ATOM     33  O   UNL     1      -8.884 -29.032 -36.408  1.00  0.00    -0.393 OA
ATOM     34  H   UNL     1      -8.614 -28.359 -37.087  1.00  0.00     0.210 HD
ENDBRANCH  24  33
TORSDOF 3
ENDMDL
MODEL 7
REMARK VINA RESULT:    -4.989      3.345      6.711
REMARK INTER + INTRA:          -6.454
REMARK INTER:                  -5.953
REMARK INTRA:                  -0.501
REMARK UNBOUND:                -0.736
REMARK SMILES C=C(C)[C@@H]1CC[C@@]2(C(=O)[O-])CC[C@]3(C)[C@H](CC[C@H]4[C@@]5(C)CC[C@@H](O)C(C)(C)[C@H]5CC[C@@]43C)[C@@H]12
REMARK SMILES IDX 7 1 6 2 33 3 11 4 5 5 15 6 4 7 12 8 16 9 13 10 17 11 31 12
REMARK SMILES IDX 14 13 18 14 30 15 32 16 19 17 29 18 21 19 20 20 28 21 22 22
REMARK SMILES IDX 25 23 23 24 26 25 27 26 8 27 9 28 10 29 2 30 3 31 1 32 24 33
REMARK H PARENT 24 34
REMARK Flexibility Score: inf
ROOT
ATOM      1  C   UNL     1     -10.039 -26.902 -41.422  1.00  0.00     0.014 C 
ATOM      2  C   UNL     1      -9.938 -28.413 -41.145  1.00  0.00     0.014 C 
ATOM      3  C   UNL     1     -11.524 -26.569 -41.007  1.00  0.00     0.012 C 
ATOM      4  C   UNL     1      -9.615 -26.595 -42.906  1.00  0.00     0.014 C 
ATOM      5  C   UNL     1     -10.719 -28.631 -39.864  1.00  0.00     0.009 C 
ATOM      6  C   UNL     1     -12.490 -26.577 -42.230  1.00  0.00     0.000 C 
ATOM      7  C   UNL     1     -11.914 -27.686 -39.979  1.00  0.00     0.018 C 
ATOM      8  C   UNL     1     -10.743 -26.455 -43.953  1.00  0.00     0.008 C 
ATOM      9  C   UNL     1     -13.988 -26.347 -41.905  1.00  0.00     0.005 C 
ATOM     10  C   UNL     1     -11.992 -25.677 -43.432  1.00  0.00    -0.024 C 
ATOM     11  C   UNL     1     -14.900 -26.726 -43.115  1.00  0.00     0.005 C 
ATOM     12  C   UNL     1     -13.177 -25.491 -44.554  1.00  0.00    -0.024 C 
ATOM     13  C   UNL     1     -11.504 -24.270 -42.939  1.00  0.00     0.012 C 
ATOM     14  C   UNL     1     -14.132 -26.739 -44.477  1.00  0.00     0.002 C 
ATOM     15  C   UNL     1     -12.655 -25.348 -46.024  1.00  0.00     0.008 C 
ATOM     16  C   UNL     1     -13.986 -24.162 -44.265  1.00  0.00     0.012 C 
ATOM     17  C   UNL     1     -14.941 -27.146 -45.791  1.00  0.00    -0.026 C 
ATOM     18  C   UNL     1     -12.546 -26.673 -46.792  1.00  0.00     0.005 C 
ATOM     19  C   UNL     1     -15.960 -26.056 -46.227  1.00  0.00     0.010 C 
ATOM     20  C   UNL     1     -15.736 -28.440 -45.435  1.00  0.00     0.012 C 
ATOM     21  C   UNL     1     -13.905 -27.456 -46.972  1.00  0.00     0.003 C 
ATOM     22  C   UNL     1     -16.631 -26.344 -47.568  1.00  0.00     0.033 C 
ATOM     23  C   UNL     1     -14.510 -27.491 -48.466  1.00  0.00    -0.006 C 
ATOM     24  C   UNL     1     -15.586 -26.386 -48.696  1.00  0.00     0.120 C 
ATOM     25  C   UNL     1     -15.150 -28.884 -48.776  1.00  0.00     0.014 C 
ATOM     26  C   UNL     1     -13.411 -27.333 -49.561  1.00  0.00     0.014 C 
ENDROOT
BRANCH   1  27
ATOM     27  C   UNL     1      -9.063 -26.150 -40.516  1.00  0.00     0.048 C 
ATOM     28  O   UNL     1      -7.823 -26.160 -40.748  1.00  0.00    -0.550 OA
ATOM     29  O   UNL     1      -9.535 -25.347 -39.483  1.00  0.00    -0.550 OA
ENDBRANCH   1  27
BRANCH   7  30
ATOM     30  C   UNL     1     -12.372 -27.142 -38.629  1.00  0.00    -0.077 C 
ATOM     31  C   UNL     1     -13.728 -26.508 -38.452  1.00  0.00     0.039 C 
ATOM     32  C   UNL     1     -11.561 -27.220 -37.562  1.00  0.00     0.008 C 
ENDBRANCH   7  30
BRANCH  24  33
ATOM     33  O   UNL     1     -14.974 -25.124 -48.816  1.00  0.00    -0.393 OA
ATOM     34  H   UNL     1     -14.431 -24.984 -47.996  1.00  0.00     0.210 HD
ENDBRANCH  24  33
TORSDOF 3
ENDMDL
MODEL 8
REMARK VINA RESULT:    -4.950      1.598      8.113
REMARK INTER + INTRA:          -6.410
REMARK INTER:                  -5.714
REMARK INTRA:                  -0.695
REMARK UNBOUND:                -0.736
REMARK SMILES C=C(C)[C@@H]1CC[C@@]2(C(=O)[O-])CC[C@]3(C)[C@H](CC[C@H]4[C@@]5(C)CC[C@@H](O)C(C)(C)[C@H]5CC[C@@]43C)[C@@H]12
REMARK SMILES IDX 7 1 6 2 33 3 11 4 5 5 15 6 4 7 12 8 16 9 13 10 17 11 31 12
REMARK SMILES IDX 14 13 18 14 30 15 32 16 19 17 29 18 21 19 20 20 28 21 22 22
REMARK SMILES IDX 25 23 23 24 26 25 27 26 8 27 9 28 10 29 2 30 3 31 1 32 24 33
REMARK H PARENT 24 34
REMARK Flexibility Score: inf
ROOT
ATOM      1  C   UNL     1     -11.648 -25.926 -41.028  1.00  0.00     0.014 C 
ATOM      2  C   UNL     1     -12.125 -24.481 -41.260  1.00  0.00     0.014 C 
ATOM      3  C   UNL     1     -12.948 -26.641 -40.491  1.00  0.00     0.012 C 
ATOM      4  C   UNL     1     -10.380 -25.934 -40.096  1.00  0.00     0.014 C 
ATOM      5  C   UNL     1     -13.527 -24.614 -41.819  1.00  0.00     0.009 C 
ATOM      6  C   UNL     1     -12.985 -26.697 -38.935  1.00  0.00     0.000 C 
ATOM      7  C   UNL     1     -14.137 -25.785 -41.049  1.00  0.00     0.018 C 
ATOM      8  C   UNL     1     -10.606 -26.192 -38.590  1.00  0.00     0.008 C 
ATOM      9  C   UNL     1     -14.269 -27.304 -38.314  1.00  0.00     0.005 C 
ATOM     10  C   UNL     1     -11.669 -27.296 -38.293  1.00  0.00    -0.024 C 
ATOM     11  C   UNL     1     -14.370 -26.992 -36.788  1.00  0.00     0.005 C 
ATOM     12  C   UNL     1     -11.883 -27.602 -36.694  1.00  0.00    -0.024 C 
ATOM     13  C   UNL     1     -11.212 -28.605 -39.027  1.00  0.00     0.012 C 
ATOM     14  C   UNL     1     -12.991 -26.627 -36.148  1.00  0.00     0.002 C 
ATOM     15  C   UNL     1     -10.591 -27.431 -35.827  1.00  0.00     0.008 C 
ATOM     16  C   UNL     1     -12.329 -29.107 -36.490  1.00  0.00     0.012 C 
ATOM     17  C   UNL     1     -12.959 -26.251 -34.597  1.00  0.00    -0.026 C 
ATOM     18  C   UNL     1     -10.407 -26.029 -35.229  1.00  0.00     0.005 C 
ATOM     19  C   UNL     1     -13.207 -27.479 -33.678  1.00  0.00     0.010 C 
ATOM     20  C   UNL     1     -14.116 -25.230 -34.368  1.00  0.00     0.012 C 
ATOM     21  C   UNL     1     -11.555 -25.561 -34.252  1.00  0.00     0.003 C 
ATOM     22  C   UNL     1     -13.022 -27.182 -32.192  1.00  0.00     0.033 C 
ATOM     23  C   UNL     1     -11.163 -25.473 -32.690  1.00  0.00    -0.006 C 
ATOM     24  C   UNL     1     -11.573 -26.757 -31.904  1.00  0.00     0.120 C 
ATOM     25  C   UNL     1     -11.841 -24.236 -32.014  1.00  0.00     0.014 C 
ATOM     26  C   UNL     1      -9.639 -25.233 -32.467  1.00  0.00     0.014 C 
ENDROOT
BRANCH   1  27
ATOM     27  C   UNL     1     -11.224 -26.545 -42.361  1.00  0.00     0.048 C 
ATOM     28  O   UNL     1     -11.700 -27.647 -42.744  1.00  0.00    -0.550 OA
ATOM     29  O   UNL     1     -10.388 -25.848 -43.227  1.00  0.00    -0.550 OA
ENDBRANCH   1  27
BRANCH   7  30
ATOM     30  C   UNL     1     -15.131 -26.589 -41.881  1.00  0.00    -0.077 C 
ATOM     31  C   UNL     1     -16.310 -25.934 -42.553  1.00  0.00     0.039 C 
ATOM     32  C   UNL     1     -14.970 -27.914 -42.027  1.00  0.00     0.008 C 
ENDBRANCH   7  30
BRANCH  24  33
ATOM     33  O   UNL     1     -10.702 -27.819 -32.213  1.00  0.00    -0.393 OA
ATOM     34  H   UNL     1     -10.481 -28.273 -31.357  1.00  0.00     0.210 HD
ENDBRANCH  24  33
TORSDOF 3
ENDMDL
MODEL 9
REMARK VINA RESULT:    -4.929      5.278      9.440
REMARK INTER + INTRA:          -6.386
REMARK INTER:                  -5.735
REMARK INTRA:                  -0.650
REMARK UNBOUND:                -0.736
REMARK SMILES C=C(C)[C@@H]1CC[C@@]2(C(=O)[O-])CC[C@]3(C)[C@H](CC[C@H]4[C@@]5(C)CC[C@@H](O)C(C)(C)[C@H]5CC[C@@]43C)[C@@H]12
REMARK SMILES IDX 7 1 6 2 33 3 11 4 5 5 15 6 4 7 12 8 16 9 13 10 17 11 31 12
REMARK SMILES IDX 14 13 18 14 30 15 32 16 19 17 29 18 21 19 20 20 28 21 22 22
REMARK SMILES IDX 25 23 23 24 26 25 27 26 8 27 9 28 10 29 2 30 3 31 1 32 24 33
REMARK H PARENT 24 34
REMARK Flexibility Score: inf
ROOT
ATOM      1  C   UNL     1     -12.385 -26.336 -45.823  1.00  0.00     0.014 C 
ATOM      2  C   UNL     1     -12.597 -25.312 -46.953  1.00  0.00     0.014 C 
ATOM      3  C   UNL     1     -13.855 -26.820 -45.510  1.00  0.00     0.012 C 
ATOM      4  C   UNL     1     -11.573 -25.681 -44.645  1.00  0.00     0.014 C 
ATOM      5  C   UNL     1     -13.688 -25.905 -47.822  1.00  0.00     0.009 C 
ATOM      6  C   UNL     1     -14.485 -26.045 -44.315  1.00  0.00     0.000 C 
ATOM      7  C   UNL     1     -14.654 -26.556 -46.833  1.00  0.00     0.018 C 
ATOM      8  C   UNL     1     -12.378 -25.128 -43.448  1.00  0.00     0.008 C 
ATOM      9  C   UNL     1     -15.960 -26.393 -43.992  1.00  0.00     0.005 C 
ATOM     10  C   UNL     1     -13.575 -26.034 -43.021  1.00  0.00    -0.024 C 
ATOM     11  C   UNL     1     -16.602 -25.334 -43.041  1.00  0.00     0.005 C 
ATOM     12  C   UNL     1     -14.409 -25.469 -41.724  1.00  0.00    -0.024 C 
ATOM     13  C   UNL     1     -13.002 -27.459 -42.703  1.00  0.00     0.012 C 
ATOM     14  C   UNL     1     -15.541 -24.508 -42.243  1.00  0.00     0.002 C 
ATOM     15  C   UNL     1     -13.532 -24.696 -40.682  1.00  0.00     0.008 C 
ATOM     16  C   UNL     1     -15.041 -26.679 -40.923  1.00  0.00     0.012 C 
ATOM     17  C   UNL     1     -16.064 -23.365 -41.259  1.00  0.00    -0.026 C 
ATOM     18  C   UNL     1     -13.454 -23.180 -40.916  1.00  0.00     0.005 C 
ATOM     19  C   UNL     1     -16.760 -23.938 -39.993  1.00  0.00     0.010 C 
ATOM     20  C   UNL     1     -17.117 -22.541 -42.062  1.00  0.00     0.012 C 
ATOM     21  C   UNL     1     -14.837 -22.421 -40.851  1.00  0.00     0.003 C 
ATOM     22  C   UNL     1     -17.125 -22.876 -38.959  1.00  0.00     0.033 C 
ATOM     23  C   UNL     1     -15.061 -21.466 -39.571  1.00  0.00    -0.006 C 
ATOM     24  C   UNL     1     -15.859 -22.177 -38.435  1.00  0.00     0.120 C 
ATOM     25  C   UNL     1     -15.821 -20.161 -39.975  1.00  0.00     0.014 C 
ATOM     26  C   UNL     1     -13.720 -20.947 -38.969  1.00  0.00     0.014 C 
ENDROOT
BRANCH   1  27
ATOM     27  C   UNL     1     -11.549 -27.506 -46.343  1.00  0.00     0.048 C 
ATOM     28  O   UNL     1     -11.668 -28.659 -45.846  1.00  0.00    -0.550 OA
ATOM     29  O   UNL     1     -10.722 -27.344 -47.449  1.00  0.00    -0.550 OA
ENDBRANCH   1  27
BRANCH   7  30
ATOM     30  C   UNL     1     -15.331 -27.801 -47.397  1.00  0.00    -0.077 C 
ATOM     31  C   UNL     1     -16.831 -27.905 -47.505  1.00  0.00     0.039 C 
ATOM     32  C   UNL     1     -14.590 -28.841 -47.811  1.00  0.00     0.008 C 
ENDBRANCH   7  30
BRANCH  24  33
ATOM     33  O   UNL     1     -15.043 -23.115 -37.776  1.00  0.00    -0.393 OA
ATOM     34  H   UNL     1     -15.596 -23.534 -37.064  1.00  0.00     0.210 HD
ENDBRANCH  24  33
TORSDOF 3
ENDMDL
