MODEL 1
REMARK VINA RESULT:    -4.404      0.000      0.000
REMARK INTER + INTRA:          -5.313
REMARK INTER:                  -5.305
REMARK INTRA:                  -0.008
REMARK UNBOUND:                -0.008
REMARK SMILES CC[C@H](C)[C@H]([NH3+])C(=O)[O-]
REMARK SMILES IDX 3 1 4 2 5 3 6 4 7 8 8 9 9 10 2 11 1 12
REMARK H PARENT 6 5 6 6 6 7
REMARK Flexibility Score: inf
ROOT
ATOM      1  C   UNL     1      65.198  27.678  36.206  1.00  0.00     0.050 C 
ATOM      2  C   UNL     1      65.314  28.691  35.049  1.00  0.00     0.014 C 
ENDROOT
BRANCH   1   3
ATOM      3  C   UNL     1      65.713  26.256  35.822  1.00  0.00     0.230 C 
BRANCH   3   4
ATOM      4  N   UNL     1      65.116  25.206  36.661  1.00  0.00    -0.350 N 
ATOM      5  H   UNL     1      65.499  25.224  37.633  1.00  0.00     0.345 HD
ATOM      6  H   UNL     1      65.321  24.269  36.244  1.00  0.00     0.345 HD
ATOM      7  H   UNL     1      64.078  25.323  36.699  1.00  0.00     0.345 HD
ENDBRANCH   3   4
BRANCH   3   8
ATOM      8  C   UNL     1      67.220  26.161  35.832  1.00  0.00     0.099 C 
ATOM      9  O   UNL     1      67.920  27.067  36.357  1.00  0.00    -0.544 OA
ATOM     10  O   UNL     1      67.848  25.080  35.225  1.00  0.00    -0.544 OA
ENDBRANCH   3   8
ENDBRANCH   1   3
BRANCH   1  11
ATOM     11  C   UNL     1      63.745  27.606  36.741  1.00  0.00     0.006 C 
ATOM     12  C   UNL     1      62.899  28.819  36.348  1.00  0.00     0.004 C 
ENDBRANCH   1  11
TORSDOF 4
ENDMDL
MODEL 2
REMARK VINA RESULT:    -4.277      1.617      2.159
REMARK INTER + INTRA:          -5.160
REMARK INTER:                  -5.072
REMARK INTRA:                  -0.088
REMARK UNBOUND:                -0.008
REMARK SMILES CC[C@H](C)[C@H]([NH3+])C(=O)[O-]
REMARK SMILES IDX 3 1 4 2 5 3 6 4 7 8 8 9 9 10 2 11 1 12
REMARK H PARENT 6 5 6 6 6 7
REMARK Flexibility Score: inf
ROOT
ATOM      1  C   UNL     1      65.884  26.463  35.649  1.00  0.00     0.050 C 
ATOM      2  C   UNL     1      64.676  25.889  36.416  1.00  0.00     0.014 C 
ENDROOT
BRANCH   1   3
ATOM      3  C   UNL     1      67.244  25.855  36.116  1.00  0.00     0.230 C 
BRANCH   3   4
ATOM      4  N   UNL     1      67.884  26.668  37.161  1.00  0.00    -0.350 N 
ATOM      5  H   UNL     1      68.923  26.562  37.151  1.00  0.00     0.345 HD
ATOM      6  H   UNL     1      67.532  26.368  38.099  1.00  0.00     0.345 HD
ATOM      7  H   UNL     1      67.641  27.677  37.032  1.00  0.00     0.345 HD
ENDBRANCH   3   4
BRANCH   3   8
ATOM      8  C   UNL     1      68.194  25.608  34.968  1.00  0.00     0.099 C 
ATOM      9  O   UNL     1      69.099  26.438  34.688  1.00  0.00    -0.544 OA
ATOM     10  O   UNL     1      68.051  24.467  34.187  1.00  0.00    -0.544 OA
ENDBRANCH   3   8
ENDBRANCH   1   3
BRANCH   1  11
ATOM     11  C   UNL     1      65.920  28.010  35.738  1.00  0.00     0.006 C 
ATOM     12  C   UNL     1      64.606  28.613  36.240  1.00  0.00     0.004 C 
ENDBRANCH   1  11
TORSDOF 4
ENDMDL
MODEL 3
REMARK VINA RESULT:    -4.203     14.410     15.165
REMARK INTER + INTRA:          -5.071
REMARK INTER:                  -4.922
REMARK INTRA:                  -0.150
REMARK UNBOUND:                -0.008
REMARK SMILES CC[C@H](C)[C@H]([NH3+])C(=O)[O-]
REMARK SMILES IDX 3 1 4 2 5 3 6 4 7 8 8 9 9 10 2 11 1 12
REMARK H PARENT 6 5 6 6 6 7
REMARK Flexibility Score: inf
ROOT
ATOM      1  C   UNL     1      59.740  13.472  31.991  1.00  0.00     0.050 C 
ATOM      2  C   UNL     1      60.554  12.717  33.062  1.00  0.00     0.014 C 
ENDROOT
BRANCH   1   3
ATOM      3  C   UNL     1      60.605  14.477  31.168  1.00  0.00     0.230 C 
BRANCH   3   4
ATOM      4  N   UNL     1      60.288  15.876  31.494  1.00  0.00    -0.350 N 
ATOM      5  H   UNL     1      60.068  16.432  30.637  1.00  0.00     0.345 HD
ATOM      6  H   UNL     1      61.109  16.316  31.969  1.00  0.00     0.345 HD
ATOM      7  H   UNL     1      59.475  15.918  32.149  1.00  0.00     0.345 HD
ENDBRANCH   3   4
BRANCH   3   8
ATOM      8  C   UNL     1      60.516  14.237  29.680  1.00  0.00     0.099 C 
ATOM      9  O   UNL     1      60.062  13.154  29.226  1.00  0.00    -0.544 OA
ATOM     10  O   UNL     1      60.972  15.208  28.795  1.00  0.00    -0.544 OA
ENDBRANCH   3   8
ENDBRANCH   1   3
BRANCH   1  11
ATOM     11  C   UNL     1      58.520  14.192  32.620  1.00  0.00     0.006 C 
ATOM     12  C   UNL     1      57.217  13.943  31.857  1.00  0.00     0.004 C 
ENDBRANCH   1  11
TORSDOF 4
ENDMDL
MODEL 4
REMARK VINA RESULT:    -4.025     15.051     15.711
REMARK INTER + INTRA:          -4.857
REMARK INTER:                  -4.712
REMARK INTRA:                  -0.145
REMARK UNBOUND:                -0.008
REMARK SMILES CC[C@H](C)[C@H]([NH3+])C(=O)[O-]
REMARK SMILES IDX 3 1 4 2 5 3 6 4 7 8 8 9 9 10 2 11 1 12
REMARK H PARENT 6 5 6 6 6 7
REMARK Flexibility Score: inf
ROOT
ATOM      1  C   UNL     1      59.855  13.839  30.879  1.00  0.00     0.050 C 
ATOM      2  C   UNL     1      60.524  14.587  29.708  1.00  0.00     0.014 C 
ENDROOT
BRANCH   1   3
ATOM      3  C   UNL     1      58.787  14.703  31.621  1.00  0.00     0.230 C 
BRANCH   3   4
ATOM      4  N   UNL     1      59.377  15.494  32.711  1.00  0.00    -0.350 N 
ATOM      5  H   UNL     1      58.833  15.396  33.598  1.00  0.00     0.345 HD
ATOM      6  H   UNL     1      59.386  16.505  32.442  1.00  0.00     0.345 HD
ATOM      7  H   UNL     1      60.365  15.195  32.880  1.00  0.00     0.345 HD
ENDBRANCH   3   4
BRANCH   3   8
ATOM      8  C   UNL     1      57.621  13.883  32.119  1.00  0.00     0.099 C 
ATOM      9  O   UNL     1      57.574  13.486  33.314  1.00  0.00    -0.544 OA
ATOM     10  O   UNL     1      56.600  13.532  31.244  1.00  0.00    -0.544 OA
ENDBRANCH   3   8
ENDBRANCH   1   3
BRANCH   1  11
ATOM     11  C   UNL     1      60.913  13.304  31.878  1.00  0.00     0.006 C 
ATOM     12  C   UNL     1      60.758  11.810  32.173  1.00  0.00     0.004 C 
ENDBRANCH   1  11
TORSDOF 4
ENDMDL
MODEL 5
REMARK VINA RESULT:    -3.892     15.106     16.034
REMARK INTER + INTRA:          -4.696
REMARK INTER:                  -4.595
REMARK INTRA:                  -0.101
REMARK UNBOUND:                -0.008
REMARK SMILES CC[C@H](C)[C@H]([NH3+])C(=O)[O-]
REMARK SMILES IDX 3 1 4 2 5 3 6 4 7 8 8 9 9 10 2 11 1 12
REMARK H PARENT 6 5 6 6 6 7
REMARK Flexibility Score: inf
ROOT
ATOM      1  C   UNL     1      60.070  13.140  32.757  1.00  0.00     0.050 C 
ATOM      2  C   UNL     1      61.032  12.197  33.508  1.00  0.00     0.014 C 
ENDROOT
BRANCH   1   3
ATOM      3  C   UNL     1      58.585  12.664  32.815  1.00  0.00     0.230 C 
BRANCH   3   4
ATOM      4  N   UNL     1      58.356  11.466  31.994  1.00  0.00    -0.350 N 
ATOM      5  H   UNL     1      57.386  11.442  31.607  1.00  0.00     0.345 HD
ATOM      6  H   UNL     1      58.497  10.610  32.579  1.00  0.00     0.345 HD
ATOM      7  H   UNL     1      59.041  11.433  31.205  1.00  0.00     0.345 HD
ENDBRANCH   3   4
BRANCH   3   8
ATOM      8  C   UNL     1      57.609  13.758  32.455  1.00  0.00     0.099 C 
ATOM      9  O   UNL     1      57.457  14.759  33.204  1.00  0.00    -0.544 OA
ATOM     10  O   UNL     1      56.842  13.648  31.301  1.00  0.00    -0.544 OA
ENDBRANCH   3   8
ENDBRANCH   1   3
BRANCH   1  11
ATOM     11  C   UNL     1      60.520  13.343  31.288  1.00  0.00     0.006 C 
ATOM     12  C   UNL     1      60.594  14.816  30.881  1.00  0.00     0.004 C 
ENDBRANCH   1  11
TORSDOF 4
ENDMDL
MODEL 6
REMARK VINA RESULT:    -3.855     13.474     13.934
REMARK INTER + INTRA:          -4.652
REMARK INTER:                  -4.602
REMARK INTRA:                  -0.050
REMARK UNBOUND:                -0.008
REMARK SMILES CC[C@H](C)[C@H]([NH3+])C(=O)[O-]
REMARK SMILES IDX 3 1 4 2 5 3 6 4 7 8 8 9 9 10 2 11 1 12
REMARK H PARENT 6 5 6 6 6 7
REMARK Flexibility Score: inf
ROOT
ATOM      1  C   UNL     1      57.960  26.294  24.494  1.00  0.00     0.050 C 
ATOM      2  C   UNL     1      59.331  26.832  24.037  1.00  0.00     0.014 C 
ENDROOT
BRANCH   1   3
ATOM      3  C   UNL     1      57.860  24.738  24.410  1.00  0.00     0.230 C 
BRANCH   3   4
ATOM      4  N   UNL     1      56.725  24.214  25.185  1.00  0.00    -0.350 N 
ATOM      5  H   UNL     1      56.575  23.195  25.010  1.00  0.00     0.345 HD
ATOM      6  H   UNL     1      55.854  24.726  24.914  1.00  0.00     0.345 HD
ATOM      7  H   UNL     1      56.885  24.368  26.207  1.00  0.00     0.345 HD
ENDBRANCH   3   4
BRANCH   3   8
ATOM      8  C   UNL     1      59.146  24.051  24.807  1.00  0.00     0.099 C 
ATOM      9  O   UNL     1      59.817  23.401  23.963  1.00  0.00    -0.544 OA
ATOM     10  O   UNL     1      59.579  24.106  26.127  1.00  0.00    -0.544 OA
ENDBRANCH   3   8
ENDBRANCH   1   3
BRANCH   1  11
ATOM     11  C   UNL     1      56.806  26.957  23.700  1.00  0.00     0.006 C 
ATOM     12  C   UNL     1      57.091  28.414  23.330  1.00  0.00     0.004 C 
ENDBRANCH   1  11
TORSDOF 4
ENDMDL
MODEL 7
REMARK VINA RESULT:    -3.752     13.451     13.881
REMARK INTER + INTRA:          -4.528
REMARK INTER:                  -4.460
REMARK INTRA:                  -0.068
REMARK UNBOUND:                -0.008
REMARK SMILES CC[C@H](C)[C@H]([NH3+])C(=O)[O-]
REMARK SMILES IDX 3 1 4 2 5 3 6 4 7 8 8 9 9 10 2 11 1 12
REMARK H PARENT 6 5 6 6 6 7
REMARK Flexibility Score: inf
ROOT
ATOM      1  C   UNL     1      59.246  25.477  23.481  1.00  0.00     0.050 C 
ATOM      2  C   UNL     1      58.950  25.537  21.969  1.00  0.00     0.014 C 
ENDROOT
BRANCH   1   3
ATOM      3  C   UNL     1      58.486  24.320  24.202  1.00  0.00     0.230 C 
BRANCH   3   4
ATOM      4  N   UNL     1      57.288  24.801  24.907  1.00  0.00    -0.350 N 
ATOM      5  H   UNL     1      56.416  24.596  24.369  1.00  0.00     0.345 HD
ATOM      6  H   UNL     1      57.356  25.836  25.042  1.00  0.00     0.345 HD
ATOM      7  H   UNL     1      57.222  24.355  25.850  1.00  0.00     0.345 HD
ENDBRANCH   3   4
BRANCH   3   8
ATOM      8  C   UNL     1      59.377  23.530  25.132  1.00  0.00     0.099 C 
ATOM      9  O   UNL     1      59.783  24.028  26.215  1.00  0.00    -0.544 OA
ATOM     10  O   UNL     1      59.785  22.250  24.775  1.00  0.00    -0.544 OA
ENDBRANCH   3   8
ENDBRANCH   1   3
BRANCH   1  11
ATOM     11  C   UNL     1      58.947  26.835  24.164  1.00  0.00     0.006 C 
ATOM     12  C   UNL     1      58.191  27.809  23.258  1.00  0.00     0.004 C 
ENDBRANCH   1  11
TORSDOF 4
ENDMDL
MODEL 8
REMARK VINA RESULT:    -3.740     15.397     16.205
REMARK INTER + INTRA:          -4.514
REMARK INTER:                  -4.427
REMARK INTRA:                  -0.087
REMARK UNBOUND:                -0.008
REMARK SMILES CC[C@H](C)[C@H]([NH3+])C(=O)[O-]
REMARK SMILES IDX 3 1 4 2 5 3 6 4 7 8 8 9 9 10 2 11 1 12
REMARK H PARENT 6 5 6 6 6 7
REMARK Flexibility Score: inf
ROOT
ATOM      1  C   UNL     1      59.469  12.356  33.090  1.00  0.00     0.050 C 
ATOM      2  C   UNL     1      58.877  11.022  32.591  1.00  0.00     0.014 C 
ENDROOT
BRANCH   1   3
ATOM      3  C   UNL     1      59.185  13.546  32.121  1.00  0.00     0.230 C 
BRANCH   3   4
ATOM      4  N   UNL     1      60.137  14.651  32.308  1.00  0.00    -0.350 N 
ATOM      5  H   UNL     1      60.025  15.104  33.243  1.00  0.00     0.345 HD
ATOM      6  H   UNL     1      59.978  15.376  31.571  1.00  0.00     0.345 HD
ATOM      7  H   UNL     1      61.118  14.301  32.212  1.00  0.00     0.345 HD
ENDBRANCH   3   4
BRANCH   3   8
ATOM      8  C   UNL     1      57.761  14.041  32.210  1.00  0.00     0.099 C 
ATOM      9  O   UNL     1      57.382  14.747  33.182  1.00  0.00    -0.544 OA
ATOM     10  O   UNL     1      56.844  13.688  31.226  1.00  0.00    -0.544 OA
ENDBRANCH   3   8
ENDBRANCH   1   3
BRANCH   1  11
ATOM     11  C   UNL     1      60.988  12.226  33.364  1.00  0.00     0.006 C 
ATOM     12  C   UNL     1      61.305  11.406  34.617  1.00  0.00     0.004 C 
ENDBRANCH   1  11
TORSDOF 4
ENDMDL
MODEL 9
REMARK VINA RESULT:    -3.684     14.544     15.050
REMARK INTER + INTRA:          -4.446
REMARK INTER:                  -4.344
REMARK INTRA:                  -0.102
REMARK UNBOUND:                -0.008
REMARK SMILES CC[C@H](C)[C@H]([NH3+])C(=O)[O-]
REMARK SMILES IDX 3 1 4 2 5 3 6 4 7 8 8 9 9 10 2 11 1 12
REMARK H PARENT 6 5 6 6 6 7
REMARK Flexibility Score: inf
ROOT
ATOM      1  C   UNL     1      58.071  25.859  23.875  1.00  0.00     0.050 C 
ATOM      2  C   UNL     1      57.059  24.717  24.096  1.00  0.00     0.014 C 
ENDROOT
BRANCH   1   3
ATOM      3  C   UNL     1      58.455  26.048  22.374  1.00  0.00     0.230 C 
BRANCH   3   4
ATOM      4  N   UNL     1      59.615  25.227  21.993  1.00  0.00    -0.350 N 
ATOM      5  H   UNL     1      60.506  25.771  22.045  1.00  0.00     0.345 HD
ATOM      6  H   UNL     1      59.494  24.889  21.011  1.00  0.00     0.345 HD
ATOM      7  H   UNL     1      59.686  24.391  22.617  1.00  0.00     0.345 HD
ENDBRANCH   3   4
BRANCH   3   8
ATOM      8  C   UNL     1      58.676  27.496  22.007  1.00  0.00     0.099 C 
ATOM      9  O   UNL     1      58.226  28.421  22.733  1.00  0.00    -0.544 OA
ATOM     10  O   UNL     1      59.354  27.816  20.837  1.00  0.00    -0.544 OA
ENDBRANCH   3   8
ENDBRANCH   1   3
BRANCH   1  11
ATOM     11  C   UNL     1      59.341  25.658  24.741  1.00  0.00     0.006 C 
ATOM     12  C   UNL     1      59.289  24.390  25.596  1.00  0.00     0.004 C 
ENDBRANCH   1  11
TORSDOF 4
ENDMDL
