MODEL 1
REMARK VINA RESULT:    -4.185      0.000      0.000
REMARK INTER + INTRA:          -7.535
REMARK INTER:                  -7.121
REMARK INTRA:                  -0.414
REMARK UNBOUND:                -0.414
REMARK SMILES CCCCCCCCCCCCCC(=O)[O-]
REMARK SMILES IDX 8 1 9 2 10 3 11 4 12 5 13 6 14 7 15 8 16 9 7 10 6 11 5 12
REMARK SMILES IDX 4 13 3 14 2 15 1 16
REMARK H PARENT
REMARK Flexibility Score: inf
ROOT
ATOM      1  C   UNL     1      -3.196  36.726  20.036  1.00  0.00     0.000 C 
ENDROOT
BRANCH   1   2
ATOM      2  C   UNL     1      -4.591  37.376  20.021  1.00  0.00     0.000 C 
BRANCH   2   3
ATOM      3  C   UNL     1      -5.710  36.377  20.361  1.00  0.00     0.000 C 
BRANCH   3   4
ATOM      4  C   UNL     1      -5.229  35.251  21.291  1.00  0.00     0.000 C 
BRANCH   4   5
ATOM      5  C   UNL     1      -6.125  35.073  22.531  1.00  0.00     0.006 C 
BRANCH   5   6
ATOM      6  C   UNL     1      -6.120  36.280  23.486  1.00  0.00     0.053 C 
BRANCH   6   7
ATOM      7  C   UNL     1      -5.978  35.880  24.923  1.00  0.00     0.041 C 
ATOM      8  O   UNL     1      -6.121  34.677  25.266  1.00  0.00    -0.550 OA
ATOM      9  O   UNL     1      -5.653  36.833  25.881  1.00  0.00    -0.550 OA
ENDBRANCH   6   7
ENDBRANCH   5   6
ENDBRANCH   4   5
ENDBRANCH   3   4
ENDBRANCH   2   3
ENDBRANCH   1   2
BRANCH   1  10
ATOM     10  C   UNL     1      -2.130  37.608  19.365  1.00  0.00     0.000 C 
BRANCH  10  11
ATOM     11  C   UNL     1      -2.113  37.454  17.834  1.00  0.00    -0.000 C 
BRANCH  11  12
ATOM     12  C   UNL     1      -3.266  36.578  17.315  1.00  0.00    -0.000 C 
BRANCH  12  13
ATOM     13  C   UNL     1      -2.901  35.671  16.123  1.00  0.00    -0.000 C 
BRANCH  13  14
ATOM     14  C   UNL     1      -2.642  36.442  14.810  1.00  0.00    -0.000 C 
BRANCH  14  15
ATOM     15  C   UNL     1      -3.944  36.842  14.102  1.00  0.00    -0.003 C 
ATOM     16  C   UNL     1      -4.269  38.315  14.334  1.00  0.00     0.004 C 
ENDBRANCH  14  15
ENDBRANCH  13  14
ENDBRANCH  12  13
ENDBRANCH  11  12
ENDBRANCH  10  11
ENDBRANCH   1  10
TORSDOF 12
ENDMDL
MODEL 2
REMARK VINA RESULT:    -4.033      4.191      8.178
REMARK INTER + INTRA:          -7.275
REMARK INTER:                  -6.627
REMARK INTRA:                  -0.649
REMARK UNBOUND:                -0.414
REMARK SMILES CCCCCCCCCCCCCC(=O)[O-]
REMARK SMILES IDX 8 1 9 2 10 3 11 4 12 5 13 6 14 7 15 8 16 9 7 10 6 11 5 12
REMARK SMILES IDX 4 13 3 14 2 15 1 16
REMARK H PARENT
REMARK Flexibility Score: inf
ROOT
ATOM      1  C   UNL     1      -3.192  36.902  20.140  1.00  0.00     0.000 C 
ENDROOT
BRANCH   1   2
ATOM      2  C   UNL     1      -2.402  37.552  18.990  1.00  0.00     0.000 C 
BRANCH   2   3
ATOM      3  C   UNL     1      -3.006  37.240  17.611  1.00  0.00     0.000 C 
BRANCH   3   4
ATOM      4  C   UNL     1      -2.021  36.499  16.692  1.00  0.00     0.000 C 
BRANCH   4   5
ATOM      5  C   UNL     1      -2.710  35.826  15.490  1.00  0.00     0.006 C 
BRANCH   5   6
ATOM      6  C   UNL     1      -2.836  36.731  14.252  1.00  0.00     0.053 C 
BRANCH   6   7
ATOM      7  C   UNL     1      -4.160  37.430  14.178  1.00  0.00     0.041 C 
ATOM      8  O   UNL     1      -5.201  36.789  13.875  1.00  0.00    -0.550 OA
ATOM      9  O   UNL     1      -4.249  38.784  14.477  1.00  0.00    -0.550 OA
ENDBRANCH   6   7
ENDBRANCH   5   6
ENDBRANCH   4   5
ENDBRANCH   3   4
ENDBRANCH   2   3
ENDBRANCH   1   2
BRANCH   1  10
ATOM     10  C   UNL     1      -4.552  36.352  19.680  1.00  0.00     0.000 C 
BRANCH  10  11
ATOM     11  C   UNL     1      -5.456  35.949  20.858  1.00  0.00    -0.000 C 
BRANCH  11  12
ATOM     12  C   UNL     1      -4.824  34.861  21.744  1.00  0.00    -0.000 C 
BRANCH  12  13
ATOM     13  C   UNL     1      -5.467  34.708  23.136  1.00  0.00    -0.000 C 
BRANCH  13  14
ATOM     14  C   UNL     1      -6.078  36.015  23.687  1.00  0.00    -0.000 C 
BRANCH  14  15
ATOM     15  C   UNL     1      -6.119  36.038  25.222  1.00  0.00    -0.003 C 
ATOM     16  C   UNL     1      -4.999  36.904  25.791  1.00  0.00     0.004 C 
ENDBRANCH  14  15
ENDBRANCH  13  14
ENDBRANCH  12  13
ENDBRANCH  11  12
ENDBRANCH  10  11
ENDBRANCH   1  10
TORSDOF 12
ENDMDL
MODEL 3
REMARK VINA RESULT:    -3.387      1.188      1.481
REMARK INTER + INTRA:          -6.177
REMARK INTER:                  -5.444
REMARK INTRA:                  -0.733
REMARK UNBOUND:                -0.414
REMARK SMILES CCCCCCCCCCCCCC(=O)[O-]
REMARK SMILES IDX 8 1 9 2 10 3 11 4 12 5 13 6 14 7 15 8 16 9 7 10 6 11 5 12
REMARK SMILES IDX 4 13 3 14 2 15 1 16
REMARK H PARENT
REMARK Flexibility Score: inf
ROOT
ATOM      1  C   UNL     1      -3.835  35.663  20.030  1.00  0.00     0.000 C 
ENDROOT
BRANCH   1   2
ATOM      2  C   UNL     1      -5.340  35.395  19.846  1.00  0.00     0.000 C 
BRANCH   2   3
ATOM      3  C   UNL     1      -6.125  35.515  21.163  1.00  0.00     0.000 C 
BRANCH   3   4
ATOM      4  C   UNL     1      -5.388  34.867  22.347  1.00  0.00     0.000 C 
BRANCH   4   5
ATOM      5  C   UNL     1      -6.093  35.105  23.696  1.00  0.00     0.006 C 
BRANCH   5   6
ATOM      6  C   UNL     1      -5.140  35.492  24.841  1.00  0.00     0.053 C 
BRANCH   6   7
ATOM      7  C   UNL     1      -5.216  36.947  25.191  1.00  0.00     0.041 C 
ATOM      8  O   UNL     1      -4.817  37.353  26.315  1.00  0.00    -0.550 OA
ATOM      9  O   UNL     1      -5.698  37.862  24.263  1.00  0.00    -0.550 OA
ENDBRANCH   6   7
ENDBRANCH   5   6
ENDBRANCH   4   5
ENDBRANCH   3   4
ENDBRANCH   2   3
ENDBRANCH   1   2
BRANCH   1  10
ATOM     10  C   UNL     1      -3.434  37.081  19.591  1.00  0.00     0.000 C 
BRANCH  10  11
ATOM     11  C   UNL     1      -3.451  37.253  18.062  1.00  0.00    -0.000 C 
BRANCH  11  12
ATOM     12  C   UNL     1      -2.123  36.837  17.405  1.00  0.00    -0.000 C 
BRANCH  12  13
ATOM     13  C   UNL     1      -2.268  35.868  16.215  1.00  0.00    -0.000 C 
BRANCH  13  14
ATOM     14  C   UNL     1      -2.410  36.577  14.850  1.00  0.00    -0.000 C 
BRANCH  14  15
ATOM     15  C   UNL     1      -3.876  36.716  14.414  1.00  0.00    -0.003 C 
ATOM     16  C   UNL     1      -4.267  38.183  14.253  1.00  0.00     0.004 C 
ENDBRANCH  14  15
ENDBRANCH  13  14
ENDBRANCH  12  13
ENDBRANCH  11  12
ENDBRANCH  10  11
ENDBRANCH   1  10
TORSDOF 12
ENDMDL
MODEL 4
REMARK VINA RESULT:    -3.223      2.361      3.251
REMARK INTER + INTRA:          -5.899
REMARK INTER:                  -5.159
REMARK INTRA:                  -0.739
REMARK UNBOUND:                -0.414
REMARK SMILES CCCCCCCCCCCCCC(=O)[O-]
REMARK SMILES IDX 8 1 9 2 10 3 11 4 12 5 13 6 14 7 15 8 16 9 7 10 6 11 5 12
REMARK SMILES IDX 4 13 3 14 2 15 1 16
REMARK H PARENT
REMARK Flexibility Score: inf
ROOT
ATOM      1  C   UNL     1      -6.010  34.651  19.073  1.00  0.00     0.000 C 
ENDROOT
BRANCH   1   2
ATOM      2  C   UNL     1      -5.881  35.093  20.541  1.00  0.00     0.000 C 
BRANCH   2   3
ATOM      3  C   UNL     1      -4.554  35.818  20.823  1.00  0.00     0.000 C 
BRANCH   3   4
ATOM      4  C   UNL     1      -4.619  37.316  20.484  1.00  0.00     0.000 C 
BRANCH   4   5
ATOM      5  C   UNL     1      -5.951  37.969  20.900  1.00  0.00     0.006 C 
BRANCH   5   6
ATOM      6  C   UNL     1      -5.915  39.507  20.921  1.00  0.00     0.053 C 
BRANCH   6   7
ATOM      7  C   UNL     1      -5.772  40.065  22.304  1.00  0.00     0.041 C 
ATOM      8  O   UNL     1      -5.317  39.349  23.235  1.00  0.00    -0.550 OA
ATOM      9  O   UNL     1      -6.110  41.388  22.559  1.00  0.00    -0.550 OA
ENDBRANCH   6   7
ENDBRANCH   5   6
ENDBRANCH   4   5
ENDBRANCH   3   4
ENDBRANCH   2   3
ENDBRANCH   1   2
BRANCH   1  10
ATOM     10  C   UNL     1      -4.648  34.337  18.432  1.00  0.00     0.000 C 
BRANCH  10  11
ATOM     11  C   UNL     1      -4.348  35.230  17.216  1.00  0.00    -0.000 C 
BRANCH  11  12
ATOM     12  C   UNL     1      -3.386  36.383  17.550  1.00  0.00    -0.000 C 
BRANCH  12  13
ATOM     13  C   UNL     1      -2.742  37.061  16.324  1.00  0.00    -0.000 C 
BRANCH  13  14
ATOM     14  C   UNL     1      -2.820  36.218  15.033  1.00  0.00    -0.000 C 
BRANCH  14  15
ATOM     15  C   UNL     1      -3.888  36.738  14.060  1.00  0.00    -0.003 C 
ATOM     16  C   UNL     1      -4.204  38.208  14.323  1.00  0.00     0.004 C 
ENDBRANCH  14  15
ENDBRANCH  13  14
ENDBRANCH  12  13
ENDBRANCH  11  12
ENDBRANCH  10  11
ENDBRANCH   1  10
TORSDOF 12
ENDMDL
MODEL 5
REMARK VINA RESULT:    -3.128      4.315      7.742
REMARK INTER + INTRA:          -5.737
REMARK INTER:                  -4.895
REMARK INTRA:                  -0.842
REMARK UNBOUND:                -0.414
REMARK SMILES CCCCCCCCCCCCCC(=O)[O-]
REMARK SMILES IDX 8 1 9 2 10 3 11 4 12 5 13 6 14 7 15 8 16 9 7 10 6 11 5 12
REMARK SMILES IDX 4 13 3 14 2 15 1 16
REMARK H PARENT
REMARK Flexibility Score: inf
ROOT
ATOM      1  C   UNL     1      -4.274  35.197  21.331  1.00  0.00     0.000 C 
ENDROOT
BRANCH   1   2
ATOM      2  C   UNL     1      -5.347  35.535  20.281  1.00  0.00     0.000 C 
BRANCH   2   3
ATOM      3  C   UNL     1      -4.746  35.827  18.896  1.00  0.00     0.000 C 
BRANCH   3   4
ATOM      4  C   UNL     1      -3.692  36.946  18.937  1.00  0.00     0.000 C 
BRANCH   4   5
ATOM      5  C   UNL     1      -2.878  37.053  17.634  1.00  0.00     0.006 C 
BRANCH   5   6
ATOM      6  C   UNL     1      -3.340  36.091  16.525  1.00  0.00     0.053 C 
BRANCH   6   7
ATOM      7  C   UNL     1      -3.291  36.711  15.162  1.00  0.00     0.041 C 
ATOM      8  O   UNL     1      -4.093  37.632  14.853  1.00  0.00    -0.550 OA
ATOM      9  O   UNL     1      -2.335  36.296  14.243  1.00  0.00    -0.550 OA
ENDBRANCH   6   7
ENDBRANCH   5   6
ENDBRANCH   4   5
ENDBRANCH   3   4
ENDBRANCH   2   3
ENDBRANCH   1   2
BRANCH   1  10
ATOM     10  C   UNL     1      -4.846  34.416  22.525  1.00  0.00     0.000 C 
BRANCH  10  11
ATOM     11  C   UNL     1      -6.124  35.057  23.092  1.00  0.00    -0.000 C 
BRANCH  11  12
ATOM     12  C   UNL     1      -5.950  35.546  24.540  1.00  0.00    -0.000 C 
BRANCH  12  13
ATOM     13  C   UNL     1      -5.765  37.069  24.689  1.00  0.00    -0.000 C 
BRANCH  13  14
ATOM     14  C   UNL     1      -5.852  37.840  23.354  1.00  0.00    -0.000 C 
BRANCH  14  15
ATOM     15  C   UNL     1      -5.330  39.280  23.477  1.00  0.00    -0.003 C 
ATOM     16  C   UNL     1      -5.690  40.104  22.244  1.00  0.00     0.004 C 
ENDBRANCH  14  15
ENDBRANCH  13  14
ENDBRANCH  12  13
ENDBRANCH  11  12
ENDBRANCH  10  11
ENDBRANCH   1  10
TORSDOF 12
ENDMDL
MODEL 6
REMARK VINA RESULT:    -3.105      2.342      2.856
REMARK INTER + INTRA:          -5.698
REMARK INTER:                  -5.175
REMARK INTRA:                  -0.522
REMARK UNBOUND:                -0.414
REMARK SMILES CCCCCCCCCCCCCC(=O)[O-]
REMARK SMILES IDX 8 1 9 2 10 3 11 4 12 5 13 6 14 7 15 8 16 9 7 10 6 11 5 12
REMARK SMILES IDX 4 13 3 14 2 15 1 16
REMARK H PARENT
REMARK Flexibility Score: inf
ROOT
ATOM      1  C   UNL     1      -4.372  35.687  19.021  1.00  0.00     0.000 C 
ENDROOT
BRANCH   1   2
ATOM      2  C   UNL     1      -5.657  35.561  19.858  1.00  0.00     0.000 C 
BRANCH   2   3
ATOM      3  C   UNL     1      -5.376  35.138  21.309  1.00  0.00     0.000 C 
BRANCH   3   4
ATOM      4  C   UNL     1      -5.770  36.224  22.325  1.00  0.00     0.000 C 
BRANCH   4   5
ATOM      5  C   UNL     1      -5.983  37.604  21.675  1.00  0.00     0.006 C 
BRANCH   5   6
ATOM      6  C   UNL     1      -5.006  38.686  22.169  1.00  0.00     0.053 C 
BRANCH   6   7
ATOM      7  C   UNL     1      -5.673  40.010  22.391  1.00  0.00     0.041 C 
ATOM      8  O   UNL     1      -5.799  40.470  23.557  1.00  0.00    -0.550 OA
ATOM      9  O   UNL     1      -6.125  40.752  21.308  1.00  0.00    -0.550 OA
ENDBRANCH   6   7
ENDBRANCH   5   6
ENDBRANCH   4   5
ENDBRANCH   3   4
ENDBRANCH   2   3
ENDBRANCH   1   2
BRANCH   1  10
ATOM     10  C   UNL     1      -3.484  36.855  19.482  1.00  0.00     0.000 C 
BRANCH  10  11
ATOM     11  C   UNL     1      -2.446  37.262  18.421  1.00  0.00    -0.000 C 
BRANCH  11  12
ATOM     12  C   UNL     1      -2.962  37.074  16.985  1.00  0.00    -0.000 C 
BRANCH  12  13
ATOM     13  C   UNL     1      -1.999  36.321  16.046  1.00  0.00    -0.000 C 
BRANCH  13  14
ATOM     14  C   UNL     1      -2.492  36.237  14.585  1.00  0.00    -0.000 C 
BRANCH  14  15
ATOM     15  C   UNL     1      -3.998  36.513  14.461  1.00  0.00    -0.003 C 
ATOM     16  C   UNL     1      -4.261  37.964  14.067  1.00  0.00     0.004 C 
ENDBRANCH  14  15
ENDBRANCH  13  14
ENDBRANCH  12  13
ENDBRANCH  11  12
ENDBRANCH  10  11
ENDBRANCH   1  10
TORSDOF 12
ENDMDL
MODEL 7
REMARK VINA RESULT:    -3.034      1.209      2.502
REMARK INTER + INTRA:          -5.576
REMARK INTER:                  -4.907
REMARK INTRA:                  -0.669
REMARK UNBOUND:                -0.414
REMARK SMILES CCCCCCCCCCCCCC(=O)[O-]
REMARK SMILES IDX 8 1 9 2 10 3 11 4 12 5 13 6 14 7 15 8 16 9 7 10 6 11 5 12
REMARK SMILES IDX 4 13 3 14 2 15 1 16
REMARK H PARENT
REMARK Flexibility Score: inf
ROOT
ATOM      1  C   UNL     1      -2.233  37.682  18.135  1.00  0.00     0.000 C 
ENDROOT
BRANCH   1   2
ATOM      2  C   UNL     1      -1.970  37.292  19.600  1.00  0.00     0.000 C 
BRANCH   2   3
ATOM      3  C   UNL     1      -3.255  37.279  20.445  1.00  0.00     0.000 C 
BRANCH   3   4
ATOM      4  C   UNL     1      -4.475  36.782  19.651  1.00  0.00     0.000 C 
BRANCH   4   5
ATOM      5  C   UNL     1      -5.741  36.644  20.518  1.00  0.00     0.006 C 
BRANCH   5   6
ATOM      6  C   UNL     1      -5.869  35.286  21.230  1.00  0.00     0.053 C 
BRANCH   6   7
ATOM      7  C   UNL     1      -5.720  35.394  22.717  1.00  0.00     0.041 C 
ATOM      8  O   UNL     1      -6.075  36.443  23.317  1.00  0.00    -0.550 OA
ATOM      9  O   UNL     1      -5.220  34.322  23.446  1.00  0.00    -0.550 OA
ENDBRANCH   6   7
ENDBRANCH   5   6
ENDBRANCH   4   5
ENDBRANCH   3   4
ENDBRANCH   2   3
ENDBRANCH   1   2
BRANCH   1  10
ATOM     10  C   UNL     1      -2.027  36.504  17.168  1.00  0.00     0.000 C 
BRANCH  10  11
ATOM     11  C   UNL     1      -3.312  36.135  16.407  1.00  0.00    -0.000 C 
BRANCH  11  12
ATOM     12  C   UNL     1      -3.031  35.631  14.980  1.00  0.00    -0.000 C 
BRANCH  12  13
ATOM     13  C   UNL     1      -3.212  36.691  13.875  1.00  0.00    -0.000 C 
BRANCH  13  14
ATOM     14  C   UNL     1      -4.528  37.491  13.989  1.00  0.00    -0.000 C 
BRANCH  14  15
ATOM     15  C   UNL     1      -4.282  38.985  14.244  1.00  0.00    -0.003 C 
ATOM     16  C   UNL     1      -5.534  39.808  13.951  1.00  0.00     0.004 C 
ENDBRANCH  14  15
ENDBRANCH  13  14
ENDBRANCH  12  13
ENDBRANCH  11  12
ENDBRANCH  10  11
ENDBRANCH   1  10
TORSDOF 12
ENDMDL
MODEL 8
REMARK VINA RESULT:    -2.968      4.274      7.544
REMARK INTER + INTRA:          -5.463
REMARK INTER:                  -4.935
REMARK INTRA:                  -0.529
REMARK UNBOUND:                -0.414
REMARK SMILES CCCCCCCCCCCCCC(=O)[O-]
REMARK SMILES IDX 8 1 9 2 10 3 11 4 12 5 13 6 14 7 15 8 16 9 7 10 6 11 5 12
REMARK SMILES IDX 4 13 3 14 2 15 1 16
REMARK H PARENT
REMARK Flexibility Score: inf
ROOT
ATOM      1  C   UNL     1      -3.417  37.333  19.316  1.00  0.00     0.000 C 
ENDROOT
BRANCH   1   2
ATOM      2  C   UNL     1      -1.935  37.616  19.010  1.00  0.00     0.000 C 
BRANCH   2   3
ATOM      3  C   UNL     1      -1.475  36.982  17.687  1.00  0.00     0.000 C 
BRANCH   3   4
ATOM      4  C   UNL     1      -2.624  36.836  16.675  1.00  0.00     0.000 C 
BRANCH   4   5
ATOM      5  C   UNL     1      -2.243  35.982  15.452  1.00  0.00     0.006 C 
BRANCH   5   6
ATOM      6  C   UNL     1      -2.685  36.582  14.106  1.00  0.00     0.053 C 
BRANCH   6   7
ATOM      7  C   UNL     1      -4.011  37.276  14.189  1.00  0.00     0.041 C 
ATOM      8  O   UNL     1      -5.070  36.662  13.892  1.00  0.00    -0.550 OA
ATOM      9  O   UNL     1      -4.081  38.592  14.627  1.00  0.00    -0.550 OA
ENDBRANCH   6   7
ENDBRANCH   5   6
ENDBRANCH   4   5
ENDBRANCH   3   4
ENDBRANCH   2   3
ENDBRANCH   1   2
BRANCH   1  10
ATOM     10  C   UNL     1      -3.605  36.098  20.213  1.00  0.00     0.000 C 
BRANCH  10  11
ATOM     11  C   UNL     1      -4.843  35.271  19.827  1.00  0.00    -0.000 C 
BRANCH  11  12
ATOM     12  C   UNL     1      -6.074  35.609  20.686  1.00  0.00    -0.000 C 
BRANCH  12  13
ATOM     13  C   UNL     1      -5.805  35.667  22.203  1.00  0.00    -0.000 C 
BRANCH  13  14
ATOM     14  C   UNL     1      -5.892  37.090  22.797  1.00  0.00    -0.000 C 
BRANCH  14  15
ATOM     15  C   UNL     1      -5.853  38.178  21.713  1.00  0.00    -0.003 C 
ATOM     16  C   UNL     1      -5.553  39.547  22.317  1.00  0.00     0.004 C 
ENDBRANCH  14  15
ENDBRANCH  13  14
ENDBRANCH  12  13
ENDBRANCH  11  12
ENDBRANCH  10  11
ENDBRANCH   1  10
TORSDOF 12
ENDMDL
MODEL 9
REMARK VINA RESULT:    -2.662      2.544      4.182
REMARK INTER + INTRA:          -4.944
REMARK INTER:                  -4.109
REMARK INTRA:                  -0.835
REMARK UNBOUND:                -0.414
REMARK SMILES CCCCCCCCCCCCCC(=O)[O-]
REMARK SMILES IDX 8 1 9 2 10 3 11 4 12 5 13 6 14 7 15 8 16 9 7 10 6 11 5 12
REMARK SMILES IDX 4 13 3 14 2 15 1 16
REMARK H PARENT
REMARK Flexibility Score: inf
ROOT
ATOM      1  C   UNL     1      -5.010  34.524  22.808  1.00  0.00     0.000 C 
ENDROOT
BRANCH   1   2
ATOM      2  C   UNL     1      -6.125  35.329  23.500  1.00  0.00     0.000 C 
BRANCH   2   3
ATOM      3  C   UNL     1      -5.738  35.769  24.921  1.00  0.00     0.000 C 
BRANCH   3   4
ATOM      4  C   UNL     1      -5.409  37.269  25.003  1.00  0.00     0.000 C 
BRANCH   4   5
ATOM      5  C   UNL     1      -5.892  38.058  23.771  1.00  0.00     0.006 C 
BRANCH   5   6
ATOM      6  C   UNL     1      -5.374  39.506  23.712  1.00  0.00     0.053 C 
BRANCH   6   7
ATOM      7  C   UNL     1      -5.789  40.218  22.460  1.00  0.00     0.041 C 
ATOM      8  O   UNL     1      -5.901  39.587  21.376  1.00  0.00    -0.550 OA
ATOM      9  O   UNL     1      -6.087  41.575  22.498  1.00  0.00    -0.550 OA
ENDBRANCH   6   7
ENDBRANCH   5   6
ENDBRANCH   4   5
ENDBRANCH   3   4
ENDBRANCH   2   3
ENDBRANCH   1   2
BRANCH   1  10
ATOM     10  C   UNL     1      -4.408  35.269  21.606  1.00  0.00     0.000 C 
BRANCH  10  11
ATOM     11  C   UNL     1      -5.314  35.217  20.363  1.00  0.00    -0.000 C 
BRANCH  11  12
ATOM     12  C   UNL     1      -4.676  35.891  19.137  1.00  0.00    -0.000 C 
BRANCH  12  13
ATOM     13  C   UNL     1      -3.485  36.816  19.455  1.00  0.00    -0.000 C 
BRANCH  13  14
ATOM     14  C   UNL     1      -2.651  37.206  18.215  1.00  0.00    -0.000 C 
BRANCH  14  15
ATOM     15  C   UNL     1      -3.207  36.594  16.921  1.00  0.00    -0.003 C 
ATOM     16  C   UNL     1      -2.143  36.554  15.828  1.00  0.00     0.004 C 
ENDBRANCH  14  15
ENDBRANCH  13  14
ENDBRANCH  12  13
ENDBRANCH  11  12
ENDBRANCH  10  11
ENDBRANCH   1  10
TORSDOF 12
ENDMDL
