MODEL 1
REMARK VINA RESULT:    -2.536      0.000      0.000
REMARK INTER + INTRA:          -7.935
REMARK INTER:                  -4.907
REMARK INTRA:                  -3.028
REMARK UNBOUND:                -3.028
REMARK SMILES CCCCCCCCCCCCCCCCCC(=O)[O-]
REMARK SMILES IDX 10 1 11 2 12 3 13 4 14 5 15 6 16 7 17 8 18 9 19 10 20 11
REMARK SMILES IDX 9 12 8 13 7 14 6 15 5 16 4 17 3 18 2 19 1 20
REMARK H PARENT
REMARK Flexibility Score: inf
ROOT
ATOM      1  C   UNL     1       6.663 -16.988  18.699  1.00  0.00     0.000 C 
ENDROOT
BRANCH   1   2
ATOM      2  C   UNL     1       8.015 -16.440  18.216  1.00  0.00     0.000 C 
BRANCH   2   3
ATOM      3  C   UNL     1       8.820 -15.773  19.346  1.00  0.00     0.000 C 
BRANCH   3   4
ATOM      4  C   UNL     1      10.164 -16.472  19.606  1.00  0.00     0.000 C 
BRANCH   4   5
ATOM      5  C   UNL     1      11.235 -15.516  20.154  1.00  0.00     0.000 C 
BRANCH   5   6
ATOM      6  C   UNL     1      12.479 -16.287  20.608  1.00  0.00     0.000 C 
BRANCH   6   7
ATOM      7  C   UNL     1      12.098 -17.468  21.512  1.00  0.00     0.006 C 
BRANCH   7   8
ATOM      8  C   UNL     1      12.823 -18.760  21.118  1.00  0.00     0.053 C 
BRANCH   8   9
ATOM      9  C   UNL     1      13.483 -19.408  22.297  1.00  0.00     0.041 C 
ATOM     10  O   UNL     1      13.021 -20.479  22.774  1.00  0.00    -0.550 OA
ATOM     11  O   UNL     1      14.587 -18.811  22.891  1.00  0.00    -0.550 OA
ENDBRANCH   8   9
ENDBRANCH   7   8
ENDBRANCH   6   7
ENDBRANCH   5   6
ENDBRANCH   4   5
ENDBRANCH   3   4
ENDBRANCH   2   3
ENDBRANCH   1   2
BRANCH   1  12
ATOM     12  C   UNL     1       6.595 -18.522  18.656  1.00  0.00     0.000 C 
BRANCH  12  13
ATOM     13  C   UNL     1       7.912 -19.116  18.140  1.00  0.00    -0.000 C 
BRANCH  13  14
ATOM     14  C   UNL     1       8.337 -20.325  18.981  1.00  0.00    -0.000 C 
BRANCH  14  15
ATOM     15  C   UNL     1       7.980 -20.118  20.461  1.00  0.00    -0.000 C 
BRANCH  15  16
ATOM     16  C   UNL     1       9.167 -19.611  21.300  1.00  0.00    -0.000 C 
BRANCH  16  17
ATOM     17  C   UNL     1       8.786 -18.681  22.467  1.00  0.00    -0.000 C 
BRANCH  17  18
ATOM     18  C   UNL     1       7.470 -17.922  22.220  1.00  0.00    -0.000 C 
BRANCH  18  19
ATOM     19  C   UNL     1       7.538 -16.460  22.688  1.00  0.00    -0.003 C 
ATOM     20  C   UNL     1       8.941 -16.049  23.136  1.00  0.00     0.004 C 
ENDBRANCH  18  19
ENDBRANCH  17  18
ENDBRANCH  16  17
ENDBRANCH  15  16
ENDBRANCH  14  15
ENDBRANCH  13  14
ENDBRANCH  12  13
ENDBRANCH   1  12
TORSDOF 16
ENDMDL
MODEL 2
REMARK VINA RESULT:    -2.526      1.491      3.339
REMARK INTER + INTRA:          -7.917
REMARK INTER:                  -4.885
REMARK INTRA:                  -3.032
REMARK UNBOUND:                -3.028
REMARK SMILES CCCCCCCCCCCCCCCCCC(=O)[O-]
REMARK SMILES IDX 10 1 11 2 12 3 13 4 14 5 15 6 16 7 17 8 18 9 19 10 20 11
REMARK SMILES IDX 9 12 8 13 7 14 6 15 5 16 4 17 3 18 2 19 1 20
REMARK H PARENT
REMARK Flexibility Score: inf
ROOT
ATOM      1  C   UNL     1       8.262 -20.503  19.380  1.00  0.00     0.000 C 
ENDROOT
BRANCH   1   2
ATOM      2  C   UNL     1       8.069 -19.383  18.346  1.00  0.00     0.000 C 
BRANCH   2   3
ATOM      3  C   UNL     1       9.396 -18.714  17.945  1.00  0.00     0.000 C 
BRANCH   3   4
ATOM      4  C   UNL     1      10.623 -19.455  18.503  1.00  0.00     0.000 C 
BRANCH   4   5
ATOM      5  C   UNL     1      11.541 -18.543  19.332  1.00  0.00     0.000 C 
BRANCH   5   6
ATOM      6  C   UNL     1      10.919 -18.234  20.698  1.00  0.00     0.000 C 
BRANCH   6   7
ATOM      7  C   UNL     1      11.380 -19.246  21.756  1.00  0.00     0.006 C 
BRANCH   7   8
ATOM      8  C   UNL     1      12.905 -19.410  21.777  1.00  0.00     0.053 C 
BRANCH   8   9
ATOM      9  C   UNL     1      13.591 -18.163  22.245  1.00  0.00     0.041 C 
ATOM     10  O   UNL     1      14.427 -17.582  21.503  1.00  0.00    -0.550 OA
ATOM     11  O   UNL     1      13.333 -17.662  23.515  1.00  0.00    -0.550 OA
ENDBRANCH   8   9
ENDBRANCH   7   8
ENDBRANCH   6   7
ENDBRANCH   5   6
ENDBRANCH   4   5
ENDBRANCH   3   4
ENDBRANCH   2   3
ENDBRANCH   1   2
BRANCH   1  12
ATOM     12  C   UNL     1       7.570 -20.200  20.719  1.00  0.00     0.000 C 
BRANCH  12  13
ATOM     13  C   UNL     1       7.016 -18.770  20.738  1.00  0.00    -0.000 C 
BRANCH  13  14
ATOM     14  C   UNL     1       7.582 -17.976  21.921  1.00  0.00    -0.000 C 
BRANCH  14  15
ATOM     15  C   UNL     1       7.637 -16.475  21.600  1.00  0.00    -0.000 C 
BRANCH  15  16
ATOM     16  C   UNL     1       7.601 -16.182  20.089  1.00  0.00    -0.000 C 
BRANCH  16  17
ATOM     17  C   UNL     1       8.809 -15.392  19.553  1.00  0.00    -0.000 C 
BRANCH  17  18
ATOM     18  C   UNL     1       9.665 -14.776  20.674  1.00  0.00    -0.000 C 
BRANCH  18  19
ATOM     19  C   UNL     1      10.926 -14.082  20.137  1.00  0.00    -0.003 C 
ATOM     20  C   UNL     1      12.208 -14.842  20.476  1.00  0.00     0.004 C 
ENDBRANCH  18  19
ENDBRANCH  17  18
ENDBRANCH  16  17
ENDBRANCH  15  16
ENDBRANCH  14  15
ENDBRANCH  13  14
ENDBRANCH  12  13
ENDBRANCH   1  12
TORSDOF 16
ENDMDL
MODEL 3
REMARK VINA RESULT:    -2.520      3.574      4.907
REMARK INTER + INTRA:          -7.905
REMARK INTER:                  -5.596
REMARK INTRA:                  -2.309
REMARK UNBOUND:                -3.028
REMARK SMILES CCCCCCCCCCCCCCCCCC(=O)[O-]
REMARK SMILES IDX 10 1 11 2 12 3 13 4 14 5 15 6 16 7 17 8 18 9 19 10 20 11
REMARK SMILES IDX 9 12 8 13 7 14 6 15 5 16 4 17 3 18 2 19 1 20
REMARK H PARENT
REMARK Flexibility Score: inf
ROOT
ATOM      1  C   UNL     1       7.394 -15.575  18.874  1.00  0.00     0.000 C 
ENDROOT
BRANCH   1   2
ATOM      2  C   UNL     1       8.877 -15.740  19.240  1.00  0.00     0.000 C 
BRANCH   2   3
ATOM      3  C   UNL     1       9.162 -15.414  20.716  1.00  0.00     0.000 C 
BRANCH   3   4
ATOM      4  C   UNL     1      10.657 -15.184  20.993  1.00  0.00     0.000 C 
BRANCH   4   5
ATOM      5  C   UNL     1      11.506 -15.188  19.712  1.00  0.00     0.000 C 
BRANCH   5   6
ATOM      6  C   UNL     1      12.752 -14.311  19.876  1.00  0.00     0.000 C 
BRANCH   6   7
ATOM      7  C   UNL     1      12.419 -12.830  19.643  1.00  0.00     0.006 C 
BRANCH   7   8
ATOM      8  C   UNL     1      12.982 -11.928  20.748  1.00  0.00     0.053 C 
BRANCH   8   9
ATOM      9  C   UNL     1      12.855 -10.476  20.398  1.00  0.00     0.041 C 
ATOM     10  O   UNL     1      13.006  -9.594  21.283  1.00  0.00    -0.550 OA
ATOM     11  O   UNL     1      12.534 -10.100  19.100  1.00  0.00    -0.550 OA
ENDBRANCH   8   9
ENDBRANCH   7   8
ENDBRANCH   6   7
ENDBRANCH   5   6
ENDBRANCH   4   5
ENDBRANCH   3   4
ENDBRANCH   2   3
ENDBRANCH   1   2
BRANCH   1  12
ATOM     12  C   UNL     1       6.907 -16.636  17.875  1.00  0.00     0.000 C 
BRANCH  12  13
ATOM     13  C   UNL     1       5.901 -17.589  18.534  1.00  0.00    -0.000 C 
BRANCH  13  14
ATOM     14  C   UNL     1       6.584 -18.885  18.985  1.00  0.00    -0.000 C 
BRANCH  14  15
ATOM     15  C   UNL     1       7.861 -19.145  18.172  1.00  0.00    -0.000 C 
BRANCH  15  16
ATOM     16  C   UNL     1       9.049 -19.590  19.045  1.00  0.00    -0.000 C 
BRANCH  16  17
ATOM     17  C   UNL     1       8.936 -19.213  20.534  1.00  0.00    -0.000 C 
BRANCH  17  18
ATOM     18  C   UNL     1      10.304 -18.953  21.189  1.00  0.00    -0.000 C 
BRANCH  18  19
ATOM     19  C   UNL     1      11.433 -18.812  20.157  1.00  0.00    -0.003 C 
ATOM     20  C   UNL     1      12.789 -18.525  20.802  1.00  0.00     0.004 C 
ENDBRANCH  18  19
ENDBRANCH  17  18
ENDBRANCH  16  17
ENDBRANCH  15  16
ENDBRANCH  14  15
ENDBRANCH  13  14
ENDBRANCH  12  13
ENDBRANCH   1  12
TORSDOF 16
ENDMDL
MODEL 4
REMARK VINA RESULT:    -2.519      1.423      3.433
REMARK INTER + INTRA:          -7.902
REMARK INTER:                  -5.228
REMARK INTRA:                  -2.675
REMARK UNBOUND:                -3.028
REMARK SMILES CCCCCCCCCCCCCCCCCC(=O)[O-]
REMARK SMILES IDX 10 1 11 2 12 3 13 4 14 5 15 6 16 7 17 8 18 9 19 10 20 11
REMARK SMILES IDX 9 12 8 13 7 14 6 15 5 16 4 17 3 18 2 19 1 20
REMARK H PARENT
REMARK Flexibility Score: inf
ROOT
ATOM      1  C   UNL     1       6.065 -18.878  21.321  1.00  0.00     0.000 C 
ENDROOT
BRANCH   1   2
ATOM      2  C   UNL     1       7.001 -20.043  20.963  1.00  0.00     0.000 C 
BRANCH   2   3
ATOM      3  C   UNL     1       8.391 -19.565  20.510  1.00  0.00     0.000 C 
BRANCH   3   4
ATOM      4  C   UNL     1       8.667 -19.871  19.028  1.00  0.00     0.000 C 
BRANCH   4   5
ATOM      5  C   UNL     1       9.983 -19.253  18.529  1.00  0.00     0.000 C 
BRANCH   5   6
ATOM      6  C   UNL     1      10.691 -18.489  19.653  1.00  0.00     0.000 C 
BRANCH   6   7
ATOM      7  C   UNL     1      12.130 -18.990  19.840  1.00  0.00     0.006 C 
BRANCH   7   8
ATOM      8  C   UNL     1      12.834 -18.311  21.022  1.00  0.00     0.053 C 
BRANCH   8   9
ATOM      9  C   UNL     1      13.203 -19.297  22.088  1.00  0.00     0.041 C 
ATOM     10  O   UNL     1      14.320 -19.220  22.665  1.00  0.00    -0.550 OA
ATOM     11  O   UNL     1      12.326 -20.321  22.421  1.00  0.00    -0.550 OA
ENDBRANCH   8   9
ENDBRANCH   7   8
ENDBRANCH   6   7
ENDBRANCH   5   6
ENDBRANCH   4   5
ENDBRANCH   3   4
ENDBRANCH   2   3
ENDBRANCH   1   2
BRANCH   1  12
ATOM     12  C   UNL     1       4.797 -18.846  20.453  1.00  0.00     0.000 C 
BRANCH  12  13
ATOM     13  C   UNL     1       5.136 -18.495  18.999  1.00  0.00    -0.000 C 
BRANCH  13  14
ATOM     14  C   UNL     1       5.560 -17.027  18.872  1.00  0.00    -0.000 C 
BRANCH  14  15
ATOM     15  C   UNL     1       6.793 -16.888  17.966  1.00  0.00    -0.000 C 
BRANCH  15  16
ATOM     16  C   UNL     1       7.955 -16.139  18.644  1.00  0.00    -0.000 C 
BRANCH  16  17
ATOM     17  C   UNL     1       7.730 -15.803  20.130  1.00  0.00    -0.000 C 
BRANCH  17  18
ATOM     18  C   UNL     1       9.045 -15.583  20.898  1.00  0.00    -0.000 C 
BRANCH  18  19
ATOM     19  C   UNL     1      10.099 -14.843  20.060  1.00  0.00    -0.003 C 
ATOM     20  C   UNL     1      10.126 -13.340  20.339  1.00  0.00     0.004 C 
ENDBRANCH  18  19
ENDBRANCH  17  18
ENDBRANCH  16  17
ENDBRANCH  15  16
ENDBRANCH  14  15
ENDBRANCH  13  14
ENDBRANCH  12  13
ENDBRANCH   1  12
TORSDOF 16
ENDMDL
MODEL 5
REMARK VINA RESULT:    -2.503      2.207      3.974
REMARK INTER + INTRA:          -7.872
REMARK INTER:                  -5.030
REMARK INTRA:                  -2.842
REMARK UNBOUND:                -3.028
REMARK SMILES CCCCCCCCCCCCCCCCCC(=O)[O-]
REMARK SMILES IDX 10 1 11 2 12 3 13 4 14 5 15 6 16 7 17 8 18 9 19 10 20 11
REMARK SMILES IDX 9 12 8 13 7 14 6 15 5 16 4 17 3 18 2 19 1 20
REMARK H PARENT
REMARK Flexibility Score: inf
ROOT
ATOM      1  C   UNL     1       8.132 -19.605  22.430  1.00  0.00     0.000 C 
ENDROOT
BRANCH   1   2
ATOM      2  C   UNL     1       9.408 -20.392  22.767  1.00  0.00     0.000 C 
BRANCH   2   3
ATOM      3  C   UNL     1      10.687 -19.668  22.312  1.00  0.00     0.000 C 
BRANCH   3   4
ATOM      4  C   UNL     1      11.966 -20.344  22.832  1.00  0.00     0.000 C 
BRANCH   4   5
ATOM      5  C   UNL     1      13.245 -19.622  22.380  1.00  0.00     0.000 C 
BRANCH   5   6
ATOM      6  C   UNL     1      12.940 -18.604  21.276  1.00  0.00     0.000 C 
BRANCH   6   7
ATOM      7  C   UNL     1      13.929 -17.431  21.318  1.00  0.00     0.006 C 
BRANCH   7   8
ATOM      8  C   UNL     1      13.256 -16.117  21.736  1.00  0.00     0.053 C 
BRANCH   8   9
ATOM      9  C   UNL     1      13.237 -15.122  20.616  1.00  0.00     0.041 C 
ATOM     10  O   UNL     1      13.118 -15.511  19.424  1.00  0.00    -0.550 OA
ATOM     11  O   UNL     1      13.386 -13.768  20.886  1.00  0.00    -0.550 OA
ENDBRANCH   8   9
ENDBRANCH   7   8
ENDBRANCH   6   7
ENDBRANCH   5   6
ENDBRANCH   4   5
ENDBRANCH   3   4
ENDBRANCH   2   3
ENDBRANCH   1   2
BRANCH   1  12
ATOM     12  C   UNL     1       7.282 -20.288  21.346  1.00  0.00     0.000 C 
BRANCH  12  13
ATOM     13  C   UNL     1       6.561 -19.249  20.478  1.00  0.00    -0.000 C 
BRANCH  13  14
ATOM     14  C   UNL     1       7.117 -19.244  19.050  1.00  0.00    -0.000 C 
BRANCH  14  15
ATOM     15  C   UNL     1       8.377 -20.118  18.947  1.00  0.00    -0.000 C 
BRANCH  15  16
ATOM     16  C   UNL     1       9.656 -19.300  18.694  1.00  0.00    -0.000 C 
BRANCH  16  17
ATOM     17  C   UNL     1       9.443 -17.778  18.590  1.00  0.00    -0.000 C 
BRANCH  17  18
ATOM     18  C   UNL     1      10.058 -17.006  19.771  1.00  0.00    -0.000 C 
BRANCH  18  19
ATOM     19  C   UNL     1       8.992 -16.411  20.703  1.00  0.00    -0.003 C 
ATOM     20  C   UNL     1       9.526 -16.130  22.108  1.00  0.00     0.004 C 
ENDBRANCH  18  19
ENDBRANCH  17  18
ENDBRANCH  16  17
ENDBRANCH  15  16
ENDBRANCH  14  15
ENDBRANCH  13  14
ENDBRANCH  12  13
ENDBRANCH   1  12
TORSDOF 16
ENDMDL
MODEL 6
REMARK VINA RESULT:    -2.501      2.103      3.629
REMARK INTER + INTRA:          -7.868
REMARK INTER:                  -4.809
REMARK INTRA:                  -3.059
REMARK UNBOUND:                -3.028
REMARK SMILES CCCCCCCCCCCCCCCCCC(=O)[O-]
REMARK SMILES IDX 10 1 11 2 12 3 13 4 14 5 15 6 16 7 17 8 18 9 19 10 20 11
REMARK SMILES IDX 9 12 8 13 7 14 6 15 5 16 4 17 3 18 2 19 1 20
REMARK H PARENT
REMARK Flexibility Score: inf
ROOT
ATOM      1  C   UNL     1       7.343 -19.066  20.911  1.00  0.00     0.000 C 
ENDROOT
BRANCH   1   2
ATOM      2  C   UNL     1       7.980 -17.697  21.199  1.00  0.00     0.000 C 
BRANCH   2   3
ATOM      3  C   UNL     1       7.164 -16.531  20.614  1.00  0.00     0.000 C 
BRANCH   3   4
ATOM      4  C   UNL     1       7.796 -15.949  19.338  1.00  0.00     0.000 C 
BRANCH   4   5
ATOM      5  C   UNL     1       9.287 -15.618  19.512  1.00  0.00     0.000 C 
BRANCH   5   6
ATOM      6  C   UNL     1       9.472 -14.226  20.127  1.00  0.00     0.000 C 
BRANCH   6   7
ATOM      7  C   UNL     1      10.910 -14.030  20.627  1.00  0.00     0.006 C 
BRANCH   7   8
ATOM      8  C   UNL     1      11.920 -14.872  19.837  1.00  0.00     0.053 C 
BRANCH   8   9
ATOM      9  C   UNL     1      13.282 -14.834  20.460  1.00  0.00     0.041 C 
ATOM     10  O   UNL     1      13.991 -15.875  20.500  1.00  0.00    -0.550 OA
ATOM     11  O   UNL     1      13.755 -13.658  21.027  1.00  0.00    -0.550 OA
ENDBRANCH   8   9
ENDBRANCH   7   8
ENDBRANCH   6   7
ENDBRANCH   5   6
ENDBRANCH   4   5
ENDBRANCH   3   4
ENDBRANCH   2   3
ENDBRANCH   1   2
BRANCH   1  12
ATOM     12  C   UNL     1       8.205 -19.940  19.988  1.00  0.00     0.000 C 
BRANCH  12  13
ATOM     13  C   UNL     1       8.062 -19.500  18.525  1.00  0.00    -0.000 C 
BRANCH  13  14
ATOM     14  C   UNL     1       9.390 -18.961  17.980  1.00  0.00    -0.000 C 
BRANCH  14  15
ATOM     15  C   UNL     1      10.583 -19.615  18.694  1.00  0.00    -0.000 C 
BRANCH  15  16
ATOM     16  C   UNL     1      11.592 -18.588  19.240  1.00  0.00    -0.000 C 
BRANCH  16  17
ATOM     17  C   UNL     1      12.100 -18.874  20.665  1.00  0.00    -0.000 C 
BRANCH  17  18
ATOM     18  C   UNL     1      11.421 -17.994  21.729  1.00  0.00    -0.000 C 
BRANCH  18  19
ATOM     19  C   UNL     1      11.108 -18.768  23.019  1.00  0.00    -0.003 C 
ATOM     20  C   UNL     1      10.665 -20.207  22.752  1.00  0.00     0.004 C 
ENDBRANCH  18  19
ENDBRANCH  17  18
ENDBRANCH  16  17
ENDBRANCH  15  16
ENDBRANCH  14  15
ENDBRANCH  13  14
ENDBRANCH  12  13
ENDBRANCH   1  12
TORSDOF 16
ENDMDL
MODEL 7
REMARK VINA RESULT:    -2.474      1.978      3.327
REMARK INTER + INTRA:          -7.816
REMARK INTER:                  -5.032
REMARK INTRA:                  -2.784
REMARK UNBOUND:                -3.028
REMARK SMILES CCCCCCCCCCCCCCCCCC(=O)[O-]
REMARK SMILES IDX 10 1 11 2 12 3 13 4 14 5 15 6 16 7 17 8 18 9 19 10 20 11
REMARK SMILES IDX 9 12 8 13 7 14 6 15 5 16 4 17 3 18 2 19 1 20
REMARK H PARENT
REMARK Flexibility Score: inf
ROOT
ATOM      1  C   UNL     1       7.882 -18.663  19.084  1.00  0.00     0.000 C 
ENDROOT
BRANCH   1   2
ATOM      2  C   UNL     1       7.882 -17.714  17.875  1.00  0.00     0.000 C 
BRANCH   2   3
ATOM      3  C   UNL     1       7.820 -16.233  18.286  1.00  0.00     0.000 C 
BRANCH   3   4
ATOM      4  C   UNL     1       8.397 -15.984  19.689  1.00  0.00     0.000 C 
BRANCH   4   5
ATOM      5  C   UNL     1       9.861 -15.520  19.656  1.00  0.00     0.000 C 
BRANCH   5   6
ATOM      6  C   UNL     1      10.003 -14.109  20.237  1.00  0.00     0.000 C 
BRANCH   6   7
ATOM      7  C   UNL     1      11.425 -13.567  20.030  1.00  0.00     0.006 C 
BRANCH   7   8
ATOM      8  C   UNL     1      12.423 -14.676  19.673  1.00  0.00     0.053 C 
BRANCH   8   9
ATOM      9  C   UNL     1      13.383 -14.940  20.793  1.00  0.00     0.041 C 
ATOM     10  O   UNL     1      13.369 -14.218  21.824  1.00  0.00    -0.550 OA
ATOM     11  O   UNL     1      14.317 -15.963  20.682  1.00  0.00    -0.550 OA
ENDBRANCH   8   9
ENDBRANCH   7   8
ENDBRANCH   6   7
ENDBRANCH   5   6
ENDBRANCH   4   5
ENDBRANCH   3   4
ENDBRANCH   2   3
ENDBRANCH   1   2
BRANCH   1  12
ATOM     12  C   UNL     1       9.083 -19.622  19.087  1.00  0.00     0.000 C 
BRANCH  12  13
ATOM     13  C   UNL     1      10.216 -19.085  18.204  1.00  0.00    -0.000 C 
BRANCH  13  14
ATOM     14  C   UNL     1      11.577 -19.267  18.883  1.00  0.00    -0.000 C 
BRANCH  14  15
ATOM     15  C   UNL     1      11.679 -18.405  20.151  1.00  0.00    -0.000 C 
BRANCH  15  16
ATOM     16  C   UNL     1      12.096 -19.211  21.394  1.00  0.00    -0.000 C 
BRANCH  16  17
ATOM     17  C   UNL     1      11.342 -18.847  22.686  1.00  0.00    -0.000 C 
BRANCH  17  18
ATOM     18  C   UNL     1      10.266 -17.769  22.467  1.00  0.00    -0.000 C 
BRANCH  18  19
ATOM     19  C   UNL     1       8.841 -18.316  22.646  1.00  0.00    -0.003 C 
ATOM     20  C   UNL     1       8.810 -19.833  22.835  1.00  0.00     0.004 C 
ENDBRANCH  18  19
ENDBRANCH  17  18
ENDBRANCH  16  17
ENDBRANCH  15  16
ENDBRANCH  14  15
ENDBRANCH  13  14
ENDBRANCH  12  13
ENDBRANCH   1  12
TORSDOF 16
ENDMDL
MODEL 8
REMARK VINA RESULT:    -2.457      4.097      6.759
REMARK INTER + INTRA:          -7.783
REMARK INTER:                  -4.957
REMARK INTRA:                  -2.826
REMARK UNBOUND:                -3.028
REMARK SMILES CCCCCCCCCCCCCCCCCC(=O)[O-]
REMARK SMILES IDX 10 1 11 2 12 3 13 4 14 5 15 6 16 7 17 8 18 9 19 10 20 11
REMARK SMILES IDX 9 12 8 13 7 14 6 15 5 16 4 17 3 18 2 19 1 20
REMARK H PARENT
REMARK Flexibility Score: inf
ROOT
ATOM      1  C   UNL     1       9.160 -18.594  19.007  1.00  0.00     0.000 C 
ENDROOT
BRANCH   1   2
ATOM      2  C   UNL     1       8.443 -19.950  18.918  1.00  0.00     0.000 C 
BRANCH   2   3
ATOM      3  C   UNL     1       8.037 -20.496  20.298  1.00  0.00     0.000 C 
BRANCH   3   4
ATOM      4  C   UNL     1       7.473 -19.404  21.222  1.00  0.00     0.000 C 
BRANCH   4   5
ATOM      5  C   UNL     1       5.942 -19.292  21.145  1.00  0.00     0.000 C 
BRANCH   5   6
ATOM      6  C   UNL     1       5.521 -17.994  20.447  1.00  0.00     0.000 C 
BRANCH   6   7
ATOM      7  C   UNL     1       5.112 -18.258  18.991  1.00  0.00     0.006 C 
BRANCH   7   8
ATOM      8  C   UNL     1       3.827 -17.514  18.604  1.00  0.00     0.053 C 
BRANCH   8   9
ATOM      9  C   UNL     1       2.633 -18.419  18.630  1.00  0.00     0.041 C 
ATOM     10  O   UNL     1       2.770 -19.642  18.897  1.00  0.00    -0.550 OA
ATOM     11  O   UNL     1       1.374 -17.918  18.326  1.00  0.00    -0.550 OA
ENDBRANCH   8   9
ENDBRANCH   7   8
ENDBRANCH   6   7
ENDBRANCH   5   6
ENDBRANCH   4   5
ENDBRANCH   3   4
ENDBRANCH   2   3
ENDBRANCH   1   2
BRANCH   1  12
ATOM     12  C   UNL     1       8.682 -17.598  17.938  1.00  0.00     0.000 C 
BRANCH  12  13
ATOM     13  C   UNL     1       8.205 -16.290  18.581  1.00  0.00    -0.000 C 
BRANCH  13  14
ATOM     14  C   UNL     1       8.766 -16.137  19.999  1.00  0.00    -0.000 C 
BRANCH  14  15
ATOM     15  C   UNL     1       9.793 -14.997  20.064  1.00  0.00    -0.000 C 
BRANCH  15  16
ATOM     16  C   UNL     1      11.239 -15.477  19.838  1.00  0.00    -0.000 C 
BRANCH  16  17
ATOM     17  C   UNL     1      11.954 -15.995  21.100  1.00  0.00    -0.000 C 
BRANCH  17  18
ATOM     18  C   UNL     1      12.030 -17.531  21.155  1.00  0.00    -0.000 C 
BRANCH  18  19
ATOM     19  C   UNL     1      11.074 -18.130  22.198  1.00  0.00    -0.003 C 
ATOM     20  C   UNL     1      11.132 -19.657  22.245  1.00  0.00     0.004 C 
ENDBRANCH  18  19
ENDBRANCH  17  18
ENDBRANCH  16  17
ENDBRANCH  15  16
ENDBRANCH  14  15
ENDBRANCH  13  14
ENDBRANCH  12  13
ENDBRANCH   1  12
TORSDOF 16
ENDMDL
MODEL 9
REMARK VINA RESULT:    -2.294      1.791      3.653
REMARK INTER + INTRA:          -7.468
REMARK INTER:                  -4.449
REMARK INTRA:                  -3.019
REMARK UNBOUND:                -3.028
REMARK SMILES CCCCCCCCCCCCCCCCCC(=O)[O-]
REMARK SMILES IDX 10 1 11 2 12 3 13 4 14 5 15 6 16 7 17 8 18 9 19 10 20 11
REMARK SMILES IDX 9 12 8 13 7 14 6 15 5 16 4 17 3 18 2 19 1 20
REMARK H PARENT
REMARK Flexibility Score: inf
ROOT
ATOM      1  C   UNL     1       8.344 -20.377  19.520  1.00  0.00     0.000 C 
ENDROOT
BRANCH   1   2
ATOM      2  C   UNL     1       7.379 -20.030  20.664  1.00  0.00     0.000 C 
BRANCH   2   3
ATOM      3  C   UNL     1       7.983 -20.305  22.052  1.00  0.00     0.000 C 
BRANCH   3   4
ATOM      4  C   UNL     1       8.956 -19.203  22.502  1.00  0.00     0.000 C 
BRANCH   4   5
ATOM      5  C   UNL     1      10.112 -19.744  23.359  1.00  0.00     0.000 C 
BRANCH   5   6
ATOM      6  C   UNL     1      11.385 -19.910  22.522  1.00  0.00     0.000 C 
BRANCH   6   7
ATOM      7  C   UNL     1      12.489 -18.958  23.003  1.00  0.00     0.006 C 
BRANCH   7   8
ATOM      8  C   UNL     1      13.596 -18.776  21.957  1.00  0.00     0.053 C 
BRANCH   8   9
ATOM      9  C   UNL     1      13.977 -17.336  21.796  1.00  0.00     0.041 C 
ATOM     10  O   UNL     1      13.244 -16.429  22.271  1.00  0.00    -0.550 OA
ATOM     11  O   UNL     1      15.125 -16.994  21.093  1.00  0.00    -0.550 OA
ENDBRANCH   8   9
ENDBRANCH   7   8
ENDBRANCH   6   7
ENDBRANCH   5   6
ENDBRANCH   4   5
ENDBRANCH   3   4
ENDBRANCH   2   3
ENDBRANCH   1   2
BRANCH   1  12
ATOM     12  C   UNL     1       8.109 -19.524  18.264  1.00  0.00     0.000 C 
BRANCH  12  13
ATOM     13  C   UNL     1       9.335 -18.656  17.953  1.00  0.00    -0.000 C 
BRANCH  13  14
ATOM     14  C   UNL     1      10.440 -18.871  18.993  1.00  0.00    -0.000 C 
BRANCH  14  15
ATOM     15  C   UNL     1      10.749 -17.568  19.745  1.00  0.00    -0.000 C 
BRANCH  15  16
ATOM     16  C   UNL     1       9.756 -16.437  19.420  1.00  0.00    -0.000 C 
BRANCH  16  17
ATOM     17  C   UNL     1       8.834 -16.029  20.584  1.00  0.00    -0.000 C 
BRANCH  17  18
ATOM     18  C   UNL     1       7.360 -16.395  20.335  1.00  0.00    -0.000 C 
BRANCH  18  19
ATOM     19  C   UNL     1       6.895 -16.029  18.918  1.00  0.00    -0.003 C 
ATOM     20  C   UNL     1       5.639 -16.791  18.494  1.00  0.00     0.004 C 
ENDBRANCH  18  19
ENDBRANCH  17  18
ENDBRANCH  16  17
ENDBRANCH  15  16
ENDBRANCH  14  15
ENDBRANCH  13  14
ENDBRANCH  12  13
ENDBRANCH   1  12
TORSDOF 16
ENDMDL
