MODEL 1
REMARK VINA RESULT:    -5.457      0.000      0.000
REMARK INTER + INTRA:          -6.009
REMARK INTER:                  -6.095
REMARK INTRA:                   0.086
REMARK UNBOUND:                 0.086
REMARK SMILES COc1cc2ccc(=O)oc2c(O)c1O
REMARK SMILES IDX 3 1 14 2 12 3 11 4 5 5 4 6 6 7 7 8 8 9 9 10 10 11 2 12 1 13
REMARK SMILES IDX 15 14 13 16
REMARK H PARENT 15 15 13 17
REMARK Flexibility Score: inf
ROOT
ATOM      1  C   UNL     1      -3.647   9.214   0.528  1.00  0.00     0.165 A 
ATOM      2  C   UNL     1      -3.622   7.971  -0.123  1.00  0.00     0.204 A 
ATOM      3  C   UNL     1      -2.417   7.255  -0.249  1.00  0.00     0.205 A 
ATOM      4  C   UNL     1      -1.230   7.787   0.281  1.00  0.00     0.184 A 
ATOM      5  C   UNL     1      -1.253   9.037   0.936  1.00  0.00     0.025 A 
ATOM      6  C   UNL     1      -2.456   9.744   1.058  1.00  0.00     0.062 A 
ATOM      7  C   UNL     1      -0.055   9.543   1.454  1.00  0.00     0.020 A 
ATOM      8  C   UNL     1       1.118   8.806   1.311  1.00  0.00     0.094 A 
ATOM      9  C   UNL     1       1.068   7.575   0.650  1.00  0.00     0.336 A 
ATOM     10  O   UNL     1       2.117   6.893   0.510  1.00  0.00    -0.246 OA
ATOM     11  O   UNL     1      -0.084   7.118   0.167  1.00  0.00    -0.419 OA
ENDROOT
BRANCH   1  12
ATOM     12  O   UNL     1      -4.874   9.889   0.628  1.00  0.00    -0.493 OA
ATOM     13  C   UNL     1      -5.922   9.529   1.523  1.00  0.00     0.278 C 
ENDBRANCH   1  12
BRANCH   2  14
ATOM     14  O   UNL     1      -4.812   7.457  -0.642  1.00  0.00    -0.502 OA
ATOM     15  H   UNL     1      -5.231   7.818  -1.491  1.00  0.00     0.293 HD
ENDBRANCH   2  14
BRANCH   3  16
ATOM     16  O   UNL     1      -2.414   6.020  -0.900  1.00  0.00    -0.502 OA
ATOM     17  H   UNL     1      -3.135   5.755  -1.559  1.00  0.00     0.293 HD
ENDBRANCH   3  16
TORSDOF 3
ENDMDL
MODEL 2
REMARK VINA RESULT:    -4.792     12.379     14.091
REMARK INTER + INTRA:          -5.267
REMARK INTER:                  -5.227
REMARK INTRA:                  -0.040
REMARK UNBOUND:                 0.086
REMARK SMILES COc1cc2ccc(=O)oc2c(O)c1O
REMARK SMILES IDX 3 1 14 2 12 3 11 4 5 5 4 6 6 7 7 8 8 9 9 10 10 11 2 12 1 13
REMARK SMILES IDX 15 14 13 16
REMARK H PARENT 15 15 13 17
REMARK Flexibility Score: inf
ROOT
ATOM      1  C   UNL     1      -0.297  -0.806  -9.579  1.00  0.00     0.165 A 
ATOM      2  C   UNL     1      -0.947  -2.048  -9.537  1.00  0.00     0.204 A 
ATOM      3  C   UNL     1      -2.340  -2.118  -9.347  1.00  0.00     0.205 A 
ATOM      4  C   UNL     1      -3.085  -0.937  -9.201  1.00  0.00     0.184 A 
ATOM      5  C   UNL     1      -2.432   0.314  -9.244  1.00  0.00     0.025 A 
ATOM      6  C   UNL     1      -1.046   0.377  -9.432  1.00  0.00     0.062 A 
ATOM      7  C   UNL     1      -3.200   1.475  -9.094  1.00  0.00     0.020 A 
ATOM      8  C   UNL     1      -4.577   1.367  -8.910  1.00  0.00     0.094 A 
ATOM      9  C   UNL     1      -5.157   0.095  -8.877  1.00  0.00     0.336 A 
ATOM     10  O   UNL     1      -6.399  -0.025  -8.711  1.00  0.00    -0.246 OA
ATOM     11  O   UNL     1      -4.404  -0.992  -9.021  1.00  0.00    -0.419 OA
ENDROOT
BRANCH   1  12
ATOM     12  O   UNL     1       1.094  -0.788  -9.771  1.00  0.00    -0.493 OA
ATOM     13  C   UNL     1       2.053  -0.812  -8.718  1.00  0.00     0.278 C 
ENDBRANCH   1  12
BRANCH   2  14
ATOM     14  O   UNL     1      -0.191  -3.212  -9.685  1.00  0.00    -0.502 OA
ATOM     15  H   UNL     1       0.651  -3.381  -9.148  1.00  0.00     0.293 HD
ENDBRANCH   2  14
BRANCH   3  16
ATOM     16  O   UNL     1      -2.968  -3.364  -9.308  1.00  0.00    -0.502 OA
ATOM     17  H   UNL     1      -3.976  -3.462  -9.320  1.00  0.00     0.293 HD
ENDBRANCH   3  16
TORSDOF 3
ENDMDL
MODEL 3
REMARK VINA RESULT:    -4.466      7.600      9.001
REMARK INTER + INTRA:          -4.902
REMARK INTER:                  -4.849
REMARK INTRA:                  -0.054
REMARK UNBOUND:                 0.086
REMARK SMILES COc1cc2ccc(=O)oc2c(O)c1O
REMARK SMILES IDX 3 1 14 2 12 3 11 4 5 5 4 6 6 7 7 8 8 9 9 10 10 11 2 12 1 13
REMARK SMILES IDX 15 14 13 16
REMARK H PARENT 15 15 13 17
REMARK Flexibility Score: inf
ROOT
ATOM      1  C   UNL     1       0.249   2.019   1.112  1.00  0.00     0.165 A 
ATOM      2  C   UNL     1      -0.060   0.949   1.966  1.00  0.00     0.204 A 
ATOM      3  C   UNL     1       0.271  -0.370   1.606  1.00  0.00     0.205 A 
ATOM      4  C   UNL     1       0.917  -0.619   0.383  1.00  0.00     0.184 A 
ATOM      5  C   UNL     1       1.229   0.456  -0.476  1.00  0.00     0.025 A 
ATOM      6  C   UNL     1       0.896   1.766  -0.112  1.00  0.00     0.062 A 
ATOM      7  C   UNL     1       1.872   0.179  -1.688  1.00  0.00     0.020 A 
ATOM      8  C   UNL     1       2.186  -1.140  -2.011  1.00  0.00     0.094 A 
ATOM      9  C   UNL     1       1.847  -2.156  -1.112  1.00  0.00     0.336 A 
ATOM     10  O   UNL     1       2.121  -3.354  -1.384  1.00  0.00    -0.246 OA
ATOM     11  O   UNL     1       1.235  -1.864   0.033  1.00  0.00    -0.419 OA
ENDROOT
BRANCH   1  12
ATOM     12  O   UNL     1      -0.102   3.317   1.517  1.00  0.00    -0.493 OA
ATOM     13  C   UNL     1       0.617   4.494   1.163  1.00  0.00     0.278 C 
ENDBRANCH   1  12
BRANCH   2  14
ATOM     14  O   UNL     1      -0.702   1.215   3.177  1.00  0.00    -0.502 OA
ATOM     15  H   UNL     1      -1.701   1.367   3.237  1.00  0.00     0.293 HD
ENDBRANCH   2  14
BRANCH   3  16
ATOM     16  O   UNL     1      -0.045  -1.420   2.469  1.00  0.00    -0.502 OA
ATOM     17  H   UNL     1       0.358  -1.499   3.395  1.00  0.00     0.293 HD
ENDBRANCH   3  16
TORSDOF 3
ENDMDL
MODEL 4
REMARK VINA RESULT:    -4.441      1.327      4.780
REMARK INTER + INTRA:          -4.874
REMARK INTER:                  -4.806
REMARK INTRA:                  -0.069
REMARK UNBOUND:                 0.086
REMARK SMILES COc1cc2ccc(=O)oc2c(O)c1O
REMARK SMILES IDX 3 1 14 2 12 3 11 4 5 5 4 6 6 7 7 8 8 9 9 10 10 11 2 12 1 13
REMARK SMILES IDX 15 14 13 16
REMARK H PARENT 15 15 13 17
REMARK Flexibility Score: inf
ROOT
ATOM      1  C   UNL     1      -1.059   8.671   1.120  1.00  0.00     0.165 A 
ATOM      2  C   UNL     1      -1.090   7.499   0.348  1.00  0.00     0.204 A 
ATOM      3  C   UNL     1      -2.208   7.202  -0.454  1.00  0.00     0.205 A 
ATOM      4  C   UNL     1      -3.300   8.085  -0.484  1.00  0.00     0.184 A 
ATOM      5  C   UNL     1      -3.270   9.264   0.292  1.00  0.00     0.025 A 
ATOM      6  C   UNL     1      -2.155   9.553   1.088  1.00  0.00     0.062 A 
ATOM      7  C   UNL     1      -4.372  10.125   0.242  1.00  0.00     0.020 A 
ATOM      8  C   UNL     1      -5.461   9.799  -0.564  1.00  0.00     0.094 A 
ATOM      9  C   UNL     1      -5.423   8.614  -1.306  1.00  0.00     0.336 A 
ATOM     10  O   UNL     1      -6.396   8.301  -2.040  1.00  0.00    -0.246 OA
ATOM     11  O   UNL     1      -4.362   7.813  -1.240  1.00  0.00    -0.419 OA
ENDROOT
BRANCH   1  12
ATOM     12  O   UNL     1       0.079   8.922   1.904  1.00  0.00    -0.493 OA
ATOM     13  C   UNL     1       1.124   9.819   1.543  1.00  0.00     0.278 C 
ENDBRANCH   1  12
BRANCH   2  14
ATOM     14  O   UNL     1       0.005   6.634   0.390  1.00  0.00    -0.502 OA
ATOM     15  H   UNL     1       0.402   6.307   1.262  1.00  0.00     0.293 HD
ENDBRANCH   2  14
BRANCH   3  16
ATOM     16  O   UNL     1      -2.219   6.032  -1.214  1.00  0.00    -0.502 OA
ATOM     17  H   UNL     1      -1.371   5.525  -1.439  1.00  0.00     0.293 HD
ENDBRANCH   3  16
TORSDOF 3
ENDMDL
MODEL 5
REMARK VINA RESULT:    -4.436     11.866     12.854
REMARK INTER + INTRA:          -4.869
REMARK INTER:                  -4.805
REMARK INTRA:                  -0.064
REMARK UNBOUND:                 0.086
REMARK SMILES COc1cc2ccc(=O)oc2c(O)c1O
REMARK SMILES IDX 3 1 14 2 12 3 11 4 5 5 4 6 6 7 7 8 8 9 9 10 10 11 2 12 1 13
REMARK SMILES IDX 15 14 13 16
REMARK H PARENT 15 15 13 17
REMARK Flexibility Score: inf
ROOT
ATOM      1  C   UNL     1      -4.379   0.905  -9.402  1.00  0.00     0.165 A 
ATOM      2  C   UNL     1      -4.411  -0.450  -9.764  1.00  0.00     0.204 A 
ATOM      3  C   UNL     1      -3.230  -1.217  -9.762  1.00  0.00     0.205 A 
ATOM      4  C   UNL     1      -2.012  -0.622  -9.395  1.00  0.00     0.184 A 
ATOM      5  C   UNL     1      -1.979   0.741  -9.031  1.00  0.00     0.025 A 
ATOM      6  C   UNL     1      -3.156   1.498  -9.035  1.00  0.00     0.062 A 
ATOM      7  C   UNL     1      -0.750   1.307  -8.670  1.00  0.00     0.020 A 
ATOM      8  C   UNL     1       0.397   0.517  -8.679  1.00  0.00     0.094 A 
ATOM      9  C   UNL     1       0.291  -0.827  -9.052  1.00  0.00     0.336 A 
ATOM     10  O   UNL     1       1.315  -1.557  -9.066  1.00  0.00    -0.246 OA
ATOM     11  O   UNL     1      -0.889  -1.339  -9.390  1.00  0.00    -0.419 OA
ENDROOT
BRANCH   1  12
ATOM     12  O   UNL     1      -5.583   1.628  -9.419  1.00  0.00    -0.493 OA
ATOM     13  C   UNL     1      -6.392   1.875  -8.273  1.00  0.00     0.278 C 
ENDBRANCH   1  12
BRANCH   2  14
ATOM     14  O   UNL     1      -5.631  -1.024 -10.125  1.00  0.00    -0.502 OA
ATOM     15  H   UNL     1      -6.008  -1.835  -9.650  1.00  0.00     0.293 HD
ENDBRANCH   2  14
BRANCH   3  16
ATOM     16  O   UNL     1      -3.283  -2.563 -10.125  1.00  0.00    -0.502 OA
ATOM     17  H   UNL     1      -3.406  -2.860 -11.086  1.00  0.00     0.293 HD
ENDBRANCH   3  16
TORSDOF 3
ENDMDL
MODEL 6
REMARK VINA RESULT:    -4.165     11.989     14.190
REMARK INTER + INTRA:          -4.566
REMARK INTER:                  -4.516
REMARK INTRA:                  -0.051
REMARK UNBOUND:                 0.086
REMARK SMILES COc1cc2ccc(=O)oc2c(O)c1O
REMARK SMILES IDX 3 1 14 2 12 3 11 4 5 5 4 6 6 7 7 8 8 9 9 10 10 11 2 12 1 13
REMARK SMILES IDX 15 14 13 16
REMARK H PARENT 15 15 13 17
REMARK Flexibility Score: inf
ROOT
ATOM      1  C   UNL     1      -0.184  -1.819  -9.563  1.00  0.00     0.165 A 
ATOM      2  C   UNL     1       0.174  -0.551  -9.084  1.00  0.00     0.204 A 
ATOM      3  C   UNL     1      -0.814   0.419  -8.827  1.00  0.00     0.205 A 
ATOM      4  C   UNL     1      -2.167   0.115  -9.050  1.00  0.00     0.184 A 
ATOM      5  C   UNL     1      -2.527  -1.162  -9.533  1.00  0.00     0.025 A 
ATOM      6  C   UNL     1      -1.540  -2.122  -9.787  1.00  0.00     0.062 A 
ATOM      7  C   UNL     1      -3.883  -1.437  -9.747  1.00  0.00     0.020 A 
ATOM      8  C   UNL     1      -4.833  -0.453  -9.480  1.00  0.00     0.094 A 
ATOM      9  C   UNL     1      -4.403   0.791  -9.005  1.00  0.00     0.336 A 
ATOM     10  O   UNL     1      -5.245   1.693  -8.757  1.00  0.00    -0.246 OA
ATOM     11  O   UNL     1      -3.108   1.025  -8.810  1.00  0.00    -0.419 OA
ENDROOT
BRANCH   1  12
ATOM     12  O   UNL     1       0.838  -2.752  -9.804  1.00  0.00    -0.493 OA
ATOM     13  C   UNL     1       0.620  -4.123 -10.122  1.00  0.00     0.278 C 
ENDBRANCH   1  12
BRANCH   2  14
ATOM     14  O   UNL     1       1.523  -0.266  -8.866  1.00  0.00    -0.502 OA
ATOM     15  H   UNL     1       1.826   0.540  -8.333  1.00  0.00     0.293 HD
ENDBRANCH   2  14
BRANCH   3  16
ATOM     16  O   UNL     1      -0.437   1.676  -8.350  1.00  0.00    -0.502 OA
ATOM     17  H   UNL     1      -0.982   2.177  -7.658  1.00  0.00     0.293 HD
ENDBRANCH   3  16
TORSDOF 3
ENDMDL
MODEL 7
REMARK VINA RESULT:    -4.110     12.377     14.026
REMARK INTER + INTRA:          -4.505
REMARK INTER:                  -4.454
REMARK INTRA:                  -0.051
REMARK UNBOUND:                 0.086
REMARK SMILES COc1cc2ccc(=O)oc2c(O)c1O
REMARK SMILES IDX 3 1 14 2 12 3 11 4 5 5 4 6 6 7 7 8 8 9 9 10 10 11 2 12 1 13
REMARK SMILES IDX 15 14 13 16
REMARK H PARENT 15 15 13 17
REMARK Flexibility Score: inf
ROOT
ATOM      1  C   UNL     1      -2.533   0.464  -9.133  1.00  0.00     0.165 A 
ATOM      2  C   UNL     1      -1.155   0.672  -8.972  1.00  0.00     0.204 A 
ATOM      3  C   UNL     1      -0.249  -0.391  -9.140  1.00  0.00     0.205 A 
ATOM      4  C   UNL     1      -0.726  -1.670  -9.472  1.00  0.00     0.184 A 
ATOM      5  C   UNL     1      -2.112  -1.880  -9.635  1.00  0.00     0.025 A 
ATOM      6  C   UNL     1      -3.009  -0.818  -9.466  1.00  0.00     0.062 A 
ATOM      7  C   UNL     1      -2.560  -3.165  -9.965  1.00  0.00     0.020 A 
ATOM      8  C   UNL     1      -1.633  -4.193 -10.125  1.00  0.00     0.094 A 
ATOM      9  C   UNL     1      -0.274  -3.913  -9.948  1.00  0.00     0.336 A 
ATOM     10  O   UNL     1       0.579  -4.828 -10.087  1.00  0.00    -0.246 OA
ATOM     11  O   UNL     1       0.123  -2.683  -9.633  1.00  0.00    -0.419 OA
ENDROOT
BRANCH   1  12
ATOM     12  O   UNL     1      -3.397   1.557  -8.955  1.00  0.00    -0.493 OA
ATOM     13  C   UNL     1      -4.815   1.459  -8.869  1.00  0.00     0.278 C 
ENDBRANCH   1  12
BRANCH   2  14
ATOM     14  O   UNL     1      -0.699   1.950  -8.642  1.00  0.00    -0.502 OA
ATOM     15  H   UNL     1       0.287   2.171  -8.577  1.00  0.00     0.293 HD
ENDBRANCH   2  14
BRANCH   3  16
ATOM     16  O   UNL     1       1.119  -0.164  -8.975  1.00  0.00    -0.502 OA
ATOM     17  H   UNL     1       1.704   0.180  -9.727  1.00  0.00     0.293 HD
ENDBRANCH   3  16
TORSDOF 3
ENDMDL
MODEL 8
REMARK VINA RESULT:    -3.992      7.372      9.307
REMARK INTER + INTRA:          -4.373
REMARK INTER:                  -4.321
REMARK INTRA:                  -0.052
REMARK UNBOUND:                 0.086
REMARK SMILES COc1cc2ccc(=O)oc2c(O)c1O
REMARK SMILES IDX 3 1 14 2 12 3 11 4 5 5 4 6 6 7 7 8 8 9 9 10 10 11 2 12 1 13
REMARK SMILES IDX 15 14 13 16
REMARK H PARENT 15 15 13 17
REMARK Flexibility Score: inf
ROOT
ATOM      1  C   UNL     1       1.604  -0.241  -1.283  1.00  0.00     0.165 A 
ATOM      2  C   UNL     1       1.053  -1.257  -0.487  1.00  0.00     0.204 A 
ATOM      3  C   UNL     1       0.358  -0.939   0.695  1.00  0.00     0.205 A 
ATOM      4  C   UNL     1       0.212   0.404   1.080  1.00  0.00     0.184 A 
ATOM      5  C   UNL     1       0.765   1.427   0.280  1.00  0.00     0.025 A 
ATOM      6  C   UNL     1       1.456   1.104  -0.895  1.00  0.00     0.062 A 
ATOM      7  C   UNL     1       0.605   2.756   0.688  1.00  0.00     0.020 A 
ATOM      8  C   UNL     1      -0.091   3.032   1.863  1.00  0.00     0.094 A 
ATOM      9  C   UNL     1      -0.612   1.969   2.607  1.00  0.00     0.336 A 
ATOM     10  O   UNL     1      -1.244   2.197   3.672  1.00  0.00    -0.246 OA
ATOM     11  O   UNL     1      -0.444   0.715   2.196  1.00  0.00    -0.419 OA
ENDROOT
BRANCH   1  12
ATOM     12  O   UNL     1       2.289  -0.609  -2.453  1.00  0.00    -0.493 OA
ATOM     13  C   UNL     1       3.192   0.236  -3.158  1.00  0.00     0.278 C 
ENDBRANCH   1  12
BRANCH   2  14
ATOM     14  O   UNL     1       1.207  -2.586  -0.886  1.00  0.00    -0.502 OA
ATOM     15  H   UNL     1       1.616  -2.839  -1.777  1.00  0.00     0.293 HD
ENDBRANCH   2  14
BRANCH   3  16
ATOM     16  O   UNL     1      -0.183  -1.964   1.473  1.00  0.00    -0.502 OA
ATOM     17  H   UNL     1      -1.007  -1.831   2.046  1.00  0.00     0.293 HD
ENDBRANCH   3  16
TORSDOF 3
ENDMDL
MODEL 9
REMARK VINA RESULT:    -3.487     12.905     14.229
REMARK INTER + INTRA:          -3.809
REMARK INTER:                  -3.757
REMARK INTRA:                  -0.052
REMARK UNBOUND:                 0.086
REMARK SMILES COc1cc2ccc(=O)oc2c(O)c1O
REMARK SMILES IDX 3 1 14 2 12 3 11 4 5 5 4 6 6 7 7 8 8 9 9 10 10 11 2 12 1 13
REMARK SMILES IDX 15 14 13 16
REMARK H PARENT 15 15 13 17
REMARK Flexibility Score: inf
ROOT
ATOM      1  C   UNL     1      -2.035  -0.775  -9.368  1.00  0.00     0.165 A 
ATOM      2  C   UNL     1      -2.123  -2.140  -9.681  1.00  0.00     0.204 A 
ATOM      3  C   UNL     1      -0.958  -2.918  -9.813  1.00  0.00     0.205 A 
ATOM      4  C   UNL     1       0.302  -2.326  -9.629  1.00  0.00     0.184 A 
ATOM      5  C   UNL     1       0.392  -0.952  -9.314  1.00  0.00     0.025 A 
ATOM      6  C   UNL     1      -0.771  -0.184  -9.184  1.00  0.00     0.062 A 
ATOM      7  C   UNL     1       1.661  -0.388  -9.137  1.00  0.00     0.020 A 
ATOM      8  C   UNL     1       2.792  -1.190  -9.274  1.00  0.00     0.094 A 
ATOM      9  C   UNL     1       2.629  -2.543  -9.589  1.00  0.00     0.336 A 
ATOM     10  O   UNL     1       3.638  -3.284  -9.717  1.00  0.00    -0.246 OA
ATOM     11  O   UNL     1       1.411  -3.053  -9.752  1.00  0.00    -0.419 OA
ENDROOT
BRANCH   1  12
ATOM     12  O   UNL     1      -3.227  -0.042  -9.247  1.00  0.00    -0.493 OA
ATOM     13  C   UNL     1      -3.319   1.374  -9.372  1.00  0.00     0.278 C 
ENDBRANCH   1  12
BRANCH   2  14
ATOM     14  O   UNL     1      -3.384  -2.713  -9.860  1.00  0.00    -0.502 OA
ATOM     15  H   UNL     1      -3.510  -3.612 -10.307  1.00  0.00     0.293 HD
ENDBRANCH   2  14
BRANCH   3  16
ATOM     16  O   UNL     1      -1.066  -4.274 -10.125  1.00  0.00    -0.502 OA
ATOM     17  H   UNL     1      -0.306  -4.927  -9.974  1.00  0.00     0.293 HD
ENDBRANCH   3  16
TORSDOF 3
ENDMDL
