MODEL 1
REMARK VINA RESULT:    -3.948      0.000      0.000
REMARK INTER + INTRA:          -4.956
REMARK INTER:                  -4.871
REMARK INTRA:                  -0.084
REMARK UNBOUND:                -0.084
REMARK SMILES CCCCCC(C)=O
REMARK SMILES IDX 4 1 3 2 2 3 1 4 5 5 6 6 8 7 7 8
REMARK H PARENT
REMARK Flexibility Score: inf
ROOT
ATOM      1  C   UNL     1      24.452  56.033  -9.173  1.00  0.00     0.008 C 
ENDROOT
BRANCH   1   2
ATOM      2  C   UNL     1      23.986  55.717  -7.744  1.00  0.00     0.000 C 
BRANCH   2   3
ATOM      3  C   UNL     1      22.800  54.742  -7.712  1.00  0.00    -0.003 C 
ATOM      4  C   UNL     1      22.394  54.351  -6.291  1.00  0.00     0.004 C 
ENDBRANCH   2   3
ENDBRANCH   1   2
BRANCH   1   5
ATOM      5  C   UNL     1      25.884  56.579  -9.175  1.00  0.00     0.075 C 
BRANCH   5   6
ATOM      6  C   UNL     1      25.909  58.009  -9.646  1.00  0.00     0.129 C 
ATOM      7  O   UNL     1      25.040  58.781  -9.269  1.00  0.00    -0.300 OA
ATOM      8  C   UNL     1      26.974  58.508 -10.577  1.00  0.00     0.087 C 
ENDBRANCH   5   6
ENDBRANCH   1   5
TORSDOF 4
ENDMDL
MODEL 2
REMARK VINA RESULT:    -3.943      1.703      5.157
REMARK INTER + INTRA:          -4.949
REMARK INTER:                  -4.895
REMARK INTRA:                  -0.055
REMARK UNBOUND:                -0.084
REMARK SMILES CCCCCC(C)=O
REMARK SMILES IDX 4 1 3 2 2 3 1 4 5 5 6 6 8 7 7 8
REMARK H PARENT
REMARK Flexibility Score: inf
ROOT
ATOM      1  C   UNL     1      25.837  57.092  -9.361  1.00  0.00     0.008 C 
ENDROOT
BRANCH   1   2
ATOM      2  C   UNL     1      25.975  58.577  -9.730  1.00  0.00     0.000 C 
BRANCH   2   3
ATOM      3  C   UNL     1      27.213  58.858 -10.594  1.00  0.00    -0.003 C 
ATOM      4  C   UNL     1      27.675  60.312 -10.510  1.00  0.00     0.004 C 
ENDBRANCH   2   3
ENDBRANCH   1   2
BRANCH   1   5
ATOM      5  C   UNL     1      24.395  56.755  -8.968  1.00  0.00     0.075 C 
BRANCH   5   6
ATOM      6  C   UNL     1      24.334  55.446  -8.228  1.00  0.00     0.129 C 
ATOM      7  O   UNL     1      25.344  54.764  -8.129  1.00  0.00    -0.300 OA
ATOM      8  C   UNL     1      23.058  54.952  -7.614  1.00  0.00     0.087 C 
ENDBRANCH   5   6
ENDBRANCH   1   5
TORSDOF 4
ENDMDL
MODEL 3
REMARK VINA RESULT:    -3.607     15.882     17.307
REMARK INTER + INTRA:          -4.535
REMARK INTER:                  -4.276
REMARK INTRA:                  -0.260
REMARK UNBOUND:                -0.084
REMARK SMILES CCCCCC(C)=O
REMARK SMILES IDX 4 1 3 2 2 3 1 4 5 5 6 6 8 7 7 8
REMARK H PARENT
REMARK Flexibility Score: inf
ROOT
ATOM      1  C   UNL     1      17.140  43.500   1.055  1.00  0.00     0.008 C 
ENDROOT
BRANCH   1   2
ATOM      2  C   UNL     1      16.044  44.340   1.729  1.00  0.00     0.000 C 
BRANCH   2   3
ATOM      3  C   UNL     1      15.176  45.099   0.714  1.00  0.00    -0.003 C 
ATOM      4  C   UNL     1      15.870  45.288  -0.634  1.00  0.00     0.004 C 
ENDBRANCH   2   3
ENDBRANCH   1   2
BRANCH   1   5
ATOM      5  C   UNL     1      18.442  43.547   1.863  1.00  0.00     0.075 C 
BRANCH   5   6
ATOM      6  C   UNL     1      19.616  43.839   0.967  1.00  0.00     0.129 C 
ATOM      7  O   UNL     1      20.691  43.302   1.191  1.00  0.00    -0.300 OA
ATOM      8  C   UNL     1      19.500  44.784  -0.193  1.00  0.00     0.087 C 
ENDBRANCH   5   6
ENDBRANCH   1   5
TORSDOF 4
ENDMDL
MODEL 4
REMARK VINA RESULT:    -3.596      1.554      2.661
REMARK INTER + INTRA:          -4.521
REMARK INTER:                  -4.454
REMARK INTRA:                  -0.067
REMARK UNBOUND:                -0.084
REMARK SMILES CCCCCC(C)=O
REMARK SMILES IDX 4 1 3 2 2 3 1 4 5 5 6 6 8 7 7 8
REMARK H PARENT
REMARK Flexibility Score: inf
ROOT
ATOM      1  C   UNL     1      25.898  58.233  -9.648  1.00  0.00     0.008 C 
ENDROOT
BRANCH   1   2
ATOM      2  C   UNL     1      25.678  56.764  -9.258  1.00  0.00     0.000 C 
BRANCH   2   3
ATOM      3  C   UNL     1      24.204  56.446  -8.964  1.00  0.00    -0.003 C 
ATOM      4  C   UNL     1      24.028  55.174  -8.134  1.00  0.00     0.004 C 
ENDBRANCH   2   3
ENDBRANCH   1   2
BRANCH   1   5
ATOM      5  C   UNL     1      26.996  58.361 -10.709  1.00  0.00     0.075 C 
BRANCH   5   6
ATOM      6  C   UNL     1      27.888  59.537 -10.414  1.00  0.00     0.129 C 
ATOM      7  O   UNL     1      27.389  60.631 -10.197  1.00  0.00    -0.300 OA
ATOM      8  C   UNL     1      29.382  59.400 -10.391  1.00  0.00     0.087 C 
ENDBRANCH   5   6
ENDBRANCH   1   5
TORSDOF 4
ENDMDL
MODEL 5
REMARK VINA RESULT:    -3.488      2.077      5.086
REMARK INTER + INTRA:          -4.388
REMARK INTER:                  -4.327
REMARK INTRA:                  -0.061
REMARK UNBOUND:                -0.084
REMARK SMILES CCCCCC(C)=O
REMARK SMILES IDX 4 1 3 2 2 3 1 4 5 5 6 6 8 7 7 8
REMARK H PARENT
REMARK Flexibility Score: inf
ROOT
ATOM      1  C   UNL     1      24.030  55.881  -8.752  1.00  0.00     0.008 C 
ENDROOT
BRANCH   1   2
ATOM      2  C   UNL     1      25.416  56.425  -9.131  1.00  0.00     0.000 C 
BRANCH   2   3
ATOM      3  C   UNL     1      25.402  57.938  -9.400  1.00  0.00    -0.003 C 
ATOM      4  C   UNL     1      26.622  58.408 -10.191  1.00  0.00     0.004 C 
ENDBRANCH   2   3
ENDBRANCH   1   2
BRANCH   1   5
ATOM      5  C   UNL     1      23.983  55.480  -7.274  1.00  0.00     0.075 C 
BRANCH   5   6
ATOM      6  C   UNL     1      22.810  54.577  -7.003  1.00  0.00     0.129 C 
ATOM      7  O   UNL     1      22.219  54.061  -7.940  1.00  0.00    -0.300 OA
ATOM      8  C   UNL     1      22.341  54.302  -5.604  1.00  0.00     0.087 C 
ENDBRANCH   5   6
ENDBRANCH   1   5
TORSDOF 4
ENDMDL
MODEL 6
REMARK VINA RESULT:    -3.478     16.052     17.515
REMARK INTER + INTRA:          -4.375
REMARK INTER:                  -4.115
REMARK INTRA:                  -0.261
REMARK UNBOUND:                -0.084
REMARK SMILES CCCCCC(C)=O
REMARK SMILES IDX 4 1 3 2 2 3 1 4 5 5 6 6 8 7 7 8
REMARK H PARENT
REMARK Flexibility Score: inf
ROOT
ATOM      1  C   UNL     1      17.215  43.532   0.955  1.00  0.00     0.008 C 
ENDROOT
BRANCH   1   2
ATOM      2  C   UNL     1      18.409  43.597   1.920  1.00  0.00     0.000 C 
BRANCH   2   3
ATOM      3  C   UNL     1      19.723  43.955   1.209  1.00  0.00    -0.003 C 
ATOM      4  C   UNL     1      19.499  44.685  -0.115  1.00  0.00     0.004 C 
ENDBRANCH   2   3
ENDBRANCH   1   2
BRANCH   1   5
ATOM      5  C   UNL     1      15.979  44.199   1.567  1.00  0.00     0.075 C 
BRANCH   5   6
ATOM      6  C   UNL     1      15.352  45.159   0.591  1.00  0.00     0.129 C 
ATOM      7  O   UNL     1      14.374  45.808   0.930  1.00  0.00    -0.300 OA
ATOM      8  C   UNL     1      15.895  45.330  -0.797  1.00  0.00     0.087 C 
ENDBRANCH   5   6
ENDBRANCH   1   5
TORSDOF 4
ENDMDL
MODEL 7
REMARK VINA RESULT:    -3.449     16.967     17.924
REMARK INTER + INTRA:          -4.340
REMARK INTER:                  -4.026
REMARK INTRA:                  -0.314
REMARK UNBOUND:                -0.084
REMARK SMILES CCCCCC(C)=O
REMARK SMILES IDX 4 1 3 2 2 3 1 4 5 5 6 6 8 7 7 8
REMARK H PARENT
REMARK Flexibility Score: inf
ROOT
ATOM      1  C   UNL     1      18.529  43.574   1.672  1.00  0.00     0.008 C 
ENDROOT
BRANCH   1   2
ATOM      2  C   UNL     1      19.878  43.883   1.006  1.00  0.00     0.000 C 
BRANCH   2   3
ATOM      3  C   UNL     1      20.884  42.731   1.150  1.00  0.00    -0.003 C 
ATOM      4  C   UNL     1      21.292  42.131  -0.195  1.00  0.00     0.004 C 
ENDBRANCH   2   3
ENDBRANCH   1   2
BRANCH   1   5
ATOM      5  C   UNL     1      17.930  42.276   1.121  1.00  0.00     0.075 C 
BRANCH   5   6
ATOM      6  C   UNL     1      17.439  42.470  -0.288  1.00  0.00     0.129 C 
ATOM      7  O   UNL     1      16.823  43.486  -0.576  1.00  0.00    -0.300 OA
ATOM      8  C   UNL     1      17.679  41.438  -1.350  1.00  0.00     0.087 C 
ENDBRANCH   5   6
ENDBRANCH   1   5
TORSDOF 4
ENDMDL
MODEL 8
REMARK VINA RESULT:    -3.383     15.604     17.588
REMARK INTER + INTRA:          -4.258
REMARK INTER:                  -3.890
REMARK INTRA:                  -0.368
REMARK UNBOUND:                -0.084
REMARK SMILES CCCCCC(C)=O
REMARK SMILES IDX 4 1 3 2 2 3 1 4 5 5 6 6 8 7 7 8
REMARK H PARENT
REMARK Flexibility Score: inf
ROOT
ATOM      1  C   UNL     1      17.540  43.504   1.512  1.00  0.00     0.008 C 
ENDROOT
BRANCH   1   2
ATOM      2  C   UNL     1      17.120  42.084   1.104  1.00  0.00     0.000 C 
BRANCH   2   3
ATOM      3  C   UNL     1      16.737  41.985  -0.380  1.00  0.00    -0.003 C 
ATOM      4  C   UNL     1      17.792  41.261  -1.216  1.00  0.00     0.004 C 
ENDBRANCH   2   3
ENDBRANCH   1   2
BRANCH   1   5
ATOM      5  C   UNL     1      19.049  43.577   1.767  1.00  0.00     0.075 C 
BRANCH   5   6
ATOM      6  C   UNL     1      19.795  43.834   0.485  1.00  0.00     0.129 C 
ATOM      7  O   UNL     1      20.694  43.077   0.150  1.00  0.00    -0.300 OA
ATOM      8  C   UNL     1      19.467  45.008  -0.390  1.00  0.00     0.087 C 
ENDBRANCH   5   6
ENDBRANCH   1   5
TORSDOF 4
ENDMDL
MODEL 9
REMARK VINA RESULT:    -3.303      7.289      8.716
REMARK INTER + INTRA:          -4.160
REMARK INTER:                  -3.847
REMARK INTRA:                  -0.313
REMARK UNBOUND:                -0.084
REMARK SMILES CCCCCC(C)=O
REMARK SMILES IDX 4 1 3 2 2 3 1 4 5 5 6 6 8 7 7 8
REMARK H PARENT
REMARK Flexibility Score: inf
ROOT
ATOM      1  C   UNL     1      30.297  57.241 -13.502  1.00  0.00     0.008 C 
ENDROOT
BRANCH   1   2
ATOM      2  C   UNL     1      31.502  56.650 -14.250  1.00  0.00     0.000 C 
BRANCH   2   3
ATOM      3  C   UNL     1      32.715  57.593 -14.251  1.00  0.00    -0.003 C 
ATOM      4  C   UNL     1      33.919  57.007 -13.514  1.00  0.00     0.004 C 
ENDBRANCH   2   3
ENDBRANCH   1   2
BRANCH   1   5
ATOM      5  C   UNL     1      30.473  58.746 -13.280  1.00  0.00     0.075 C 
BRANCH   5   6
ATOM      6  C   UNL     1      30.362  59.087 -11.818  1.00  0.00     0.129 C 
ATOM      7  O   UNL     1      29.319  59.554 -11.386  1.00  0.00    -0.300 OA
ATOM      8  C   UNL     1      31.511  58.876 -10.876  1.00  0.00     0.087 C 
ENDBRANCH   5   6
ENDBRANCH   1   5
TORSDOF 4
ENDMDL
