MODEL 1
REMARK VINA RESULT:    -5.113      0.000      0.000
REMARK INTER + INTRA:          -7.476
REMARK INTER:                  -6.907
REMARK INTRA:                  -0.569
REMARK UNBOUND:                -0.569
REMARK SMILES CC(=O)OCC=C(C)CCC=C(C)C
REMARK SMILES IDX 7 1 6 2 8 3 9 4 10 5 11 6 13 7 12 8 14 9 5 10 4 11 2 12 3 13
REMARK SMILES IDX 1 14
REMARK H PARENT
REMARK Flexibility Score: inf
ROOT
ATOM      1  C   UNL     1      -9.156  -4.498   5.187  1.00  0.00    -0.074 C 
ATOM      2  C   UNL     1      -9.349  -3.390   5.938  1.00  0.00     0.013 C 
ATOM      3  C   UNL     1      -9.878  -4.701   3.877  1.00  0.00     0.039 C 
ENDROOT
BRANCH   1   4
ATOM      4  C   UNL     1      -8.191  -5.558   5.671  1.00  0.00     0.034 C 
BRANCH   4   5
ATOM      5  C   UNL     1      -7.168  -4.960   6.644  1.00  0.00     0.032 C 
BRANCH   5   6
ATOM      6  C   UNL     1      -6.966  -5.868   7.831  1.00  0.00    -0.028 C 
ATOM      7  C   UNL     1      -7.298  -6.714  10.114  1.00  0.00     0.039 C 
ATOM      8  C   UNL     1      -7.636  -5.758   9.000  1.00  0.00    -0.080 C 
ATOM      9  C   UNL     1      -8.716  -4.723   9.209  1.00  0.00     0.039 C 
ENDBRANCH   5   6
ENDBRANCH   4   5
ENDBRANCH   1   4
BRANCH   2  10
ATOM     10  C   UNL     1     -10.284  -2.270   5.559  1.00  0.00     0.260 C 
BRANCH  10  11
ATOM     11  O   UNL     1     -10.586  -1.454   6.688  1.00  0.00    -0.462 OA
BRANCH  11  12
ATOM     12  C   UNL     1     -10.321  -0.080   6.734  1.00  0.00     0.302 C 
ATOM     13  O   UNL     1      -9.164   0.363   6.497  1.00  0.00    -0.253 OA
ATOM     14  C   UNL     1     -11.432   0.871   7.019  1.00  0.00     0.139 C 
ENDBRANCH  11  12
ENDBRANCH  10  11
ENDBRANCH   2  10
TORSDOF 6
ENDMDL
MODEL 2
REMARK VINA RESULT:    -5.022      3.543      6.269
REMARK INTER + INTRA:          -7.352
REMARK INTER:                  -6.661
REMARK INTRA:                  -0.691
REMARK UNBOUND:                -0.569
REMARK SMILES CC(=O)OCC=C(C)CCC=C(C)C
REMARK SMILES IDX 7 1 6 2 8 3 9 4 10 5 11 6 13 7 12 8 14 9 5 10 4 11 2 12 3 13
REMARK SMILES IDX 1 14
REMARK H PARENT
REMARK Flexibility Score: inf
ROOT
ATOM      1  C   UNL     1      -8.724  -5.802   4.895  1.00  0.00    -0.074 C 
ATOM      2  C   UNL     1      -7.615  -6.495   5.238  1.00  0.00     0.013 C 
ATOM      3  C   UNL     1      -9.102  -4.517   5.592  1.00  0.00     0.039 C 
ENDROOT
BRANCH   1   4
ATOM      4  C   UNL     1      -9.607  -6.327   3.784  1.00  0.00     0.034 C 
BRANCH   4   5
ATOM      5  C   UNL     1      -8.816  -6.465   2.479  1.00  0.00     0.032 C 
BRANCH   5   6
ATOM      6  C   UNL     1      -9.313  -7.641   1.674  1.00  0.00    -0.028 C 
ATOM      7  C   UNL     1      -9.354  -9.948   0.831  1.00  0.00     0.039 C 
ATOM      8  C   UNL     1      -8.777  -8.880   1.723  1.00  0.00    -0.080 C 
ATOM      9  C   UNL     1      -7.637  -9.224   2.653  1.00  0.00     0.039 C 
ENDBRANCH   5   6
ENDBRANCH   4   5
ENDBRANCH   1   4
BRANCH   2  10
ATOM     10  C   UNL     1      -6.663  -6.071   6.327  1.00  0.00     0.260 C 
BRANCH  10  11
ATOM     11  O   UNL     1      -7.009  -6.676   7.571  1.00  0.00    -0.462 OA
BRANCH  11  12
ATOM     12  C   UNL     1      -7.400  -5.943   8.698  1.00  0.00     0.302 C 
ATOM     13  O   UNL     1      -7.429  -4.682   8.670  1.00  0.00    -0.253 OA
ATOM     14  C   UNL     1      -7.835  -6.665   9.927  1.00  0.00     0.139 C 
ENDBRANCH  11  12
ENDBRANCH  10  11
ENDBRANCH   2  10
TORSDOF 6
ENDMDL
MODEL 3
REMARK VINA RESULT:    -4.974      3.454      6.120
REMARK INTER + INTRA:          -7.288
REMARK INTER:                  -6.430
REMARK INTRA:                  -0.858
REMARK UNBOUND:                -0.569
REMARK SMILES CC(=O)OCC=C(C)CCC=C(C)C
REMARK SMILES IDX 7 1 6 2 8 3 9 4 10 5 11 6 13 7 12 8 14 9 5 10 4 11 2 12 3 13
REMARK SMILES IDX 1 14
REMARK H PARENT
REMARK Flexibility Score: inf
ROOT
ATOM      1  C   UNL     1      -8.059  -6.843   5.247  1.00  0.00    -0.074 C 
ATOM      2  C   UNL     1      -6.918  -6.587   5.925  1.00  0.00     0.013 C 
ATOM      3  C   UNL     1      -9.024  -5.743   4.875  1.00  0.00     0.039 C 
ENDROOT
BRANCH   1   4
ATOM      4  C   UNL     1      -8.375  -8.269   4.848  1.00  0.00     0.034 C 
BRANCH   4   5
ATOM      5  C   UNL     1      -7.572  -8.677   3.608  1.00  0.00     0.032 C 
BRANCH   5   6
ATOM      6  C   UNL     1      -8.494  -9.038   2.469  1.00  0.00    -0.028 C 
ATOM      7  C   UNL     1      -9.842  -8.671   0.448  1.00  0.00     0.039 C 
ATOM      8  C   UNL     1      -8.884  -8.178   1.502  1.00  0.00    -0.080 C 
ATOM      9  C   UNL     1      -8.376  -6.757   1.440  1.00  0.00     0.039 C 
ENDBRANCH   5   6
ENDBRANCH   4   5
ENDBRANCH   1   4
BRANCH   2  10
ATOM     10  C   UNL     1      -6.500  -5.210   6.375  1.00  0.00     0.260 C 
BRANCH  10  11
ATOM     11  O   UNL     1      -6.452  -5.132   7.798  1.00  0.00    -0.462 OA
BRANCH  11  12
ATOM     12  C   UNL     1      -7.584  -5.255   8.612  1.00  0.00     0.302 C 
ATOM     13  O   UNL     1      -8.581  -4.500   8.452  1.00  0.00    -0.253 OA
ATOM     14  C   UNL     1      -7.628  -6.327   9.647  1.00  0.00     0.139 C 
ENDBRANCH  11  12
ENDBRANCH  10  11
ENDBRANCH   2  10
TORSDOF 6
ENDMDL
MODEL 4
REMARK VINA RESULT:    -4.851      3.632      6.403
REMARK INTER + INTRA:          -7.121
REMARK INTER:                  -6.443
REMARK INTRA:                  -0.678
REMARK UNBOUND:                -0.569
REMARK SMILES CC(=O)OCC=C(C)CCC=C(C)C
REMARK SMILES IDX 7 1 6 2 8 3 9 4 10 5 11 6 13 7 12 8 14 9 5 10 4 11 2 12 3 13
REMARK SMILES IDX 1 14
REMARK H PARENT
REMARK Flexibility Score: inf
ROOT
ATOM      1  C   UNL     1      -8.578  -6.811   4.789  1.00  0.00    -0.074 C 
ATOM      2  C   UNL     1      -7.915  -5.811   5.411  1.00  0.00     0.013 C 
ATOM      3  C   UNL     1      -8.003  -8.205   4.696  1.00  0.00     0.039 C 
ENDROOT
BRANCH   1   4
ATOM      4  C   UNL     1      -9.932  -6.529   4.175  1.00  0.00     0.034 C 
BRANCH   4   5
ATOM      5  C   UNL     1      -9.819  -5.469   3.073  1.00  0.00     0.032 C 
BRANCH   5   6
ATOM      6  C   UNL     1     -10.370  -5.993   1.770  1.00  0.00    -0.028 C 
ATOM      7  C   UNL     1     -10.339  -7.163  -0.391  1.00  0.00     0.039 C 
ATOM      8  C   UNL     1      -9.669  -6.744   0.892  1.00  0.00    -0.080 C 
ATOM      9  C   UNL     1      -8.251  -7.185   1.169  1.00  0.00     0.039 C 
ENDBRANCH   5   6
ENDBRANCH   4   5
ENDBRANCH   1   4
BRANCH   2  10
ATOM     10  C   UNL     1      -6.563  -5.974   6.057  1.00  0.00     0.260 C 
BRANCH  10  11
ATOM     11  O   UNL     1      -6.454  -5.161   7.224  1.00  0.00    -0.462 OA
BRANCH  11  12
ATOM     12  C   UNL     1      -7.240  -5.351   8.367  1.00  0.00     0.302 C 
ATOM     13  O   UNL     1      -8.011  -4.442   8.778  1.00  0.00    -0.253 OA
ATOM     14  C   UNL     1      -7.199  -6.661   9.075  1.00  0.00     0.139 C 
ENDBRANCH  11  12
ENDBRANCH  10  11
ENDBRANCH   2  10
TORSDOF 6
ENDMDL
MODEL 5
REMARK VINA RESULT:    -4.848      3.439      6.334
REMARK INTER + INTRA:          -7.117
REMARK INTER:                  -6.366
REMARK INTRA:                  -0.751
REMARK UNBOUND:                -0.569
REMARK SMILES CC(=O)OCC=C(C)CCC=C(C)C
REMARK SMILES IDX 7 1 6 2 8 3 9 4 10 5 11 6 13 7 12 8 14 9 5 10 4 11 2 12 3 13
REMARK SMILES IDX 1 14
REMARK H PARENT
REMARK Flexibility Score: inf
ROOT
ATOM      1  C   UNL     1      -8.300  -5.779   5.247  1.00  0.00    -0.074 C 
ATOM      2  C   UNL     1      -7.769  -4.789   5.999  1.00  0.00     0.013 C 
ATOM      3  C   UNL     1      -7.719  -7.173   5.248  1.00  0.00     0.039 C 
ENDROOT
BRANCH   1   4
ATOM      4  C   UNL     1      -9.508  -5.483   4.384  1.00  0.00     0.034 C 
BRANCH   4   5
ATOM      5  C   UNL     1     -10.128  -6.780   3.852  1.00  0.00     0.032 C 
BRANCH   5   6
ATOM      6  C   UNL     1     -10.546  -6.620   2.412  1.00  0.00    -0.028 C 
ATOM      7  C   UNL     1     -10.297  -6.657  -0.033  1.00  0.00     0.039 C 
ATOM      8  C   UNL     1      -9.757  -6.905   1.352  1.00  0.00    -0.080 C 
ATOM      9  C   UNL     1      -8.368  -7.475   1.517  1.00  0.00     0.039 C 
ENDBRANCH   5   6
ENDBRANCH   4   5
ENDBRANCH   1   4
BRANCH   2  10
ATOM     10  C   UNL     1      -6.569  -4.965   6.893  1.00  0.00     0.260 C 
BRANCH  10  11
ATOM     11  O   UNL     1      -6.947  -4.929   8.268  1.00  0.00    -0.462 OA
BRANCH  11  12
ATOM     12  C   UNL     1      -7.354  -6.063   8.982  1.00  0.00     0.302 C 
ATOM     13  O   UNL     1      -6.898  -7.204   8.696  1.00  0.00    -0.253 OA
ATOM     14  C   UNL     1      -8.298  -5.909  10.124  1.00  0.00     0.139 C 
ENDBRANCH  11  12
ENDBRANCH  10  11
ENDBRANCH   2  10
TORSDOF 6
ENDMDL
MODEL 6
REMARK VINA RESULT:    -4.694      1.975      4.418
REMARK INTER + INTRA:          -6.909
REMARK INTER:                  -6.359
REMARK INTRA:                  -0.550
REMARK UNBOUND:                -0.569
REMARK SMILES CC(=O)OCC=C(C)CCC=C(C)C
REMARK SMILES IDX 7 1 6 2 8 3 9 4 10 5 11 6 13 7 12 8 14 9 5 10 4 11 2 12 3 13
REMARK SMILES IDX 1 14
REMARK H PARENT
REMARK Flexibility Score: inf
ROOT
ATOM      1  C   UNL     1      -7.549  -5.668   6.214  1.00  0.00    -0.074 C 
ATOM      2  C   UNL     1      -8.661  -4.932   5.993  1.00  0.00     0.013 C 
ATOM      3  C   UNL     1      -6.610  -5.361   7.356  1.00  0.00     0.039 C 
ENDROOT
BRANCH   1   4
ATOM      4  C   UNL     1      -7.239  -6.830   5.296  1.00  0.00     0.034 C 
BRANCH   4   5
ATOM      5  C   UNL     1      -8.529  -7.437   4.732  1.00  0.00     0.032 C 
BRANCH   5   6
ATOM      6  C   UNL     1      -8.423  -7.624   3.239  1.00  0.00    -0.028 C 
ATOM      7  C   UNL     1      -8.873  -7.173   0.865  1.00  0.00     0.039 C 
ATOM      8  C   UNL     1      -9.039  -6.840   2.326  1.00  0.00    -0.080 C 
ATOM      9  C   UNL     1      -9.867  -5.643   2.727  1.00  0.00     0.039 C 
ENDBRANCH   5   6
ENDBRANCH   4   5
ENDBRANCH   1   4
BRANCH   2  10
ATOM     10  C   UNL     1      -9.069  -3.753   6.839  1.00  0.00     0.260 C 
BRANCH  10  11
ATOM     11  O   UNL     1      -9.465  -2.652   6.023  1.00  0.00    -0.462 OA
BRANCH  11  12
ATOM     12  C   UNL     1     -10.247  -1.591   6.493  1.00  0.00     0.302 C 
ATOM     13  O   UNL     1     -10.288  -1.314   7.723  1.00  0.00    -0.253 OA
ATOM     14  C   UNL     1     -11.000  -0.749   5.521  1.00  0.00     0.139 C 
ENDBRANCH  11  12
ENDBRANCH  10  11
ENDBRANCH   2  10
TORSDOF 6
ENDMDL
MODEL 7
REMARK VINA RESULT:    -4.681      5.193      6.856
REMARK INTER + INTRA:          -6.892
REMARK INTER:                  -6.342
REMARK INTRA:                  -0.550
REMARK UNBOUND:                -0.569
REMARK SMILES CC(=O)OCC=C(C)CCC=C(C)C
REMARK SMILES IDX 7 1 6 2 8 3 9 4 10 5 11 6 13 7 12 8 14 9 5 10 4 11 2 12 3 13
REMARK SMILES IDX 1 14
REMARK H PARENT
REMARK Flexibility Score: inf
ROOT
ATOM      1  C   UNL     1      -9.296  -6.471   1.838  1.00  0.00    -0.074 C 
ATOM      2  C   UNL     1      -9.586  -7.009   0.632  1.00  0.00     0.013 C 
ATOM      3  C   UNL     1      -9.876  -5.147   2.275  1.00  0.00     0.039 C 
ENDROOT
BRANCH   1   4
ATOM      4  C   UNL     1      -8.371  -7.217   2.774  1.00  0.00     0.034 C 
BRANCH   4   5
ATOM      5  C   UNL     1      -8.837  -7.076   4.227  1.00  0.00     0.032 C 
BRANCH   5   6
ATOM      6  C   UNL     1      -7.699  -6.631   5.113  1.00  0.00    -0.028 C 
ATOM      7  C   UNL     1      -6.471  -5.156   6.646  1.00  0.00     0.039 C 
ATOM      8  C   UNL     1      -7.697  -5.490   5.837  1.00  0.00    -0.080 C 
ATOM      9  C   UNL     1      -8.887  -4.560   5.869  1.00  0.00     0.039 C 
ENDBRANCH   5   6
ENDBRANCH   4   5
ENDBRANCH   1   4
BRANCH   2  10
ATOM     10  C   UNL     1     -10.493  -6.358  -0.381  1.00  0.00     0.260 C 
BRANCH  10  11
ATOM     11  O   UNL     1      -9.982  -6.523  -1.703  1.00  0.00    -0.462 OA
BRANCH  11  12
ATOM     12  C   UNL     1     -10.144  -5.567  -2.713  1.00  0.00     0.302 C 
ATOM     13  O   UNL     1      -9.591  -5.715  -3.837  1.00  0.00    -0.253 OA
ATOM     14  C   UNL     1     -11.021  -4.387  -2.471  1.00  0.00     0.139 C 
ENDBRANCH  11  12
ENDBRANCH  10  11
ENDBRANCH   2  10
TORSDOF 6
ENDMDL
MODEL 8
REMARK VINA RESULT:    -4.570      4.329      5.833
REMARK INTER + INTRA:          -6.742
REMARK INTER:                  -6.076
REMARK INTRA:                  -0.666
REMARK UNBOUND:                -0.569
REMARK SMILES CC(=O)OCC=C(C)CCC=C(C)C
REMARK SMILES IDX 7 1 6 2 8 3 9 4 10 5 11 6 13 7 12 8 14 9 5 10 4 11 2 12 3 13
REMARK SMILES IDX 1 14
REMARK H PARENT
REMARK Flexibility Score: inf
ROOT
ATOM      1  C   UNL     1      -7.850  -6.126   5.350  1.00  0.00    -0.074 C 
ATOM      2  C   UNL     1      -7.623  -7.444   5.155  1.00  0.00     0.013 C 
ATOM      3  C   UNL     1      -9.124  -5.465   4.879  1.00  0.00     0.039 C 
ENDROOT
BRANCH   1   4
ATOM      4  C   UNL     1      -6.805  -5.294   6.060  1.00  0.00     0.034 C 
BRANCH   4   5
ATOM      5  C   UNL     1      -6.736  -5.659   7.547  1.00  0.00     0.032 C 
BRANCH   5   6
ATOM      6  C   UNL     1      -7.759  -4.881   8.336  1.00  0.00    -0.028 C 
ATOM      7  C   UNL     1      -9.390  -4.454  10.125  1.00  0.00     0.039 C 
ATOM      8  C   UNL     1      -8.354  -5.328   9.465  1.00  0.00    -0.080 C 
ATOM      9  C   UNL     1      -7.999  -6.659  10.085  1.00  0.00     0.039 C 
ENDBRANCH   5   6
ENDBRANCH   4   5
ENDBRANCH   1   4
BRANCH   2  10
ATOM     10  C   UNL     1      -8.589  -8.370   4.461  1.00  0.00     0.260 C 
BRANCH  10  11
ATOM     11  O   UNL     1      -8.143  -8.677   3.142  1.00  0.00    -0.462 OA
BRANCH  11  12
ATOM     12  C   UNL     1      -8.915  -8.444   1.998  1.00  0.00     0.302 C 
ATOM     13  O   UNL     1      -9.799  -9.268   1.636  1.00  0.00    -0.253 OA
ATOM     14  C   UNL     1      -8.722  -7.182   1.228  1.00  0.00     0.139 C 
ENDBRANCH  11  12
ENDBRANCH  10  11
ENDBRANCH   2  10
TORSDOF 6
ENDMDL
MODEL 9
REMARK VINA RESULT:    -4.517      4.365      7.708
REMARK INTER + INTRA:          -6.670
REMARK INTER:                  -6.054
REMARK INTRA:                  -0.617
REMARK UNBOUND:                -0.569
REMARK SMILES CC(=O)OCC=C(C)CCC=C(C)C
REMARK SMILES IDX 7 1 6 2 8 3 9 4 10 5 11 6 13 7 12 8 14 9 5 10 4 11 2 12 3 13
REMARK SMILES IDX 1 14
REMARK H PARENT
REMARK Flexibility Score: inf
ROOT
ATOM      1  C   UNL     1      -8.956  -6.755   2.822  1.00  0.00    -0.074 C 
ATOM      2  C   UNL     1      -8.869  -6.789   4.171  1.00  0.00     0.013 C 
ATOM      3  C   UNL     1      -8.219  -7.750   1.956  1.00  0.00     0.039 C 
ENDROOT
BRANCH   1   4
ATOM      4  C   UNL     1      -9.813  -5.696   2.164  1.00  0.00     0.034 C 
BRANCH   4   5
ATOM      5  C   UNL     1     -10.927  -6.339   1.329  1.00  0.00     0.032 C 
BRANCH   5   6
ATOM      6  C   UNL     1     -10.883  -5.841  -0.094  1.00  0.00    -0.028 C 
ATOM      7  C   UNL     1     -10.596  -5.980  -2.531  1.00  0.00     0.039 C 
ATOM      8  C   UNL     1     -10.651  -6.626  -1.170  1.00  0.00    -0.080 C 
ATOM      9  C   UNL     1     -10.465  -8.120  -1.047  1.00  0.00     0.039 C 
ENDBRANCH   5   6
ENDBRANCH   4   5
ENDBRANCH   1   4
BRANCH   2  10
ATOM     10  C   UNL     1      -8.047  -7.794   4.935  1.00  0.00     0.260 C 
BRANCH  10  11
ATOM     11  O   UNL     1      -6.922  -7.171   5.550  1.00  0.00    -0.462 OA
BRANCH  11  12
ATOM     12  C   UNL     1      -7.009  -6.426   6.732  1.00  0.00     0.302 C 
ATOM     13  O   UNL     1      -7.062  -6.998   7.854  1.00  0.00    -0.253 OA
ATOM     14  C   UNL     1      -6.986  -4.937   6.662  1.00  0.00     0.139 C 
ENDBRANCH  11  12
ENDBRANCH  10  11
ENDBRANCH   2  10
TORSDOF 6
ENDMDL
