MODEL 1
REMARK VINA RESULT:    -7.443      0.000      0.000
REMARK INTER + INTRA:          -8.522
REMARK INTER:                  -8.749
REMARK INTRA:                   0.227
REMARK UNBOUND:                 0.227
REMARK SMILES CC1(C)CC[C@@]2(C(=O)[O-])CC[C@@]3(C)C(=CC[C@@H]4[C@@]5(C)CC[C@@H](O)[C@](C)(CO)[C@H]5CC[C@@]43C)[C@@H]2C1
REMARK SMILES IDX 6 1 5 2 10 3 33 4 4 5 11 6 14 7 34 8 2 9 12 10 15 11 1 12
REMARK SMILES IDX 3 13 13 14 31 15 16 16 17 17 30 18 32 19 18 20 29 21 28 22
REMARK SMILES IDX 20 23 19 24 24 25 21 26 22 27 25 28 7 29 8 30 9 31 26 32
REMARK SMILES IDX 27 33 23 35
REMARK H PARENT 27 34 23 36
REMARK Flexibility Score: inf
ROOT
ATOM      1  C   UNL     1       9.601  36.761   8.967  1.00  0.00     0.017 C 
ATOM      2  C   UNL     1      10.870  35.876   9.072  1.00  0.00     0.014 C 
ATOM      3  C   UNL     1       8.623  36.379  10.126  1.00  0.00     0.014 C 
ATOM      4  C   UNL     1      10.018  38.258   9.161  1.00  0.00     0.028 C 
ATOM      5  C   UNL     1      11.975  36.314   8.092  1.00  0.00     0.007 C 
ATOM      6  C   UNL     1       7.413  37.345  10.289  1.00  0.00     0.013 C 
ATOM      7  C   UNL     1       8.754  39.124   9.205  1.00  0.00    -0.064 C 
ATOM      8  C   UNL     1      11.155  38.727   8.211  1.00  0.00     0.015 C 
ATOM      9  C   UNL     1      12.403  37.799   8.263  1.00  0.00    -0.035 C 
ATOM     10  C   UNL     1       7.790  38.870  10.371  1.00  0.00    -0.006 C 
ATOM     11  C   UNL     1       8.276  39.629   8.061  1.00  0.00    -0.027 C 
ATOM     12  C   UNL     1      13.189  37.993   9.584  1.00  0.00     0.011 C 
ATOM     13  C   UNL     1      13.349  38.172   7.100  1.00  0.00     0.011 C 
ATOM     14  C   UNL     1       8.574  39.090  11.711  1.00  0.00     0.017 C 
ATOM     15  C   UNL     1       6.478  39.854  10.306  1.00  0.00    -0.020 C 
ATOM     16  C   UNL     1       6.832  39.476   7.738  1.00  0.00     0.032 C 
ATOM     17  C   UNL     1       5.864  40.023   8.829  1.00  0.00     0.006 C 
ATOM     18  C   UNL     1       6.797  41.290  10.869  1.00  0.00     0.008 C 
ATOM     19  C   UNL     1       5.377  39.234  11.230  1.00  0.00     0.012 C 
ATOM     20  C   UNL     1       5.276  41.470   8.440  1.00  0.00    -0.025 C 
ATOM     21  C   UNL     1       7.363  42.255   9.828  1.00  0.00     0.005 C 
ATOM     22  C   UNL     1       6.408  42.575   8.620  1.00  0.00     0.006 C 
ATOM     23  C   UNL     1       3.999  41.814   9.285  1.00  0.00     0.010 C 
ATOM     24  C   UNL     1       4.764  41.400   6.954  1.00  0.00     0.012 C 
ATOM     25  C   UNL     1       5.893  44.090   8.571  1.00  0.00     0.020 C 
ATOM     26  C   UNL     1       3.525  43.272   9.166  1.00  0.00     0.033 C 
ATOM     27  C   UNL     1       4.643  44.274   9.486  1.00  0.00     0.123 C 
ATOM     28  C   UNL     1       6.989  45.111   9.019  1.00  0.00     0.017 C 
ENDROOT
BRANCH   1  29
ATOM     29  C   UNL     1       8.916  36.460   7.630  1.00  0.00     0.048 C 
ATOM     30  O   UNL     1       7.799  35.878   7.610  1.00  0.00    -0.550 OA
ATOM     31  O   UNL     1       9.530  36.729   6.415  1.00  0.00    -0.550 OA
ENDBRANCH   1  29
BRANCH  25  32
ATOM     32  C   UNL     1       5.539  44.524   7.109  1.00  0.00     0.165 C 
BRANCH  32  33
ATOM     33  O   UNL     1       6.700  44.871   6.393  1.00  0.00    -0.396 OA
ATOM     34  H   UNL     1       6.437  44.985   5.441  1.00  0.00     0.210 HD
ENDBRANCH  32  33
ENDBRANCH  25  32
BRANCH  27  35
ATOM     35  O   UNL     1       4.998  44.129  10.841  1.00  0.00    -0.392 OA
ATOM     36  H   UNL     1       4.538  44.845  11.355  1.00  0.00     0.210 HD
ENDBRANCH  27  35
TORSDOF 4
ENDMDL
MODEL 2
REMARK VINA RESULT:    -7.302      2.383      7.923
REMARK INTER + INTRA:          -8.356
REMARK INTER:                  -8.583
REMARK INTRA:                   0.227
REMARK UNBOUND:                 0.227
REMARK SMILES CC1(C)CC[C@@]2(C(=O)[O-])CC[C@@]3(C)C(=CC[C@@H]4[C@@]5(C)CC[C@@H](O)[C@](C)(CO)[C@H]5CC[C@@]43C)[C@@H]2C1
REMARK SMILES IDX 6 1 5 2 10 3 33 4 4 5 11 6 14 7 34 8 2 9 12 10 15 11 1 12
REMARK SMILES IDX 3 13 13 14 31 15 16 16 17 17 30 18 32 19 18 20 29 21 28 22
REMARK SMILES IDX 20 23 19 24 24 25 21 26 22 27 25 28 7 29 8 30 9 31 26 32
REMARK SMILES IDX 27 33 23 35
REMARK H PARENT 27 34 23 36
REMARK Flexibility Score: inf
ROOT
ATOM      1  C   UNL     1       5.645  44.807   9.146  1.00  0.00     0.017 C 
ATOM      2  C   UNL     1       5.127  46.224   9.504  1.00  0.00     0.014 C 
ATOM      3  C   UNL     1       7.208  44.841   9.094  1.00  0.00     0.014 C 
ATOM      4  C   UNL     1       5.221  43.818  10.284  1.00  0.00     0.028 C 
ATOM      5  C   UNL     1       3.610  46.246   9.771  1.00  0.00     0.007 C 
ATOM      6  C   UNL     1       7.876  43.439   8.980  1.00  0.00     0.013 C 
ATOM      7  C   UNL     1       5.853  42.448  10.012  1.00  0.00    -0.064 C 
ATOM      8  C   UNL     1       3.701  43.836  10.605  1.00  0.00     0.015 C 
ATOM      9  C   UNL     1       3.164  45.268  10.894  1.00  0.00    -0.035 C 
ATOM     10  C   UNL     1       7.386  42.384  10.039  1.00  0.00    -0.006 C 
ATOM     11  C   UNL     1       5.176  41.557   9.279  1.00  0.00    -0.027 C 
ATOM     12  C   UNL     1       3.640  45.773  12.280  1.00  0.00     0.011 C 
ATOM     13  C   UNL     1       1.620  45.224  10.921  1.00  0.00     0.011 C 
ATOM     14  C   UNL     1       7.873  42.871  11.447  1.00  0.00     0.017 C 
ATOM     15  C   UNL     1       7.940  40.870   9.732  1.00  0.00    -0.020 C 
ATOM     16  C   UNL     1       5.854  40.869   8.147  1.00  0.00     0.032 C 
ATOM     17  C   UNL     1       7.164  40.123   8.538  1.00  0.00     0.006 C 
ATOM     18  C   UNL     1       7.870  39.953  11.009  1.00  0.00     0.008 C 
ATOM     19  C   UNL     1       9.450  40.991   9.337  1.00  0.00     0.012 C 
ATOM     20  C   UNL     1       6.929  38.538   8.694  1.00  0.00    -0.025 C 
ATOM     21  C   UNL     1       6.529  39.243  11.193  1.00  0.00     0.005 C 
ATOM     22  C   UNL     1       6.135  38.244  10.042  1.00  0.00     0.006 C 
ATOM     23  C   UNL     1       8.286  37.751   8.645  1.00  0.00     0.010 C 
ATOM     24  C   UNL     1       6.133  38.040   7.431  1.00  0.00     0.012 C 
ATOM     25  C   UNL     1       6.098  36.707  10.490  1.00  0.00     0.020 C 
ATOM     26  C   UNL     1       8.183  36.269   9.042  1.00  0.00     0.033 C 
ATOM     27  C   UNL     1       7.525  36.081  10.416  1.00  0.00     0.123 C 
ATOM     28  C   UNL     1       5.548  36.517  11.940  1.00  0.00     0.017 C 
ENDROOT
BRANCH   1  29
ATOM     29  C   UNL     1       5.117  44.440   7.755  1.00  0.00     0.048 C 
ATOM     30  O   UNL     1       5.730  44.829   6.725  1.00  0.00    -0.550 OA
ATOM     31  O   UNL     1       3.920  43.761   7.581  1.00  0.00    -0.550 OA
ENDBRANCH   1  29
BRANCH  25  32
ATOM     32  C   UNL     1       5.117  35.878   9.594  1.00  0.00     0.165 C 
BRANCH  32  33
ATOM     33  O   UNL     1       3.820  35.875  10.140  1.00  0.00    -0.396 OA
ATOM     34  H   UNL     1       3.225  36.339   9.492  1.00  0.00     0.210 HD
ENDBRANCH  32  33
ENDBRANCH  25  32
BRANCH  27  35
ATOM     35  O   UNL     1       8.364  36.651  11.394  1.00  0.00    -0.392 OA
ATOM     36  H   UNL     1       9.090  37.141  10.924  1.00  0.00     0.210 HD
ENDBRANCH  27  35
TORSDOF 4
ENDMDL
MODEL 3
REMARK VINA RESULT:    -7.062     10.863     15.401
REMARK INTER + INTRA:          -8.073
REMARK INTER:                  -8.237
REMARK INTRA:                   0.163
REMARK UNBOUND:                 0.227
REMARK SMILES CC1(C)CC[C@@]2(C(=O)[O-])CC[C@@]3(C)C(=CC[C@@H]4[C@@]5(C)CC[C@@H](O)[C@](C)(CO)[C@H]5CC[C@@]43C)[C@@H]2C1
REMARK SMILES IDX 6 1 5 2 10 3 33 4 4 5 11 6 14 7 34 8 2 9 12 10 15 11 1 12
REMARK SMILES IDX 3 13 13 14 31 15 16 16 17 17 30 18 32 19 18 20 29 21 28 22
REMARK SMILES IDX 20 23 19 24 24 25 21 26 22 27 25 28 7 29 8 30 9 31 26 32
REMARK SMILES IDX 27 33 23 35
REMARK H PARENT 27 34 23 36
REMARK Flexibility Score: inf
ROOT
ATOM      1  C   UNL     1      12.845  54.395   1.539  1.00  0.00     0.017 C 
ATOM      2  C   UNL     1      13.589  55.547   2.263  1.00  0.00     0.014 C 
ATOM      3  C   UNL     1      13.792  53.791   0.450  1.00  0.00     0.014 C 
ATOM      4  C   UNL     1      12.530  53.271   2.582  1.00  0.00     0.028 C 
ATOM      5  C   UNL     1      12.811  56.075   3.483  1.00  0.00     0.007 C 
ATOM      6  C   UNL     1      13.268  52.473  -0.194  1.00  0.00     0.013 C 
ATOM      7  C   UNL     1      11.927  52.067   1.849  1.00  0.00    -0.064 C 
ATOM      8  C   UNL     1      11.774  53.772   3.844  1.00  0.00     0.015 C 
ATOM      9  C   UNL     1      12.482  54.975   4.531  1.00  0.00    -0.035 C 
ATOM     10  C   UNL     1      12.833  51.362   0.831  1.00  0.00    -0.006 C 
ATOM     11  C   UNL     1      10.599  52.000   1.697  1.00  0.00    -0.027 C 
ATOM     12  C   UNL     1      13.767  54.520   5.269  1.00  0.00     0.011 C 
ATOM     13  C   UNL     1      11.528  55.576   5.588  1.00  0.00     0.011 C 
ATOM     14  C   UNL     1      14.125  50.878   1.576  1.00  0.00     0.017 C 
ATOM     15  C   UNL     1      12.076  50.096   0.112  1.00  0.00    -0.020 C 
ATOM     16  C   UNL     1      10.027  51.711   0.354  1.00  0.00     0.032 C 
ATOM     17  C   UNL     1      10.552  50.398  -0.301  1.00  0.00     0.006 C 
ATOM     18  C   UNL     1      12.090  48.814   1.026  1.00  0.00     0.008 C 
ATOM     19  C   UNL     1      12.877  49.741  -1.186  1.00  0.00     0.012 C 
ATOM     20  C   UNL     1       9.498  49.190  -0.152  1.00  0.00    -0.025 C 
ATOM     21  C   UNL     1      10.922  48.738   2.009  1.00  0.00     0.005 C 
ATOM     22  C   UNL     1       9.494  48.663   1.350  1.00  0.00     0.006 C 
ATOM     23  C   UNL     1       9.809  48.032  -1.165  1.00  0.00     0.010 C 
ATOM     24  C   UNL     1       8.083  49.728  -0.583  1.00  0.00     0.012 C 
ATOM     25  C   UNL     1       8.734  47.274   1.582  1.00  0.00     0.020 C 
ATOM     26  C   UNL     1       9.018  46.736  -0.920  1.00  0.00     0.033 C 
ATOM     27  C   UNL     1       9.176  46.223   0.518  1.00  0.00     0.123 C 
ATOM     28  C   UNL     1       8.993  46.678   3.004  1.00  0.00     0.017 C 
ENDROOT
BRANCH   1  29
ATOM     29  C   UNL     1      11.612  54.982   0.844  1.00  0.00     0.048 C 
ATOM     30  O   UNL     1      11.661  55.286  -0.378  1.00  0.00    -0.550 OA
ATOM     31  O   UNL     1      10.450  55.279   1.541  1.00  0.00    -0.550 OA
ENDBRANCH   1  29
BRANCH  25  32
ATOM     32  C   UNL     1       7.180  47.458   1.520  1.00  0.00     0.165 C 
BRANCH  32  33
ATOM     33  O   UNL     1       6.622  47.453   2.812  1.00  0.00    -0.396 OA
ATOM     34  H   UNL     1       6.753  48.360   3.195  1.00  0.00     0.210 HD
ENDBRANCH  32  33
ENDBRANCH  25  32
BRANCH  27  35
ATOM     35  O   UNL     1      10.521  45.857   0.716  1.00  0.00    -0.392 OA
ATOM     36  H   UNL     1      11.060  46.692   0.763  1.00  0.00     0.210 HD
ENDBRANCH  27  35
TORSDOF 4
ENDMDL
MODEL 4
REMARK VINA RESULT:    -6.944      2.487      3.595
REMARK INTER + INTRA:          -7.935
REMARK INTER:                  -8.067
REMARK INTRA:                   0.132
REMARK UNBOUND:                 0.227
REMARK SMILES CC1(C)CC[C@@]2(C(=O)[O-])CC[C@@]3(C)C(=CC[C@@H]4[C@@]5(C)CC[C@@H](O)[C@](C)(CO)[C@H]5CC[C@@]43C)[C@@H]2C1
REMARK SMILES IDX 6 1 5 2 10 3 33 4 4 5 11 6 14 7 34 8 2 9 12 10 15 11 1 12
REMARK SMILES IDX 3 13 13 14 31 15 16 16 17 17 30 18 32 19 18 20 29 21 28 22
REMARK SMILES IDX 20 23 19 24 24 25 21 26 22 27 25 28 7 29 8 30 9 31 26 32
REMARK SMILES IDX 27 33 23 35
REMARK H PARENT 27 34 23 36
REMARK Flexibility Score: inf
ROOT
ATOM      1  C   UNL     1      11.338  39.651  11.254  1.00  0.00     0.017 C 
ATOM      2  C   UNL     1      12.605  38.756  11.252  1.00  0.00     0.014 C 
ATOM      3  C   UNL     1      11.371  40.565  12.522  1.00  0.00     0.014 C 
ATOM      4  C   UNL     1      11.378  40.576   9.991  1.00  0.00     0.028 C 
ATOM      5  C   UNL     1      12.761  37.960   9.942  1.00  0.00     0.007 C 
ATOM      6  C   UNL     1      10.285  41.682  12.535  1.00  0.00     0.013 C 
ATOM      7  C   UNL     1      10.209  41.563  10.061  1.00  0.00    -0.064 C 
ATOM      8  C   UNL     1      11.568  39.811   8.651  1.00  0.00     0.015 C 
ATOM      9  C   UNL     1      12.799  38.857   8.672  1.00  0.00    -0.035 C 
ATOM     10  C   UNL     1      10.222  42.558  11.230  1.00  0.00    -0.006 C 
ATOM     11  C   UNL     1       9.038  41.221   9.509  1.00  0.00    -0.027 C 
ATOM     12  C   UNL     1      14.125  39.656   8.606  1.00  0.00     0.011 C 
ATOM     13  C   UNL     1      12.742  37.946   7.427  1.00  0.00     0.011 C 
ATOM     14  C   UNL     1      11.550  43.386  11.154  1.00  0.00     0.017 C 
ATOM     15  C   UNL     1       8.920  43.557  11.198  1.00  0.00    -0.020 C 
ATOM     16  C   UNL     1       7.783  41.377  10.292  1.00  0.00     0.032 C 
ATOM     17  C   UNL     1       7.539  42.815  10.840  1.00  0.00     0.006 C 
ATOM     18  C   UNL     1       9.117  44.739  10.176  1.00  0.00     0.008 C 
ATOM     19  C   UNL     1       8.781  44.198  12.619  1.00  0.00     0.012 C 
ATOM     20  C   UNL     1       6.479  43.628   9.942  1.00  0.00    -0.025 C 
ATOM     21  C   UNL     1       8.686  44.406   8.749  1.00  0.00     0.005 C 
ATOM     22  C   UNL     1       7.161  44.062   8.571  1.00  0.00     0.006 C 
ATOM     23  C   UNL     1       5.907  44.868  10.716  1.00  0.00     0.010 C 
ATOM     24  C   UNL     1       5.233  42.697   9.702  1.00  0.00     0.012 C 
ATOM     25  C   UNL     1       6.340  45.136   7.713  1.00  0.00     0.020 C 
ATOM     26  C   UNL     1       5.091  45.843   9.851  1.00  0.00     0.033 C 
ATOM     27  C   UNL     1       5.871  46.317   8.617  1.00  0.00     0.123 C 
ATOM     28  C   UNL     1       7.173  45.721   6.527  1.00  0.00     0.017 C 
ENDROOT
BRANCH   1  29
ATOM     29  C   UNL     1      10.108  38.741  11.337  1.00  0.00     0.048 C 
ATOM     30  O   UNL     1       9.572  38.506  12.453  1.00  0.00    -0.550 OA
ATOM     31  O   UNL     1       9.606  38.082  10.224  1.00  0.00    -0.550 OA
ENDBRANCH   1  29
BRANCH  25  32
ATOM     32  C   UNL     1       5.096  44.482   7.022  1.00  0.00     0.165 C 
BRANCH  32  33
ATOM     33  O   UNL     1       5.484  43.731   5.897  1.00  0.00    -0.396 OA
ATOM     34  H   UNL     1       4.909  44.016   5.138  1.00  0.00     0.210 HD
ENDBRANCH  32  33
ENDBRANCH  25  32
BRANCH  27  35
ATOM     35  O   UNL     1       6.977  47.073   9.052  1.00  0.00    -0.392 OA
ATOM     36  H   UNL     1       7.599  47.174   8.283  1.00  0.00     0.210 HD
ENDBRANCH  27  35
TORSDOF 4
ENDMDL
MODEL 5
REMARK VINA RESULT:    -6.381      1.770      7.575
REMARK INTER + INTRA:          -7.273
REMARK INTER:                  -7.471
REMARK INTRA:                   0.198
REMARK UNBOUND:                 0.227
REMARK SMILES CC1(C)CC[C@@]2(C(=O)[O-])CC[C@@]3(C)C(=CC[C@@H]4[C@@]5(C)CC[C@@H](O)[C@](C)(CO)[C@H]5CC[C@@]43C)[C@@H]2C1
REMARK SMILES IDX 6 1 5 2 10 3 33 4 4 5 11 6 14 7 34 8 2 9 12 10 15 11 1 12
REMARK SMILES IDX 3 13 13 14 31 15 16 16 17 17 30 18 32 19 18 20 29 21 28 22
REMARK SMILES IDX 20 23 19 24 24 25 21 26 22 27 25 28 7 29 8 30 9 31 26 32
REMARK SMILES IDX 27 33 23 35
REMARK H PARENT 27 34 23 36
REMARK Flexibility Score: inf
ROOT
ATOM      1  C   UNL     1       6.449  45.005   9.586  1.00  0.00     0.017 C 
ATOM      2  C   UNL     1       6.212  46.423   9.004  1.00  0.00     0.014 C 
ATOM      3  C   UNL     1       5.064  44.305   9.782  1.00  0.00     0.014 C 
ATOM      4  C   UNL     1       7.270  44.170   8.548  1.00  0.00     0.028 C 
ATOM      5  C   UNL     1       7.525  47.117   8.594  1.00  0.00     0.007 C 
ATOM      6  C   UNL     1       5.156  42.791  10.135  1.00  0.00     0.013 C 
ATOM      7  C   UNL     1       7.383  42.726   9.049  1.00  0.00    -0.064 C 
ATOM      8  C   UNL     1       8.587  44.853   8.085  1.00  0.00     0.015 C 
ATOM      9  C   UNL     1       8.361  46.304   7.566  1.00  0.00    -0.035 C 
ATOM     10  C   UNL     1       6.070  41.942   9.176  1.00  0.00    -0.006 C 
ATOM     11  C   UNL     1       8.421  42.387   9.822  1.00  0.00    -0.027 C 
ATOM     12  C   UNL     1       7.670  46.300   6.179  1.00  0.00     0.011 C 
ATOM     13  C   UNL     1       9.735  46.991   7.399  1.00  0.00     0.011 C 
ATOM     14  C   UNL     1       5.377  41.913   7.770  1.00  0.00     0.017 C 
ATOM     15  C   UNL     1       6.319  40.415   9.724  1.00  0.00    -0.020 C 
ATOM     16  C   UNL     1       8.184  41.648  11.091  1.00  0.00     0.032 C 
ATOM     17  C   UNL     1       7.386  40.320  10.924  1.00  0.00     0.006 C 
ATOM     18  C   UNL     1       6.794  39.453   8.571  1.00  0.00     0.008 C 
ATOM     19  C   UNL     1       4.946  39.868  10.241  1.00  0.00     0.012 C 
ATOM     20  C   UNL     1       8.351  39.032  10.948  1.00  0.00    -0.025 C 
ATOM     21  C   UNL     1       8.306  39.442   8.353  1.00  0.00     0.005 C 
ATOM     22  C   UNL     1       9.158  38.941   9.578  1.00  0.00     0.006 C 
ATOM     23  C   UNL     1       7.542  37.716  11.225  1.00  0.00     0.010 C 
ATOM     24  C   UNL     1       9.317  39.174  12.182  1.00  0.00     0.012 C 
ATOM     25  C   UNL     1       9.920  37.556   9.328  1.00  0.00     0.020 C 
ATOM     26  C   UNL     1       8.337  36.417  11.010  1.00  0.00     0.033 C 
ATOM     27  C   UNL     1       8.973  36.350   9.615  1.00  0.00     0.123 C 
ATOM     28  C   UNL     1      10.462  37.424   7.868  1.00  0.00     0.017 C 
ENDROOT
BRANCH   1  29
ATOM     29  C   UNL     1       7.119  45.154  10.956  1.00  0.00     0.048 C 
ATOM     30  O   UNL     1       6.420  45.149  12.005  1.00  0.00    -0.550 OA
ATOM     31  O   UNL     1       8.481  45.389  11.084  1.00  0.00    -0.550 OA
ENDBRANCH   1  29
BRANCH  25  32
ATOM     32  C   UNL     1      11.199  37.440  10.224  1.00  0.00     0.165 C 
BRANCH  32  33
ATOM     33  O   UNL     1      11.585  36.095  10.376  1.00  0.00    -0.396 OA
ATOM     34  H   UNL     1      10.754  35.553  10.438  1.00  0.00     0.210 HD
ENDBRANCH  32  33
ENDBRANCH  25  32
BRANCH  27  35
ATOM     35  O   UNL     1       7.942  36.295   8.657  1.00  0.00    -0.392 OA
ATOM     36  H   UNL     1       8.308  35.860   7.840  1.00  0.00     0.210 HD
ENDBRANCH  27  35
TORSDOF 4
ENDMDL
MODEL 6
REMARK VINA RESULT:    -6.287      2.389      8.024
REMARK INTER + INTRA:          -7.163
REMARK INTER:                  -7.313
REMARK INTRA:                   0.150
REMARK UNBOUND:                 0.227
REMARK SMILES CC1(C)CC[C@@]2(C(=O)[O-])CC[C@@]3(C)C(=CC[C@@H]4[C@@]5(C)CC[C@@H](O)[C@](C)(CO)[C@H]5CC[C@@]43C)[C@@H]2C1
REMARK SMILES IDX 6 1 5 2 10 3 33 4 4 5 11 6 14 7 34 8 2 9 12 10 15 11 1 12
REMARK SMILES IDX 3 13 13 14 31 15 16 16 17 17 30 18 32 19 18 20 29 21 28 22
REMARK SMILES IDX 20 23 19 24 24 25 21 26 22 27 25 28 7 29 8 30 9 31 26 32
REMARK SMILES IDX 27 33 23 35
REMARK H PARENT 27 34 23 36
REMARK Flexibility Score: inf
ROOT
ATOM      1  C   UNL     1       8.829  44.499  10.485  1.00  0.00     0.017 C 
ATOM      2  C   UNL     1       7.763  45.608  10.678  1.00  0.00     0.014 C 
ATOM      3  C   UNL     1       9.654  44.359  11.806  1.00  0.00     0.014 C 
ATOM      4  C   UNL     1       8.095  43.140  10.227  1.00  0.00     0.028 C 
ATOM      5  C   UNL     1       6.773  45.686   9.500  1.00  0.00     0.007 C 
ATOM      6  C   UNL     1      10.602  43.124  11.841  1.00  0.00     0.013 C 
ATOM      7  C   UNL     1       9.135  42.015  10.180  1.00  0.00    -0.064 C 
ATOM      8  C   UNL     1       7.064  43.188   9.066  1.00  0.00     0.015 C 
ATOM      9  C   UNL     1       6.035  44.346   9.221  1.00  0.00    -0.035 C 
ATOM     10  C   UNL     1       9.920  41.755  11.473  1.00  0.00    -0.006 C 
ATOM     11  C   UNL     1       9.688  41.693   9.005  1.00  0.00    -0.027 C 
ATOM     12  C   UNL     1       5.015  44.039  10.347  1.00  0.00     0.011 C 
ATOM     13  C   UNL     1       5.243  44.488   7.903  1.00  0.00     0.011 C 
ATOM     14  C   UNL     1       8.895  41.419  12.611  1.00  0.00     0.017 C 
ATOM     15  C   UNL     1      11.001  40.533  11.297  1.00  0.00    -0.020 C 
ATOM     16  C   UNL     1      11.168  41.573   8.898  1.00  0.00     0.032 C 
ATOM     17  C   UNL     1      11.809  40.574   9.906  1.00  0.00     0.006 C 
ATOM     18  C   UNL     1      10.312  39.122  11.420  1.00  0.00     0.008 C 
ATOM     19  C   UNL     1      12.033  40.642  12.469  1.00  0.00     0.012 C 
ATOM     20  C   UNL     1      12.153  39.161   9.216  1.00  0.00    -0.025 C 
ATOM     21  C   UNL     1       9.748  38.588  10.104  1.00  0.00     0.005 C 
ATOM     22  C   UNL     1      10.810  38.343   8.968  1.00  0.00     0.006 C 
ATOM     23  C   UNL     1      13.175  38.338  10.077  1.00  0.00     0.010 C 
ATOM     24  C   UNL     1      12.912  39.454   7.868  1.00  0.00     0.012 C 
ATOM     25  C   UNL     1      11.012  36.804   8.577  1.00  0.00     0.020 C 
ATOM     26  C   UNL     1      13.361  36.878   9.629  1.00  0.00     0.033 C 
ATOM     27  C   UNL     1      12.028  36.122   9.545  1.00  0.00     0.123 C 
ATOM     28  C   UNL     1       9.676  35.995   8.613  1.00  0.00     0.017 C 
ENDROOT
BRANCH   1  29
ATOM     29  C   UNL     1       9.775  44.934   9.360  1.00  0.00     0.048 C 
ATOM     30  O   UNL     1      10.900  45.431   9.639  1.00  0.00    -0.550 OA
ATOM     31  O   UNL     1       9.400  44.884   8.026  1.00  0.00    -0.550 OA
ENDBRANCH   1  29
BRANCH  25  32
ATOM     32  C   UNL     1      11.514  36.653   7.102  1.00  0.00     0.165 C 
BRANCH  32  33
ATOM     33  O   UNL     1      10.432  36.654   6.201  1.00  0.00    -0.396 OA
ATOM     34  H   UNL     1       9.675  37.116   6.649  1.00  0.00     0.210 HD
ENDBRANCH  32  33
ENDBRANCH  25  32
BRANCH  27  35
ATOM     35  O   UNL     1      11.487  36.027  10.841  1.00  0.00    -0.392 OA
ATOM     36  H   UNL     1      11.707  36.866  11.326  1.00  0.00     0.210 HD
ENDBRANCH  27  35
TORSDOF 4
ENDMDL
MODEL 7
REMARK VINA RESULT:    -6.036      3.522      6.545
REMARK INTER + INTRA:          -6.868
REMARK INTER:                  -6.977
REMARK INTRA:                   0.109
REMARK UNBOUND:                 0.227
REMARK SMILES CC1(C)CC[C@@]2(C(=O)[O-])CC[C@@]3(C)C(=CC[C@@H]4[C@@]5(C)CC[C@@H](O)[C@](C)(CO)[C@H]5CC[C@@]43C)[C@@H]2C1
REMARK SMILES IDX 6 1 5 2 10 3 33 4 4 5 11 6 14 7 34 8 2 9 12 10 15 11 1 12
REMARK SMILES IDX 3 13 13 14 31 15 16 16 17 17 30 18 32 19 18 20 29 21 28 22
REMARK SMILES IDX 20 23 19 24 24 25 21 26 22 27 25 28 7 29 8 30 9 31 26 32
REMARK SMILES IDX 27 33 23 35
REMARK H PARENT 27 34 23 36
REMARK Flexibility Score: inf
ROOT
ATOM      1  C   UNL     1      11.793  43.666  10.610  1.00  0.00     0.017 C 
ATOM      2  C   UNL     1      12.255  45.146  10.584  1.00  0.00     0.014 C 
ATOM      3  C   UNL     1      11.362  43.299  12.068  1.00  0.00     0.014 C 
ATOM      4  C   UNL     1      10.539  43.518   9.685  1.00  0.00     0.028 C 
ATOM      5  C   UNL     1      12.513  45.657   9.154  1.00  0.00     0.007 C 
ATOM      6  C   UNL     1      10.652  41.920  12.199  1.00  0.00     0.013 C 
ATOM      7  C   UNL     1       9.988  42.094   9.818  1.00  0.00    -0.064 C 
ATOM      8  C   UNL     1      10.750  44.053   8.241  1.00  0.00     0.015 C 
ATOM      9  C   UNL     1      11.283  45.516   8.214  1.00  0.00    -0.035 C 
ATOM     10  C   UNL     1       9.458  41.693  11.201  1.00  0.00    -0.006 C 
ATOM     11  C   UNL     1      10.442  41.144   8.993  1.00  0.00    -0.027 C 
ATOM     12  C   UNL     1      10.172  46.521   8.611  1.00  0.00     0.011 C 
ATOM     13  C   UNL     1      11.725  45.857   6.774  1.00  0.00     0.011 C 
ATOM     14  C   UNL     1       8.317  42.692  11.599  1.00  0.00     0.017 C 
ATOM     15  C   UNL     1       8.899  40.149  11.218  1.00  0.00    -0.020 C 
ATOM     16  C   UNL     1      10.898  39.842   9.552  1.00  0.00     0.032 C 
ATOM     17  C   UNL     1       9.837  39.109  10.427  1.00  0.00     0.006 C 
ATOM     18  C   UNL     1       7.446  40.048  10.621  1.00  0.00     0.008 C 
ATOM     19  C   UNL     1       8.813  39.695  12.714  1.00  0.00     0.012 C 
ATOM     20  C   UNL     1       9.104  37.927   9.619  1.00  0.00    -0.025 C 
ATOM     21  C   UNL     1       7.408  39.867   9.104  1.00  0.00     0.005 C 
ATOM     22  C   UNL     1       8.082  38.550   8.568  1.00  0.00     0.006 C 
ATOM     23  C   UNL     1       8.385  36.929  10.593  1.00  0.00     0.010 C 
ATOM     24  C   UNL     1      10.213  37.065   8.910  1.00  0.00     0.012 C 
ATOM     25  C   UNL     1       7.060  37.507   7.912  1.00  0.00     0.020 C 
ATOM     26  C   UNL     1       7.448  35.922   9.904  1.00  0.00     0.033 C 
ATOM     27  C   UNL     1       6.408  36.614   9.012  1.00  0.00     0.123 C 
ATOM     28  C   UNL     1       5.920  38.210   7.106  1.00  0.00     0.017 C 
ENDROOT
BRANCH   1  29
ATOM     29  C   UNL     1      12.983  42.785  10.215  1.00  0.00     0.048 C 
ATOM     30  O   UNL     1      13.693  42.246  11.107  1.00  0.00    -0.550 OA
ATOM     31  O   UNL     1      13.370  42.625   8.893  1.00  0.00    -0.550 OA
ENDBRANCH   1  29
BRANCH  25  32
ATOM     32  C   UNL     1       7.773  36.598   6.856  1.00  0.00     0.165 C 
BRANCH  32  33
ATOM     33  O   UNL     1       8.179  37.351   5.737  1.00  0.00    -0.396 OA
ATOM     34  H   UNL     1       7.557  37.133   4.993  1.00  0.00     0.210 HD
ENDBRANCH  32  33
ENDBRANCH  25  32
BRANCH  27  35
ATOM     35  O   UNL     1       5.558  37.382   9.831  1.00  0.00    -0.392 OA
ATOM     36  H   UNL     1       5.153  36.773  10.505  1.00  0.00     0.210 HD
ENDBRANCH  27  35
TORSDOF 4
ENDMDL
MODEL 8
REMARK VINA RESULT:    -5.769      3.606      5.684
REMARK INTER + INTRA:          -6.554
REMARK INTER:                  -6.722
REMARK INTRA:                   0.169
REMARK UNBOUND:                 0.227
REMARK SMILES CC1(C)CC[C@@]2(C(=O)[O-])CC[C@@]3(C)C(=CC[C@@H]4[C@@]5(C)CC[C@@H](O)[C@](C)(CO)[C@H]5CC[C@@]43C)[C@@H]2C1
REMARK SMILES IDX 6 1 5 2 10 3 33 4 4 5 11 6 14 7 34 8 2 9 12 10 15 11 1 12
REMARK SMILES IDX 3 13 13 14 31 15 16 16 17 17 30 18 32 19 18 20 29 21 28 22
REMARK SMILES IDX 20 23 19 24 24 25 21 26 22 27 25 28 7 29 8 30 9 31 26 32
REMARK SMILES IDX 27 33 23 35
REMARK H PARENT 27 34 23 36
REMARK Flexibility Score: inf
ROOT
ATOM      1  C   UNL     1       9.715  37.991   9.887  1.00  0.00     0.017 C 
ATOM      2  C   UNL     1       9.221  36.565   9.530  1.00  0.00     0.014 C 
ATOM      3  C   UNL     1      11.202  37.903  10.365  1.00  0.00     0.014 C 
ATOM      4  C   UNL     1       9.676  38.872   8.593  1.00  0.00     0.028 C 
ATOM      5  C   UNL     1       7.832  36.574   8.864  1.00  0.00     0.007 C 
ATOM      6  C   UNL     1      11.905  39.282  10.531  1.00  0.00     0.013 C 
ATOM      7  C   UNL     1      10.299  40.238   8.903  1.00  0.00    -0.064 C 
ATOM      8  C   UNL     1       8.298  38.879   7.874  1.00  0.00     0.015 C 
ATOM      9  C   UNL     1       7.766  37.447   7.579  1.00  0.00    -0.035 C 
ATOM     10  C   UNL     1      11.785  40.240   9.288  1.00  0.00    -0.006 C 
ATOM     11  C   UNL     1       9.510  41.225   9.342  1.00  0.00    -0.027 C 
ATOM     12  C   UNL     1       8.561  36.783   6.425  1.00  0.00     0.011 C 
ATOM     13  C   UNL     1       6.292  37.547   7.129  1.00  0.00     0.011 C 
ATOM     14  C   UNL     1      12.597  39.592   8.115  1.00  0.00     0.017 C 
ATOM     15  C   UNL     1      12.334  41.755   9.598  1.00  0.00    -0.020 C 
ATOM     16  C   UNL     1       9.905  42.000  10.549  1.00  0.00     0.032 C 
ATOM     17  C   UNL     1      11.318  42.652  10.464  1.00  0.00     0.006 C 
ATOM     18  C   UNL     1      12.666  42.537   8.272  1.00  0.00     0.008 C 
ATOM     19  C   UNL     1      13.673  41.618  10.397  1.00  0.00     0.012 C 
ATOM     20  C   UNL     1      11.236  44.219  10.109  1.00  0.00    -0.025 C 
ATOM     21  C   UNL     1      11.472  43.275   7.669  1.00  0.00     0.005 C 
ATOM     22  C   UNL     1      10.852  44.402   8.575  1.00  0.00     0.006 C 
ATOM     23  C   UNL     1      12.579  44.954  10.454  1.00  0.00     0.010 C 
ATOM     24  C   UNL     1      10.166  44.875  11.058  1.00  0.00     0.012 C 
ATOM     25  C   UNL     1      11.035  45.885   7.999  1.00  0.00     0.020 C 
ATOM     26  C   UNL     1      12.682  46.390   9.913  1.00  0.00     0.033 C 
ATOM     27  C   UNL     1      12.428  46.460   8.401  1.00  0.00     0.123 C 
ATOM     28  C   UNL     1      10.905  45.945   6.442  1.00  0.00     0.017 C 
ENDROOT
BRANCH   1  29
ATOM     29  C   UNL     1       8.860  38.520  11.044  1.00  0.00     0.048 C 
ATOM     30  O   UNL     1       9.253  38.383  12.233  1.00  0.00    -0.550 OA
ATOM     31  O   UNL     1       7.605  39.074  10.834  1.00  0.00    -0.550 OA
ENDBRANCH   1  29
BRANCH  25  32
ATOM     32  C   UNL     1       9.907  46.839   8.515  1.00  0.00     0.165 C 
BRANCH  32  33
ATOM     33  O   UNL     1       9.567  47.792   7.536  1.00  0.00    -0.396 OA
ATOM     34  H   UNL     1      10.270  48.495   7.550  1.00  0.00     0.210 HD
ENDBRANCH  32  33
ENDBRANCH  25  32
BRANCH  27  35
ATOM     35  O   UNL     1      13.458  45.760   7.743  1.00  0.00    -0.392 OA
ATOM     36  H   UNL     1      13.740  45.009   8.330  1.00  0.00     0.210 HD
ENDBRANCH  27  35
TORSDOF 4
ENDMDL
MODEL 9
REMARK VINA RESULT:    -5.703      3.268      5.277
REMARK INTER + INTRA:          -6.476
REMARK INTER:                  -6.633
REMARK INTRA:                   0.157
REMARK UNBOUND:                 0.227
REMARK SMILES CC1(C)CC[C@@]2(C(=O)[O-])CC[C@@]3(C)C(=CC[C@@H]4[C@@]5(C)CC[C@@H](O)[C@](C)(CO)[C@H]5CC[C@@]43C)[C@@H]2C1
REMARK SMILES IDX 6 1 5 2 10 3 33 4 4 5 11 6 14 7 34 8 2 9 12 10 15 11 1 12
REMARK SMILES IDX 3 13 13 14 31 15 16 16 17 17 30 18 32 19 18 20 29 21 28 22
REMARK SMILES IDX 20 23 19 24 24 25 21 26 22 27 25 28 7 29 8 30 9 31 26 32
REMARK SMILES IDX 27 33 23 35
REMARK H PARENT 27 34 23 36
REMARK Flexibility Score: inf
ROOT
ATOM      1  C   UNL     1       7.054  37.843  10.816  1.00  0.00     0.017 C 
ATOM      2  C   UNL     1       6.444  36.456  10.486  1.00  0.00     0.014 C 
ATOM      3  C   UNL     1       8.018  37.692  12.038  1.00  0.00     0.014 C 
ATOM      4  C   UNL     1       7.902  38.320   9.588  1.00  0.00     0.028 C 
ATOM      5  C   UNL     1       5.634  36.465   9.176  1.00  0.00     0.007 C 
ATOM      6  C   UNL     1       8.883  38.953  12.332  1.00  0.00     0.013 C 
ATOM      7  C   UNL     1       8.626  39.619   9.959  1.00  0.00    -0.064 C 
ATOM      8  C   UNL     1       7.127  38.311   8.241  1.00  0.00     0.015 C 
ATOM      9  C   UNL     1       6.454  36.940   7.944  1.00  0.00    -0.035 C 
ATOM     10  C   UNL     1       9.659  39.527  11.090  1.00  0.00    -0.006 C 
ATOM     11  C   UNL     1       8.020  40.788   9.722  1.00  0.00    -0.027 C 
ATOM     12  C   UNL     1       7.508  35.876   7.544  1.00  0.00     0.011 C 
ATOM     13  C   UNL     1       5.489  37.109   6.749  1.00  0.00     0.011 C 
ATOM     14  C   UNL     1      10.742  38.470  10.682  1.00  0.00     0.017 C 
ATOM     15  C   UNL     1      10.362  40.979  11.396  1.00  0.00    -0.020 C 
ATOM     16  C   UNL     1       7.949  41.811  10.801  1.00  0.00     0.032 C 
ATOM     17  C   UNL     1       9.331  42.213  11.399  1.00  0.00     0.006 C 
ATOM     18  C   UNL     1      11.506  41.301  10.363  1.00  0.00     0.008 C 
ATOM     19  C   UNL     1      11.030  40.892  12.809  1.00  0.00     0.012 C 
ATOM     20  C   UNL     1       9.859  43.613  10.805  1.00  0.00    -0.025 C 
ATOM     21  C   UNL     1      11.019  41.994   9.091  1.00  0.00     0.005 C 
ATOM     22  C   UNL     1      10.356  43.405   9.307  1.00  0.00     0.006 C 
ATOM     23  C   UNL     1      10.989  44.225  11.704  1.00  0.00     0.010 C 
ATOM     24  C   UNL     1       8.678  44.649  10.886  1.00  0.00     0.012 C 
ATOM     25  C   UNL     1      11.190  44.625   8.691  1.00  0.00     0.020 C 
ATOM     26  C   UNL     1      11.728  45.422  11.080  1.00  0.00     0.033 C 
ATOM     27  C   UNL     1      12.292  45.095   9.691  1.00  0.00     0.123 C 
ATOM     28  C   UNL     1      11.876  44.260   7.335  1.00  0.00     0.017 C 
ENDROOT
BRANCH   1  29
ATOM     29  C   UNL     1       5.913  38.789  11.206  1.00  0.00     0.048 C 
ATOM     30  O   UNL     1       5.544  38.869  12.408  1.00  0.00    -0.550 OA
ATOM     31  O   UNL     1       5.198  39.506  10.258  1.00  0.00    -0.550 OA
ENDBRANCH   1  29
BRANCH  25  32
ATOM     32  C   UNL     1      10.257  45.832   8.338  1.00  0.00     0.165 C 
BRANCH  32  33
ATOM     33  O   UNL     1       9.561  45.593   7.138  1.00  0.00    -0.396 OA
ATOM     34  H   UNL     1       9.452  44.609   7.049  1.00  0.00     0.210 HD
ENDBRANCH  32  33
ENDBRANCH  25  32
BRANCH  27  35
ATOM     35  O   UNL     1      13.283  44.105   9.833  1.00  0.00    -0.392 OA
ATOM     36  H   UNL     1      12.946  43.427  10.478  1.00  0.00     0.210 HD
ENDBRANCH  27  35
TORSDOF 4
ENDMDL
