MODEL 1
REMARK VINA RESULT:    -5.004      0.000      0.000
REMARK INTER + INTRA:          -5.004
REMARK INTER:                  -5.004
REMARK INTRA:                   0.000
REMARK UNBOUND:                 0.000
REMARK SMILES CC(C)=C1CC[C@H](C)CC1=O
REMARK SMILES IDX 8 1 7 2 6 3 5 4 4 5 2 6 1 7 3 8 10 9 11 10 9 11
REMARK H PARENT
REMARK Flexibility Score: inf
ROOT
ATOM      1  C   UNL     1       5.828 -13.024  28.283  1.00  0.00     0.008 C 
ATOM      2  C   UNL     1       5.496 -14.447  28.746  1.00  0.00    -0.006 C 
ATOM      3  C   UNL     1       4.140 -14.478  29.469  1.00  0.00     0.008 C 
ATOM      4  C   UNL     1       3.839 -15.873  30.030  1.00  0.00     0.039 C 
ATOM      5  C   UNL     1       3.965 -16.966  28.976  1.00  0.00    -0.006 C 
ATOM      6  C   UNL     1       3.186 -18.086  29.019  1.00  0.00    -0.070 C 
ATOM      7  C   UNL     1       2.177 -18.298  30.125  1.00  0.00     0.039 C 
ATOM      8  C   UNL     1       3.262 -19.150  27.949  1.00  0.00     0.039 C 
ATOM      9  C   UNL     1       5.060 -16.789  27.977  1.00  0.00     0.159 C 
ATOM     10  O   UNL     1       5.658 -17.781  27.479  1.00  0.00    -0.295 OA
ATOM     11  C   UNL     1       5.476 -15.411  27.551  1.00  0.00     0.084 C 
ENDROOT
TORSDOF 0
ENDMDL
MODEL 2
REMARK VINA RESULT:    -4.983      2.446      4.871
REMARK INTER + INTRA:          -4.983
REMARK INTER:                  -4.983
REMARK INTRA:                   0.000
REMARK UNBOUND:                 0.000
REMARK SMILES CC(C)=C1CC[C@H](C)CC1=O
REMARK SMILES IDX 8 1 7 2 6 3 5 4 4 5 2 6 1 7 3 8 10 9 11 10 9 11
REMARK H PARENT
REMARK Flexibility Score: inf
ROOT
ATOM      1  C   UNL     1       4.433 -15.746  29.960  1.00  0.00     0.008 C 
ATOM      2  C   UNL     1       5.012 -15.041  28.728  1.00  0.00    -0.006 C 
ATOM      3  C   UNL     1       6.475 -14.639  28.973  1.00  0.00     0.008 C 
ATOM      4  C   UNL     1       7.040 -13.842  27.790  1.00  0.00     0.039 C 
ATOM      5  C   UNL     1       6.843 -14.555  26.458  1.00  0.00    -0.006 C 
ATOM      6  C   UNL     1       7.742 -14.416  25.440  1.00  0.00    -0.070 C 
ATOM      7  C   UNL     1       8.962 -13.535  25.584  1.00  0.00     0.039 C 
ATOM      8  C   UNL     1       7.587 -15.162  24.134  1.00  0.00     0.039 C 
ATOM      9  C   UNL     1       5.564 -15.309  26.301  1.00  0.00     0.159 C 
ATOM     10  O   UNL     1       5.002 -15.417  25.177  1.00  0.00    -0.295 OA
ATOM     11  C   UNL     1       4.916 -15.949  27.494  1.00  0.00     0.084 C 
ENDROOT
TORSDOF 0
ENDMDL
MODEL 3
REMARK VINA RESULT:    -4.767      9.703     10.087
REMARK INTER + INTRA:          -4.767
REMARK INTER:                  -4.767
REMARK INTRA:                   0.000
REMARK UNBOUND:                 0.000
REMARK SMILES CC(C)=C1CC[C@H](C)CC1=O
REMARK SMILES IDX 8 1 7 2 6 3 5 4 4 5 2 6 1 7 3 8 10 9 11 10 9 11
REMARK H PARENT
REMARK Flexibility Score: inf
ROOT
ATOM      1  C   UNL     1       5.571 -25.766  24.484  1.00  0.00     0.008 C 
ATOM      2  C   UNL     1       4.054 -25.661  24.290  1.00  0.00    -0.006 C 
ATOM      3  C   UNL     1       3.376 -25.175  25.580  1.00  0.00     0.008 C 
ATOM      4  C   UNL     1       1.849 -25.161  25.437  1.00  0.00     0.039 C 
ATOM      5  C   UNL     1       1.384 -24.394  24.206  1.00  0.00    -0.006 C 
ATOM      6  C   UNL     1       0.198 -23.718  24.198  1.00  0.00    -0.070 C 
ATOM      7  C   UNL     1      -0.714 -23.719  25.404  1.00  0.00     0.039 C 
ATOM      8  C   UNL     1      -0.248 -22.906  23.004  1.00  0.00     0.039 C 
ATOM      9  C   UNL     1       2.242 -24.522  22.991  1.00  0.00     0.159 C 
ATOM     10  O   UNL     1       1.745 -24.486  21.833  1.00  0.00    -0.295 OA
ATOM     11  C   UNL     1       3.725 -24.708  23.132  1.00  0.00     0.084 C 
ENDROOT
TORSDOF 0
ENDMDL
MODEL 4
REMARK VINA RESULT:    -4.762     10.776     11.680
REMARK INTER + INTRA:          -4.762
REMARK INTER:                  -4.762
REMARK INTRA:                   0.000
REMARK UNBOUND:                 0.000
REMARK SMILES CC(C)=C1CC[C@H](C)CC1=O
REMARK SMILES IDX 8 1 7 2 6 3 5 4 4 5 2 6 1 7 3 8 10 9 11 10 9 11
REMARK H PARENT
REMARK Flexibility Score: inf
ROOT
ATOM      1  C   UNL     1       4.910 -26.816  23.310  1.00  0.00     0.008 C 
ATOM      2  C   UNL     1       3.436 -26.621  22.940  1.00  0.00    -0.006 C 
ATOM      3  C   UNL     1       2.526 -27.358  23.934  1.00  0.00     0.008 C 
ATOM      4  C   UNL     1       1.052 -27.259  23.521  1.00  0.00     0.039 C 
ATOM      5  C   UNL     1       0.609 -25.823  23.276  1.00  0.00    -0.006 C 
ATOM      6  C   UNL     1      -0.672 -25.423  23.529  1.00  0.00    -0.070 C 
ATOM      7  C   UNL     1      -1.710 -26.393  24.045  1.00  0.00     0.039 C 
ATOM      8  C   UNL     1      -1.108 -23.987  23.344  1.00  0.00     0.039 C 
ATOM      9  C   UNL     1       1.619 -24.924  22.642  1.00  0.00     0.159 C 
ATOM     10  O   UNL     1       1.271 -23.991  21.869  1.00  0.00    -0.295 OA
ATOM     11  C   UNL     1       3.081 -25.127  22.911  1.00  0.00     0.084 C 
ENDROOT
TORSDOF 0
ENDMDL
MODEL 5
REMARK VINA RESULT:    -4.697      1.985      4.141
REMARK INTER + INTRA:          -4.697
REMARK INTER:                  -4.697
REMARK INTRA:                   0.000
REMARK UNBOUND:                 0.000
REMARK SMILES CC(C)=C1CC[C@H](C)CC1=O
REMARK SMILES IDX 8 1 7 2 6 3 5 4 4 5 2 6 1 7 3 8 10 9 11 10 9 11
REMARK H PARENT
REMARK Flexibility Score: inf
ROOT
ATOM      1  C   UNL     1       6.450 -17.985  25.860  1.00  0.00     0.008 C 
ATOM      2  C   UNL     1       6.307 -16.967  26.997  1.00  0.00    -0.006 C 
ATOM      3  C   UNL     1       6.315 -15.533  26.442  1.00  0.00     0.008 C 
ATOM      4  C   UNL     1       6.275 -14.498  27.574  1.00  0.00     0.039 C 
ATOM      5  C   UNL     1       5.131 -14.742  28.549  1.00  0.00    -0.006 C 
ATOM      6  C   UNL     1       4.514 -13.707  29.192  1.00  0.00    -0.070 C 
ATOM      7  C   UNL     1       4.952 -12.277  28.976  1.00  0.00     0.039 C 
ATOM      8  C   UNL     1       3.341 -13.932  30.118  1.00  0.00     0.039 C 
ATOM      9  C   UNL     1       4.812 -16.171  28.841  1.00  0.00     0.159 C 
ATOM     10  O   UNL     1       4.379 -16.528  29.970  1.00  0.00    -0.295 OA
ATOM     11  C   UNL     1       5.013 -17.218  27.784  1.00  0.00     0.084 C 
ENDROOT
TORSDOF 0
ENDMDL
MODEL 6
REMARK VINA RESULT:    -4.603      3.015      4.550
REMARK INTER + INTRA:          -4.603
REMARK INTER:                  -4.603
REMARK INTRA:                   0.000
REMARK UNBOUND:                 0.000
REMARK SMILES CC(C)=C1CC[C@H](C)CC1=O
REMARK SMILES IDX 8 1 7 2 6 3 5 4 4 5 2 6 1 7 3 8 10 9 11 10 9 11
REMARK H PARENT
REMARK Flexibility Score: inf
ROOT
ATOM      1  C   UNL     1       7.246 -13.144  22.604  1.00  0.00     0.008 C 
ATOM      2  C   UNL     1       7.320 -13.979  23.887  1.00  0.00    -0.006 C 
ATOM      3  C   UNL     1       7.343 -13.069  25.125  1.00  0.00     0.008 C 
ATOM      4  C   UNL     1       7.521 -13.883  26.413  1.00  0.00     0.039 C 
ATOM      5  C   UNL     1       6.506 -15.012  26.535  1.00  0.00    -0.006 C 
ATOM      6  C   UNL     1       6.047 -15.424  27.753  1.00  0.00    -0.070 C 
ATOM      7  C   UNL     1       6.540 -14.790  29.033  1.00  0.00     0.039 C 
ATOM      8  C   UNL     1       4.998 -16.504  27.884  1.00  0.00     0.039 C 
ATOM      9  C   UNL     1       6.140 -15.705  25.264  1.00  0.00     0.159 C 
ATOM     10  O   UNL     1       5.842 -16.930  25.249  1.00  0.00    -0.295 OA
ATOM     11  C   UNL     1       6.131 -14.947  23.969  1.00  0.00     0.084 C 
ENDROOT
TORSDOF 0
ENDMDL
MODEL 7
REMARK VINA RESULT:    -4.555      8.442      9.770
REMARK INTER + INTRA:          -4.555
REMARK INTER:                  -4.555
REMARK INTRA:                   0.000
REMARK UNBOUND:                 0.000
REMARK SMILES CC(C)=C1CC[C@H](C)CC1=O
REMARK SMILES IDX 8 1 7 2 6 3 5 4 4 5 2 6 1 7 3 8 10 9 11 10 9 11
REMARK H PARENT
REMARK Flexibility Score: inf
ROOT
ATOM      1  C   UNL     1      -1.091 -23.650  23.346  1.00  0.00     0.008 C 
ATOM      2  C   UNL     1       0.416 -23.501  23.587  1.00  0.00    -0.006 C 
ATOM      3  C   UNL     1       0.725 -23.496  25.093  1.00  0.00     0.008 C 
ATOM      4  C   UNL     1       2.215 -23.244  25.355  1.00  0.00     0.039 C 
ATOM      5  C   UNL     1       3.114 -24.195  24.576  1.00  0.00    -0.006 C 
ATOM      6  C   UNL     1       4.318 -24.603  25.077  1.00  0.00    -0.070 C 
ATOM      7  C   UNL     1       4.817 -24.112  26.416  1.00  0.00     0.039 C 
ATOM      8  C   UNL     1       5.193 -25.590  24.339  1.00  0.00     0.039 C 
ATOM      9  C   UNL     1       2.654 -24.555  23.202  1.00  0.00     0.159 C 
ATOM     10  O   UNL     1       3.477 -24.789  22.276  1.00  0.00    -0.295 OA
ATOM     11  C   UNL     1       1.187 -24.635  22.896  1.00  0.00     0.084 C 
ENDROOT
TORSDOF 0
ENDMDL
MODEL 8
REMARK VINA RESULT:    -4.517      9.162     10.731
REMARK INTER + INTRA:          -4.517
REMARK INTER:                  -4.517
REMARK INTRA:                   0.000
REMARK UNBOUND:                 0.000
REMARK SMILES CC(C)=C1CC[C@H](C)CC1=O
REMARK SMILES IDX 8 1 7 2 6 3 5 4 4 5 2 6 1 7 3 8 10 9 11 10 9 11
REMARK H PARENT
REMARK Flexibility Score: inf
ROOT
ATOM      1  C   UNL     1      -1.139 -23.654  23.371  1.00  0.00     0.008 C 
ATOM      2  C   UNL     1       0.137 -24.412  23.756  1.00  0.00    -0.006 C 
ATOM      3  C   UNL     1       0.600 -25.314  22.601  1.00  0.00     0.008 C 
ATOM      4  C   UNL     1       1.816 -26.157  23.005  1.00  0.00     0.039 C 
ATOM      5  C   UNL     1       2.948 -25.312  23.578  1.00  0.00    -0.006 C 
ATOM      6  C   UNL     1       4.255 -25.669  23.408  1.00  0.00    -0.070 C 
ATOM      7  C   UNL     1       4.634 -26.927  22.661  1.00  0.00     0.039 C 
ATOM      8  C   UNL     1       5.387 -24.810  23.921  1.00  0.00     0.039 C 
ATOM      9  C   UNL     1       2.537 -24.151  24.421  1.00  0.00     0.159 C 
ATOM     10  O   UNL     1       3.246 -23.761  25.389  1.00  0.00    -0.295 OA
ATOM     11  C   UNL     1       1.254 -23.427  24.133  1.00  0.00     0.084 C 
ENDROOT
TORSDOF 0
ENDMDL
MODEL 9
REMARK VINA RESULT:    -3.265      2.213      4.722
REMARK INTER + INTRA:          -3.265
REMARK INTER:                  -3.265
REMARK INTRA:                   0.000
REMARK UNBOUND:                 0.000
REMARK SMILES CC(C)=C1CC[C@H](C)CC1=O
REMARK SMILES IDX 8 1 7 2 6 3 5 4 4 5 2 6 1 7 3 8 10 9 11 10 9 11
REMARK H PARENT
REMARK Flexibility Score: inf
ROOT
ATOM      1  C   UNL     1       3.438 -16.430  30.125  1.00  0.00     0.008 C 
ATOM      2  C   UNL     1       4.642 -16.058  29.251  1.00  0.00    -0.006 C 
ATOM      3  C   UNL     1       4.603 -16.827  27.921  1.00  0.00     0.008 C 
ATOM      4  C   UNL     1       5.852 -16.545  27.077  1.00  0.00     0.039 C 
ATOM      5  C   UNL     1       6.103 -15.055  26.884  1.00  0.00    -0.006 C 
ATOM      6  C   UNL     1       6.684 -14.576  25.745  1.00  0.00    -0.070 C 
ATOM      7  C   UNL     1       7.120 -15.504  24.636  1.00  0.00     0.039 C 
ATOM      8  C   UNL     1       6.885 -13.095  25.518  1.00  0.00     0.039 C 
ATOM      9  C   UNL     1       5.783 -14.180  28.051  1.00  0.00     0.159 C 
ATOM     10  O   UNL     1       6.443 -13.131  28.282  1.00  0.00    -0.295 OA
ATOM     11  C   UNL     1       4.664 -14.546  28.982  1.00  0.00     0.084 C 
ENDROOT
TORSDOF 0
ENDMDL
