MODEL 1
REMARK VINA RESULT:    -3.424      0.000      0.000
REMARK INTER + INTRA:          -3.851
REMARK INTER:                  -3.725
REMARK INTRA:                  -0.127
REMARK UNBOUND:                -0.127
REMARK SMILES Cc1ccc(C(C)C)cc1O
REMARK SMILES IDX 1 1 2 2 10 3 9 4 5 5 4 6 3 7 11 8 6 10 7 11 8 12
REMARK H PARENT 11 9
REMARK Flexibility Score: inf
ROOT
ATOM      1  C   UNL     1     124.349 117.712 107.612  1.00  0.00     0.048 C 
ATOM      2  C   UNL     1     123.554 118.887 107.115  1.00  0.00    -0.009 A 
ATOM      3  C   UNL     1     122.357 118.706 106.387  1.00  0.00     0.118 A 
ATOM      4  C   UNL     1     121.639 119.820 105.939  1.00  0.00     0.050 A 
ATOM      5  C   UNL     1     122.091 121.124 106.204  1.00  0.00    -0.042 A 
ATOM      6  C   UNL     1     123.282 121.296 106.929  1.00  0.00     0.004 A 
ATOM      7  C   UNL     1     124.005 120.190 107.379  1.00  0.00     0.007 A 
ENDROOT
BRANCH   3   8
ATOM      8  O   UNL     1     121.857 117.435 106.093  1.00  0.00    -0.508 OA
ATOM      9  H   UNL     1     122.451 116.641 105.890  1.00  0.00     0.293 HD
ENDBRANCH   3   8
BRANCH   5  10
ATOM     10  C   UNL     1     121.295 122.318 105.708  1.00  0.00     0.013 C 
ATOM     11  C   UNL     1     121.928 123.635 106.173  1.00  0.00     0.012 C 
ATOM     12  C   UNL     1     119.829 122.225 106.147  1.00  0.00     0.012 C 
ENDBRANCH   5  10
TORSDOF 2
ENDMDL
MODEL 2
REMARK VINA RESULT:    -3.372      3.002      5.505
REMARK INTER + INTRA:          -3.794
REMARK INTER:                  -3.668
REMARK INTRA:                  -0.126
REMARK UNBOUND:                -0.127
REMARK SMILES Cc1ccc(C(C)C)cc1O
REMARK SMILES IDX 1 1 2 2 10 3 9 4 5 5 4 6 3 7 11 8 6 10 7 11 8 12
REMARK H PARENT 11 9
REMARK Flexibility Score: inf
ROOT
ATOM      1  C   UNL     1     118.640 125.318 107.974  1.00  0.00     0.048 C 
ATOM      2  C   UNL     1     119.434 124.189 107.377  1.00  0.00    -0.009 A 
ATOM      3  C   UNL     1     120.567 124.436 106.571  1.00  0.00     0.118 A 
ATOM      4  C   UNL     1     121.285 123.363 106.031  1.00  0.00     0.050 A 
ATOM      5  C   UNL     1     120.895 122.037 106.278  1.00  0.00    -0.042 A 
ATOM      6  C   UNL     1     119.766 121.798 107.080  1.00  0.00     0.004 A 
ATOM      7  C   UNL     1     119.044 122.863 107.623  1.00  0.00     0.007 A 
ENDROOT
BRANCH   3   8
ATOM      8  O   UNL     1     121.005 125.733 106.291  1.00  0.00    -0.508 OA
ATOM      9  H   UNL     1     120.402 126.544 106.347  1.00  0.00     0.293 HD
ENDBRANCH   3   8
BRANCH   5  10
ATOM     10  C   UNL     1     121.689 120.889 105.681  1.00  0.00     0.013 C 
ATOM     11  C   UNL     1     121.008 119.543 105.958  1.00  0.00     0.012 C 
ATOM     12  C   UNL     1     123.134 120.892 106.194  1.00  0.00     0.012 C 
ENDBRANCH   5  10
TORSDOF 2
ENDMDL
MODEL 3
REMARK VINA RESULT:    -3.357      2.717      3.892
REMARK INTER + INTRA:          -3.778
REMARK INTER:                  -3.652
REMARK INTRA:                  -0.126
REMARK UNBOUND:                -0.127
REMARK SMILES Cc1ccc(C(C)C)cc1O
REMARK SMILES IDX 1 1 2 2 10 3 9 4 5 5 4 6 3 7 11 8 6 10 7 11 8 12
REMARK H PARENT 11 9
REMARK Flexibility Score: inf
ROOT
ATOM      1  C   UNL     1     117.687 118.564 107.953  1.00  0.00     0.048 C 
ATOM      2  C   UNL     1     118.810 119.378 107.371  1.00  0.00    -0.009 A 
ATOM      3  C   UNL     1     118.555 120.552 106.629  1.00  0.00     0.118 A 
ATOM      4  C   UNL     1     119.623 121.287 106.101  1.00  0.00     0.050 A 
ATOM      5  C   UNL     1     120.951 120.875 106.299  1.00  0.00    -0.042 A 
ATOM      6  C   UNL     1     121.196 119.705 107.038  1.00  0.00     0.004 A 
ATOM      7  C   UNL     1     120.137 118.966 107.568  1.00  0.00     0.007 A 
ENDROOT
BRANCH   3   8
ATOM      8  O   UNL     1     117.257 121.014 106.400  1.00  0.00    -0.508 OA
ATOM      9  H   UNL     1     116.507 120.416 106.077  1.00  0.00     0.293 HD
ENDBRANCH   3   8
BRANCH   5  10
ATOM     10  C   UNL     1     122.092 121.689 105.716  1.00  0.00     0.013 C 
ATOM     11  C   UNL     1     123.450 121.070 106.072  1.00  0.00     0.012 C 
ATOM     12  C   UNL     1     122.016 123.151 106.172  1.00  0.00     0.012 C 
ENDBRANCH   5  10
TORSDOF 2
ENDMDL
MODEL 4
REMARK VINA RESULT:    -3.338      2.643      3.973
REMARK INTER + INTRA:          -3.757
REMARK INTER:                  -3.630
REMARK INTRA:                  -0.127
REMARK UNBOUND:                -0.127
REMARK SMILES Cc1ccc(C(C)C)cc1O
REMARK SMILES IDX 1 1 2 2 10 3 9 4 5 5 4 6 3 7 11 8 6 10 7 11 8 12
REMARK H PARENT 11 9
REMARK Flexibility Score: inf
ROOT
ATOM      1  C   UNL     1     125.457 124.436 108.135  1.00  0.00     0.048 C 
ATOM      2  C   UNL     1     124.336 123.685 107.473  1.00  0.00    -0.009 A 
ATOM      3  C   UNL     1     124.581 122.509 106.730  1.00  0.00     0.118 A 
ATOM      4  C   UNL     1     123.515 121.832 106.127  1.00  0.00     0.050 A 
ATOM      5  C   UNL     1     122.198 122.305 106.248  1.00  0.00    -0.042 A 
ATOM      6  C   UNL     1     121.962 123.476 106.988  1.00  0.00     0.004 A 
ATOM      7  C   UNL     1     123.019 124.157 107.594  1.00  0.00     0.007 A 
ENDROOT
BRANCH   3   8
ATOM      8  O   UNL     1     125.868 121.989 106.574  1.00  0.00    -0.508 OA
ATOM      9  H   UNL     1     126.408 122.096 105.725  1.00  0.00     0.293 HD
ENDBRANCH   3   8
BRANCH   5  10
ATOM     10  C   UNL     1     121.058 121.554 105.584  1.00  0.00     0.013 C 
ATOM     11  C   UNL     1     119.701 122.152 105.974  1.00  0.00     0.012 C 
ATOM     12  C   UNL     1     121.116 120.058 105.914  1.00  0.00     0.012 C 
ENDBRANCH   5  10
TORSDOF 2
ENDMDL
MODEL 5
REMARK VINA RESULT:    -3.332      1.481      2.078
REMARK INTER + INTRA:          -3.750
REMARK INTER:                  -3.627
REMARK INTRA:                  -0.124
REMARK UNBOUND:                -0.127
REMARK SMILES Cc1ccc(C(C)C)cc1O
REMARK SMILES IDX 1 1 2 2 10 3 9 4 5 5 4 6 3 7 11 8 6 10 7 11 8 12
REMARK H PARENT 11 9
REMARK Flexibility Score: inf
ROOT
ATOM      1  C   UNL     1     123.872 117.552 107.177  1.00  0.00     0.048 C 
ATOM      2  C   UNL     1     123.023 118.742 106.824  1.00  0.00    -0.009 A 
ATOM      3  C   UNL     1     123.487 120.060 107.032  1.00  0.00     0.118 A 
ATOM      4  C   UNL     1     122.673 121.146 106.692  1.00  0.00     0.050 A 
ATOM      5  C   UNL     1     121.395 120.947 106.145  1.00  0.00    -0.042 A 
ATOM      6  C   UNL     1     120.940 119.633 105.941  1.00  0.00     0.004 A 
ATOM      7  C   UNL     1     121.746 118.544 106.277  1.00  0.00     0.007 A 
ENDROOT
BRANCH   3   8
ATOM      8  O   UNL     1     124.748 120.323 107.572  1.00  0.00    -0.508 OA
ATOM      9  H   UNL     1     125.212 121.217 107.482  1.00  0.00     0.293 HD
ENDBRANCH   3   8
BRANCH   5  10
ATOM     10  C   UNL     1     120.529 122.141 105.784  1.00  0.00     0.013 C 
ATOM     11  C   UNL     1     121.087 123.433 106.395  1.00  0.00     0.012 C 
ATOM     12  C   UNL     1     119.073 121.915 106.208  1.00  0.00     0.012 C 
ENDBRANCH   5  10
TORSDOF 2
ENDMDL
MODEL 6
REMARK VINA RESULT:    -3.331      2.692      4.019
REMARK INTER + INTRA:          -3.750
REMARK INTER:                  -3.624
REMARK INTRA:                  -0.125
REMARK UNBOUND:                -0.127
REMARK SMILES Cc1ccc(C(C)C)cc1O
REMARK SMILES IDX 1 1 2 2 10 3 9 4 5 5 4 6 3 7 11 8 6 10 7 11 8 12
REMARK H PARENT 11 9
REMARK Flexibility Score: inf
ROOT
ATOM      1  C   UNL     1     125.306 123.889 106.974  1.00  0.00     0.048 C 
ATOM      2  C   UNL     1     124.190 122.928 106.675  1.00  0.00    -0.009 A 
ATOM      3  C   UNL     1     122.837 123.319 106.785  1.00  0.00     0.118 A 
ATOM      4  C   UNL     1     121.821 122.400 106.498  1.00  0.00     0.050 A 
ATOM      5  C   UNL     1     122.126 121.088 106.099  1.00  0.00    -0.042 A 
ATOM      6  C   UNL     1     123.474 120.706 105.992  1.00  0.00     0.004 A 
ATOM      7  C   UNL     1     124.494 121.616 106.276  1.00  0.00     0.007 A 
ENDROOT
BRANCH   3   8
ATOM      8  O   UNL     1     122.471 124.609 107.176  1.00  0.00    -0.508 OA
ATOM      9  H   UNL     1     122.565 125.416 106.573  1.00  0.00     0.293 HD
ENDBRANCH   3   8
BRANCH   5  10
ATOM     10  C   UNL     1     121.007 120.109 105.794  1.00  0.00     0.013 C 
ATOM     11  C   UNL     1     119.707 120.519 106.497  1.00  0.00     0.012 C 
ATOM     12  C   UNL     1     121.409 118.677 106.168  1.00  0.00     0.012 C 
ENDBRANCH   5  10
TORSDOF 2
ENDMDL
MODEL 7
REMARK VINA RESULT:    -3.276      2.525      5.027
REMARK INTER + INTRA:          -3.690
REMARK INTER:                  -3.572
REMARK INTRA:                  -0.119
REMARK UNBOUND:                -0.127
REMARK SMILES Cc1ccc(C(C)C)cc1O
REMARK SMILES IDX 1 1 2 2 10 3 9 4 5 5 4 6 3 7 11 8 6 10 7 11 8 12
REMARK H PARENT 11 9
REMARK Flexibility Score: inf
ROOT
ATOM      1  C   UNL     1     119.940 125.747 107.336  1.00  0.00     0.048 C 
ATOM      2  C   UNL     1     120.413 124.385 106.910  1.00  0.00    -0.009 A 
ATOM      3  C   UNL     1     119.625 123.234 107.130  1.00  0.00     0.118 A 
ATOM      4  C   UNL     1     120.094 121.980 106.721  1.00  0.00     0.050 A 
ATOM      5  C   UNL     1     121.342 121.847 106.090  1.00  0.00    -0.042 A 
ATOM      6  C   UNL     1     122.120 122.996 105.875  1.00  0.00     0.004 A 
ATOM      7  C   UNL     1     121.660 124.250 106.280  1.00  0.00     0.007 A 
ENDROOT
BRANCH   3   8
ATOM      8  O   UNL     1     118.375 123.302 107.751  1.00  0.00    -0.508 OA
ATOM      9  H   UNL     1     118.012 124.149 108.169  1.00  0.00     0.293 HD
ENDBRANCH   3   8
BRANCH   5  10
ATOM     10  C   UNL     1     121.829 120.476 105.656  1.00  0.00     0.013 C 
ATOM     11  C   UNL     1     120.815 119.386 106.023  1.00  0.00     0.012 C 
ATOM     12  C   UNL     1     123.209 120.168 106.249  1.00  0.00     0.012 C 
ENDBRANCH   5  10
TORSDOF 2
ENDMDL
MODEL 8
REMARK VINA RESULT:    -3.228      2.268      3.866
REMARK INTER + INTRA:          -3.637
REMARK INTER:                  -3.519
REMARK INTRA:                  -0.119
REMARK UNBOUND:                -0.127
REMARK SMILES Cc1ccc(C(C)C)cc1O
REMARK SMILES IDX 1 1 2 2 10 3 9 4 5 5 4 6 3 7 11 8 6 10 7 11 8 12
REMARK H PARENT 11 9
REMARK Flexibility Score: inf
ROOT
ATOM      1  C   UNL     1     117.238 118.930 107.983  1.00  0.00     0.048 C 
ATOM      2  C   UNL     1     118.413 119.638 107.368  1.00  0.00    -0.009 A 
ATOM      3  C   UNL     1     119.717 119.101 107.450  1.00  0.00     0.118 A 
ATOM      4  C   UNL     1     120.790 119.785 106.866  1.00  0.00     0.050 A 
ATOM      5  C   UNL     1     120.590 121.003 106.196  1.00  0.00    -0.042 A 
ATOM      6  C   UNL     1     119.290 121.531 106.119  1.00  0.00     0.004 A 
ATOM      7  C   UNL     1     118.215 120.856 106.698  1.00  0.00     0.007 A 
ENDROOT
BRANCH   3   8
ATOM      8  O   UNL     1     119.979 117.894 108.103  1.00  0.00    -0.508 OA
ATOM      9  H   UNL     1     120.889 117.653 108.473  1.00  0.00     0.293 HD
ENDBRANCH   3   8
BRANCH   5  10
ATOM     10  C   UNL     1     121.769 121.726 105.570  1.00  0.00     0.013 C 
ATOM     11  C   UNL     1     123.078 120.964 105.813  1.00  0.00     0.012 C 
ATOM     12  C   UNL     1     121.867 123.168 106.084  1.00  0.00     0.012 C 
ENDBRANCH   5  10
TORSDOF 2
ENDMDL
MODEL 9
REMARK VINA RESULT:    -3.131      1.599      2.466
REMARK INTER + INTRA:          -3.533
REMARK INTER:                  -3.407
REMARK INTRA:                  -0.125
REMARK UNBOUND:                -0.127
REMARK SMILES Cc1ccc(C(C)C)cc1O
REMARK SMILES IDX 1 1 2 2 10 3 9 4 5 5 4 6 3 7 11 8 6 10 7 11 8 12
REMARK H PARENT 11 9
REMARK Flexibility Score: inf
ROOT
ATOM      1  C   UNL     1     123.616 119.867 105.921  1.00  0.00     0.048 C 
ATOM      2  C   UNL     1     122.536 120.898 106.104  1.00  0.00    -0.009 A 
ATOM      3  C   UNL     1     121.169 120.545 106.040  1.00  0.00     0.118 A 
ATOM      4  C   UNL     1     120.188 121.528 106.215  1.00  0.00     0.050 A 
ATOM      5  C   UNL     1     120.542 122.866 106.455  1.00  0.00    -0.042 A 
ATOM      6  C   UNL     1     121.903 123.209 106.516  1.00  0.00     0.004 A 
ATOM      7  C   UNL     1     122.888 122.235 106.342  1.00  0.00     0.007 A 
ENDROOT
BRANCH   3   8
ATOM      8  O   UNL     1     120.755 119.232 105.806  1.00  0.00    -0.508 OA
ATOM      9  H   UNL     1     119.810 118.913 105.974  1.00  0.00     0.293 HD
ENDBRANCH   3   8
BRANCH   5  10
ATOM     10  C   UNL     1     119.460 123.915 106.641  1.00  0.00     0.013 C 
ATOM     11  C   UNL     1     120.008 125.325 106.390  1.00  0.00     0.012 C 
ATOM     12  C   UNL     1     118.823 123.810 108.032  1.00  0.00     0.012 C 
ENDBRANCH   5  10
TORSDOF 2
ENDMDL
