MODEL 1
REMARK VINA RESULT:    -3.368      0.000      0.000
REMARK INTER + INTRA:          -5.230
REMARK INTER:                  -5.140
REMARK INTRA:                  -0.090
REMARK UNBOUND:                -0.090
REMARK SMILES CC1=CCC[C@H](C)C(=O)C[C@H](C(C)C)C(=O)C1
REMARK SMILES IDX 8 1 9 2 6 3 7 4 5 5 4 6 3 7 2 8 1 9 10 11 11 12 15 13 16 14
REMARK SMILES IDX 17 15 12 17 13 18 14 19
REMARK H PARENT
REMARK Flexibility Score: 70.00
ROOT
ATOM      1  C   UNL     1      -4.475  69.549  36.001  1.00  0.00     0.136 C 
ATOM      2  O   UNL     1      -4.998  70.594  36.358  1.00  0.00    -0.299 OA
ENDROOT
BRANCH   1   3
ATOM      3  C   UNL     1      -3.023  69.538  35.573  1.00  0.00     0.053 C 
ATOM      4  C   UNL     1      -2.134  69.326  36.802  1.00  0.00     0.016 C 
BRANCH   3   5
ATOM      5  C   UNL     1      -2.725  68.461  34.504  1.00  0.00     0.015 C 
BRANCH   5   6
ATOM      6  C   UNL     1      -3.276  68.805  33.107  1.00  0.00     0.028 C 
BRANCH   6   7
ATOM      7  C   UNL     1      -3.655  67.561  32.334  1.00  0.00    -0.028 C 
ATOM      8  C   UNL     1      -4.911  67.150  32.038  1.00  0.00    -0.070 CG0
ATOM      9  C   UNL     1      -5.065  65.891  31.222  1.00  0.00     0.039 C 
ATOM     10  G   UNL     1      -6.163  67.837  32.539  1.00  0.00     0.000 G0
ENDBRANCH   6   7
ENDBRANCH   5   6
ENDBRANCH   3   5
ENDBRANCH   1   3
BRANCH   1  11
ATOM     11  C   UNL     1      -5.297  68.282  35.964  1.00  0.00     0.087 C 
BRANCH  11  12
ATOM     12  C   UNL     1      -6.547  68.428  35.067  1.00  0.00     0.066 C 
BRANCH  12  13
ATOM     13  C   UNL     1      -6.521  67.413  33.939  1.00  0.00     0.140 C 
ATOM     14  O   UNL     1      -6.729  66.232  34.176  1.00  0.00    -0.299 OA
BRANCH  13  15
ATOM     15  C   UNL     1      -6.197  67.825  32.528  1.00  0.00     0.106 CG0
ATOM     16  G   UNL     1      -4.924  67.146  32.070  1.00  0.00     0.000 G0
ENDBRANCH  13  15
ENDBRANCH  12  13
BRANCH  12  17
ATOM     17  C   UNL     1      -7.873  68.392  35.887  1.00  0.00    -0.006 C 
ATOM     18  C   UNL     1      -8.511  69.772  36.125  1.00  0.00     0.008 C 
ATOM     19  C   UNL     1      -7.675  67.667  37.227  1.00  0.00     0.008 C 
ENDBRANCH  12  17
ENDBRANCH  11  12
ENDBRANCH   1  11
TORSDOF 1
ENDMDL
MODEL 2
REMARK VINA RESULT:    -3.278      6.779      8.961
REMARK INTER + INTRA:          -5.093
REMARK INTER:                  -5.104
REMARK INTRA:                   0.011
REMARK UNBOUND:                -0.090
REMARK SMILES CC1=CCC[C@H](C)C(=O)C[C@H](C(C)C)C(=O)C1
REMARK SMILES IDX 8 1 9 2 6 3 7 4 5 5 4 6 3 7 2 8 1 9 10 11 11 12 15 13 16 14
REMARK SMILES IDX 17 15 12 17 13 18 14 19
REMARK H PARENT
REMARK Flexibility Score: 70.00
ROOT
ATOM      1  C   UNL     1      -4.743  71.015  25.657  1.00  0.00     0.136 C 
ATOM      2  O   UNL     1      -4.336  72.093  25.251  1.00  0.00    -0.299 OA
ENDROOT
BRANCH   1   3
ATOM      3  C   UNL     1      -6.214  70.674  25.552  1.00  0.00     0.053 C 
ATOM      4  C   UNL     1      -7.033  71.968  25.517  1.00  0.00     0.016 C 
BRANCH   3   5
ATOM      5  C   UNL     1      -6.537  69.802  24.316  1.00  0.00     0.015 C 
BRANCH   5   6
ATOM      6  C   UNL     1      -7.396  68.564  24.638  1.00  0.00     0.028 C 
BRANCH   6   7
ATOM      7  C   UNL     1      -6.680  67.280  24.283  1.00  0.00    -0.028 C 
ATOM      8  C   UNL     1      -5.985  66.486  25.132  1.00  0.00    -0.070 CG0
ATOM      9  C   UNL     1      -5.374  65.224  24.575  1.00  0.00     0.039 C 
ATOM     10  G   UNL     1      -5.725  66.827  26.584  1.00  0.00     0.000 G0
ENDBRANCH   6   7
ENDBRANCH   5   6
ENDBRANCH   3   5
ENDBRANCH   1   3
BRANCH   1  11
ATOM     11  C   UNL     1      -3.772  70.046  26.289  1.00  0.00     0.087 C 
BRANCH  11  12
ATOM     12  C   UNL     1      -4.477  69.065  27.252  1.00  0.00     0.066 C 
BRANCH  12  13
ATOM     13  C   UNL     1      -4.458  67.654  26.691  1.00  0.00     0.140 C 
ATOM     14  O   UNL     1      -3.413  67.178  26.273  1.00  0.00    -0.299 OA
BRANCH  13  15
ATOM     15  C   UNL     1      -5.718  66.838  26.595  1.00  0.00     0.106 CG0
ATOM     16  G   UNL     1      -5.992  66.475  25.151  1.00  0.00     0.000 G0
ENDBRANCH  13  15
ENDBRANCH  12  13
BRANCH  12  17
ATOM     17  C   UNL     1      -3.913  69.148  28.703  1.00  0.00    -0.006 C 
ATOM     18  C   UNL     1      -4.895  69.731  29.734  1.00  0.00     0.008 C 
ATOM     19  C   UNL     1      -2.590  69.931  28.738  1.00  0.00     0.008 C 
ENDBRANCH  12  17
ENDBRANCH  11  12
ENDBRANCH   1  11
TORSDOF 1
ENDMDL
MODEL 3
REMARK VINA RESULT:    -3.212      8.127     10.546
REMARK INTER + INTRA:          -4.992
REMARK INTER:                  -4.724
REMARK INTRA:                  -0.268
REMARK UNBOUND:                -0.090
REMARK SMILES CC1=CCC[C@H](C)C(=O)C[C@H](C(C)C)C(=O)C1
REMARK SMILES IDX 8 1 9 2 6 3 7 4 5 5 4 6 3 7 2 8 1 9 10 11 11 12 15 13 16 14
REMARK SMILES IDX 17 15 12 17 13 18 14 19
REMARK H PARENT
REMARK Flexibility Score: 70.00
ROOT
ATOM      1  C   UNL     1      -5.389  69.408  23.076  1.00  0.00     0.136 C 
ATOM      2  O   UNL     1      -4.289  69.003  22.731  1.00  0.00    -0.299 OA
ENDROOT
BRANCH   1   3
ATOM      3  C   UNL     1      -6.538  68.436  23.231  1.00  0.00     0.053 C 
ATOM      4  C   UNL     1      -6.918  67.876  21.856  1.00  0.00     0.016 C 
BRANCH   3   5
ATOM      5  C   UNL     1      -6.215  67.281  24.208  1.00  0.00     0.015 C 
BRANCH   5   6
ATOM      6  C   UNL     1      -6.289  67.687  25.693  1.00  0.00     0.028 C 
BRANCH   6   7
ATOM      7  C   UNL     1      -4.911  67.821  26.304  1.00  0.00    -0.028 C 
ATOM      8  C   UNL     1      -4.411  68.915  26.926  1.00  0.00    -0.070 CG0
ATOM      9  C   UNL     1      -3.019  68.824  27.499  1.00  0.00     0.039 C 
ATOM     10  G   UNL     1      -5.136  70.241  27.013  1.00  0.00     0.000 G0
ENDBRANCH   6   7
ENDBRANCH   5   6
ENDBRANCH   3   5
ENDBRANCH   1   3
BRANCH   1  11
ATOM     11  C   UNL     1      -5.594  70.885  23.314  1.00  0.00     0.087 C 
BRANCH  11  12
ATOM     12  C   UNL     1      -6.103  71.177  24.743  1.00  0.00     0.066 C 
BRANCH  12  13
ATOM     13  C   UNL     1      -4.976  71.049  25.753  1.00  0.00     0.140 C 
ATOM     14  O   UNL     1      -3.892  71.565  25.526  1.00  0.00    -0.299 OA
BRANCH  13  15
ATOM     15  C   UNL     1      -5.151  70.252  27.018  1.00  0.00     0.106 CG0
ATOM     16  G   UNL     1      -4.402  68.941  26.913  1.00  0.00     0.000 G0
ENDBRANCH  13  15
ENDBRANCH  12  13
BRANCH  12  17
ATOM     17  C   UNL     1      -6.852  72.541  24.840  1.00  0.00    -0.006 C 
ATOM     18  C   UNL     1      -8.277  72.444  25.413  1.00  0.00     0.008 C 
ATOM     19  C   UNL     1      -6.880  73.254  23.479  1.00  0.00     0.008 C 
ENDBRANCH  12  17
ENDBRANCH  11  12
ENDBRANCH   1  11
TORSDOF 1
ENDMDL
MODEL 4
REMARK VINA RESULT:    -3.202      7.161      8.954
REMARK INTER + INTRA:          -4.977
REMARK INTER:                  -4.523
REMARK INTRA:                  -0.454
REMARK UNBOUND:                -0.090
REMARK SMILES CC1=CCC[C@H](C)C(=O)C[C@H](C(C)C)C(=O)C1
REMARK SMILES IDX 8 1 9 2 6 3 7 4 5 5 4 6 3 7 2 8 1 9 10 11 11 12 15 13 16 14
REMARK SMILES IDX 17 15 12 17 13 18 14 19
REMARK H PARENT
REMARK Flexibility Score: 70.00
ROOT
ATOM      1  C   UNL     1      -4.343  69.849  27.903  1.00  0.00     0.136 C 
ATOM      2  O   UNL     1      -4.518  70.124  29.080  1.00  0.00    -0.299 OA
ENDROOT
BRANCH   1   3
ATOM      3  C   UNL     1      -3.206  68.934  27.501  1.00  0.00     0.053 C 
ATOM      4  C   UNL     1      -1.902  69.445  28.121  1.00  0.00     0.016 C 
BRANCH   3   5
ATOM      5  C   UNL     1      -3.453  67.463  27.907  1.00  0.00     0.015 C 
BRANCH   5   6
ATOM      6  C   UNL     1      -4.905  66.995  27.690  1.00  0.00     0.028 C 
BRANCH   6   7
ATOM      7  C   UNL     1      -5.094  66.380  26.321  1.00  0.00    -0.028 C 
ATOM      8  C   UNL     1      -5.753  66.934  25.275  1.00  0.00    -0.070 CG0
ATOM      9  C   UNL     1      -5.793  66.162  23.980  1.00  0.00     0.039 C 
ATOM     10  G   UNL     1      -6.508  68.244  25.353  1.00  0.00     0.000 G0
ENDBRANCH   6   7
ENDBRANCH   5   6
ENDBRANCH   3   5
ENDBRANCH   1   3
BRANCH   1  11
ATOM     11  C   UNL     1      -5.250  70.453  26.857  1.00  0.00     0.087 C 
BRANCH  11  12
ATOM     12  C   UNL     1      -4.749  70.174  25.423  1.00  0.00     0.066 C 
BRANCH  12  13
ATOM     13  C   UNL     1      -5.756  69.340  24.653  1.00  0.00     0.140 C 
ATOM     14  O   UNL     1      -5.984  69.589  23.478  1.00  0.00    -0.299 OA
BRANCH  13  15
ATOM     15  C   UNL     1      -6.523  68.232  25.323  1.00  0.00     0.106 CG0
ATOM     16  G   UNL     1      -5.730  66.944  25.265  1.00  0.00     0.000 G0
ENDBRANCH  13  15
ENDBRANCH  12  13
BRANCH  12  17
ATOM     17  C   UNL     1      -4.341  71.479  24.672  1.00  0.00    -0.006 C 
ATOM     18  C   UNL     1      -2.936  72.000  25.022  1.00  0.00     0.008 C 
ATOM     19  C   UNL     1      -5.382  72.589  24.887  1.00  0.00     0.008 C 
ENDBRANCH  12  17
ENDBRANCH  11  12
ENDBRANCH   1  11
TORSDOF 1
ENDMDL
MODEL 5
REMARK VINA RESULT:    -3.143      8.011      9.977
REMARK INTER + INTRA:          -4.887
REMARK INTER:                  -4.438
REMARK INTRA:                  -0.449
REMARK UNBOUND:                -0.090
REMARK SMILES CC1=CCC[C@H](C)C(=O)C[C@H](C(C)C)C(=O)C1
REMARK SMILES IDX 8 1 9 2 6 3 7 4 5 5 4 6 3 7 2 8 1 9 10 11 11 12 15 13 16 14
REMARK SMILES IDX 17 15 12 17 13 18 14 19
REMARK H PARENT
REMARK Flexibility Score: 70.00
ROOT
ATOM      1  C   UNL     1      -6.713  69.851  24.740  1.00  0.00     0.136 C 
ATOM      2  O   UNL     1      -7.616  70.661  24.882  1.00  0.00    -0.299 OA
ENDROOT
BRANCH   1   3
ATOM      3  C   UNL     1      -5.293  70.332  24.530  1.00  0.00     0.053 C 
ATOM      4  C   UNL     1      -5.246  71.254  23.308  1.00  0.00     0.016 C 
BRANCH   3   5
ATOM      5  C   UNL     1      -4.719  71.056  25.770  1.00  0.00     0.015 C 
BRANCH   5   6
ATOM      6  C   UNL     1      -4.887  70.266  27.082  1.00  0.00     0.028 C 
BRANCH   6   7
ATOM      7  C   UNL     1      -3.795  69.234  27.257  1.00  0.00    -0.028 C 
ATOM      8  C   UNL     1      -3.922  67.895  27.100  1.00  0.00    -0.070 CG0
ATOM      9  C   UNL     1      -2.692  67.044  27.288  1.00  0.00     0.039 C 
ATOM     10  G   UNL     1      -5.238  67.200  26.821  1.00  0.00     0.000 G0
ENDBRANCH   6   7
ENDBRANCH   5   6
ENDBRANCH   3   5
ENDBRANCH   1   3
BRANCH   1  11
ATOM     11  C   UNL     1      -7.032  68.375  24.746  1.00  0.00     0.087 C 
BRANCH  11  12
ATOM     12  C   UNL     1      -5.831  67.520  24.284  1.00  0.00     0.066 C 
BRANCH  12  13
ATOM     13  C   UNL     1      -5.308  66.665  25.424  1.00  0.00     0.140 C 
ATOM     14  O   UNL     1      -4.960  65.513  25.213  1.00  0.00    -0.299 OA
BRANCH  13  15
ATOM     15  C   UNL     1      -5.252  67.195  26.832  1.00  0.00     0.106 CG0
ATOM     16  G   UNL     1      -3.930  67.892  27.071  1.00  0.00     0.000 G0
ENDBRANCH  13  15
ENDBRANCH  12  13
BRANCH  12  17
ATOM     17  C   UNL     1      -6.149  66.692  23.001  1.00  0.00    -0.006 C 
ATOM     18  C   UNL     1      -6.074  67.496  21.691  1.00  0.00     0.008 C 
ATOM     19  C   UNL     1      -7.518  66.001  23.115  1.00  0.00     0.008 C 
ENDBRANCH  12  17
ENDBRANCH  11  12
ENDBRANCH   1  11
TORSDOF 1
ENDMDL
MODEL 6
REMARK VINA RESULT:    -3.076      2.381      4.644
REMARK INTER + INTRA:          -4.784
REMARK INTER:                  -4.488
REMARK INTRA:                  -0.296
REMARK UNBOUND:                -0.090
REMARK SMILES CC1=CCC[C@H](C)C(=O)C[C@H](C(C)C)C(=O)C1
REMARK SMILES IDX 8 1 9 2 6 3 7 4 5 5 4 6 3 7 2 8 1 9 10 11 11 12 15 13 16 14
REMARK SMILES IDX 17 15 12 17 13 18 14 19
REMARK H PARENT
REMARK Flexibility Score: 70.00
ROOT
ATOM      1  C   UNL     1      -7.461  68.110  36.778  1.00  0.00     0.136 C 
ATOM      2  O   UNL     1      -7.885  67.950  37.913  1.00  0.00    -0.299 OA
ENDROOT
BRANCH   1   3
ATOM      3  C   UNL     1      -7.399  69.500  36.183  1.00  0.00     0.053 C 
ATOM      4  C   UNL     1      -8.822  70.021  35.961  1.00  0.00     0.016 C 
BRANCH   3   5
ATOM      5  C   UNL     1      -6.598  70.489  37.061  1.00  0.00     0.015 C 
BRANCH   5   6
ATOM      6  C   UNL     1      -5.115  70.613  36.661  1.00  0.00     0.028 C 
BRANCH   6   7
ATOM      7  C   UNL     1      -4.222  69.791  37.565  1.00  0.00    -0.028 C 
ATOM      8  C   UNL     1      -3.472  68.724  37.199  1.00  0.00    -0.070 CG0
ATOM      9  C   UNL     1      -2.621  68.066  38.257  1.00  0.00     0.039 C 
ATOM     10  G   UNL     1      -3.494  68.113  35.814  1.00  0.00     0.000 G0
ENDBRANCH   6   7
ENDBRANCH   5   6
ENDBRANCH   3   5
ENDBRANCH   1   3
BRANCH   1  11
ATOM     11  C   UNL     1      -7.031  66.908  35.971  1.00  0.00     0.087 C 
BRANCH  11  12
ATOM     12  C   UNL     1      -5.848  67.233  35.032  1.00  0.00     0.066 C 
BRANCH  12  13
ATOM     13  C   UNL     1      -4.524  67.009  35.738  1.00  0.00     0.140 C 
ATOM     14  O   UNL     1      -4.298  65.942  36.290  1.00  0.00    -0.299 OA
BRANCH  13  15
ATOM     15  C   UNL     1      -3.490  68.100  35.816  1.00  0.00     0.106 CG0
ATOM     16  G   UNL     1      -3.490  68.717  37.198  1.00  0.00     0.000 G0
ENDBRANCH  13  15
ENDBRANCH  12  13
BRANCH  12  17
ATOM     17  C   UNL     1      -5.945  66.477  33.671  1.00  0.00    -0.006 C 
ATOM     18  C   UNL     1      -6.338  67.365  32.477  1.00  0.00     0.008 C 
ATOM     19  C   UNL     1      -6.903  65.278  33.771  1.00  0.00     0.008 C 
ENDBRANCH  12  17
ENDBRANCH  11  12
ENDBRANCH   1  11
TORSDOF 1
ENDMDL
MODEL 7
REMARK VINA RESULT:    -2.964      2.154      4.012
REMARK INTER + INTRA:          -4.614
REMARK INTER:                  -4.223
REMARK INTRA:                  -0.391
REMARK UNBOUND:                -0.090
REMARK SMILES CC1=CCC[C@H](C)C(=O)C[C@H](C(C)C)C(=O)C1
REMARK SMILES IDX 8 1 9 2 6 3 7 4 5 5 4 6 3 7 2 8 1 9 10 11 11 12 15 13 16 14
REMARK SMILES IDX 17 15 12 17 13 18 14 19
REMARK H PARENT
REMARK Flexibility Score: 70.00
ROOT
ATOM      1  C   UNL     1      -7.176  68.940  36.268  1.00  0.00     0.136 C 
ATOM      2  O   UNL     1      -8.184  69.531  35.911  1.00  0.00    -0.299 OA
ENDROOT
BRANCH   1   3
ATOM      3  C   UNL     1      -7.114  67.430  36.179  1.00  0.00     0.053 C 
ATOM      4  C   UNL     1      -8.375  66.832  36.811  1.00  0.00     0.016 C 
BRANCH   3   5
ATOM      5  C   UNL     1      -6.951  66.924  34.727  1.00  0.00     0.015 C 
BRANCH   5   6
ATOM      6  C   UNL     1      -6.187  67.901  33.812  1.00  0.00     0.028 C 
BRANCH   6   7
ATOM      7  C   UNL     1      -4.745  67.480  33.628  1.00  0.00    -0.028 C 
ATOM      8  C   UNL     1      -3.655  68.108  34.129  1.00  0.00    -0.070 CG0
ATOM      9  C   UNL     1      -2.303  67.498  33.853  1.00  0.00     0.039 C 
ATOM     10  G   UNL     1      -3.709  69.420  34.883  1.00  0.00     0.000 G0
ENDBRANCH   6   7
ENDBRANCH   5   6
ENDBRANCH   3   5
ENDBRANCH   1   3
BRANCH   1  11
ATOM     11  C   UNL     1      -6.012  69.726  36.824  1.00  0.00     0.087 C 
BRANCH  11  12
ATOM     12  C   UNL     1      -4.817  68.816  37.183  1.00  0.00     0.066 C 
BRANCH  12  13
ATOM     13  C   UNL     1      -3.594  69.186  36.364  1.00  0.00     0.140 C 
ATOM     14  O   UNL     1      -2.511  69.327  36.913  1.00  0.00    -0.299 OA
BRANCH  13  15
ATOM     15  C   UNL     1      -3.694  69.429  34.882  1.00  0.00     0.106 CG0
ATOM     16  G   UNL     1      -3.635  68.113  34.135  1.00  0.00     0.000 G0
ENDBRANCH  13  15
ENDBRANCH  12  13
BRANCH  12  17
ATOM     17  C   UNL     1      -4.534  68.786  38.717  1.00  0.00    -0.006 C 
ATOM     18  C   UNL     1      -5.349  67.737  39.493  1.00  0.00     0.008 C 
ATOM     19  C   UNL     1      -4.734  70.176  39.343  1.00  0.00     0.008 C 
ENDBRANCH  12  17
ENDBRANCH  11  12
ENDBRANCH   1  11
TORSDOF 1
ENDMDL
MODEL 8
REMARK VINA RESULT:    -2.952      9.072     10.770
REMARK INTER + INTRA:          -4.596
REMARK INTER:                  -4.184
REMARK INTRA:                  -0.412
REMARK UNBOUND:                -0.090
REMARK SMILES CC1=CCC[C@H](C)C(=O)C[C@H](C(C)C)C(=O)C1
REMARK SMILES IDX 8 1 9 2 6 3 7 4 5 5 4 6 3 7 2 8 1 9 10 11 11 12 15 13 16 14
REMARK SMILES IDX 17 15 12 17 13 18 14 19
REMARK H PARENT
REMARK Flexibility Score: 70.00
ROOT
ATOM      1  C   UNL     1      -5.605  70.382  26.044  1.00  0.00     0.136 C 
ATOM      2  O   UNL     1      -5.640  70.859  27.168  1.00  0.00    -0.299 OA
ENDROOT
BRANCH   1   3
ATOM      3  C   UNL     1      -6.067  71.203  24.860  1.00  0.00     0.053 C 
ATOM      4  C   UNL     1      -7.567  71.485  24.993  1.00  0.00     0.016 C 
BRANCH   3   5
ATOM      5  C   UNL     1      -5.285  72.529  24.712  1.00  0.00     0.015 C 
BRANCH   5   6
ATOM      6  C   UNL     1      -3.774  72.334  24.475  1.00  0.00     0.028 C 
BRANCH   6   7
ATOM      7  C   UNL     1      -3.491  71.798  23.089  1.00  0.00    -0.028 C 
ATOM      8  C   UNL     1      -3.173  70.521  22.770  1.00  0.00    -0.070 CG0
ATOM      9  C   UNL     1      -2.963  70.190  21.314  1.00  0.00     0.039 C 
ATOM     10  G   UNL     1      -2.945  69.429  23.793  1.00  0.00     0.000 G0
ENDBRANCH   6   7
ENDBRANCH   5   6
ENDBRANCH   3   5
ENDBRANCH   1   3
BRANCH   1  11
ATOM     11  C   UNL     1      -5.127  68.962  25.855  1.00  0.00     0.087 C 
BRANCH  11  12
ATOM     12  C   UNL     1      -5.329  68.470  24.405  1.00  0.00     0.066 C 
BRANCH  12  13
ATOM     13  C   UNL     1      -3.997  68.350  23.686  1.00  0.00     0.140 C 
ATOM     14  O   UNL     1      -3.750  67.355  23.021  1.00  0.00    -0.299 OA
BRANCH  13  15
ATOM     15  C   UNL     1      -2.946  69.419  23.813  1.00  0.00     0.106 CG0
ATOM     16  G   UNL     1      -3.182  70.503  22.783  1.00  0.00     0.000 G0
ENDBRANCH  13  15
ENDBRANCH  12  13
BRANCH  12  17
ATOM     17  C   UNL     1      -6.177  67.163  24.334  1.00  0.00    -0.006 C 
ATOM     18  C   UNL     1      -7.371  67.232  23.366  1.00  0.00     0.008 C 
ATOM     19  C   UNL     1      -6.657  66.739  25.731  1.00  0.00     0.008 C 
ENDBRANCH  12  17
ENDBRANCH  11  12
ENDBRANCH   1  11
TORSDOF 1
ENDMDL
MODEL 9
REMARK VINA RESULT:    -2.701      1.679      3.866
REMARK INTER + INTRA:          -4.213
REMARK INTER:                  -4.053
REMARK INTRA:                  -0.159
REMARK UNBOUND:                -0.090
REMARK SMILES CC1=CCC[C@H](C)C(=O)C[C@H](C(C)C)C(=O)C1
REMARK SMILES IDX 8 1 9 2 6 3 7 4 5 5 4 6 3 7 2 8 1 9 10 11 11 12 15 13 16 14
REMARK SMILES IDX 17 15 12 17 13 18 14 19
REMARK H PARENT
REMARK Flexibility Score: 70.00
ROOT
ATOM      1  C   UNL     1      -6.984  68.853  35.966  1.00  0.00     0.136 C 
ATOM      2  O   UNL     1      -7.951  69.418  35.477  1.00  0.00    -0.299 OA
ENDROOT
BRANCH   1   3
ATOM      3  C   UNL     1      -7.119  67.441  36.492  1.00  0.00     0.053 C 
ATOM      4  C   UNL     1      -8.230  67.397  37.547  1.00  0.00     0.016 C 
BRANCH   3   5
ATOM      5  C   UNL     1      -7.404  66.412  35.373  1.00  0.00     0.015 C 
BRANCH   5   6
ATOM      6  C   UNL     1      -6.131  65.798  34.757  1.00  0.00     0.028 C 
BRANCH   6   7
ATOM      7  C   UNL     1      -5.758  66.474  33.456  1.00  0.00    -0.028 C 
ATOM      8  C   UNL     1      -4.582  67.082  33.174  1.00  0.00    -0.070 CG0
ATOM      9  C   UNL     1      -4.403  67.665  31.795  1.00  0.00     0.039 C 
ATOM     10  G   UNL     1      -3.469  67.274  34.183  1.00  0.00     0.000 G0
ENDBRANCH   6   7
ENDBRANCH   5   6
ENDBRANCH   3   5
ENDBRANCH   1   3
BRANCH   1  11
ATOM     11  C   UNL     1      -5.668  69.588  36.065  1.00  0.00     0.087 C 
BRANCH  11  12
ATOM     12  C   UNL     1      -4.473  68.621  36.210  1.00  0.00     0.066 C 
BRANCH  12  13
ATOM     13  C   UNL     1      -3.660  68.575  34.929  1.00  0.00     0.140 C 
ATOM     14  O   UNL     1      -3.189  69.604  34.468  1.00  0.00    -0.299 OA
BRANCH  13  15
ATOM     15  C   UNL     1      -3.457  67.284  34.182  1.00  0.00     0.106 CG0
ATOM     16  G   UNL     1      -4.575  67.084  33.180  1.00  0.00     0.000 G0
ENDBRANCH  13  15
ENDBRANCH  12  13
BRANCH  12  17
ATOM     17  C   UNL     1      -3.606  68.931  37.468  1.00  0.00    -0.006 C 
ATOM     18  C   UNL     1      -3.503  70.427  37.816  1.00  0.00     0.008 C 
ATOM     19  C   UNL     1      -2.200  68.325  37.334  1.00  0.00     0.008 C 
ENDBRANCH  12  17
ENDBRANCH  11  12
ENDBRANCH   1  11
TORSDOF 1
ENDMDL
