MODEL 1
REMARK VINA RESULT:    -6.513      0.000      0.000
REMARK INTER + INTRA:         -11.030
REMARK INTER:                  -9.940
REMARK INTRA:                  -1.090
REMARK UNBOUND:                -1.090
REMARK SMILES COc1cc(C=CCOC(=O)C=Cc2ccc(O)c(OC)c2)ccc1O
REMARK SMILES IDX 9 1 8 2 7 3 6 4 5 5 3 6 25 7 4 8 24 9 23 10 2 11 1 12 26 13
REMARK SMILES IDX 10 15 11 16 12 17 13 18 14 19 22 20 15 21 19 22 16 23 17 24
REMARK SMILES IDX 20 25 21 26 18 27
REMARK H PARENT 26 14 18 28
REMARK Flexibility Score: inf
ROOT
ATOM      1  O   UNL     1      26.094  50.441 139.206  1.00  0.00    -0.458 OA
ENDROOT
BRANCH   1   2
ATOM      2  C   UNL     1      25.021  50.940 138.409  1.00  0.00     0.261 C 
BRANCH   2   3
ATOM      3  C   UNL     1      23.873  49.975 138.402  1.00  0.00     0.015 C 
ATOM      4  C   UNL     1      23.298  49.580 139.544  1.00  0.00     0.007 C 
BRANCH   4   5
ATOM      5  C   UNL     1      22.177  48.610 139.614  1.00  0.00    -0.022 A 
ATOM      6  C   UNL     1      20.839  46.775 138.693  1.00  0.00     0.161 A 
ATOM      7  C   UNL     1      20.008  46.825 139.828  1.00  0.00     0.157 A 
ATOM      8  C   UNL     1      21.921  47.674 138.591  1.00  0.00     0.058 A 
ATOM      9  C   UNL     1      20.253  47.764 140.832  1.00  0.00     0.051 A 
ATOM     10  C   UNL     1      21.324  48.652 140.725  1.00  0.00     0.012 A 
BRANCH   6  11
ATOM     11  O   UNL     1      20.562  45.828 137.695  1.00  0.00    -0.493 OA
ATOM     12  C   UNL     1      19.715  46.058 136.573  1.00  0.00     0.278 C 
ENDBRANCH   6  11
BRANCH   7  13
ATOM     13  O   UNL     1      18.930  45.952 139.971  1.00  0.00    -0.504 OA
ATOM     14  H   UNL     1      18.825  45.124 139.395  1.00  0.00     0.293 HD
ENDBRANCH   7  13
ENDBRANCH   4   5
ENDBRANCH   2   3
ENDBRANCH   1   2
BRANCH   1  15
ATOM     15  C   UNL     1      27.281  49.934 138.666  1.00  0.00     0.331 C 
ATOM     16  O   UNL     1      28.069  50.690 138.032  1.00  0.00    -0.247 OA
BRANCH  15  17
ATOM     17  C   UNL     1      27.594  48.509 138.852  1.00  0.00     0.094 C 
ATOM     18  C   UNL     1      26.767  47.534 138.449  1.00  0.00     0.016 C 
BRANCH  18  19
ATOM     19  C   UNL     1      27.044  46.089 138.636  1.00  0.00    -0.021 A 
ATOM     20  C   UNL     1      26.382  45.089 137.895  1.00  0.00     0.058 A 
ATOM     21  C   UNL     1      27.973  45.705 139.614  1.00  0.00     0.012 A 
ATOM     22  C   UNL     1      26.668  43.726 138.111  1.00  0.00     0.161 A 
ATOM     23  C   UNL     1      28.260  44.357 139.832  1.00  0.00     0.051 A 
ATOM     24  C   UNL     1      27.614  43.367 139.082  1.00  0.00     0.157 A 
BRANCH  22  25
ATOM     25  O   UNL     1      26.034  42.702 137.389  1.00  0.00    -0.493 OA
ATOM     26  C   UNL     1      26.356  42.341 136.049  1.00  0.00     0.278 C 
ENDBRANCH  22  25
BRANCH  24  27
ATOM     27  O   UNL     1      27.903  42.021 139.298  1.00  0.00    -0.504 OA
ATOM     28  H   UNL     1      27.487  41.291 138.732  1.00  0.00     0.293 HD
ENDBRANCH  24  27
ENDBRANCH  18  19
ENDBRANCH  15  17
ENDBRANCH   1  15
TORSDOF 10
ENDMDL
MODEL 2
REMARK VINA RESULT:    -6.501      3.371      6.194
REMARK INTER + INTRA:         -11.012
REMARK INTER:                  -9.595
REMARK INTRA:                  -1.417
REMARK UNBOUND:                -1.090
REMARK SMILES COc1cc(C=CCOC(=O)C=Cc2ccc(O)c(OC)c2)ccc1O
REMARK SMILES IDX 9 1 8 2 7 3 6 4 5 5 3 6 25 7 4 8 24 9 23 10 2 11 1 12 26 13
REMARK SMILES IDX 10 15 11 16 12 17 13 18 14 19 22 20 15 21 19 22 16 23 17 24
REMARK SMILES IDX 20 25 21 26 18 27
REMARK H PARENT 26 14 18 28
REMARK Flexibility Score: inf
ROOT
ATOM      1  O   UNL     1      32.136  48.606 141.264  1.00  0.00    -0.458 OA
ENDROOT
BRANCH   1   2
ATOM      2  C   UNL     1      32.573  49.649 140.396  1.00  0.00     0.261 C 
BRANCH   2   3
ATOM      3  C   UNL     1      31.488  50.029 139.433  1.00  0.00     0.015 C 
ATOM      4  C   UNL     1      30.229  50.212 139.851  1.00  0.00     0.007 C 
BRANCH   4   5
ATOM      5  C   UNL     1      29.102  50.563 138.952  1.00  0.00    -0.022 A 
ATOM      6  C   UNL     1      26.738  51.050 138.530  1.00  0.00     0.161 A 
ATOM      7  C   UNL     1      27.024  51.205 137.161  1.00  0.00     0.157 A 
ATOM      8  C   UNL     1      27.782  50.724 139.420  1.00  0.00     0.058 A 
ATOM      9  C   UNL     1      28.329  51.028 136.696  1.00  0.00     0.051 A 
ATOM     10  C   UNL     1      29.358  50.706 137.581  1.00  0.00     0.012 A 
BRANCH   6  11
ATOM     11  O   UNL     1      25.415  51.223 138.966  1.00  0.00    -0.493 OA
ATOM     12  C   UNL     1      24.684  50.271 139.732  1.00  0.00     0.278 C 
ENDBRANCH   6  11
BRANCH   7  13
ATOM     13  O   UNL     1      26.022  51.530 136.247  1.00  0.00    -0.504 OA
ATOM     14  H   UNL     1      26.229  51.809 135.295  1.00  0.00     0.293 HD
ENDBRANCH   7  13
ENDBRANCH   4   5
ENDBRANCH   2   3
ENDBRANCH   1   2
BRANCH   1  15
ATOM     15  C   UNL     1      32.289  47.247 140.970  1.00  0.00     0.331 C 
ATOM     16  O   UNL     1      33.381  46.660 141.211  1.00  0.00    -0.247 OA
BRANCH  15  17
ATOM     17  C   UNL     1      31.157  46.516 140.378  1.00  0.00     0.094 C 
ATOM     18  C   UNL     1      29.910  47.006 140.375  1.00  0.00     0.016 C 
BRANCH  18  19
ATOM     19  C   UNL     1      28.745  46.289 139.802  1.00  0.00    -0.021 A 
ATOM     20  C   UNL     1      28.507  44.920 140.041  1.00  0.00     0.058 A 
ATOM     21  C   UNL     1      27.870  46.993 138.963  1.00  0.00     0.012 A 
ATOM     22  C   UNL     1      27.392  44.274 139.469  1.00  0.00     0.161 A 
ATOM     23  C   UNL     1      26.764  46.358 138.394  1.00  0.00     0.051 A 
ATOM     24  C   UNL     1      26.521  45.003 138.648  1.00  0.00     0.157 A 
BRANCH  22  25
ATOM     25  O   UNL     1      27.119  42.914 139.689  1.00  0.00    -0.493 OA
ATOM     26  C   UNL     1      27.501  41.861 138.809  1.00  0.00     0.278 C 
ENDBRANCH  22  25
BRANCH  24  27
ATOM     27  O   UNL     1      25.415  44.370 138.082  1.00  0.00    -0.504 OA
ATOM     28  H   UNL     1      24.474  44.561 138.403  1.00  0.00     0.293 HD
ENDBRANCH  24  27
ENDBRANCH  18  19
ENDBRANCH  15  17
ENDBRANCH   1  15
TORSDOF 10
ENDMDL
MODEL 3
REMARK VINA RESULT:    -6.223      3.250      7.266
REMARK INTER + INTRA:         -10.587
REMARK INTER:                  -9.065
REMARK INTRA:                  -1.522
REMARK UNBOUND:                -1.090
REMARK SMILES COc1cc(C=CCOC(=O)C=Cc2ccc(O)c(OC)c2)ccc1O
REMARK SMILES IDX 9 1 8 2 7 3 6 4 5 5 3 6 25 7 4 8 24 9 23 10 2 11 1 12 26 13
REMARK SMILES IDX 10 15 11 16 12 17 13 18 14 19 22 20 15 21 19 22 16 23 17 24
REMARK SMILES IDX 20 25 21 26 18 27
REMARK H PARENT 26 14 18 28
REMARK Flexibility Score: inf
ROOT
ATOM      1  O   UNL     1      33.018  48.251 140.401  1.00  0.00    -0.458 OA
ENDROOT
BRANCH   1   2
ATOM      2  C   UNL     1      32.540  47.104 141.101  1.00  0.00     0.261 C 
BRANCH   2   3
ATOM      3  C   UNL     1      31.394  46.473 140.368  1.00  0.00     0.015 C 
ATOM      4  C   UNL     1      30.128  46.710 140.733  1.00  0.00     0.007 C 
BRANCH   4   5
ATOM      5  C   UNL     1      28.948  46.101 140.071  1.00  0.00    -0.022 A 
ATOM      6  C   UNL     1      27.493  44.197 139.560  1.00  0.00     0.161 A 
ATOM      7  C   UNL     1      26.699  45.033 138.753  1.00  0.00     0.157 A 
ATOM      8  C   UNL     1      28.620  44.738 140.213  1.00  0.00     0.058 A 
ATOM      9  C   UNL     1      27.035  46.380 138.600  1.00  0.00     0.051 A 
ATOM     10  C   UNL     1      28.151  46.909 139.248  1.00  0.00     0.012 A 
BRANCH   6  11
ATOM     11  O   UNL     1      27.136  42.845 139.687  1.00  0.00    -0.493 OA
ATOM     12  C   UNL     1      27.502  41.822 138.766  1.00  0.00     0.278 C 
ENDBRANCH   6  11
BRANCH   7  13
ATOM     13  O   UNL     1      25.574  44.540 138.092  1.00  0.00    -0.504 OA
ATOM     14  H   UNL     1      25.639  43.833 137.369  1.00  0.00     0.293 HD
ENDBRANCH   7  13
ENDBRANCH   4   5
ENDBRANCH   2   3
ENDBRANCH   1   2
BRANCH   1  15
ATOM     15  C   UNL     1      32.435  49.518 140.515  1.00  0.00     0.331 C 
ATOM     16  O   UNL     1      32.792  50.306 141.434  1.00  0.00    -0.247 OA
BRANCH  15  17
ATOM     17  C   UNL     1      31.403  49.914 139.543  1.00  0.00     0.094 C 
ATOM     18  C   UNL     1      30.123  50.103 139.893  1.00  0.00     0.016 C 
BRANCH  18  19
ATOM     19  C   UNL     1      29.056  50.486 138.936  1.00  0.00    -0.021 A 
ATOM     20  C   UNL     1      27.698  50.562 139.308  1.00  0.00     0.058 A 
ATOM     21  C   UNL     1      29.411  50.746 137.604  1.00  0.00     0.012 A 
ATOM     22  C   UNL     1      26.714  50.920 138.364  1.00  0.00     0.161 A 
ATOM     23  C   UNL     1      28.440  51.101 136.667  1.00  0.00     0.051 A 
ATOM     24  C   UNL     1      27.094  51.193 137.043  1.00  0.00     0.157 A 
BRANCH  22  25
ATOM     25  O   UNL     1      25.353  51.012 138.698  1.00  0.00    -0.493 OA
ATOM     26  C   UNL     1      24.539  49.907 139.080  1.00  0.00     0.278 C 
ENDBRANCH  22  25
BRANCH  24  27
ATOM     27  O   UNL     1      26.126  51.551 136.107  1.00  0.00    -0.504 OA
ATOM     28  H   UNL     1      25.226  51.918 136.389  1.00  0.00     0.293 HD
ENDBRANCH  24  27
ENDBRANCH  18  19
ENDBRANCH  15  17
ENDBRANCH   1  15
TORSDOF 10
ENDMDL
MODEL 4
REMARK VINA RESULT:    -6.153      5.959     10.500
REMARK INTER + INTRA:         -10.480
REMARK INTER:                  -9.719
REMARK INTRA:                  -0.761
REMARK UNBOUND:                -1.090
REMARK SMILES COc1cc(C=CCOC(=O)C=Cc2ccc(O)c(OC)c2)ccc1O
REMARK SMILES IDX 9 1 8 2 7 3 6 4 5 5 3 6 25 7 4 8 24 9 23 10 2 11 1 12 26 13
REMARK SMILES IDX 10 15 11 16 12 17 13 18 14 19 22 20 15 21 19 22 16 23 17 24
REMARK SMILES IDX 20 25 21 26 18 27
REMARK H PARENT 26 14 18 28
REMARK Flexibility Score: inf
ROOT
ATOM      1  O   UNL     1      33.161  47.954 140.555  1.00  0.00    -0.458 OA
ENDROOT
BRANCH   1   2
ATOM      2  C   UNL     1      34.208  47.692 141.488  1.00  0.00     0.261 C 
BRANCH   2   3
ATOM      3  C   UNL     1      33.836  46.560 142.399  1.00  0.00     0.015 C 
ATOM      4  C   UNL     1      34.740  45.642 142.763  1.00  0.00     0.007 C 
BRANCH   4   5
ATOM      5  C   UNL     1      34.436  44.483 143.638  1.00  0.00    -0.022 A 
ATOM      6  C   UNL     1      35.095  42.726 145.214  1.00  0.00     0.161 A 
ATOM      7  C   UNL     1      33.763  42.274 145.253  1.00  0.00     0.157 A 
ATOM      8  C   UNL     1      35.425  43.830 144.401  1.00  0.00     0.058 A 
ATOM      9  C   UNL     1      32.787  42.912 144.484  1.00  0.00     0.051 A 
ATOM     10  C   UNL     1      33.120  44.003 143.681  1.00  0.00     0.012 A 
BRANCH   6  11
ATOM     11  O   UNL     1      36.057  42.059 145.989  1.00  0.00    -0.493 OA
ATOM     12  C   UNL     1      36.735  40.871 145.592  1.00  0.00     0.278 C 
ENDBRANCH   6  11
BRANCH   7  13
ATOM     13  O   UNL     1      33.393  41.189 146.047  1.00  0.00    -0.504 OA
ATOM     14  H   UNL     1      32.474  40.764 145.986  1.00  0.00     0.293 HD
ENDBRANCH   7  13
ENDBRANCH   4   5
ENDBRANCH   2   3
ENDBRANCH   1   2
BRANCH   1  15
ATOM     15  C   UNL     1      31.960  48.580 140.905  1.00  0.00     0.331 C 
ATOM     16  O   UNL     1      31.961  49.586 141.667  1.00  0.00    -0.247 OA
BRANCH  15  17
ATOM     17  C   UNL     1      30.699  48.046 140.366  1.00  0.00     0.094 C 
ATOM     18  C   UNL     1      30.353  46.757 140.493  1.00  0.00     0.016 C 
BRANCH  18  19
ATOM     19  C   UNL     1      29.098  46.184 139.947  1.00  0.00    -0.021 A 
ATOM     20  C   UNL     1      28.755  44.826 140.107  1.00  0.00     0.058 A 
ATOM     21  C   UNL     1      28.242  47.019 139.215  1.00  0.00     0.012 A 
ATOM     22  C   UNL     1      27.557  44.319 139.564  1.00  0.00     0.161 A 
ATOM     23  C   UNL     1      27.054  46.522 138.675  1.00  0.00     0.051 A 
ATOM     24  C   UNL     1      26.707  45.177 138.851  1.00  0.00     0.157 A 
BRANCH  22  25
ATOM     25  O   UNL     1      27.178  42.975 139.707  1.00  0.00    -0.493 OA
ATOM     26  C   UNL     1      27.539  41.933 138.805  1.00  0.00     0.278 C 
ENDBRANCH  22  25
BRANCH  24  27
ATOM     27  O   UNL     1      25.520  44.682 138.315  1.00  0.00    -0.504 OA
ATOM     28  H   UNL     1      25.467  44.351 137.359  1.00  0.00     0.293 HD
ENDBRANCH  24  27
ENDBRANCH  18  19
ENDBRANCH  15  17
ENDBRANCH   1  15
TORSDOF 10
ENDMDL
MODEL 5
REMARK VINA RESULT:    -6.144      3.421      8.872
REMARK INTER + INTRA:         -10.466
REMARK INTER:                  -9.132
REMARK INTRA:                  -1.334
REMARK UNBOUND:                -1.090
REMARK SMILES COc1cc(C=CCOC(=O)C=Cc2ccc(O)c(OC)c2)ccc1O
REMARK SMILES IDX 9 1 8 2 7 3 6 4 5 5 3 6 25 7 4 8 24 9 23 10 2 11 1 12 26 13
REMARK SMILES IDX 10 15 11 16 12 17 13 18 14 19 22 20 15 21 19 22 16 23 17 24
REMARK SMILES IDX 20 25 21 26 18 27
REMARK H PARENT 26 14 18 28
REMARK Flexibility Score: inf
ROOT
ATOM      1  O   UNL     1      27.076  43.537 138.840  1.00  0.00    -0.458 OA
ENDROOT
BRANCH   1   2
ATOM      2  C   UNL     1      27.364  44.081 140.127  1.00  0.00     0.261 C 
BRANCH   2   3
ATOM      3  C   UNL     1      28.655  44.844 140.104  1.00  0.00     0.015 C 
ATOM      4  C   UNL     1      28.690  46.149 140.403  1.00  0.00     0.007 C 
BRANCH   4   5
ATOM      5  C   UNL     1      29.924  46.971 140.376  1.00  0.00    -0.022 A 
ATOM      6  C   UNL     1      32.335  47.272 140.696  1.00  0.00     0.161 A 
ATOM      7  C   UNL     1      32.207  48.620 140.315  1.00  0.00     0.157 A 
ATOM      8  C   UNL     1      31.187  46.453 140.728  1.00  0.00     0.058 A 
ATOM      9  C   UNL     1      30.953  49.136 139.983  1.00  0.00     0.051 A 
ATOM     10  C   UNL     1      29.821  48.322 140.017  1.00  0.00     0.012 A 
BRANCH   6  11
ATOM     11  O   UNL     1      33.607  46.784 141.034  1.00  0.00    -0.493 OA
ATOM     12  C   UNL     1      34.036  46.494 142.361  1.00  0.00     0.278 C 
ENDBRANCH   6  11
BRANCH   7  13
ATOM     13  O   UNL     1      33.317  49.464 140.266  1.00  0.00    -0.504 OA
ATOM     14  H   UNL     1      34.182  49.193 139.811  1.00  0.00     0.293 HD
ENDBRANCH   7  13
ENDBRANCH   4   5
ENDBRANCH   2   3
ENDBRANCH   1   2
BRANCH   1  15
ATOM     15  C   UNL     1      26.524  44.287 137.795  1.00  0.00     0.331 C 
ATOM     16  O   UNL     1      26.365  43.772 136.653  1.00  0.00    -0.247 OA
BRANCH  15  17
ATOM     17  C   UNL     1      26.131  45.681 138.052  1.00  0.00     0.094 C 
ATOM     18  C   UNL     1      26.782  46.721 137.513  1.00  0.00     0.016 C 
BRANCH  18  19
ATOM     19  C   UNL     1      26.422  48.138 137.765  1.00  0.00    -0.021 A 
ATOM     20  C   UNL     1      27.250  49.210 137.373  1.00  0.00     0.058 A 
ATOM     21  C   UNL     1      25.231  48.416 138.451  1.00  0.00     0.012 A 
ATOM     22  C   UNL     1      26.875  50.542 137.641  1.00  0.00     0.161 A 
ATOM     23  C   UNL     1      24.856  49.734 138.719  1.00  0.00     0.051 A 
ATOM     24  C   UNL     1      25.672  50.797 138.313  1.00  0.00     0.157 A 
BRANCH  22  25
ATOM     25  O   UNL     1      27.670  51.636 137.262  1.00  0.00    -0.493 OA
ATOM     26  C   UNL     1      29.086  51.696 137.411  1.00  0.00     0.278 C 
ENDBRANCH  22  25
BRANCH  24  27
ATOM     27  O   UNL     1      25.294  52.112 138.578  1.00  0.00    -0.504 OA
ATOM     28  H   UNL     1      25.004  52.740 137.837  1.00  0.00     0.293 HD
ENDBRANCH  24  27
ENDBRANCH  18  19
ENDBRANCH  15  17
ENDBRANCH   1  15
TORSDOF 10
ENDMDL
MODEL 6
REMARK VINA RESULT:    -6.120      6.339     10.652
REMARK INTER + INTRA:         -10.430
REMARK INTER:                  -9.962
REMARK INTRA:                  -0.468
REMARK UNBOUND:                -1.090
REMARK SMILES COc1cc(C=CCOC(=O)C=Cc2ccc(O)c(OC)c2)ccc1O
REMARK SMILES IDX 9 1 8 2 7 3 6 4 5 5 3 6 25 7 4 8 24 9 23 10 2 11 1 12 26 13
REMARK SMILES IDX 10 15 11 16 12 17 13 18 14 19 22 20 15 21 19 22 16 23 17 24
REMARK SMILES IDX 20 25 21 26 18 27
REMARK H PARENT 26 14 18 28
REMARK Flexibility Score: inf
ROOT
ATOM      1  O   UNL     1      32.998  47.549 141.220  1.00  0.00    -0.458 OA
ENDROOT
BRANCH   1   2
ATOM      2  C   UNL     1      33.273  46.152 141.312  1.00  0.00     0.261 C 
BRANCH   2   3
ATOM      3  C   UNL     1      33.666  45.779 142.711  1.00  0.00     0.015 C 
ATOM      4  C   UNL     1      33.394  44.564 143.203  1.00  0.00     0.007 C 
BRANCH   4   5
ATOM      5  C   UNL     1      33.729  44.137 144.583  1.00  0.00    -0.022 A 
ATOM      6  C   UNL     1      34.525  44.584 146.857  1.00  0.00     0.161 A 
ATOM      7  C   UNL     1      34.361  43.222 147.172  1.00  0.00     0.157 A 
ATOM      8  C   UNL     1      34.211  45.034 145.558  1.00  0.00     0.058 A 
ATOM      9  C   UNL     1      33.899  42.332 146.200  1.00  0.00     0.051 A 
ATOM     10  C   UNL     1      33.591  42.782 144.917  1.00  0.00     0.012 A 
BRANCH   6  11
ATOM     11  O   UNL     1      35.001  45.454 147.851  1.00  0.00    -0.493 OA
ATOM     12  C   UNL     1      35.702  46.667 147.597  1.00  0.00     0.278 C 
ENDBRANCH   6  11
BRANCH   7  13
ATOM     13  O   UNL     1      34.656  42.736 148.445  1.00  0.00    -0.504 OA
ATOM     14  H   UNL     1      35.590  42.442 148.708  1.00  0.00     0.293 HD
ENDBRANCH   7  13
ENDBRANCH   4   5
ENDBRANCH   2   3
ENDBRANCH   1   2
BRANCH   1  15
ATOM     15  C   UNL     1      31.737  48.064 140.897  1.00  0.00     0.331 C 
ATOM     16  O   UNL     1      31.470  49.279 141.109  1.00  0.00    -0.247 OA
BRANCH  15  17
ATOM     17  C   UNL     1      30.734  47.165 140.305  1.00  0.00     0.094 C 
ATOM     18  C   UNL     1      29.437  47.493 140.222  1.00  0.00     0.016 C 
BRANCH  18  19
ATOM     19  C   UNL     1      28.397  46.604 139.647  1.00  0.00    -0.021 A 
ATOM     20  C   UNL     1      28.296  45.240 139.987  1.00  0.00     0.058 A 
ATOM     21  C   UNL     1      27.508  47.137 138.703  1.00  0.00     0.012 A 
ATOM     22  C   UNL     1      27.299  44.428 139.409  1.00  0.00     0.161 A 
ATOM     23  C   UNL     1      26.519  46.336 138.128  1.00  0.00     0.051 A 
ATOM     24  C   UNL     1      26.409  44.986 138.481  1.00  0.00     0.157 A 
BRANCH  22  25
ATOM     25  O   UNL     1      27.163  43.067 139.727  1.00  0.00    -0.493 OA
ATOM     26  C   UNL     1      27.544  41.995 138.868  1.00  0.00     0.278 C 
ENDBRANCH  22  25
BRANCH  24  27
ATOM     27  O   UNL     1      25.419  44.188 137.909  1.00  0.00    -0.504 OA
ATOM     28  H   UNL     1      25.521  43.803 136.979  1.00  0.00     0.293 HD
ENDBRANCH  24  27
ENDBRANCH  18  19
ENDBRANCH  15  17
ENDBRANCH   1  15
TORSDOF 10
ENDMDL
MODEL 7
REMARK VINA RESULT:    -6.116      3.526      7.005
REMARK INTER + INTRA:         -10.424
REMARK INTER:                  -9.208
REMARK INTRA:                  -1.216
REMARK UNBOUND:                -1.090
REMARK SMILES COc1cc(C=CCOC(=O)C=Cc2ccc(O)c(OC)c2)ccc1O
REMARK SMILES IDX 9 1 8 2 7 3 6 4 5 5 3 6 25 7 4 8 24 9 23 10 2 11 1 12 26 13
REMARK SMILES IDX 10 15 11 16 12 17 13 18 14 19 22 20 15 21 19 22 16 23 17 24
REMARK SMILES IDX 20 25 21 26 18 27
REMARK H PARENT 26 14 18 28
REMARK Flexibility Score: inf
ROOT
ATOM      1  O   UNL     1      27.526  43.678 138.748  1.00  0.00    -0.458 OA
ENDROOT
BRANCH   1   2
ATOM      2  C   UNL     1      26.446  44.121 137.929  1.00  0.00     0.261 C 
BRANCH   2   3
ATOM      3  C   UNL     1      26.586  45.579 137.606  1.00  0.00     0.015 C 
ATOM      4  C   UNL     1      25.997  46.512 138.364  1.00  0.00     0.007 C 
BRANCH   4   5
ATOM      5  C   UNL     1      26.071  47.968 138.089  1.00  0.00    -0.022 A 
ATOM      6  C   UNL     1      27.227  49.958 137.246  1.00  0.00     0.161 A 
ATOM      7  C   UNL     1      26.127  50.747 137.631  1.00  0.00     0.157 A 
ATOM      8  C   UNL     1      27.194  48.568 137.482  1.00  0.00     0.058 A 
ATOM      9  C   UNL     1      25.023  50.154 138.247  1.00  0.00     0.051 A 
ATOM     10  C   UNL     1      24.997  48.779 138.479  1.00  0.00     0.012 A 
BRANCH   6  11
ATOM     11  O   UNL     1      28.327  50.584 136.639  1.00  0.00    -0.493 OA
ATOM     12  C   UNL     1      29.344  51.293 137.340  1.00  0.00     0.278 C 
ENDBRANCH   6  11
BRANCH   7  13
ATOM     13  O   UNL     1      26.117  52.125 137.413  1.00  0.00    -0.504 OA
ATOM     14  H   UNL     1      25.259  52.640 137.250  1.00  0.00     0.293 HD
ENDBRANCH   7  13
ENDBRANCH   4   5
ENDBRANCH   2   3
ENDBRANCH   1   2
BRANCH   1  15
ATOM     15  C   UNL     1      27.813  44.226 140.003  1.00  0.00     0.331 C 
ATOM     16  O   UNL     1      27.038  44.027 140.980  1.00  0.00    -0.247 OA
BRANCH  15  17
ATOM     17  C   UNL     1      29.032  45.035 140.163  1.00  0.00     0.094 C 
ATOM     18  C   UNL     1      29.004  46.374 140.210  1.00  0.00     0.016 C 
BRANCH  18  19
ATOM     19  C   UNL     1      30.215  47.218 140.354  1.00  0.00    -0.021 A 
ATOM     20  C   UNL     1      31.491  46.675 140.610  1.00  0.00     0.058 A 
ATOM     21  C   UNL     1      30.076  48.611 140.267  1.00  0.00     0.012 A 
ATOM     22  C   UNL     1      32.614  47.515 140.750  1.00  0.00     0.161 A 
ATOM     23  C   UNL     1      31.186  49.446 140.404  1.00  0.00     0.051 A 
ATOM     24  C   UNL     1      32.454  48.903 140.641  1.00  0.00     0.157 A 
BRANCH  22  25
ATOM     25  O   UNL     1      33.901  47.010 141.000  1.00  0.00    -0.493 OA
ATOM     26  C   UNL     1      34.183  45.905 141.853  1.00  0.00     0.278 C 
ENDBRANCH  22  25
BRANCH  24  27
ATOM     27  O   UNL     1      33.562  49.738 140.775  1.00  0.00    -0.504 OA
ATOM     28  H   UNL     1      34.504  49.396 140.629  1.00  0.00     0.293 HD
ENDBRANCH  24  27
ENDBRANCH  18  19
ENDBRANCH  15  17
ENDBRANCH   1  15
TORSDOF 10
ENDMDL
MODEL 8
REMARK VINA RESULT:    -6.070      6.007      8.443
REMARK INTER + INTRA:         -10.354
REMARK INTER:                  -9.708
REMARK INTRA:                  -0.646
REMARK UNBOUND:                -1.090
REMARK SMILES COc1cc(C=CCOC(=O)C=Cc2ccc(O)c(OC)c2)ccc1O
REMARK SMILES IDX 9 1 8 2 7 3 6 4 5 5 3 6 25 7 4 8 24 9 23 10 2 11 1 12 26 13
REMARK SMILES IDX 10 15 11 16 12 17 13 18 14 19 22 20 15 21 19 22 16 23 17 24
REMARK SMILES IDX 20 25 21 26 18 27
REMARK H PARENT 26 14 18 28
REMARK Flexibility Score: inf
ROOT
ATOM      1  O   UNL     1      32.430  47.949 141.281  1.00  0.00    -0.458 OA
ENDROOT
BRANCH   1   2
ATOM      2  C   UNL     1      31.570  48.937 140.716  1.00  0.00     0.261 C 
BRANCH   2   3
ATOM      3  C   UNL     1      30.337  48.304 140.143  1.00  0.00     0.015 C 
ATOM      4  C   UNL     1      30.041  47.022 140.393  1.00  0.00     0.007 C 
BRANCH   4   5
ATOM      5  C   UNL     1      28.854  46.325 139.840  1.00  0.00    -0.022 A 
ATOM      6  C   UNL     1      27.465  44.331 139.523  1.00  0.00     0.161 A 
ATOM      7  C   UNL     1      26.584  45.084 138.724  1.00  0.00     0.157 A 
ATOM      8  C   UNL     1      28.602  44.958 140.074  1.00  0.00     0.058 A 
ATOM      9  C   UNL     1      26.845  46.433 138.479  1.00  0.00     0.051 A 
ATOM     10  C   UNL     1      27.971  47.048 139.027  1.00  0.00     0.012 A 
BRANCH   6  11
ATOM     11  O   UNL     1      27.184  42.973 139.743  1.00  0.00    -0.493 OA
ATOM     12  C   UNL     1      27.515  41.921 138.842  1.00  0.00     0.278 C 
ENDBRANCH   6  11
BRANCH   7  13
ATOM     13  O   UNL     1      25.447  44.504 138.162  1.00  0.00    -0.504 OA
ATOM     14  H   UNL     1      24.620  45.045 137.938  1.00  0.00     0.293 HD
ENDBRANCH   7  13
ENDBRANCH   4   5
ENDBRANCH   2   3
ENDBRANCH   1   2
BRANCH   1  15
ATOM     15  C   UNL     1      33.501  48.256 142.127  1.00  0.00     0.331 C 
ATOM     16  O   UNL     1      34.230  49.261 141.897  1.00  0.00    -0.247 OA
BRANCH  15  17
ATOM     17  C   UNL     1      33.759  47.389 143.288  1.00  0.00     0.094 C 
ATOM     18  C   UNL     1      33.514  46.072 143.268  1.00  0.00     0.016 C 
BRANCH  18  19
ATOM     19  C   UNL     1      33.747  45.173 144.426  1.00  0.00    -0.021 A 
ATOM     20  C   UNL     1      33.961  43.788 144.278  1.00  0.00     0.058 A 
ATOM     21  C   UNL     1      33.716  45.721 145.717  1.00  0.00     0.012 A 
ATOM     22  C   UNL     1      34.168  42.968 145.406  1.00  0.00     0.161 A 
ATOM     23  C   UNL     1      33.921  44.913 146.837  1.00  0.00     0.051 A 
ATOM     24  C   UNL     1      34.151  43.541 146.685  1.00  0.00     0.157 A 
BRANCH  22  25
ATOM     25  O   UNL     1      34.391  41.586 145.298  1.00  0.00    -0.493 OA
ATOM     26  C   UNL     1      33.379  40.626 145.007  1.00  0.00     0.278 C 
ENDBRANCH  22  25
BRANCH  24  27
ATOM     27  O   UNL     1      34.359  42.736 147.804  1.00  0.00    -0.504 OA
ATOM     28  H   UNL     1      33.648  42.626 148.517  1.00  0.00     0.293 HD
ENDBRANCH  24  27
ENDBRANCH  18  19
ENDBRANCH  15  17
ENDBRANCH   1  15
TORSDOF 10
ENDMDL
MODEL 9
REMARK VINA RESULT:    -5.915      5.944      8.191
REMARK INTER + INTRA:         -10.118
REMARK INTER:                  -9.579
REMARK INTRA:                  -0.539
REMARK UNBOUND:                -1.090
REMARK SMILES COc1cc(C=CCOC(=O)C=Cc2ccc(O)c(OC)c2)ccc1O
REMARK SMILES IDX 9 1 8 2 7 3 6 4 5 5 3 6 25 7 4 8 24 9 23 10 2 11 1 12 26 13
REMARK SMILES IDX 10 15 11 16 12 17 13 18 14 19 22 20 15 21 19 22 16 23 17 24
REMARK SMILES IDX 20 25 21 26 18 27
REMARK H PARENT 26 14 18 28
REMARK Flexibility Score: inf
ROOT
ATOM      1  O   UNL     1      31.383  48.705 141.151  1.00  0.00    -0.458 OA
ENDROOT
BRANCH   1   2
ATOM      2  C   UNL     1      30.274  49.489 140.714  1.00  0.00     0.261 C 
BRANCH   2   3
ATOM      3  C   UNL     1      29.229  48.623 140.076  1.00  0.00     0.015 C 
ATOM      4  C   UNL     1      29.262  47.292 140.210  1.00  0.00     0.007 C 
BRANCH   4   5
ATOM      5  C   UNL     1      28.278  46.373 139.585  1.00  0.00    -0.022 A 
ATOM      6  C   UNL     1      27.252  44.166 139.300  1.00  0.00     0.161 A 
ATOM      7  C   UNL     1      26.391  44.704 138.325  1.00  0.00     0.157 A 
ATOM      8  C   UNL     1      28.197  45.007 139.923  1.00  0.00     0.058 A 
ATOM      9  C   UNL     1      26.484  46.054 137.979  1.00  0.00     0.051 A 
ATOM     10  C   UNL     1      27.421  46.880 138.599  1.00  0.00     0.012 A 
BRANCH   6  11
ATOM     11  O   UNL     1      27.142  42.804 139.619  1.00  0.00    -0.493 OA
ATOM     12  C   UNL     1      27.535  41.737 138.761  1.00  0.00     0.278 C 
ENDBRANCH   6  11
BRANCH   7  13
ATOM     13  O   UNL     1      25.439  43.909 137.686  1.00  0.00    -0.504 OA
ATOM     14  H   UNL     1      24.984  44.196 136.827  1.00  0.00     0.293 HD
ENDBRANCH   7  13
ENDBRANCH   4   5
ENDBRANCH   2   3
ENDBRANCH   1   2
BRANCH   1  15
ATOM     15  C   UNL     1      32.574  48.588 140.426  1.00  0.00     0.331 C 
ATOM     16  O   UNL     1      32.677  49.105 139.278  1.00  0.00    -0.247 OA
BRANCH  15  17
ATOM     17  C   UNL     1      33.701  47.856 141.025  1.00  0.00     0.094 C 
ATOM     18  C   UNL     1      33.683  46.527 141.196  1.00  0.00     0.016 C 
BRANCH  18  19
ATOM     19  C   UNL     1      34.795  45.761 141.812  1.00  0.00    -0.021 A 
ATOM     20  C   UNL     1      35.989  45.471 141.120  1.00  0.00     0.058 A 
ATOM     21  C   UNL     1      34.633  45.278 143.119  1.00  0.00     0.012 A 
ATOM     22  C   UNL     1      37.016  44.731 141.739  1.00  0.00     0.161 A 
ATOM     23  C   UNL     1      35.649  44.545 143.736  1.00  0.00     0.051 A 
ATOM     24  C   UNL     1      36.840  44.274 143.052  1.00  0.00     0.157 A 
BRANCH  22  25
ATOM     25  O   UNL     1      38.221  44.428 141.084  1.00  0.00    -0.493 OA
ATOM     26  C   UNL     1      38.348  43.485 140.024  1.00  0.00     0.278 C 
ENDBRANCH  22  25
BRANCH  24  27
ATOM     27  O   UNL     1      37.854  43.545 143.671  1.00  0.00    -0.504 OA
ATOM     28  H   UNL     1      38.269  42.733 143.229  1.00  0.00     0.293 HD
ENDBRANCH  24  27
ENDBRANCH  18  19
ENDBRANCH  15  17
ENDBRANCH   1  15
TORSDOF 10
ENDMDL
