MODEL 1
REMARK VINA RESULT:    -4.329      0.000      0.000
REMARK INTER + INTRA:          -7.582
REMARK INTER:                  -6.353
REMARK INTRA:                  -1.229
REMARK UNBOUND:                -1.229
REMARK SMILES CCCOC(=O)c1ccccc1C(=O)OCCC
REMARK SMILES IDX 7 1 8 2 9 3 10 4 11 5 12 6 5 7 6 8 4 9 3 10 2 11 1 12 13 13
REMARK SMILES IDX 14 14 15 15 16 16 17 17 18 18
REMARK H PARENT
REMARK Flexibility Score: inf
ROOT
ATOM      1  C   UNL     1      11.881   5.567   3.280  1.00  0.00     0.074 A 
ATOM      2  C   UNL     1      10.733   4.753   3.293  1.00  0.00     0.016 A 
ATOM      3  C   UNL     1       9.682   4.990   2.406  1.00  0.00     0.001 A 
ATOM      4  C   UNL     1       9.759   6.041   1.495  1.00  0.00     0.001 A 
ATOM      5  C   UNL     1      10.897   6.847   1.451  1.00  0.00     0.016 A 
ATOM      6  C   UNL     1      11.978   6.611   2.319  1.00  0.00     0.074 A 
ENDROOT
BRANCH   1   7
ATOM      7  C   UNL     1      12.907   5.333   4.322  1.00  0.00     0.339 C 
ATOM      8  O   UNL     1      13.683   4.341   4.242  1.00  0.00    -0.246 OA
BRANCH   7   9
ATOM      9  O   UNL     1      13.048   6.251   5.368  1.00  0.00    -0.462 OA
BRANCH   9  10
ATOM     10  C   UNL     1      11.935   6.795   6.070  1.00  0.00     0.233 C 
BRANCH  10  11
ATOM     11  C   UNL     1      11.895   8.307   5.865  1.00  0.00     0.038 C 
ATOM     12  C   UNL     1      10.712   8.718   4.994  1.00  0.00     0.007 C 
ENDBRANCH  10  11
ENDBRANCH   9  10
ENDBRANCH   7   9
ENDBRANCH   1   7
BRANCH   6  13
ATOM     13  C   UNL     1      13.197   7.431   2.144  1.00  0.00     0.339 C 
ATOM     14  O   UNL     1      14.203   6.956   1.550  1.00  0.00    -0.246 OA
BRANCH  13  15
ATOM     15  O   UNL     1      13.204   8.758   2.593  1.00  0.00    -0.462 OA
BRANCH  15  16
ATOM     16  C   UNL     1      14.398   9.503   2.825  1.00  0.00     0.233 C 
BRANCH  16  17
ATOM     17  C   UNL     1      14.197  10.544   3.932  1.00  0.00     0.038 C 
ATOM     18  C   UNL     1      14.548  11.952   3.458  1.00  0.00     0.007 C 
ENDBRANCH  16  17
ENDBRANCH  15  16
ENDBRANCH  13  15
ENDBRANCH   6  13
TORSDOF 8
ENDMDL
MODEL 2
REMARK VINA RESULT:    -4.288     11.383     13.048
REMARK INTER + INTRA:          -7.522
REMARK INTER:                  -6.304
REMARK INTRA:                  -1.218
REMARK UNBOUND:                -1.229
REMARK SMILES CCCOC(=O)c1ccccc1C(=O)OCCC
REMARK SMILES IDX 7 1 8 2 9 3 10 4 11 5 12 6 5 7 6 8 4 9 3 10 2 11 1 12 13 13
REMARK SMILES IDX 14 14 15 15 16 16 17 17 18 18
REMARK H PARENT
REMARK Flexibility Score: inf
ROOT
ATOM      1  C   UNL     1       0.267  10.435   2.179  1.00  0.00     0.074 A 
ATOM      2  C   UNL     1       0.309  10.297   3.578  1.00  0.00     0.016 A 
ATOM      3  C   UNL     1       1.038   9.263   4.170  1.00  0.00     0.001 A 
ATOM      4  C   UNL     1       1.733   8.354   3.377  1.00  0.00     0.001 A 
ATOM      5  C   UNL     1       1.723   8.486   1.988  1.00  0.00     0.016 A 
ATOM      6  C   UNL     1       1.015   9.534   1.372  1.00  0.00     0.074 A 
ENDROOT
BRANCH   1   7
ATOM      7  C   UNL     1      -0.616  11.480   1.613  1.00  0.00     0.339 C 
ATOM      8  O   UNL     1      -0.209  12.671   1.507  1.00  0.00    -0.246 OA
BRANCH   7   9
ATOM      9  O   UNL     1      -1.885  11.129   1.142  1.00  0.00    -0.462 OA
BRANCH   9  10
ATOM     10  C   UNL     1      -3.087  11.610   1.736  1.00  0.00     0.233 C 
BRANCH  10  11
ATOM     11  C   UNL     1      -3.431  10.751   2.950  1.00  0.00     0.038 C 
ATOM     12  C   UNL     1      -3.282   9.265   2.639  1.00  0.00     0.007 C 
ENDBRANCH  10  11
ENDBRANCH   9  10
ENDBRANCH   7   9
ENDBRANCH   1   7
BRANCH   6  13
ATOM     13  C   UNL     1       1.137   9.680  -0.096  1.00  0.00     0.339 C 
ATOM     14  O   UNL     1       0.699   8.780  -0.863  1.00  0.00    -0.246 OA
BRANCH  13  15
ATOM     15  O   UNL     1       1.689  10.852  -0.627  1.00  0.00    -0.462 OA
BRANCH  15  16
ATOM     16  C   UNL     1       3.082  11.018  -0.885  1.00  0.00     0.233 C 
BRANCH  16  17
ATOM     17  C   UNL     1       3.809  11.598   0.333  1.00  0.00     0.038 C 
ATOM     18  C   UNL     1       3.154  12.888   0.824  1.00  0.00     0.007 C 
ENDBRANCH  16  17
ENDBRANCH  15  16
ENDBRANCH  13  15
ENDBRANCH   6  13
TORSDOF 8
ENDMDL
MODEL 3
REMARK VINA RESULT:    -4.284     11.535     13.137
REMARK INTER + INTRA:          -7.516
REMARK INTER:                  -5.947
REMARK INTRA:                  -1.570
REMARK UNBOUND:                -1.229
REMARK SMILES CCCOC(=O)c1ccccc1C(=O)OCCC
REMARK SMILES IDX 7 1 8 2 9 3 10 4 11 5 12 6 5 7 6 8 4 9 3 10 2 11 1 12 13 13
REMARK SMILES IDX 14 14 15 15 16 16 17 17 18 18
REMARK H PARENT
REMARK Flexibility Score: inf
ROOT
ATOM      1  C   UNL     1      -0.461  10.204   3.134  1.00  0.00     0.074 A 
ATOM      2  C   UNL     1      -1.774   9.792   3.427  1.00  0.00     0.016 A 
ATOM      3  C   UNL     1      -2.867  10.398   2.804  1.00  0.00     0.001 A 
ATOM      4  C   UNL     1      -2.667  11.422   1.883  1.00  0.00     0.001 A 
ATOM      5  C   UNL     1      -1.373  11.832   1.561  1.00  0.00     0.016 A 
ATOM      6  C   UNL     1      -0.257  11.219   2.158  1.00  0.00     0.074 A 
ENDROOT
BRANCH   1   7
ATOM      7  C   UNL     1       0.643   9.601   3.913  1.00  0.00     0.339 C 
ATOM      8  O   UNL     1       1.034  10.136   4.987  1.00  0.00    -0.246 OA
BRANCH   7   9
ATOM      9  O   UNL     1       1.215   8.400   3.480  1.00  0.00    -0.462 OA
BRANCH   9  10
ATOM     10  C   UNL     1       1.047   7.171   4.179  1.00  0.00     0.233 C 
BRANCH  10  11
ATOM     11  C   UNL     1      -0.164   6.430   3.618  1.00  0.00     0.038 C 
ATOM     12  C   UNL     1      -1.277   6.323   4.655  1.00  0.00     0.007 C 
ENDBRANCH  10  11
ENDBRANCH   9  10
ENDBRANCH   7   9
ENDBRANCH   1   7
BRANCH   6  13
ATOM     13  C   UNL     1       1.087  11.624   1.690  1.00  0.00     0.339 C 
ATOM     14  O   UNL     1       1.539  12.768   1.969  1.00  0.00    -0.246 OA
BRANCH  13  15
ATOM     15  O   UNL     1       1.876  10.706   0.986  1.00  0.00    -0.462 OA
BRANCH  15  16
ATOM     16  C   UNL     1       1.437  10.034  -0.193  1.00  0.00     0.233 C 
BRANCH  16  17
ATOM     17  C   UNL     1       1.322   8.523   0.038  1.00  0.00     0.038 C 
ATOM     18  C   UNL     1      -0.133   8.077   0.163  1.00  0.00     0.007 C 
ENDBRANCH  16  17
ENDBRANCH  15  16
ENDBRANCH  13  15
ENDBRANCH   6  13
TORSDOF 8
ENDMDL
MODEL 4
REMARK VINA RESULT:    -4.278      0.448      3.493
REMARK INTER + INTRA:          -7.507
REMARK INTER:                  -6.108
REMARK INTRA:                  -1.399
REMARK UNBOUND:                -1.229
REMARK SMILES CCCOC(=O)c1ccccc1C(=O)OCCC
REMARK SMILES IDX 7 1 8 2 9 3 10 4 11 5 12 6 5 7 6 8 4 9 3 10 2 11 1 12 13 13
REMARK SMILES IDX 14 14 15 15 16 16 17 17 18 18
REMARK H PARENT
REMARK Flexibility Score: inf
ROOT
ATOM      1  C   UNL     1      12.137   6.762   2.310  1.00  0.00     0.074 A 
ATOM      2  C   UNL     1      11.021   6.928   1.470  1.00  0.00     0.016 A 
ATOM      3  C   UNL     1       9.936   6.052   1.545  1.00  0.00     0.001 A 
ATOM      4  C   UNL     1       9.949   4.999   2.456  1.00  0.00     0.001 A 
ATOM      5  C   UNL     1      11.036   4.829   3.314  1.00  0.00     0.016 A 
ATOM      6  C   UNL     1      12.128   5.714   3.273  1.00  0.00     0.074 A 
ENDROOT
BRANCH   1   7
ATOM      7  C   UNL     1      13.300   7.653   2.101  1.00  0.00     0.339 C 
ATOM      8  O   UNL     1      14.230   7.316   1.316  1.00  0.00    -0.246 OA
BRANCH   7   9
ATOM      9  O   UNL     1      13.335   8.899   2.735  1.00  0.00    -0.462 OA
BRANCH   9  10
ATOM     10  C   UNL     1      14.469   9.361   3.462  1.00  0.00     0.233 C 
BRANCH  10  11
ATOM     11  C   UNL     1      14.466  10.887   3.491  1.00  0.00     0.038 C 
ATOM     12  C   UNL     1      13.910  11.415   4.810  1.00  0.00     0.007 C 
ENDBRANCH  10  11
ENDBRANCH   9  10
ENDBRANCH   7   9
ENDBRANCH   1   7
BRANCH   6  13
ATOM     13  C   UNL     1      13.196   5.543   4.283  1.00  0.00     0.339 C 
ATOM     14  O   UNL     1      14.090   4.668   4.121  1.00  0.00    -0.246 OA
BRANCH  13  15
ATOM     15  O   UNL     1      13.237   6.397   5.391  1.00  0.00    -0.462 OA
BRANCH  15  16
ATOM     16  C   UNL     1      12.071   6.865   6.068  1.00  0.00     0.233 C 
BRANCH  16  17
ATOM     17  C   UNL     1      11.924   8.385   5.936  1.00  0.00     0.038 C 
ATOM     18  C   UNL     1      10.743   8.766   5.047  1.00  0.00     0.007 C 
ENDBRANCH  16  17
ENDBRANCH  15  16
ENDBRANCH  13  15
ENDBRANCH   6  13
TORSDOF 8
ENDMDL
MODEL 5
REMARK VINA RESULT:    -4.268     11.524     13.550
REMARK INTER + INTRA:          -7.493
REMARK INTER:                  -5.933
REMARK INTRA:                  -1.560
REMARK UNBOUND:                -1.229
REMARK SMILES CCCOC(=O)c1ccccc1C(=O)OCCC
REMARK SMILES IDX 7 1 8 2 9 3 10 4 11 5 12 6 5 7 6 8 4 9 3 10 2 11 1 12 13 13
REMARK SMILES IDX 14 14 15 15 16 16 17 17 18 18
REMARK H PARENT
REMARK Flexibility Score: inf
ROOT
ATOM      1  C   UNL     1      -0.239  11.187   2.176  1.00  0.00     0.074 A 
ATOM      2  C   UNL     1      -1.364  11.776   1.570  1.00  0.00     0.016 A 
ATOM      3  C   UNL     1      -2.654  11.352   1.897  1.00  0.00     0.001 A 
ATOM      4  C   UNL     1      -2.840  10.336   2.830  1.00  0.00     0.001 A 
ATOM      5  C   UNL     1      -1.740   9.753   3.460  1.00  0.00     0.016 A 
ATOM      6  C   UNL     1      -0.433  10.181   3.164  1.00  0.00     0.074 A 
ENDROOT
BRANCH   1   7
ATOM      7  C   UNL     1       1.100  11.601   1.701  1.00  0.00     0.339 C 
ATOM      8  O   UNL     1       1.546  12.750   1.973  1.00  0.00    -0.246 OA
BRANCH   7   9
ATOM      9  O   UNL     1       1.893  10.690   0.996  1.00  0.00    -0.462 OA
BRANCH   9  10
ATOM     10  C   UNL     1       1.446  10.032  -0.185  1.00  0.00     0.233 C 
BRANCH  10  11
ATOM     11  C   UNL     1       1.396   8.527   0.061  1.00  0.00     0.038 C 
ATOM     12  C   UNL     1      -0.040   8.036   0.209  1.00  0.00     0.007 C 
ENDBRANCH  10  11
ENDBRANCH   9  10
ENDBRANCH   7   9
ENDBRANCH   1   7
BRANCH   6  13
ATOM     13  C   UNL     1       0.679   9.599   3.947  1.00  0.00     0.339 C 
ATOM     14  O   UNL     1       1.085  10.170   4.996  1.00  0.00    -0.246 OA
BRANCH  13  15
ATOM     15  O   UNL     1       1.239   8.380   3.546  1.00  0.00    -0.462 OA
BRANCH  15  16
ATOM     16  C   UNL     1       1.006   7.146   4.225  1.00  0.00     0.233 C 
BRANCH  16  17
ATOM     17  C   UNL     1      -0.214   6.417   3.652  1.00  0.00     0.038 C 
ATOM     18  C   UNL     1      -1.320   6.258   4.692  1.00  0.00     0.007 C 
ENDBRANCH  16  17
ENDBRANCH  15  16
ENDBRANCH  13  15
ENDBRANCH   6  13
TORSDOF 8
ENDMDL
MODEL 6
REMARK VINA RESULT:    -4.244     10.860     12.845
REMARK INTER + INTRA:          -7.457
REMARK INTER:                  -6.207
REMARK INTRA:                  -1.250
REMARK UNBOUND:                -1.229
REMARK SMILES CCCOC(=O)c1ccccc1C(=O)OCCC
REMARK SMILES IDX 7 1 8 2 9 3 10 4 11 5 12 6 5 7 6 8 4 9 3 10 2 11 1 12 13 13
REMARK SMILES IDX 14 14 15 15 16 16 17 17 18 18
REMARK H PARENT
REMARK Flexibility Score: inf
ROOT
ATOM      1  C   UNL     1       1.882  10.818   0.308  1.00  0.00     0.074 A 
ATOM      2  C   UNL     1       3.117  11.491   0.259  1.00  0.00     0.016 A 
ATOM      3  C   UNL     1       3.291  12.710   0.917  1.00  0.00     0.001 A 
ATOM      4  C   UNL     1       2.238  13.276   1.630  1.00  0.00     0.001 A 
ATOM      5  C   UNL     1       1.011  12.616   1.710  1.00  0.00     0.016 A 
ATOM      6  C   UNL     1       0.821  11.375   1.076  1.00  0.00     0.074 A 
ENDROOT
BRANCH   1   7
ATOM      7  C   UNL     1       1.730   9.590  -0.504  1.00  0.00     0.339 C 
ATOM      8  O   UNL     1       1.780   8.453   0.042  1.00  0.00    -0.246 OA
BRANCH   7   9
ATOM      9  O   UNL     1       1.474   9.698  -1.875  1.00  0.00    -0.462 OA
BRANCH   9  10
ATOM     10  C   UNL     1       2.420   9.313  -2.868  1.00  0.00     0.233 C 
BRANCH  10  11
ATOM     11  C   UNL     1       3.161  10.550  -3.368  1.00  0.00     0.038 C 
ATOM     12  C   UNL     1       4.633  10.514  -2.967  1.00  0.00     0.007 C 
ENDBRANCH  10  11
ENDBRANCH   9  10
ENDBRANCH   7   9
ENDBRANCH   1   7
BRANCH   6  13
ATOM     13  C   UNL     1      -0.465  10.677   1.292  1.00  0.00     0.339 C 
ATOM     14  O   UNL     1      -1.482  10.993   0.616  1.00  0.00    -0.246 OA
BRANCH  13  15
ATOM     15  O   UNL     1      -0.531   9.624   2.213  1.00  0.00    -0.462 OA
BRANCH  15  16
ATOM     16  C   UNL     1      -0.657   9.817   3.621  1.00  0.00     0.233 C 
BRANCH  16  17
ATOM     17  C   UNL     1       0.683   9.607   4.334  1.00  0.00     0.038 C 
ATOM     18  C   UNL     1       1.562   8.595   3.602  1.00  0.00     0.007 C 
ENDBRANCH  16  17
ENDBRANCH  15  16
ENDBRANCH  13  15
ENDBRANCH   6  13
TORSDOF 8
ENDMDL
MODEL 7
REMARK VINA RESULT:    -4.199     10.836     12.399
REMARK INTER + INTRA:          -7.392
REMARK INTER:                  -6.240
REMARK INTRA:                  -1.152
REMARK UNBOUND:                -1.229
REMARK SMILES CCCOC(=O)c1ccccc1C(=O)OCCC
REMARK SMILES IDX 7 1 8 2 9 3 10 4 11 5 12 6 5 7 6 8 4 9 3 10 2 11 1 12 13 13
REMARK SMILES IDX 14 14 15 15 16 16 17 17 18 18
REMARK H PARENT
REMARK Flexibility Score: inf
ROOT
ATOM      1  C   UNL     1       0.819  11.337   1.084  1.00  0.00     0.074 A 
ATOM      2  C   UNL     1       0.982  12.602   1.678  1.00  0.00     0.016 A 
ATOM      3  C   UNL     1       2.199  13.280   1.593  1.00  0.00     0.001 A 
ATOM      4  C   UNL     1       3.272  12.706   0.914  1.00  0.00     0.001 A 
ATOM      5  C   UNL     1       3.126  11.463   0.299  1.00  0.00     0.016 A 
ATOM      6  C   UNL     1       1.901  10.774   0.352  1.00  0.00     0.074 A 
ENDROOT
BRANCH   1   7
ATOM      7  C   UNL     1      -0.458  10.624   1.310  1.00  0.00     0.339 C 
ATOM      8  O   UNL     1      -1.485  10.926   0.641  1.00  0.00    -0.246 OA
BRANCH   7   9
ATOM      9  O   UNL     1      -0.506   9.574   2.233  1.00  0.00    -0.462 OA
BRANCH   9  10
ATOM     10  C   UNL     1      -0.645   9.786   3.634  1.00  0.00     0.233 C 
BRANCH  10  11
ATOM     11  C   UNL     1       0.714   9.620   4.309  1.00  0.00     0.038 C 
ATOM     12  C   UNL     1       1.538   8.527   3.635  1.00  0.00     0.007 C 
ENDBRANCH  10  11
ENDBRANCH   9  10
ENDBRANCH   7   9
ENDBRANCH   1   7
BRANCH   6  13
ATOM     13  C   UNL     1       1.783   9.514  -0.415  1.00  0.00     0.339 C 
ATOM     14  O   UNL     1       1.806   8.403   0.181  1.00  0.00    -0.246 OA
BRANCH  13  15
ATOM     15  O   UNL     1       1.586   9.567  -1.800  1.00  0.00    -0.462 OA
BRANCH  15  16
ATOM     16  C   UNL     1       2.618   9.306  -2.751  1.00  0.00     0.233 C 
BRANCH  16  17
ATOM     17  C   UNL     1       3.278  10.605  -3.227  1.00  0.00     0.038 C 
ATOM     18  C   UNL     1       4.799  10.545  -3.107  1.00  0.00     0.007 C 
ENDBRANCH  16  17
ENDBRANCH  15  16
ENDBRANCH  13  15
ENDBRANCH   6  13
TORSDOF 8
ENDMDL
MODEL 8
REMARK VINA RESULT:    -4.182     11.329     12.978
REMARK INTER + INTRA:          -7.367
REMARK INTER:                  -6.064
REMARK INTRA:                  -1.303
REMARK UNBOUND:                -1.229
REMARK SMILES CCCOC(=O)c1ccccc1C(=O)OCCC
REMARK SMILES IDX 7 1 8 2 9 3 10 4 11 5 12 6 5 7 6 8 4 9 3 10 2 11 1 12 13 13
REMARK SMILES IDX 14 14 15 15 16 16 17 17 18 18
REMARK H PARENT
REMARK Flexibility Score: inf
ROOT
ATOM      1  C   UNL     1      -0.597  10.312   2.861  1.00  0.00     0.074 A 
ATOM      2  C   UNL     1      -1.799   9.613   3.070  1.00  0.00     0.016 A 
ATOM      3  C   UNL     1      -3.017  10.147   2.645  1.00  0.00     0.001 A 
ATOM      4  C   UNL     1      -3.054  11.384   2.007  1.00  0.00     0.001 A 
ATOM      5  C   UNL     1      -1.871  12.084   1.769  1.00  0.00     0.016 A 
ATOM      6  C   UNL     1      -0.630  11.554   2.167  1.00  0.00     0.074 A 
ENDROOT
BRANCH   1   7
ATOM      7  C   UNL     1       0.643   9.745   3.437  1.00  0.00     0.339 C 
ATOM      8  O   UNL     1       0.854   9.803   4.680  1.00  0.00    -0.246 OA
BRANCH   7   9
ATOM      9  O   UNL     1       1.556   9.093   2.602  1.00  0.00    -0.462 OA
BRANCH   9  10
ATOM     10  C   UNL     1       1.161   8.119   1.641  1.00  0.00     0.233 C 
BRANCH  10  11
ATOM     11  C   UNL     1       1.447   8.645   0.237  1.00  0.00     0.038 C 
ATOM     12  C   UNL     1       0.155   8.951  -0.514  1.00  0.00     0.007 C 
ENDBRANCH  10  11
ENDBRANCH   9  10
ENDBRANCH   7   9
ENDBRANCH   1   7
BRANCH   6  13
ATOM     13  C   UNL     1       0.593  12.295   1.786  1.00  0.00     0.339 C 
ATOM     14  O   UNL     1       1.214  12.980   2.644  1.00  0.00    -0.246 OA
BRANCH  13  15
ATOM     15  O   UNL     1       1.086  12.183   0.481  1.00  0.00    -0.462 OA
BRANCH  15  16
ATOM     16  C   UNL     1       2.308  12.780   0.048  1.00  0.00     0.233 C 
BRANCH  16  17
ATOM     17  C   UNL     1       3.475  11.791   0.146  1.00  0.00     0.038 C 
ATOM     18  C   UNL     1       3.833  11.199  -1.215  1.00  0.00     0.007 C 
ENDBRANCH  16  17
ENDBRANCH  15  16
ENDBRANCH  13  15
ENDBRANCH   6  13
TORSDOF 8
ENDMDL
MODEL 9
REMARK VINA RESULT:    -4.153      1.450      2.300
REMARK INTER + INTRA:          -7.325
REMARK INTER:                  -5.671
REMARK INTRA:                  -1.654
REMARK UNBOUND:                -1.229
REMARK SMILES CCCOC(=O)c1ccccc1C(=O)OCCC
REMARK SMILES IDX 7 1 8 2 9 3 10 4 11 5 12 6 5 7 6 8 4 9 3 10 2 11 1 12 13 13
REMARK SMILES IDX 14 14 15 15 16 16 17 17 18 18
REMARK H PARENT
REMARK Flexibility Score: inf
ROOT
ATOM      1  C   UNL     1      12.632   5.728   2.166  1.00  0.00     0.074 A 
ATOM      2  C   UNL     1      11.437   5.006   1.989  1.00  0.00     0.016 A 
ATOM      3  C   UNL     1      10.204   5.661   1.974  1.00  0.00     0.001 A 
ATOM      4  C   UNL     1      10.144   7.043   2.133  1.00  0.00     0.001 A 
ATOM      5  C   UNL     1      11.318   7.781   2.288  1.00  0.00     0.016 A 
ATOM      6  C   UNL     1      12.572   7.145   2.282  1.00  0.00     0.074 A 
ENDROOT
BRANCH   1   7
ATOM      7  C   UNL     1      13.892   4.962   2.288  1.00  0.00     0.339 C 
ATOM      8  O   UNL     1      14.368   4.352   1.291  1.00  0.00    -0.246 OA
BRANCH   7   9
ATOM      9  O   UNL     1      14.585   4.965   3.503  1.00  0.00    -0.462 OA
BRANCH   9  10
ATOM     10  C   UNL     1      14.027   4.452   4.709  1.00  0.00     0.233 C 
BRANCH  10  11
ATOM     11  C   UNL     1      13.656   5.611   5.630  1.00  0.00     0.038 C 
ATOM     12  C   UNL     1      12.143   5.765   5.745  1.00  0.00     0.007 C 
ENDBRANCH  10  11
ENDBRANCH   9  10
ENDBRANCH   7   9
ENDBRANCH   1   7
BRANCH   6  13
ATOM     13  C   UNL     1      13.780   7.998   2.339  1.00  0.00     0.339 C 
ATOM     14  O   UNL     1      14.347   8.369   1.275  1.00  0.00    -0.246 OA
BRANCH  13  15
ATOM     15  O   UNL     1      14.255   8.436   3.581  1.00  0.00    -0.462 OA
BRANCH  15  16
ATOM     16  C   UNL     1      13.825   9.645   4.205  1.00  0.00     0.233 C 
BRANCH  16  17
ATOM     17  C   UNL     1      13.215   9.372   5.584  1.00  0.00     0.038 C 
ATOM     18  C   UNL     1      11.695   9.513   5.570  1.00  0.00     0.007 C 
ENDBRANCH  16  17
ENDBRANCH  15  16
ENDBRANCH  13  15
ENDBRANCH   6  13
TORSDOF 8
ENDMDL
