MODEL 1
REMARK VINA RESULT:    -4.128      0.000      0.000
REMARK INTER + INTRA:          -4.886
REMARK INTER:                  -4.852
REMARK INTRA:                  -0.033
REMARK UNBOUND:                -0.033
REMARK SMILES O=C([O-])CCC(=O)[O-]
REMARK SMILES IDX 4 1 2 2 1 3 3 4 5 5 6 6 7 7 8 8
REMARK H PARENT
REMARK Flexibility Score: inf
ROOT
ATOM      1  C   UNL     1     -14.233   4.317  13.504  1.00  0.00     0.059 C 
ENDROOT
BRANCH   1   2
ATOM      2  C   UNL     1     -13.579   5.030  14.645  1.00  0.00     0.042 C 
ATOM      3  O   UNL     1     -12.333   5.216  14.644  1.00  0.00    -0.550 OA
ATOM      4  O   UNL     1     -14.335   5.446  15.732  1.00  0.00    -0.550 OA
ENDBRANCH   1   2
BRANCH   1   5
ATOM      5  C   UNL     1     -13.819   4.944  12.172  1.00  0.00     0.059 C 
BRANCH   5   6
ATOM      6  C   UNL     1     -14.094   4.004  11.042  1.00  0.00     0.042 C 
ATOM      7  O   UNL     1     -15.231   3.980  10.500  1.00  0.00    -0.550 OA
ATOM      8  O   UNL     1     -13.082   3.189  10.552  1.00  0.00    -0.550 OA
ENDBRANCH   5   6
ENDBRANCH   1   5
TORSDOF 3
ENDMDL
MODEL 2
REMARK VINA RESULT:    -4.090      1.194      1.993
REMARK INTER + INTRA:          -4.840
REMARK INTER:                  -4.769
REMARK INTRA:                  -0.071
REMARK UNBOUND:                -0.033
REMARK SMILES O=C([O-])CCC(=O)[O-]
REMARK SMILES IDX 4 1 2 2 1 3 3 4 5 5 6 6 7 7 8 8
REMARK H PARENT
REMARK Flexibility Score: inf
ROOT
ATOM      1  C   UNL     1     -13.957   3.831  14.196  1.00  0.00     0.059 C 
ENDROOT
BRANCH   1   2
ATOM      2  C   UNL     1     -13.484   4.656  15.351  1.00  0.00     0.042 C 
ATOM      3  O   UNL     1     -14.294   5.383  15.983  1.00  0.00    -0.550 OA
ATOM      4  O   UNL     1     -12.139   4.660  15.700  1.00  0.00    -0.550 OA
ENDBRANCH   1   2
BRANCH   1   5
ATOM      5  C   UNL     1     -14.280   4.724  12.998  1.00  0.00     0.059 C 
BRANCH   5   6
ATOM      6  C   UNL     1     -13.191   4.644  11.976  1.00  0.00     0.042 C 
ATOM      7  O   UNL     1     -11.984   4.716  12.329  1.00  0.00    -0.550 OA
ATOM      8  O   UNL     1     -13.505   4.441  10.638  1.00  0.00    -0.550 OA
ENDBRANCH   5   6
ENDBRANCH   1   5
TORSDOF 3
ENDMDL
MODEL 3
REMARK VINA RESULT:    -4.088      1.102      1.378
REMARK INTER + INTRA:          -4.838
REMARK INTER:                  -4.872
REMARK INTRA:                   0.034
REMARK UNBOUND:                -0.033
REMARK SMILES O=C([O-])CCC(=O)[O-]
REMARK SMILES IDX 4 1 2 2 1 3 3 4 5 5 6 6 7 7 8 8
REMARK H PARENT
REMARK Flexibility Score: inf
ROOT
ATOM      1  C   UNL     1     -14.223   4.364  13.182  1.00  0.00     0.059 C 
ENDROOT
BRANCH   1   2
ATOM      2  C   UNL     1     -12.833   4.828  13.483  1.00  0.00     0.042 C 
ATOM      3  O   UNL     1     -11.960   4.841  12.576  1.00  0.00    -0.550 OA
ATOM      4  O   UNL     1     -12.488   5.199  14.776  1.00  0.00    -0.550 OA
ENDBRANCH   1   2
BRANCH   1   5
ATOM      5  C   UNL     1     -14.190   3.113  12.302  1.00  0.00     0.059 C 
BRANCH   5   6
ATOM      6  C   UNL     1     -14.278   3.486  10.857  1.00  0.00     0.042 C 
ATOM      7  O   UNL     1     -15.297   4.080  10.416  1.00  0.00    -0.550 OA
ATOM      8  O   UNL     1     -13.212   3.225  10.004  1.00  0.00    -0.550 OA
ENDBRANCH   5   6
ENDBRANCH   1   5
TORSDOF 3
ENDMDL
MODEL 4
REMARK VINA RESULT:    -4.085      1.225      4.175
REMARK INTER + INTRA:          -4.835
REMARK INTER:                  -4.777
REMARK INTRA:                  -0.057
REMARK UNBOUND:                -0.033
REMARK SMILES O=C([O-])CCC(=O)[O-]
REMARK SMILES IDX 4 1 2 2 1 3 3 4 5 5 6 6 7 7 8 8
REMARK H PARENT
REMARK Flexibility Score: inf
ROOT
ATOM      1  C   UNL     1     -14.251   4.480  13.066  1.00  0.00     0.059 C 
ENDROOT
BRANCH   1   2
ATOM      2  C   UNL     1     -13.200   4.557  12.003  1.00  0.00     0.042 C 
ATOM      3  O   UNL     1     -11.998   4.765  12.316  1.00  0.00    -0.550 OA
ATOM      4  O   UNL     1     -13.554   4.448  10.665  1.00  0.00    -0.550 OA
ENDBRANCH   1   2
BRANCH   1   5
ATOM      5  C   UNL     1     -13.748   3.663  14.257  1.00  0.00     0.059 C 
BRANCH   5   6
ATOM      6  C   UNL     1     -13.330   4.566  15.373  1.00  0.00     0.042 C 
ATOM      7  O   UNL     1     -12.122   4.626  15.723  1.00  0.00    -0.550 OA
ATOM      8  O   UNL     1     -14.267   5.382  15.996  1.00  0.00    -0.550 OA
ENDBRANCH   5   6
ENDBRANCH   1   5
TORSDOF 3
ENDMDL
MODEL 5
REMARK VINA RESULT:    -4.074      0.645      4.384
REMARK INTER + INTRA:          -4.822
REMARK INTER:                  -4.786
REMARK INTRA:                  -0.036
REMARK UNBOUND:                -0.033
REMARK SMILES O=C([O-])CCC(=O)[O-]
REMARK SMILES IDX 4 1 2 2 1 3 3 4 5 5 6 6 7 7 8 8
REMARK H PARENT
REMARK Flexibility Score: inf
ROOT
ATOM      1  C   UNL     1     -14.094   4.817  12.333  1.00  0.00     0.059 C 
ENDROOT
BRANCH   1   2
ATOM      2  C   UNL     1     -14.131   4.063  11.041  1.00  0.00     0.042 C 
ATOM      3  O   UNL     1     -15.186   4.035  10.354  1.00  0.00    -0.550 OA
ATOM      4  O   UNL     1     -13.015   3.352  10.617  1.00  0.00    -0.550 OA
ENDBRANCH   1   2
BRANCH   1   5
ATOM      5  C   UNL     1     -12.978   4.282  13.231  1.00  0.00     0.059 C 
BRANCH   5   6
ATOM      6  C   UNL     1     -13.081   4.873  14.601  1.00  0.00     0.042 C 
ATOM      7  O   UNL     1     -12.081   4.879  15.366  1.00  0.00    -0.550 OA
ATOM      8  O   UNL     1     -14.268   5.463  15.018  1.00  0.00    -0.550 OA
ENDBRANCH   5   6
ENDBRANCH   1   5
TORSDOF 3
ENDMDL
MODEL 6
REMARK VINA RESULT:    -4.073      1.158      3.998
REMARK INTER + INTRA:          -4.821
REMARK INTER:                  -4.757
REMARK INTRA:                  -0.065
REMARK UNBOUND:                -0.033
REMARK SMILES O=C([O-])CCC(=O)[O-]
REMARK SMILES IDX 4 1 2 2 1 3 3 4 5 5 6 6 7 7 8 8
REMARK H PARENT
REMARK Flexibility Score: inf
ROOT
ATOM      1  C   UNL     1     -14.297   4.766  12.876  1.00  0.00     0.059 C 
ENDROOT
BRANCH   1   2
ATOM      2  C   UNL     1     -13.192   4.580  11.885  1.00  0.00     0.042 C 
ATOM      3  O   UNL     1     -11.993   4.733  12.237  1.00  0.00    -0.550 OA
ATOM      4  O   UNL     1     -13.487   4.286  10.560  1.00  0.00    -0.550 OA
ENDBRANCH   1   2
BRANCH   1   5
ATOM      5  C   UNL     1     -14.043   3.922  14.125  1.00  0.00     0.059 C 
BRANCH   5   6
ATOM      6  C   UNL     1     -13.538   4.778  15.242  1.00  0.00     0.042 C 
ATOM      7  O   UNL     1     -14.346   5.425  15.960  1.00  0.00    -0.550 OA
ATOM      8  O   UNL     1     -12.179   4.825  15.524  1.00  0.00    -0.550 OA
ENDBRANCH   5   6
ENDBRANCH   1   5
TORSDOF 3
ENDMDL
MODEL 7
REMARK VINA RESULT:    -3.971      1.574      1.892
REMARK INTER + INTRA:          -4.700
REMARK INTER:                  -4.588
REMARK INTRA:                  -0.113
REMARK UNBOUND:                -0.033
REMARK SMILES O=C([O-])CCC(=O)[O-]
REMARK SMILES IDX 4 1 2 2 1 3 3 4 5 5 6 6 7 7 8 8
REMARK H PARENT
REMARK Flexibility Score: inf
ROOT
ATOM      1  C   UNL     1     -14.233   4.166  14.179  1.00  0.00     0.059 C 
ENDROOT
BRANCH   1   2
ATOM      2  C   UNL     1     -13.676   4.710  15.457  1.00  0.00     0.042 C 
ATOM      3  O   UNL     1     -12.497   4.432  15.803  1.00  0.00    -0.550 OA
ATOM      4  O   UNL     1     -14.473   5.484  16.291  1.00  0.00    -0.550 OA
ENDBRANCH   1   2
BRANCH   1   5
ATOM      5  C   UNL     1     -13.301   3.100  13.601  1.00  0.00     0.059 C 
BRANCH   5   6
ATOM      6  C   UNL     1     -12.639   3.602  12.358  1.00  0.00     0.042 C 
ATOM      7  O   UNL     1     -12.683   2.924  11.297  1.00  0.00    -0.550 OA
ATOM      8  O   UNL     1     -12.014   4.843  12.354  1.00  0.00    -0.550 OA
ENDBRANCH   5   6
ENDBRANCH   1   5
TORSDOF 3
ENDMDL
MODEL 8
REMARK VINA RESULT:    -3.750      1.580      4.071
REMARK INTER + INTRA:          -4.441
REMARK INTER:                  -4.322
REMARK INTRA:                  -0.119
REMARK UNBOUND:                -0.033
REMARK SMILES O=C([O-])CCC(=O)[O-]
REMARK SMILES IDX 4 1 2 2 1 3 3 4 5 5 6 6 7 7 8 8
REMARK H PARENT
REMARK Flexibility Score: inf
ROOT
ATOM      1  C   UNL     1     -14.379   3.594  13.097  1.00  0.00     0.059 C 
ENDROOT
BRANCH   1   2
ATOM      2  C   UNL     1     -13.268   2.845  12.431  1.00  0.00     0.042 C 
ATOM      3  O   UNL     1     -12.293   3.467  11.935  1.00  0.00    -0.550 OA
ATOM      4  O   UNL     1     -13.333   1.462  12.315  1.00  0.00    -0.550 OA
ENDBRANCH   1   2
BRANCH   1   5
ATOM      5  C   UNL     1     -13.947   5.028  13.405  1.00  0.00     0.059 C 
BRANCH   5   6
ATOM      6  C   UNL     1     -13.472   5.139  14.819  1.00  0.00     0.042 C 
ATOM      7  O   UNL     1     -12.250   5.007  15.090  1.00  0.00    -0.550 OA
ATOM      8  O   UNL     1     -14.372   5.439  15.834  1.00  0.00    -0.550 OA
ENDBRANCH   5   6
ENDBRANCH   1   5
TORSDOF 3
ENDMDL
MODEL 9
REMARK VINA RESULT:    -3.479      2.335      3.248
REMARK INTER + INTRA:          -4.122
REMARK INTER:                  -3.966
REMARK INTRA:                  -0.156
REMARK UNBOUND:                -0.033
REMARK SMILES O=C([O-])CCC(=O)[O-]
REMARK SMILES IDX 4 1 2 2 1 3 3 4 5 5 6 6 7 7 8 8
REMARK H PARENT
REMARK Flexibility Score: inf
ROOT
ATOM      1  C   UNL     1     -14.242   4.275  13.170  1.00  0.00     0.059 C 
ENDROOT
BRANCH   1   2
ATOM      2  C   UNL     1     -12.857   4.787  13.410  1.00  0.00     0.042 C 
ATOM      3  O   UNL     1     -12.013   4.792  12.476  1.00  0.00    -0.550 OA
ATOM      4  O   UNL     1     -12.482   5.214  14.678  1.00  0.00    -0.550 OA
ENDBRANCH   1   2
BRANCH   1   5
ATOM      5  C   UNL     1     -14.217   2.769  12.906  1.00  0.00     0.059 C 
BRANCH   5   6
ATOM      6  C   UNL     1     -14.097   2.014  14.191  1.00  0.00     0.042 C 
ATOM      7  O   UNL     1     -13.169   1.177  14.351  1.00  0.00    -0.550 OA
ATOM      8  O   UNL     1     -14.979   2.269  15.234  1.00  0.00    -0.550 OA
ENDBRANCH   5   6
ENDBRANCH   1   5
TORSDOF 3
ENDMDL
