MODEL 1
REMARK VINA RESULT:    -4.552      0.000      0.000
REMARK INTER + INTRA:          -7.362
REMARK INTER:                  -6.415
REMARK INTRA:                  -0.947
REMARK UNBOUND:                -0.947
REMARK SMILES CC(=O)OCC[C@@H](C)CCC=C(C)C
REMARK SMILES IDX 8 1 7 2 9 3 10 4 11 5 12 6 13 7 14 8 6 9 5 10 4 11 2 12 3 13
REMARK SMILES IDX 1 14
REMARK H PARENT
REMARK Flexibility Score: inf
ROOT
ATOM      1  C   UNL     1      -8.962   3.407   0.597  1.00  0.00     0.008 C 
ATOM      2  C   UNL     1      -8.823   4.728  -0.178  1.00  0.00    -0.011 C 
ENDROOT
BRANCH   2   3
ATOM      3  C   UNL     1      -9.774   5.820   0.367  1.00  0.00     0.007 C 
BRANCH   3   4
ATOM      4  C   UNL     1     -10.572   6.515  -0.746  1.00  0.00     0.027 C 
BRANCH   4   5
ATOM      5  C   UNL     1     -10.110   6.049  -2.104  1.00  0.00    -0.028 C 
ATOM      6  C   UNL     1      -9.356   6.790  -2.948  1.00  0.00    -0.080 C 
ATOM      7  C   UNL     1      -8.959   8.211  -2.632  1.00  0.00     0.039 C 
ATOM      8  C   UNL     1      -8.928   6.214  -4.273  1.00  0.00     0.039 C 
ENDBRANCH   4   5
ENDBRANCH   3   4
ENDBRANCH   2   3
BRANCH   2   9
ATOM      9  C   UNL     1      -7.353   5.213  -0.217  1.00  0.00     0.045 C 
BRANCH   9  10
ATOM     10  C   UNL     1      -7.044   6.382   0.732  1.00  0.00     0.233 C 
BRANCH  10  11
ATOM     11  O   UNL     1      -6.414   5.903   1.918  1.00  0.00    -0.466 OA
BRANCH  11  12
ATOM     12  C   UNL     1      -6.894   6.167   3.206  1.00  0.00     0.302 C 
ATOM     13  O   UNL     1      -6.416   7.110   3.893  1.00  0.00    -0.253 OA
ATOM     14  C   UNL     1      -8.011   5.347   3.756  1.00  0.00     0.139 C 
ENDBRANCH  11  12
ENDBRANCH  10  11
ENDBRANCH   9  10
ENDBRANCH   2   9
TORSDOF 7
ENDMDL
MODEL 2
REMARK VINA RESULT:    -4.465      1.192      1.813
REMARK INTER + INTRA:          -7.239
REMARK INTER:                  -6.653
REMARK INTRA:                  -0.586
REMARK UNBOUND:                -0.947
REMARK SMILES CC(=O)OCC[C@@H](C)CCC=C(C)C
REMARK SMILES IDX 8 1 7 2 9 3 10 4 11 5 12 6 13 7 14 8 6 9 5 10 4 11 2 12 3 13
REMARK SMILES IDX 1 14
REMARK H PARENT
REMARK Flexibility Score: inf
ROOT
ATOM      1  C   UNL     1      -6.166   5.685  -0.304  1.00  0.00     0.008 C 
ATOM      2  C   UNL     1      -7.589   5.896   0.240  1.00  0.00    -0.011 C 
ENDROOT
BRANCH   2   3
ATOM      3  C   UNL     1      -8.613   4.957  -0.443  1.00  0.00     0.007 C 
BRANCH   3   4
ATOM      4  C   UNL     1      -9.699   5.728  -1.209  1.00  0.00     0.027 C 
BRANCH   4   5
ATOM      5  C   UNL     1      -9.460   5.652  -2.696  1.00  0.00    -0.028 C 
ATOM      6  C   UNL     1      -8.997   6.677  -3.447  1.00  0.00    -0.080 C 
ATOM      7  C   UNL     1      -8.741   8.045  -2.866  1.00  0.00     0.039 C 
ATOM      8  C   UNL     1      -8.769   6.481  -4.924  1.00  0.00     0.039 C 
ENDBRANCH   4   5
ENDBRANCH   3   4
ENDBRANCH   2   3
BRANCH   2   9
ATOM      9  C   UNL     1      -7.633   5.770   1.782  1.00  0.00     0.045 C 
BRANCH   9  10
ATOM     10  C   UNL     1      -6.297   6.066   2.482  1.00  0.00     0.233 C 
BRANCH  10  11
ATOM     11  O   UNL     1      -6.498   6.967   3.569  1.00  0.00    -0.466 OA
BRANCH  11  12
ATOM     12  C   UNL     1      -6.717   6.549   4.886  1.00  0.00     0.302 C 
ATOM     13  O   UNL     1      -5.751   6.364   5.676  1.00  0.00    -0.253 OA
ATOM     14  C   UNL     1      -8.113   6.357   5.373  1.00  0.00     0.139 C 
ENDBRANCH  11  12
ENDBRANCH  10  11
ENDBRANCH   9  10
ENDBRANCH   2   9
TORSDOF 7
ENDMDL
MODEL 3
REMARK VINA RESULT:    -4.463      1.642      2.300
REMARK INTER + INTRA:          -7.236
REMARK INTER:                  -6.614
REMARK INTRA:                  -0.622
REMARK UNBOUND:                -0.947
REMARK SMILES CC(=O)OCC[C@@H](C)CCC=C(C)C
REMARK SMILES IDX 8 1 7 2 9 3 10 4 11 5 12 6 13 7 14 8 6 9 5 10 4 11 2 12 3 13
REMARK SMILES IDX 1 14
REMARK H PARENT
REMARK Flexibility Score: inf
ROOT
ATOM      1  C   UNL     1      -9.078   3.367   0.701  1.00  0.00     0.008 C 
ATOM      2  C   UNL     1      -8.494   4.678   0.146  1.00  0.00    -0.011 C 
ENDROOT
BRANCH   2   3
ATOM      3  C   UNL     1      -9.412   5.307  -0.930  1.00  0.00     0.007 C 
BRANCH   3   4
ATOM      4  C   UNL     1      -8.729   5.401  -2.303  1.00  0.00     0.027 C 
BRANCH   4   5
ATOM      5  C   UNL     1      -8.138   6.773  -2.512  1.00  0.00    -0.028 C 
ATOM      6  C   UNL     1      -6.840   7.085  -2.293  1.00  0.00    -0.080 C 
ATOM      7  C   UNL     1      -5.857   6.085  -1.736  1.00  0.00     0.039 C 
ATOM      8  C   UNL     1      -6.350   8.485  -2.560  1.00  0.00     0.039 C 
ENDBRANCH   4   5
ENDBRANCH   3   4
ENDBRANCH   2   3
BRANCH   2   9
ATOM      9  C   UNL     1      -8.167   5.680   1.280  1.00  0.00     0.045 C 
BRANCH   9  10
ATOM     10  C   UNL     1      -8.239   5.084   2.695  1.00  0.00     0.233 C 
BRANCH  10  11
ATOM     11  O   UNL     1      -8.107   6.114   3.672  1.00  0.00    -0.466 OA
BRANCH  11  12
ATOM     12  C   UNL     1      -6.875   6.540   4.182  1.00  0.00     0.302 C 
ATOM     13  O   UNL     1      -6.151   7.344   3.534  1.00  0.00    -0.253 OA
ATOM     14  C   UNL     1      -6.431   6.066   5.523  1.00  0.00     0.139 C 
ENDBRANCH  11  12
ENDBRANCH  10  11
ENDBRANCH   9  10
ENDBRANCH   2   9
TORSDOF 7
ENDMDL
MODEL 4
REMARK VINA RESULT:    -4.391      1.606      2.345
REMARK INTER + INTRA:          -7.135
REMARK INTER:                  -6.343
REMARK INTRA:                  -0.791
REMARK UNBOUND:                -0.947
REMARK SMILES CC(=O)OCC[C@@H](C)CCC=C(C)C
REMARK SMILES IDX 8 1 7 2 9 3 10 4 11 5 12 6 13 7 14 8 6 9 5 10 4 11 2 12 3 13
REMARK SMILES IDX 1 14
REMARK H PARENT
REMARK Flexibility Score: inf
ROOT
ATOM      1  C   UNL     1      -9.816   6.207   2.693  1.00  0.00     0.008 C 
ATOM      2  C   UNL     1      -8.679   5.291   2.208  1.00  0.00    -0.011 C 
ENDROOT
BRANCH   2   3
ATOM      3  C   UNL     1      -9.145   4.344   1.075  1.00  0.00     0.007 C 
BRANCH   3   4
ATOM      4  C   UNL     1      -8.224   4.399  -0.153  1.00  0.00     0.027 C 
BRANCH   4   5
ATOM      5  C   UNL     1      -8.942   5.005  -1.332  1.00  0.00    -0.028 C 
ATOM      6  C   UNL     1      -8.380   5.874  -2.203  1.00  0.00    -0.080 C 
ATOM      7  C   UNL     1      -6.971   6.384  -2.030  1.00  0.00     0.039 C 
ATOM      8  C   UNL     1      -9.185   6.398  -3.365  1.00  0.00     0.039 C 
ENDBRANCH   4   5
ENDBRANCH   3   4
ENDBRANCH   2   3
BRANCH   2   9
ATOM      9  C   UNL     1      -7.427   6.105   1.799  1.00  0.00     0.045 C 
BRANCH   9  10
ATOM     10  C   UNL     1      -6.280   6.063   2.821  1.00  0.00     0.233 C 
BRANCH  10  11
ATOM     11  O   UNL     1      -6.554   6.943   3.908  1.00  0.00    -0.466 OA
BRANCH  11  12
ATOM     12  C   UNL     1      -6.660   6.517   5.237  1.00  0.00     0.302 C 
ATOM     13  O   UNL     1      -5.635   6.186   5.893  1.00  0.00    -0.253 OA
ATOM     14  C   UNL     1      -7.997   6.490   5.896  1.00  0.00     0.139 C 
ENDBRANCH  11  12
ENDBRANCH  10  11
ENDBRANCH   9  10
ENDBRANCH   2   9
TORSDOF 7
ENDMDL
MODEL 5
REMARK VINA RESULT:    -4.359      1.500      3.161
REMARK INTER + INTRA:          -7.089
REMARK INTER:                  -6.246
REMARK INTRA:                  -0.843
REMARK UNBOUND:                -0.947
REMARK SMILES CC(=O)OCC[C@@H](C)CCC=C(C)C
REMARK SMILES IDX 8 1 7 2 9 3 10 4 11 5 12 6 13 7 14 8 6 9 5 10 4 11 2 12 3 13
REMARK SMILES IDX 1 14
REMARK H PARENT
REMARK Flexibility Score: inf
ROOT
ATOM      1  C   UNL     1      -5.827   5.505  -0.758  1.00  0.00     0.008 C 
ATOM      2  C   UNL     1      -6.654   6.795  -0.619  1.00  0.00    -0.011 C 
ENDROOT
BRANCH   2   3
ATOM      3  C   UNL     1      -7.859   6.816  -1.591  1.00  0.00     0.007 C 
BRANCH   3   4
ATOM      4  C   UNL     1      -8.705   5.537  -1.505  1.00  0.00     0.027 C 
BRANCH   4   5
ATOM      5  C   UNL     1      -9.906   5.750  -0.619  1.00  0.00    -0.028 C 
ATOM      6  C   UNL     1     -10.127   5.087   0.539  1.00  0.00    -0.080 C 
ATOM      7  C   UNL     1      -9.206   3.995   1.026  1.00  0.00     0.039 C 
ATOM      8  C   UNL     1     -11.350   5.399   1.362  1.00  0.00     0.039 C 
ENDBRANCH   4   5
ENDBRANCH   3   4
ENDBRANCH   2   3
BRANCH   2   9
ATOM      9  C   UNL     1      -7.093   7.035   0.846  1.00  0.00     0.045 C 
BRANCH   9  10
ATOM     10  C   UNL     1      -6.257   6.279   1.892  1.00  0.00     0.233 C 
BRANCH  10  11
ATOM     11  O   UNL     1      -6.269   6.979   3.134  1.00  0.00    -0.466 OA
BRANCH  11  12
ATOM     12  C   UNL     1      -6.709   6.410   4.335  1.00  0.00     0.302 C 
ATOM     13  O   UNL     1      -6.078   6.600   5.409  1.00  0.00    -0.253 OA
ATOM     14  C   UNL     1      -7.961   5.601   4.349  1.00  0.00     0.139 C 
ENDBRANCH  11  12
ENDBRANCH  10  11
ENDBRANCH   9  10
ENDBRANCH   2   9
TORSDOF 7
ENDMDL
MODEL 6
REMARK VINA RESULT:    -4.304      1.295      2.084
REMARK INTER + INTRA:          -7.012
REMARK INTER:                  -6.076
REMARK INTRA:                  -0.937
REMARK UNBOUND:                -0.947
REMARK SMILES CC(=O)OCC[C@@H](C)CCC=C(C)C
REMARK SMILES IDX 8 1 7 2 9 3 10 4 11 5 12 6 13 7 14 8 6 9 5 10 4 11 2 12 3 13
REMARK SMILES IDX 1 14
REMARK H PARENT
REMARK Flexibility Score: inf
ROOT
ATOM      1  C   UNL     1      -9.000   3.391   0.553  1.00  0.00     0.008 C 
ATOM      2  C   UNL     1      -8.206   4.593   1.093  1.00  0.00    -0.011 C 
ENDROOT
BRANCH   2   3
ATOM      3  C   UNL     1      -7.218   5.151   0.040  1.00  0.00     0.007 C 
BRANCH   3   4
ATOM      4  C   UNL     1      -7.646   6.526  -0.496  1.00  0.00     0.027 C 
BRANCH   4   5
ATOM      5  C   UNL     1      -7.791   6.492  -1.997  1.00  0.00    -0.028 C 
ATOM      6  C   UNL     1      -8.965   6.318  -2.645  1.00  0.00    -0.080 C 
ATOM      7  C   UNL     1     -10.258   6.064  -1.909  1.00  0.00     0.039 C 
ATOM      8  C   UNL     1      -8.999   6.327  -4.152  1.00  0.00     0.039 C 
ENDBRANCH   4   5
ENDBRANCH   3   4
ENDBRANCH   2   3
BRANCH   2   9
ATOM      9  C   UNL     1      -9.144   5.695   1.643  1.00  0.00     0.045 C 
BRANCH   9  10
ATOM     10  C   UNL     1      -9.070   5.891   3.166  1.00  0.00     0.233 C 
BRANCH  10  11
ATOM     11  O   UNL     1      -7.813   5.437   3.663  1.00  0.00    -0.466 OA
BRANCH  11  12
ATOM     12  C   UNL     1      -6.810   6.297   4.123  1.00  0.00     0.302 C 
ATOM     13  O   UNL     1      -6.337   7.196   3.377  1.00  0.00    -0.253 OA
ATOM     14  C   UNL     1      -6.324   6.174   5.527  1.00  0.00     0.139 C 
ENDBRANCH  11  12
ENDBRANCH  10  11
ENDBRANCH   9  10
ENDBRANCH   2   9
TORSDOF 7
ENDMDL
MODEL 7
REMARK VINA RESULT:    -4.260      1.429      2.707
REMARK INTER + INTRA:          -6.950
REMARK INTER:                  -6.298
REMARK INTRA:                  -0.652
REMARK UNBOUND:                -0.947
REMARK SMILES CC(=O)OCC[C@@H](C)CCC=C(C)C
REMARK SMILES IDX 8 1 7 2 9 3 10 4 11 5 12 6 13 7 14 8 6 9 5 10 4 11 2 12 3 13
REMARK SMILES IDX 1 14
REMARK H PARENT
REMARK Flexibility Score: inf
ROOT
ATOM      1  C   UNL     1      -6.028   5.866  -0.713  1.00  0.00     0.008 C 
ATOM      2  C   UNL     1      -7.143   6.103   0.321  1.00  0.00    -0.011 C 
ENDROOT
BRANCH   2   3
ATOM      3  C   UNL     1      -7.813   4.779   0.761  1.00  0.00     0.007 C 
BRANCH   3   4
ATOM      4  C   UNL     1      -9.028   4.418  -0.107  1.00  0.00     0.027 C 
BRANCH   4   5
ATOM      5  C   UNL     1     -10.022   5.551  -0.131  1.00  0.00    -0.028 C 
ATOM      6  C   UNL     1     -10.390   6.220  -1.248  1.00  0.00    -0.080 C 
ATOM      7  C   UNL     1      -9.769   5.936  -2.593  1.00  0.00     0.039 C 
ATOM      8  C   UNL     1     -11.414   7.321  -1.160  1.00  0.00     0.039 C 
ENDBRANCH   4   5
ENDBRANCH   3   4
ENDBRANCH   2   3
BRANCH   2   9
ATOM      9  C   UNL     1      -6.630   6.918   1.533  1.00  0.00     0.045 C 
BRANCH   9  10
ATOM     10  C   UNL     1      -6.420   6.092   2.812  1.00  0.00     0.233 C 
BRANCH  10  11
ATOM     11  O   UNL     1      -6.405   6.944   3.955  1.00  0.00    -0.466 OA
BRANCH  11  12
ATOM     12  C   UNL     1      -6.940   6.579   5.195  1.00  0.00     0.302 C 
ATOM     13  O   UNL     1      -8.188   6.511   5.366  1.00  0.00    -0.253 OA
ATOM     14  C   UNL     1      -6.023   6.228   6.317  1.00  0.00     0.139 C 
ENDBRANCH  11  12
ENDBRANCH  10  11
ENDBRANCH   9  10
ENDBRANCH   2   9
TORSDOF 7
ENDMDL
MODEL 8
REMARK VINA RESULT:    -4.229      3.575      6.572
REMARK INTER + INTRA:          -6.907
REMARK INTER:                  -6.317
REMARK INTRA:                  -0.590
REMARK UNBOUND:                -0.947
REMARK SMILES CC(=O)OCC[C@@H](C)CCC=C(C)C
REMARK SMILES IDX 8 1 7 2 9 3 10 4 11 5 12 6 13 7 14 8 6 9 5 10 4 11 2 12 3 13
REMARK SMILES IDX 1 14
REMARK H PARENT
REMARK Flexibility Score: inf
ROOT
ATOM      1  C   UNL     1      -7.669   7.046  -1.767  1.00  0.00     0.008 C 
ATOM      2  C   UNL     1      -8.345   5.669  -1.877  1.00  0.00    -0.011 C 
ENDROOT
BRANCH   2   3
ATOM      3  C   UNL     1      -9.202   5.346  -0.629  1.00  0.00     0.007 C 
BRANCH   3   4
ATOM      4  C   UNL     1      -8.552   4.287   0.274  1.00  0.00     0.027 C 
BRANCH   4   5
ATOM      5  C   UNL     1      -8.695   4.663   1.727  1.00  0.00    -0.028 C 
ATOM      6  C   UNL     1      -7.819   5.440   2.404  1.00  0.00    -0.080 C 
ATOM      7  C   UNL     1      -6.549   5.954   1.772  1.00  0.00     0.039 C 
ATOM      8  C   UNL     1      -8.075   5.775   3.850  1.00  0.00     0.039 C 
ENDBRANCH   4   5
ENDBRANCH   3   4
ENDBRANCH   2   3
BRANCH   2   9
ATOM      9  C   UNL     1      -9.163   5.539  -3.185  1.00  0.00     0.045 C 
BRANCH   9  10
ATOM     10  C   UNL     1      -8.892   6.646  -4.216  1.00  0.00     0.233 C 
BRANCH  10  11
ATOM     11  O   UNL     1      -8.268   6.099  -5.376  1.00  0.00    -0.466 OA
BRANCH  11  12
ATOM     12  C   UNL     1      -7.529   6.863  -6.286  1.00  0.00     0.302 C 
ATOM     13  O   UNL     1      -7.314   6.446  -7.456  1.00  0.00    -0.253 OA
ATOM     14  C   UNL     1      -7.022   8.204  -5.877  1.00  0.00     0.139 C 
ENDBRANCH  11  12
ENDBRANCH  10  11
ENDBRANCH   9  10
ENDBRANCH   2   9
TORSDOF 7
ENDMDL
MODEL 9
REMARK VINA RESULT:    -4.200      1.449      2.498
REMARK INTER + INTRA:          -6.865
REMARK INTER:                  -5.855
REMARK INTRA:                  -1.010
REMARK UNBOUND:                -0.947
REMARK SMILES CC(=O)OCC[C@@H](C)CCC=C(C)C
REMARK SMILES IDX 8 1 7 2 9 3 10 4 11 5 12 6 13 7 14 8 6 9 5 10 4 11 2 12 3 13
REMARK SMILES IDX 1 14
REMARK H PARENT
REMARK Flexibility Score: inf
ROOT
ATOM      1  C   UNL     1      -6.044   5.917  -1.531  1.00  0.00     0.008 C 
ATOM      2  C   UNL     1      -6.489   6.331  -0.118  1.00  0.00    -0.011 C 
ENDROOT
BRANCH   2   3
ATOM      3  C   UNL     1      -7.154   7.729  -0.110  1.00  0.00     0.007 C 
BRANCH   3   4
ATOM      4  C   UNL     1      -7.974   7.998  -1.380  1.00  0.00     0.027 C 
BRANCH   4   5
ATOM      5  C   UNL     1      -9.442   7.763  -1.127  1.00  0.00    -0.028 C 
ATOM      6  C   UNL     1     -10.161   6.760  -1.681  1.00  0.00    -0.080 C 
ATOM      7  C   UNL     1      -9.562   5.804  -2.684  1.00  0.00     0.039 C 
ATOM      8  C   UNL     1     -11.619   6.602  -1.337  1.00  0.00     0.039 C 
ENDBRANCH   4   5
ENDBRANCH   3   4
ENDBRANCH   2   3
BRANCH   2   9
ATOM      9  C   UNL     1      -7.398   5.258   0.529  1.00  0.00     0.045 C 
BRANCH   9  10
ATOM     10  C   UNL     1      -8.130   5.726   1.797  1.00  0.00     0.233 C 
BRANCH  10  11
ATOM     11  O   UNL     1      -7.380   5.380   2.959  1.00  0.00    -0.466 OA
BRANCH  11  12
ATOM     12  C   UNL     1      -6.712   6.319   3.753  1.00  0.00     0.302 C 
ATOM     13  O   UNL     1      -6.248   7.378   3.250  1.00  0.00    -0.253 OA
ATOM     14  C   UNL     1      -6.581   6.080   5.219  1.00  0.00     0.139 C 
ENDBRANCH  11  12
ENDBRANCH  10  11
ENDBRANCH   9  10
ENDBRANCH   2   9
TORSDOF 7
ENDMDL
