MODEL 1
REMARK VINA RESULT:    -4.003      0.000      0.000
REMARK INTER + INTRA:          -4.121
REMARK INTER:                  -4.121
REMARK INTRA:                   0.000
REMARK UNBOUND:                 0.000
REMARK SMILES O=c1ccc2ccc(O)cc2o1
REMARK SMILES IDX 6 1 7 2 8 3 10 4 11 5 5 6 4 7 3 8 2 9 1 10 12 11 9 12
REMARK H PARENT 9 13
REMARK Flexibility Score: inf
ROOT
ATOM      1  C   UNL     1      45.984  35.047   8.876  1.00  0.00     0.016 A 
ATOM      2  C   UNL     1      46.273  34.614   7.578  1.00  0.00     0.047 A 
ATOM      3  C   UNL     1      47.600  34.433   7.172  1.00  0.00     0.119 A 
ATOM      4  C   UNL     1      48.647  34.687   8.070  1.00  0.00     0.094 A 
ATOM      5  C   UNL     1      48.368  35.121   9.370  1.00  0.00     0.142 A 
ATOM      6  C   UNL     1      47.028  35.302   9.777  1.00  0.00     0.018 A 
ATOM      7  C   UNL     1      46.779  35.738  11.082  1.00  0.00     0.019 A 
ATOM      8  C   UNL     1      47.853  35.978  11.939  1.00  0.00     0.094 A 
ATOM      9  C   UNL     1      49.156  35.777  11.467  1.00  0.00     0.336 A 
ATOM     10  O   UNL     1      50.137  35.987  12.225  1.00  0.00    -0.246 OA
ATOM     11  O   UNL     1      49.364  35.362  10.220  1.00  0.00    -0.423 OA
ENDROOT
BRANCH   3  12
ATOM     12  O   UNL     1      47.868  34.000   5.875  1.00  0.00    -0.508 OA
ATOM     13  H   UNL     1      48.739  34.227   5.410  1.00  0.00     0.293 HD
ENDBRANCH   3  12
TORSDOF 1
ENDMDL
MODEL 2
REMARK VINA RESULT:    -3.966     18.848     18.986
REMARK INTER + INTRA:          -4.082
REMARK INTER:                  -4.082
REMARK INTRA:                   0.000
REMARK UNBOUND:                 0.000
REMARK SMILES O=c1ccc2ccc(O)cc2o1
REMARK SMILES IDX 6 1 7 2 8 3 10 4 11 5 5 6 4 7 3 8 2 9 1 10 12 11 9 12
REMARK H PARENT 9 13
REMARK Flexibility Score: inf
ROOT
ATOM      1  C   UNL     1      63.949  43.835  15.047  1.00  0.00     0.016 A 
ATOM      2  C   UNL     1      64.584  42.606  14.839  1.00  0.00     0.047 A 
ATOM      3  C   UNL     1      64.484  41.588  15.795  1.00  0.00     0.119 A 
ATOM      4  C   UNL     1      63.744  41.800  16.968  1.00  0.00     0.094 A 
ATOM      5  C   UNL     1      63.106  43.025  17.184  1.00  0.00     0.142 A 
ATOM      6  C   UNL     1      63.208  44.050  16.218  1.00  0.00     0.018 A 
ATOM      7  C   UNL     1      62.560  45.265  16.462  1.00  0.00     0.019 A 
ATOM      8  C   UNL     1      61.836  45.428  17.643  1.00  0.00     0.094 A 
ATOM      9  C   UNL     1      61.778  44.369  18.556  1.00  0.00     0.336 A 
ATOM     10  O   UNL     1      61.130  44.497  19.626  1.00  0.00    -0.246 OA
ATOM     11  O   UNL     1      62.405  43.223  18.298  1.00  0.00    -0.423 OA
ENDROOT
BRANCH   3  12
ATOM     12  O   UNL     1      65.124  40.371  15.570  1.00  0.00    -0.508 OA
ATOM     13  H   UNL     1      65.489  39.815  16.334  1.00  0.00     0.293 HD
ENDBRANCH   3  12
TORSDOF 1
ENDMDL
MODEL 3
REMARK VINA RESULT:    -3.952     12.338     13.780
REMARK INTER + INTRA:          -4.067
REMARK INTER:                  -4.067
REMARK INTRA:                   0.000
REMARK UNBOUND:                 0.000
REMARK SMILES O=c1ccc2ccc(O)cc2o1
REMARK SMILES IDX 6 1 7 2 8 3 10 4 11 5 5 6 4 7 3 8 2 9 1 10 12 11 9 12
REMARK H PARENT 9 13
REMARK Flexibility Score: inf
ROOT
ATOM      1  C   UNL     1      49.467  49.579  13.196  1.00  0.00     0.016 A 
ATOM      2  C   UNL     1      50.370  50.125  12.277  1.00  0.00     0.047 A 
ATOM      3  C   UNL     1      51.507  49.405  11.891  1.00  0.00     0.119 A 
ATOM      4  C   UNL     1      51.744  48.131  12.428  1.00  0.00     0.094 A 
ATOM      5  C   UNL     1      50.847  47.578  13.347  1.00  0.00     0.142 A 
ATOM      6  C   UNL     1      49.700  48.306  13.734  1.00  0.00     0.018 A 
ATOM      7  C   UNL     1      48.822  47.727  14.655  1.00  0.00     0.019 A 
ATOM      8  C   UNL     1      49.100  46.457  15.161  1.00  0.00     0.094 A 
ATOM      9  C   UNL     1      50.255  45.794  14.732  1.00  0.00     0.336 A 
ATOM     10  O   UNL     1      50.523  44.649  15.177  1.00  0.00    -0.246 OA
ATOM     11  O   UNL     1      51.075  46.368  13.854  1.00  0.00    -0.423 OA
ENDROOT
BRANCH   3  12
ATOM     12  O   UNL     1      52.395  49.965  10.975  1.00  0.00    -0.508 OA
ATOM     13  H   UNL     1      52.623  49.499  10.105  1.00  0.00     0.293 HD
ENDBRANCH   3  12
TORSDOF 1
ENDMDL
MODEL 4
REMARK VINA RESULT:    -3.830     18.739     19.153
REMARK INTER + INTRA:          -3.942
REMARK INTER:                  -3.942
REMARK INTRA:                   0.000
REMARK UNBOUND:                 0.000
REMARK SMILES O=c1ccc2ccc(O)cc2o1
REMARK SMILES IDX 6 1 7 2 8 3 10 4 11 5 5 6 4 7 3 8 2 9 1 10 12 11 9 12
REMARK H PARENT 9 13
REMARK Flexibility Score: inf
ROOT
ATOM      1  C   UNL     1      62.520  45.311  16.397  1.00  0.00     0.016 A 
ATOM      2  C   UNL     1      61.780  45.559  17.558  1.00  0.00     0.047 A 
ATOM      3  C   UNL     1      61.641  44.565  18.533  1.00  0.00     0.119 A 
ATOM      4  C   UNL     1      62.247  43.313  18.348  1.00  0.00     0.094 A 
ATOM      5  C   UNL     1      62.989  43.057  17.191  1.00  0.00     0.142 A 
ATOM      6  C   UNL     1      63.128  44.061  16.209  1.00  0.00     0.018 A 
ATOM      7  C   UNL     1      63.875  43.776  15.062  1.00  0.00     0.019 A 
ATOM      8  C   UNL     1      64.459  42.516  14.922  1.00  0.00     0.094 A 
ATOM      9  C   UNL     1      64.279  41.569  15.937  1.00  0.00     0.336 A 
ATOM     10  O   UNL     1      64.798  40.428  15.829  1.00  0.00    -0.246 OA
ATOM     11  O   UNL     1      63.562  41.868  17.018  1.00  0.00    -0.423 OA
ENDROOT
BRANCH   3  12
ATOM     12  O   UNL     1      60.899  44.830  19.682  1.00  0.00    -0.508 OA
ATOM     13  H   UNL     1      61.250  45.443  20.410  1.00  0.00     0.293 HD
ENDBRANCH   3  12
TORSDOF 1
ENDMDL
MODEL 5
REMARK VINA RESULT:    -3.786      1.768      2.175
REMARK INTER + INTRA:          -3.897
REMARK INTER:                  -3.897
REMARK INTRA:                   0.000
REMARK UNBOUND:                 0.000
REMARK SMILES O=c1ccc2ccc(O)cc2o1
REMARK SMILES IDX 6 1 7 2 8 3 10 4 11 5 5 6 4 7 3 8 2 9 1 10 12 11 9 12
REMARK H PARENT 9 13
REMARK Flexibility Score: inf
ROOT
ATOM      1  C   UNL     1      46.336  35.159   8.137  1.00  0.00     0.016 A 
ATOM      2  C   UNL     1      47.542  34.825   7.511  1.00  0.00     0.047 A 
ATOM      3  C   UNL     1      48.732  34.777   8.248  1.00  0.00     0.119 A 
ATOM      4  C   UNL     1      48.716  35.066   9.621  1.00  0.00     0.094 A 
ATOM      5  C   UNL     1      47.515  35.400  10.254  1.00  0.00     0.142 A 
ATOM      6  C   UNL     1      46.317  35.447   9.509  1.00  0.00     0.018 A 
ATOM      7  C   UNL     1      45.132  35.785  10.169  1.00  0.00     0.019 A 
ATOM      8  C   UNL     1      45.167  36.064  11.536  1.00  0.00     0.094 A 
ATOM      9  C   UNL     1      46.391  35.998  12.211  1.00  0.00     0.336 A 
ATOM     10  O   UNL     1      46.442  36.245  13.443  1.00  0.00    -0.246 OA
ATOM     11  O   UNL     1      47.504  35.673  11.557  1.00  0.00    -0.423 OA
ENDROOT
BRANCH   3  12
ATOM     12  O   UNL     1      49.923  34.443   7.607  1.00  0.00    -0.508 OA
ATOM     13  H   UNL     1      50.216  33.479   7.502  1.00  0.00     0.293 HD
ENDBRANCH   3  12
TORSDOF 1
ENDMDL
MODEL 6
REMARK VINA RESULT:    -3.742     11.383     13.160
REMARK INTER + INTRA:          -3.851
REMARK INTER:                  -3.851
REMARK INTRA:                   0.000
REMARK UNBOUND:                 0.000
REMARK SMILES O=c1ccc2ccc(O)cc2o1
REMARK SMILES IDX 6 1 7 2 8 3 10 4 11 5 5 6 4 7 3 8 2 9 1 10 12 11 9 12
REMARK H PARENT 9 13
REMARK Flexibility Score: inf
ROOT
ATOM      1  C   UNL     1      50.306  44.828  14.742  1.00  0.00     0.016 A 
ATOM      2  C   UNL     1      49.359  44.153  15.519  1.00  0.00     0.047 A 
ATOM      3  C   UNL     1      48.187  44.802  15.927  1.00  0.00     0.119 A 
ATOM      4  C   UNL     1      47.961  46.136  15.556  1.00  0.00     0.094 A 
ATOM      5  C   UNL     1      48.902  46.818  14.779  1.00  0.00     0.142 A 
ATOM      6  C   UNL     1      50.082  46.161  14.369  1.00  0.00     0.018 A 
ATOM      7  C   UNL     1      51.006  46.869  13.593  1.00  0.00     0.019 A 
ATOM      8  C   UNL     1      50.736  48.194  13.249  1.00  0.00     0.094 A 
ATOM      9  C   UNL     1      49.545  48.782  13.692  1.00  0.00     0.336 A 
ATOM     10  O   UNL     1      49.284  49.975  13.391  1.00  0.00    -0.246 OA
ATOM     11  O   UNL     1      48.684  48.084  14.429  1.00  0.00    -0.423 OA
ENDROOT
BRANCH   3  12
ATOM     12  O   UNL     1      47.256  44.113  16.701  1.00  0.00    -0.508 OA
ATOM     13  H   UNL     1      47.223  43.101  16.715  1.00  0.00     0.293 HD
ENDBRANCH   3  12
TORSDOF 1
ENDMDL
MODEL 7
REMARK VINA RESULT:    -3.729     10.051     11.822
REMARK INTER + INTRA:          -3.838
REMARK INTER:                  -3.838
REMARK INTRA:                   0.000
REMARK UNBOUND:                 0.000
REMARK SMILES O=c1ccc2ccc(O)cc2o1
REMARK SMILES IDX 6 1 7 2 8 3 10 4 11 5 5 6 4 7 3 8 2 9 1 10 12 11 9 12
REMARK H PARENT 9 13
REMARK Flexibility Score: inf
ROOT
ATOM      1  C   UNL     1      48.528  43.283  14.520  1.00  0.00     0.016 A 
ATOM      2  C   UNL     1      47.247  42.721  14.538  1.00  0.00     0.047 A 
ATOM      3  C   UNL     1      46.144  43.490  14.928  1.00  0.00     0.119 A 
ATOM      4  C   UNL     1      46.322  44.829  15.303  1.00  0.00     0.094 A 
ATOM      5  C   UNL     1      47.599  45.399  15.288  1.00  0.00     0.142 A 
ATOM      6  C   UNL     1      48.710  44.622  14.894  1.00  0.00     0.018 A 
ATOM      7  C   UNL     1      49.974  45.218  14.890  1.00  0.00     0.019 A 
ATOM      8  C   UNL     1      50.102  46.554  15.271  1.00  0.00     0.094 A 
ATOM      9  C   UNL     1      48.956  47.264  15.650  1.00  0.00     0.336 A 
ATOM     10  O   UNL     1      49.051  48.469  15.996  1.00  0.00    -0.246 OA
ATOM     11  O   UNL     1      47.764  46.671  15.645  1.00  0.00    -0.423 OA
ENDROOT
BRANCH   3  12
ATOM     12  O   UNL     1      44.876  42.913  14.940  1.00  0.00    -0.508 OA
ATOM     13  H   UNL     1      44.272  42.943  14.126  1.00  0.00     0.293 HD
ENDBRANCH   3  12
TORSDOF 1
ENDMDL
MODEL 8
REMARK VINA RESULT:    -3.669     10.177     12.251
REMARK INTER + INTRA:          -3.776
REMARK INTER:                  -3.776
REMARK INTRA:                   0.000
REMARK UNBOUND:                 0.000
REMARK SMILES O=c1ccc2ccc(O)cc2o1
REMARK SMILES IDX 6 1 7 2 8 3 10 4 11 5 5 6 4 7 3 8 2 9 1 10 12 11 9 12
REMARK H PARENT 9 13
REMARK Flexibility Score: inf
ROOT
ATOM      1  C   UNL     1      50.108  44.897  14.620  1.00  0.00     0.016 A 
ATOM      2  C   UNL     1      50.532  46.209  14.859  1.00  0.00     0.047 A 
ATOM      3  C   UNL     1      49.618  47.180  15.288  1.00  0.00     0.119 A 
ATOM      4  C   UNL     1      48.271  46.837  15.479  1.00  0.00     0.094 A 
ATOM      5  C   UNL     1      47.840  45.528  15.243  1.00  0.00     0.142 A 
ATOM      6  C   UNL     1      48.763  44.551  14.811  1.00  0.00     0.018 A 
ATOM      7  C   UNL     1      48.302  43.251  14.582  1.00  0.00     0.019 A 
ATOM      8  C   UNL     1      46.954  42.958  14.786  1.00  0.00     0.094 A 
ATOM      9  C   UNL     1      46.095  43.977  15.215  1.00  0.00     0.336 A 
ATOM     10  O   UNL     1      44.876  43.732  15.404  1.00  0.00    -0.246 OA
ATOM     11  O   UNL     1      46.561  45.206  15.425  1.00  0.00    -0.423 OA
ENDROOT
BRANCH   3  12
ATOM     12  O   UNL     1      50.058  48.481  15.520  1.00  0.00    -0.508 OA
ATOM     13  H   UNL     1      50.607  48.717  16.339  1.00  0.00     0.293 HD
ENDBRANCH   3  12
TORSDOF 1
ENDMDL
MODEL 9
REMARK VINA RESULT:    -3.642     12.299     13.934
REMARK INTER + INTRA:          -3.749
REMARK INTER:                  -3.749
REMARK INTRA:                   0.000
REMARK UNBOUND:                 0.000
REMARK SMILES O=c1ccc2ccc(O)cc2o1
REMARK SMILES IDX 6 1 7 2 8 3 10 4 11 5 5 6 4 7 3 8 2 9 1 10 12 11 9 12
REMARK H PARENT 9 13
REMARK Flexibility Score: inf
ROOT
ATOM      1  C   UNL     1      48.661  47.526  15.078  1.00  0.00     0.016 A 
ATOM      2  C   UNL     1      49.088  46.264  15.506  1.00  0.00     0.047 A 
ATOM      3  C   UNL     1      50.242  45.687  14.964  1.00  0.00     0.119 A 
ATOM      4  C   UNL     1      50.975  46.375  13.986  1.00  0.00     0.094 A 
ATOM      5  C   UNL     1      50.556  47.636  13.551  1.00  0.00     0.142 A 
ATOM      6  C   UNL     1      49.391  48.217  14.100  1.00  0.00     0.018 A 
ATOM      7  C   UNL     1      48.996  49.479  13.646  1.00  0.00     0.019 A 
ATOM      8  C   UNL     1      49.758  50.124  12.672  1.00  0.00     0.094 A 
ATOM      9  C   UNL     1      50.900  49.489  12.172  1.00  0.00     0.336 A 
ATOM     10  O   UNL     1      51.600  50.055  11.294  1.00  0.00    -0.246 OA
ATOM     11  O   UNL     1      51.254  48.287  12.623  1.00  0.00    -0.423 OA
ENDROOT
BRANCH   3  12
ATOM     12  O   UNL     1      50.652  44.430  15.403  1.00  0.00    -0.508 OA
ATOM     13  H   UNL     1      50.006  43.787  15.847  1.00  0.00     0.293 HD
ENDBRANCH   3  12
TORSDOF 1
ENDMDL
