MODEL 1
REMARK VINA RESULT:    -4.250      0.000      0.000
REMARK INTER + INTRA:         -16.168
REMARK INTER:                 -11.207
REMARK INTRA:                  -4.960
REMARK UNBOUND:                -4.960
REMARK SMILES CCCCCCCCCCCCCCCCCCCCCCCCCCCCCC(=O)[O-]
REMARK SMILES IDX 16 1 17 2 18 3 19 4 20 5 21 6 22 7 23 8 24 9 25 10 26 11
REMARK SMILES IDX 27 12 28 13 29 14 30 15 31 16 32 17 15 18 14 19 13 20 12 21
REMARK SMILES IDX 11 22 10 23 9 24 8 25 7 26 6 27 5 28 4 29 3 30 2 31 1 32
REMARK H PARENT
REMARK Flexibility Score: inf
ROOT
ATOM      1  C   UNL     1     114.445 109.211 121.239  1.00  0.00     0.000 C 
ENDROOT
BRANCH   1   2
ATOM      2  C   UNL     1     113.178 110.000 120.853  1.00  0.00     0.000 C 
BRANCH   2   3
ATOM      3  C   UNL     1     112.030 109.926 121.878  1.00  0.00     0.000 C 
BRANCH   3   4
ATOM      4  C   UNL     1     111.769 111.228 122.660  1.00  0.00     0.000 C 
BRANCH   4   5
ATOM      5  C   UNL     1     112.467 112.477 122.093  1.00  0.00     0.000 C 
BRANCH   5   6
ATOM      6  C   UNL     1     111.474 113.505 121.522  1.00  0.00     0.000 C 
BRANCH   6   7
ATOM      7  C   UNL     1     110.354 112.855 120.695  1.00  0.00     0.000 C 
BRANCH   7   8
ATOM      8  C   UNL     1     110.769 112.608 119.234  1.00  0.00     0.000 C 
BRANCH   8   9
ATOM      9  C   UNL     1     109.823 111.644 118.485  1.00  0.00     0.000 C 
BRANCH   9  10
ATOM     10  C   UNL     1     109.922 110.173 118.943  1.00  0.00     0.000 C 
BRANCH  10  11
ATOM     11  C   UNL     1     109.031 109.192 118.160  1.00  0.00     0.000 C 
BRANCH  11  12
ATOM     12  C   UNL     1     108.129 108.325 119.068  1.00  0.00     0.000 C 
BRANCH  12  13
ATOM     13  C   UNL     1     106.642 108.489 118.725  1.00  0.00     0.006 C 
BRANCH  13  14
ATOM     14  C   UNL     1     105.902 107.149 118.814  1.00  0.00     0.053 C 
BRANCH  14  15
ATOM     15  C   UNL     1     105.032 106.942 117.614  1.00  0.00     0.041 C 
ATOM     16  O   UNL     1     105.250 105.975 116.834  1.00  0.00    -0.550 OA
ATOM     17  O   UNL     1     103.982 107.817 117.350  1.00  0.00    -0.550 OA
ENDBRANCH  14  15
ENDBRANCH  13  14
ENDBRANCH  12  13
ENDBRANCH  11  12
ENDBRANCH  10  11
ENDBRANCH   9  10
ENDBRANCH   8   9
ENDBRANCH   7   8
ENDBRANCH   6   7
ENDBRANCH   5   6
ENDBRANCH   4   5
ENDBRANCH   3   4
ENDBRANCH   2   3
ENDBRANCH   1   2
BRANCH   1  18
ATOM     18  C   UNL     1     115.702 110.071 121.478  1.00  0.00     0.000 C 
BRANCH  18  19
ATOM     19  C   UNL     1     115.674 110.927 122.759  1.00  0.00     0.000 C 
BRANCH  19  20
ATOM     20  C   UNL     1     116.370 112.298 122.641  1.00  0.00     0.000 C 
BRANCH  20  21
ATOM     21  C   UNL     1     116.533 112.822 121.202  1.00  0.00     0.000 C 
BRANCH  21  22
ATOM     22  C   UNL     1     115.404 113.749 120.715  1.00  0.00     0.000 C 
BRANCH  22  23
ATOM     23  C   UNL     1     115.284 113.795 119.184  1.00  0.00     0.000 C 
BRANCH  23  24
ATOM     24  C   UNL     1     114.202 112.825 118.683  1.00  0.00    -0.000 C 
BRANCH  24  25
ATOM     25  C   UNL     1     114.612 112.093 117.389  1.00  0.00    -0.000 C 
BRANCH  25  26
ATOM     26  C   UNL     1     113.440 111.422 116.652  1.00  0.00    -0.000 C 
BRANCH  26  27
ATOM     27  C   UNL     1     113.023 110.082 117.280  1.00  0.00    -0.000 C 
BRANCH  27  28
ATOM     28  C   UNL     1     113.768 108.884 116.671  1.00  0.00    -0.000 C 
BRANCH  28  29
ATOM     29  C   UNL     1     114.642 108.149 117.699  1.00  0.00    -0.000 C 
BRANCH  29  30
ATOM     30  C   UNL     1     116.010 108.834 117.846  1.00  0.00    -0.000 C 
BRANCH  30  31
ATOM     31  C   UNL     1     116.741 108.978 116.502  1.00  0.00    -0.003 C 
ATOM     32  C   UNL     1     118.260 108.890 116.645  1.00  0.00     0.004 C 
ENDBRANCH  30  31
ENDBRANCH  29  30
ENDBRANCH  28  29
ENDBRANCH  27  28
ENDBRANCH  26  27
ENDBRANCH  25  26
ENDBRANCH  24  25
ENDBRANCH  23  24
ENDBRANCH  22  23
ENDBRANCH  21  22
ENDBRANCH  20  21
ENDBRANCH  19  20
ENDBRANCH  18  19
ENDBRANCH   1  18
TORSDOF 28
ENDMDL
MODEL 2
REMARK VINA RESULT:    -4.198      1.464      3.528
REMARK INTER + INTRA:         -16.031
REMARK INTER:                 -11.659
REMARK INTRA:                  -4.371
REMARK UNBOUND:                -4.960
REMARK SMILES CCCCCCCCCCCCCCCCCCCCCCCCCCCCCC(=O)[O-]
REMARK SMILES IDX 16 1 17 2 18 3 19 4 20 5 21 6 22 7 23 8 24 9 25 10 26 11
REMARK SMILES IDX 27 12 28 13 29 14 30 15 31 16 32 17 15 18 14 19 13 20 12 21
REMARK SMILES IDX 11 22 10 23 9 24 8 25 7 26 6 27 5 28 4 29 3 30 2 31 1 32
REMARK H PARENT
REMARK Flexibility Score: inf
ROOT
ATOM      1  C   UNL     1     111.498 110.938 122.752  1.00  0.00     0.000 C 
ENDROOT
BRANCH   1   2
ATOM      2  C   UNL     1     111.870 112.309 122.154  1.00  0.00     0.000 C 
BRANCH   2   3
ATOM      3  C   UNL     1     110.799 112.928 121.235  1.00  0.00     0.000 C 
BRANCH   3   4
ATOM      4  C   UNL     1     110.948 112.588 119.739  1.00  0.00     0.000 C 
BRANCH   4   5
ATOM      5  C   UNL     1     109.814 111.730 119.151  1.00  0.00     0.000 C 
BRANCH   5   6
ATOM      6  C   UNL     1     110.273 110.308 118.784  1.00  0.00     0.000 C 
BRANCH   6   7
ATOM      7  C   UNL     1     109.169 109.483 118.103  1.00  0.00     0.000 C 
BRANCH   7   8
ATOM      8  C   UNL     1     107.887 109.401 118.951  1.00  0.00     0.000 C 
BRANCH   8   9
ATOM      9  C   UNL     1     107.409 107.954 119.196  1.00  0.00     0.000 C 
BRANCH   9  10
ATOM     10  C   UNL     1     105.876 107.777 119.168  1.00  0.00     0.000 C 
BRANCH  10  11
ATOM     11  C   UNL     1     105.346 106.923 118.003  1.00  0.00     0.000 C 
BRANCH  11  12
ATOM     12  C   UNL     1     105.726 107.480 116.612  1.00  0.00     0.000 C 
BRANCH  12  13
ATOM     13  C   UNL     1     104.489 107.781 115.756  1.00  0.00     0.006 C 
BRANCH  13  14
ATOM     14  C   UNL     1     103.270 108.095 116.633  1.00  0.00     0.053 C 
BRANCH  14  15
ATOM     15  C   UNL     1     102.784 109.489 116.388  1.00  0.00     0.041 C 
ATOM     16  O   UNL     1     102.916 110.013 115.248  1.00  0.00    -0.550 OA
ATOM     17  O   UNL     1     102.190 110.216 117.416  1.00  0.00    -0.550 OA
ENDBRANCH  14  15
ENDBRANCH  13  14
ENDBRANCH  12  13
ENDBRANCH  11  12
ENDBRANCH  10  11
ENDBRANCH   9  10
ENDBRANCH   8   9
ENDBRANCH   7   8
ENDBRANCH   6   7
ENDBRANCH   5   6
ENDBRANCH   4   5
ENDBRANCH   3   4
ENDBRANCH   2   3
ENDBRANCH   1   2
BRANCH   1  18
ATOM     18  C   UNL     1     112.036 109.719 121.975  1.00  0.00     0.000 C 
BRANCH  18  19
ATOM     19  C   UNL     1     113.292 109.990 121.124  1.00  0.00     0.000 C 
BRANCH  19  20
ATOM     20  C   UNL     1     114.558 109.232 121.574  1.00  0.00     0.000 C 
BRANCH  20  21
ATOM     21  C   UNL     1     115.568 110.073 122.377  1.00  0.00     0.000 C 
BRANCH  21  22
ATOM     22  C   UNL     1     115.518 111.587 122.102  1.00  0.00     0.000 C 
BRANCH  22  23
ATOM     23  C   UNL     1     116.577 112.048 121.088  1.00  0.00     0.000 C 
BRANCH  23  24
ATOM     24  C   UNL     1     116.143 113.342 120.382  1.00  0.00    -0.000 C 
BRANCH  24  25
ATOM     25  C   UNL     1     114.652 113.332 119.987  1.00  0.00    -0.000 C 
BRANCH  25  26
ATOM     26  C   UNL     1     114.403 113.093 118.487  1.00  0.00    -0.000 C 
BRANCH  26  27
ATOM     27  C   UNL     1     114.088 111.626 118.156  1.00  0.00    -0.000 C 
BRANCH  27  28
ATOM     28  C   UNL     1     115.253 110.912 117.452  1.00  0.00    -0.000 C 
BRANCH  28  29
ATOM     29  C   UNL     1     115.698 109.640 118.189  1.00  0.00    -0.000 C 
BRANCH  29  30
ATOM     30  C   UNL     1     114.724 108.482 117.921  1.00  0.00    -0.000 C 
BRANCH  30  31
ATOM     31  C   UNL     1     114.268 108.426 116.455  1.00  0.00    -0.003 C 
ATOM     32  C   UNL     1     113.368 107.226 116.163  1.00  0.00     0.004 C 
ENDBRANCH  30  31
ENDBRANCH  29  30
ENDBRANCH  28  29
ENDBRANCH  27  28
ENDBRANCH  26  27
ENDBRANCH  25  26
ENDBRANCH  24  25
ENDBRANCH  23  24
ENDBRANCH  22  23
ENDBRANCH  21  22
ENDBRANCH  20  21
ENDBRANCH  19  20
ENDBRANCH  18  19
ENDBRANCH   1  18
TORSDOF 28
ENDMDL
MODEL 3
REMARK VINA RESULT:    -4.162      2.646      5.932
REMARK INTER + INTRA:         -15.935
REMARK INTER:                 -11.107
REMARK INTRA:                  -4.828
REMARK UNBOUND:                -4.960
REMARK SMILES CCCCCCCCCCCCCCCCCCCCCCCCCCCCCC(=O)[O-]
REMARK SMILES IDX 16 1 17 2 18 3 19 4 20 5 21 6 22 7 23 8 24 9 25 10 26 11
REMARK SMILES IDX 27 12 28 13 29 14 30 15 31 16 32 17 15 18 14 19 13 20 12 21
REMARK SMILES IDX 11 22 10 23 9 24 8 25 7 26 6 27 5 28 4 29 3 30 2 31 1 32
REMARK H PARENT
REMARK Flexibility Score: inf
ROOT
ATOM      1  C   UNL     1     109.491 110.645 114.646  1.00  0.00     0.000 C 
ENDROOT
BRANCH   1   2
ATOM      2  C   UNL     1     108.407 111.629 115.127  1.00  0.00     0.000 C 
BRANCH   2   3
ATOM      3  C   UNL     1     108.878 112.648 116.183  1.00  0.00     0.000 C 
BRANCH   3   4
ATOM      4  C   UNL     1     108.184 112.534 117.555  1.00  0.00     0.000 C 
BRANCH   4   5
ATOM      5  C   UNL     1     107.358 111.252 117.759  1.00  0.00     0.000 C 
BRANCH   5   6
ATOM      6  C   UNL     1     107.830 110.427 118.970  1.00  0.00     0.000 C 
BRANCH   6   7
ATOM      7  C   UNL     1     107.847 108.916 118.691  1.00  0.00     0.000 C 
BRANCH   7   8
ATOM      8  C   UNL     1     107.035 108.117 119.725  1.00  0.00     0.000 C 
BRANCH   8   9
ATOM      9  C   UNL     1     105.862 107.329 119.103  1.00  0.00     0.000 C 
BRANCH   9  10
ATOM     10  C   UNL     1     105.572 107.680 117.628  1.00  0.00     0.000 C 
BRANCH  10  11
ATOM     11  C   UNL     1     104.079 107.742 117.261  1.00  0.00     0.000 C 
BRANCH  11  12
ATOM     12  C   UNL     1     103.762 108.768 116.150  1.00  0.00     0.000 C 
BRANCH  12  13
ATOM     13  C   UNL     1     103.337 110.125 116.724  1.00  0.00     0.006 C 
BRANCH  13  14
ATOM     14  C   UNL     1     101.903 110.477 116.311  1.00  0.00     0.053 C 
BRANCH  14  15
ATOM     15  C   UNL     1     101.900 111.536 115.252  1.00  0.00     0.041 C 
ATOM     16  O   UNL     1     102.062 111.220 114.042  1.00  0.00    -0.550 OA
ATOM     17  O   UNL     1     101.725 112.874 115.599  1.00  0.00    -0.550 OA
ENDBRANCH  14  15
ENDBRANCH  13  14
ENDBRANCH  12  13
ENDBRANCH  11  12
ENDBRANCH  10  11
ENDBRANCH   9  10
ENDBRANCH   8   9
ENDBRANCH   7   8
ENDBRANCH   6   7
ENDBRANCH   5   6
ENDBRANCH   4   5
ENDBRANCH   3   4
ENDBRANCH   2   3
ENDBRANCH   1   2
BRANCH   1  18
ATOM     18  C   UNL     1     109.922 109.589 115.685  1.00  0.00     0.000 C 
BRANCH  18  19
ATOM     19  C   UNL     1     111.297 109.837 116.336  1.00  0.00     0.000 C 
BRANCH  19  20
ATOM     20  C   UNL     1     111.247 110.257 117.819  1.00  0.00     0.000 C 
BRANCH  20  21
ATOM     21  C   UNL     1     112.254 111.352 118.219  1.00  0.00     0.000 C 
BRANCH  21  22
ATOM     22  C   UNL     1     111.636 112.588 118.898  1.00  0.00     0.000 C 
BRANCH  22  23
ATOM     23  C   UNL     1     110.820 112.237 120.153  1.00  0.00     0.000 C 
BRANCH  23  24
ATOM     24  C   UNL     1     111.625 112.513 121.433  1.00  0.00    -0.000 C 
BRANCH  24  25
ATOM     25  C   UNL     1     111.685 111.292 122.373  1.00  0.00    -0.000 C 
BRANCH  25  26
ATOM     26  C   UNL     1     112.012 109.969 121.659  1.00  0.00    -0.000 C 
BRANCH  26  27
ATOM     27  C   UNL     1     113.470 109.524 121.857  1.00  0.00    -0.000 C 
BRANCH  27  28
ATOM     28  C   UNL     1     114.241 109.409 120.532  1.00  0.00    -0.000 C 
BRANCH  28  29
ATOM     29  C   UNL     1     115.513 110.270 120.514  1.00  0.00    -0.000 C 
BRANCH  29  30
ATOM     30  C   UNL     1     115.163 111.766 120.512  1.00  0.00    -0.000 C 
BRANCH  30  31
ATOM     31  C   UNL     1     115.485 112.447 121.852  1.00  0.00    -0.003 C 
ATOM     32  C   UNL     1     116.393 111.597 122.740  1.00  0.00     0.004 C 
ENDBRANCH  30  31
ENDBRANCH  29  30
ENDBRANCH  28  29
ENDBRANCH  27  28
ENDBRANCH  26  27
ENDBRANCH  25  26
ENDBRANCH  24  25
ENDBRANCH  23  24
ENDBRANCH  22  23
ENDBRANCH  21  22
ENDBRANCH  20  21
ENDBRANCH  19  20
ENDBRANCH  18  19
ENDBRANCH   1  18
TORSDOF 28
ENDMDL
MODEL 4
REMARK VINA RESULT:    -4.148      4.189      8.482
REMARK INTER + INTRA:         -15.898
REMARK INTER:                 -11.090
REMARK INTRA:                  -4.808
REMARK UNBOUND:                -4.960
REMARK SMILES CCCCCCCCCCCCCCCCCCCCCCCCCCCCCC(=O)[O-]
REMARK SMILES IDX 16 1 17 2 18 3 19 4 20 5 21 6 22 7 23 8 24 9 25 10 26 11
REMARK SMILES IDX 27 12 28 13 29 14 30 15 31 16 32 17 15 18 14 19 13 20 12 21
REMARK SMILES IDX 11 22 10 23 9 24 8 25 7 26 6 27 5 28 4 29 3 30 2 31 1 32
REMARK H PARENT
REMARK Flexibility Score: inf
ROOT
ATOM      1  C   UNL     1     109.244 109.420 115.779  1.00  0.00     0.000 C 
ENDROOT
BRANCH   1   2
ATOM      2  C   UNL     1     107.784 109.164 115.359  1.00  0.00     0.000 C 
BRANCH   2   3
ATOM      3  C   UNL     1     106.943 110.434 115.126  1.00  0.00     0.000 C 
BRANCH   3   4
ATOM      4  C   UNL     1     106.217 110.974 116.374  1.00  0.00     0.000 C 
BRANCH   4   5
ATOM      5  C   UNL     1     106.900 112.175 117.053  1.00  0.00     0.000 C 
BRANCH   5   6
ATOM      6  C   UNL     1     107.730 111.769 118.284  1.00  0.00     0.000 C 
BRANCH   6   7
ATOM      7  C   UNL     1     109.173 112.296 118.229  1.00  0.00     0.000 C 
BRANCH   7   8
ATOM      8  C   UNL     1     109.809 112.418 119.625  1.00  0.00     0.000 C 
BRANCH   8   9
ATOM      9  C   UNL     1     111.286 111.972 119.664  1.00  0.00     0.000 C 
BRANCH   9  10
ATOM     10  C   UNL     1     111.488 110.460 119.903  1.00  0.00     0.000 C 
BRANCH  10  11
ATOM     11  C   UNL     1     111.861 110.080 121.347  1.00  0.00     0.000 C 
BRANCH  11  12
ATOM     12  C   UNL     1     112.409 111.267 122.171  1.00  0.00     0.000 C 
BRANCH  12  13
ATOM     13  C   UNL     1     113.910 111.484 121.939  1.00  0.00     0.006 C 
BRANCH  13  14
ATOM     14  C   UNL     1     114.677 110.158 121.999  1.00  0.00     0.053 C 
BRANCH  14  15
ATOM     15  C   UNL     1     116.108 110.353 121.604  1.00  0.00     0.041 C 
ATOM     16  O   UNL     1     117.027 110.173 122.449  1.00  0.00    -0.550 OA
ATOM     17  O   UNL     1     116.431 110.742 120.307  1.00  0.00    -0.550 OA
ENDBRANCH  14  15
ENDBRANCH  13  14
ENDBRANCH  12  13
ENDBRANCH  11  12
ENDBRANCH  10  11
ENDBRANCH   9  10
ENDBRANCH   8   9
ENDBRANCH   7   8
ENDBRANCH   6   7
ENDBRANCH   5   6
ENDBRANCH   4   5
ENDBRANCH   3   4
ENDBRANCH   2   3
ENDBRANCH   1   2
BRANCH   1  18
ATOM     18  C   UNL     1     109.633 108.860 117.162  1.00  0.00     0.000 C 
BRANCH  18  19
ATOM     19  C   UNL     1     108.573 107.957 117.823  1.00  0.00     0.000 C 
BRANCH  19  20
ATOM     20  C   UNL     1     108.280 108.275 119.303  1.00  0.00     0.000 C 
BRANCH  20  21
ATOM     21  C   UNL     1     106.785 108.331 119.672  1.00  0.00     0.000 C 
BRANCH  21  22
ATOM     22  C   UNL     1     105.916 107.232 119.034  1.00  0.00     0.000 C 
BRANCH  22  23
ATOM     23  C   UNL     1     105.071 107.744 117.856  1.00  0.00     0.000 C 
BRANCH  23  24
ATOM     24  C   UNL     1     105.150 106.785 116.659  1.00  0.00    -0.000 C 
BRANCH  24  25
ATOM     25  C   UNL     1     106.021 105.545 116.948  1.00  0.00    -0.000 C 
BRANCH  25  26
ATOM     26  C   UNL     1     106.671 104.931 115.694  1.00  0.00    -0.000 C 
BRANCH  26  27
ATOM     27  C   UNL     1     108.001 105.601 115.318  1.00  0.00    -0.000 C 
BRANCH  27  28
ATOM     28  C   UNL     1     108.790 104.805 114.266  1.00  0.00    -0.000 C 
BRANCH  28  29
ATOM     29  C   UNL     1     110.303 104.814 114.531  1.00  0.00    -0.000 C 
BRANCH  29  30
ATOM     30  C   UNL     1     110.634 105.630 115.790  1.00  0.00    -0.000 C 
BRANCH  30  31
ATOM     31  C   UNL     1     111.929 106.443 115.640  1.00  0.00    -0.003 C 
ATOM     32  C   UNL     1     112.932 105.784 114.694  1.00  0.00     0.004 C 
ENDBRANCH  30  31
ENDBRANCH  29  30
ENDBRANCH  28  29
ENDBRANCH  27  28
ENDBRANCH  26  27
ENDBRANCH  25  26
ENDBRANCH  24  25
ENDBRANCH  23  24
ENDBRANCH  22  23
ENDBRANCH  21  22
ENDBRANCH  20  21
ENDBRANCH  19  20
ENDBRANCH  18  19
ENDBRANCH   1  18
TORSDOF 28
ENDMDL
MODEL 5
REMARK VINA RESULT:    -4.117      3.868      8.034
REMARK INTER + INTRA:         -15.817
REMARK INTER:                 -11.703
REMARK INTRA:                  -4.114
REMARK UNBOUND:                -4.960
REMARK SMILES CCCCCCCCCCCCCCCCCCCCCCCCCCCCCC(=O)[O-]
REMARK SMILES IDX 16 1 17 2 18 3 19 4 20 5 21 6 22 7 23 8 24 9 25 10 26 11
REMARK SMILES IDX 27 12 28 13 29 14 30 15 31 16 32 17 15 18 14 19 13 20 12 21
REMARK SMILES IDX 11 22 10 23 9 24 8 25 7 26 6 27 5 28 4 29 3 30 2 31 1 32
REMARK H PARENT
REMARK Flexibility Score: inf
ROOT
ATOM      1  C   UNL     1     111.482 111.022 122.611  1.00  0.00     0.000 C 
ENDROOT
BRANCH   1   2
ATOM      2  C   UNL     1     112.120 109.805 121.912  1.00  0.00     0.000 C 
BRANCH   2   3
ATOM      3  C   UNL     1     113.440 110.100 121.172  1.00  0.00     0.000 C 
BRANCH   3   4
ATOM      4  C   UNL     1     114.642 109.245 121.619  1.00  0.00     0.000 C 
BRANCH   4   5
ATOM      5  C   UNL     1     115.801 110.035 122.251  1.00  0.00     0.000 C 
BRANCH   5   6
ATOM      6  C   UNL     1     115.415 111.485 122.594  1.00  0.00     0.000 C 
BRANCH   6   7
ATOM      7  C   UNL     1     116.559 112.481 122.342  1.00  0.00     0.000 C 
BRANCH   7   8
ATOM      8  C   UNL     1     116.442 113.178 120.976  1.00  0.00     0.000 C 
BRANCH   8   9
ATOM      9  C   UNL     1     114.982 113.432 120.543  1.00  0.00     0.000 C 
BRANCH   9  10
ATOM     10  C   UNL     1     114.622 112.862 119.154  1.00  0.00     0.000 C 
BRANCH  10  11
ATOM     11  C   UNL     1     114.863 113.825 117.979  1.00  0.00     0.000 C 
BRANCH  11  12
ATOM     12  C   UNL     1     114.978 113.110 116.614  1.00  0.00     0.000 C 
BRANCH  12  13
ATOM     13  C   UNL     1     113.838 113.499 115.663  1.00  0.00     0.006 C 
BRANCH  13  14
ATOM     14  C   UNL     1     113.044 114.692 116.209  1.00  0.00     0.053 C 
BRANCH  14  15
ATOM     15  C   UNL     1     113.389 115.945 115.466  1.00  0.00     0.041 C 
ATOM     16  O   UNL     1     112.726 116.999 115.663  1.00  0.00    -0.550 OA
ATOM     17  O   UNL     1     114.439 115.951 114.550  1.00  0.00    -0.550 OA
ENDBRANCH  14  15
ENDBRANCH  13  14
ENDBRANCH  12  13
ENDBRANCH  11  12
ENDBRANCH  10  11
ENDBRANCH   9  10
ENDBRANCH   8   9
ENDBRANCH   7   8
ENDBRANCH   6   7
ENDBRANCH   5   6
ENDBRANCH   4   5
ENDBRANCH   3   4
ENDBRANCH   2   3
ENDBRANCH   1   2
BRANCH   1  18
ATOM     18  C   UNL     1     111.908 112.394 122.051  1.00  0.00     0.000 C 
BRANCH  18  19
ATOM     19  C   UNL     1     110.851 113.103 121.182  1.00  0.00     0.000 C 
BRANCH  19  20
ATOM     20  C   UNL     1     110.337 112.280 119.983  1.00  0.00     0.000 C 
BRANCH  20  21
ATOM     21  C   UNL     1     110.994 112.622 118.632  1.00  0.00     0.000 C 
BRANCH  21  22
ATOM     22  C   UNL     1     110.090 112.427 117.401  1.00  0.00     0.000 C 
BRANCH  22  23
ATOM     23  C   UNL     1     108.596 112.594 117.723  1.00  0.00     0.000 C 
BRANCH  23  24
ATOM     24  C   UNL     1     107.734 111.671 116.847  1.00  0.00    -0.000 C 
BRANCH  24  25
ATOM     25  C   UNL     1     107.936 110.178 117.178  1.00  0.00    -0.000 C 
BRANCH  25  26
ATOM     26  C   UNL     1     107.855 109.854 118.680  1.00  0.00    -0.000 C 
BRANCH  26  27
ATOM     27  C   UNL     1     107.730 108.349 118.965  1.00  0.00    -0.000 C 
BRANCH  27  28
ATOM     28  C   UNL     1     106.385 107.977 119.610  1.00  0.00    -0.000 C 
BRANCH  28  29
ATOM     29  C   UNL     1     105.621 106.914 118.807  1.00  0.00    -0.000 C 
BRANCH  29  30
ATOM     30  C   UNL     1     105.448 107.350 117.344  1.00  0.00    -0.000 C 
BRANCH  30  31
ATOM     31  C   UNL     1     104.110 108.064 117.098  1.00  0.00    -0.003 C 
ATOM     32  C   UNL     1     104.290 109.504 116.621  1.00  0.00     0.004 C 
ENDBRANCH  30  31
ENDBRANCH  29  30
ENDBRANCH  28  29
ENDBRANCH  27  28
ENDBRANCH  26  27
ENDBRANCH  25  26
ENDBRANCH  24  25
ENDBRANCH  23  24
ENDBRANCH  22  23
ENDBRANCH  21  22
ENDBRANCH  20  21
ENDBRANCH  19  20
ENDBRANCH  18  19
ENDBRANCH   1  18
TORSDOF 28
ENDMDL
MODEL 6
REMARK VINA RESULT:    -4.115      2.645      6.091
REMARK INTER + INTRA:         -15.811
REMARK INTER:                 -10.650
REMARK INTRA:                  -5.160
REMARK UNBOUND:                -4.960
REMARK SMILES CCCCCCCCCCCCCCCCCCCCCCCCCCCCCC(=O)[O-]
REMARK SMILES IDX 16 1 17 2 18 3 19 4 20 5 21 6 22 7 23 8 24 9 25 10 26 11
REMARK SMILES IDX 27 12 28 13 29 14 30 15 31 16 32 17 15 18 14 19 13 20 12 21
REMARK SMILES IDX 11 22 10 23 9 24 8 25 7 26 6 27 5 28 4 29 3 30 2 31 1 32
REMARK H PARENT
REMARK Flexibility Score: inf
ROOT
ATOM      1  C   UNL     1     111.461 109.676 116.278  1.00  0.00     0.000 C 
ENDROOT
BRANCH   1   2
ATOM      2  C   UNL     1     110.470 108.641 115.711  1.00  0.00     0.000 C 
BRANCH   2   3
ATOM      3  C   UNL     1     109.236 109.240 115.009  1.00  0.00     0.000 C 
BRANCH   3   4
ATOM      4  C   UNL     1     107.878 108.778 115.572  1.00  0.00     0.000 C 
BRANCH   4   5
ATOM      5  C   UNL     1     107.040 109.886 116.236  1.00  0.00     0.000 C 
BRANCH   5   6
ATOM      6  C   UNL     1     106.858 109.667 117.749  1.00  0.00     0.000 C 
BRANCH   6   7
ATOM      7  C   UNL     1     107.276 108.258 118.201  1.00  0.00     0.000 C 
BRANCH   7   8
ATOM      8  C   UNL     1     106.071 107.382 118.584  1.00  0.00     0.000 C 
BRANCH   8   9
ATOM      9  C   UNL     1     105.600 106.458 117.440  1.00  0.00     0.000 C 
BRANCH   9  10
ATOM     10  C   UNL     1     104.543 107.089 116.507  1.00  0.00     0.000 C 
BRANCH  10  11
ATOM     11  C   UNL     1     103.459 107.913 117.225  1.00  0.00     0.000 C 
BRANCH  11  12
ATOM     12  C   UNL     1     102.777 108.955 116.311  1.00  0.00     0.000 C 
BRANCH  12  13
ATOM     13  C   UNL     1     103.250 110.383 116.614  1.00  0.00     0.006 C 
BRANCH  13  14
ATOM     14  C   UNL     1     103.491 111.173 115.322  1.00  0.00     0.053 C 
BRANCH  14  15
ATOM     15  C   UNL     1     102.346 112.097 115.043  1.00  0.00     0.041 C 
ATOM     16  O   UNL     1     101.584 112.460 115.980  1.00  0.00    -0.550 OA
ATOM     17  O   UNL     1     102.114 112.555 113.748  1.00  0.00    -0.550 OA
ENDBRANCH  14  15
ENDBRANCH  13  14
ENDBRANCH  12  13
ENDBRANCH  11  12
ENDBRANCH  10  11
ENDBRANCH   9  10
ENDBRANCH   8   9
ENDBRANCH   7   8
ENDBRANCH   6   7
ENDBRANCH   5   6
ENDBRANCH   4   5
ENDBRANCH   3   4
ENDBRANCH   2   3
ENDBRANCH   1   2
BRANCH   1  18
ATOM     18  C   UNL     1     110.817 110.822 117.085  1.00  0.00     0.000 C 
BRANCH  18  19
ATOM     19  C   UNL     1     110.277 110.421 118.471  1.00  0.00     0.000 C 
BRANCH  19  20
ATOM     20  C   UNL     1     109.680 111.579 119.296  1.00  0.00     0.000 C 
BRANCH  20  21
ATOM     21  C   UNL     1     110.688 112.664 119.718  1.00  0.00     0.000 C 
BRANCH  21  22
ATOM     22  C   UNL     1     110.690 113.002 121.220  1.00  0.00     0.000 C 
BRANCH  22  23
ATOM     23  C   UNL     1     111.940 112.483 121.950  1.00  0.00     0.000 C 
BRANCH  23  24
ATOM     24  C   UNL     1     111.707 111.072 122.513  1.00  0.00    -0.000 C 
BRANCH  24  25
ATOM     25  C   UNL     1     112.245 109.965 121.583  1.00  0.00    -0.000 C 
BRANCH  25  26
ATOM     26  C   UNL     1     113.740 109.657 121.778  1.00  0.00    -0.000 C 
BRANCH  26  27
ATOM     27  C   UNL     1     114.484 109.423 120.454  1.00  0.00    -0.000 C 
BRANCH  27  28
ATOM     28  C   UNL     1     113.725 109.981 119.240  1.00  0.00    -0.000 C 
BRANCH  28  29
ATOM     29  C   UNL     1     114.480 111.125 118.547  1.00  0.00    -0.000 C 
BRANCH  29  30
ATOM     30  C   UNL     1     114.353 112.430 119.349  1.00  0.00    -0.000 C 
BRANCH  30  31
ATOM     31  C   UNL     1     115.677 112.844 120.010  1.00  0.00    -0.003 C 
ATOM     32  C   UNL     1     115.544 113.047 121.519  1.00  0.00     0.004 C 
ENDBRANCH  30  31
ENDBRANCH  29  30
ENDBRANCH  28  29
ENDBRANCH  27  28
ENDBRANCH  26  27
ENDBRANCH  25  26
ENDBRANCH  24  25
ENDBRANCH  23  24
ENDBRANCH  22  23
ENDBRANCH  21  22
ENDBRANCH  20  21
ENDBRANCH  19  20
ENDBRANCH  18  19
ENDBRANCH   1  18
TORSDOF 28
ENDMDL
MODEL 7
REMARK VINA RESULT:    -4.063      3.243      4.503
REMARK INTER + INTRA:         -15.674
REMARK INTER:                  -9.419
REMARK INTRA:                  -6.256
REMARK UNBOUND:                -4.960
REMARK SMILES CCCCCCCCCCCCCCCCCCCCCCCCCCCCCC(=O)[O-]
REMARK SMILES IDX 16 1 17 2 18 3 19 4 20 5 21 6 22 7 23 8 24 9 25 10 26 11
REMARK SMILES IDX 27 12 28 13 29 14 30 15 31 16 32 17 15 18 14 19 13 20 12 21
REMARK SMILES IDX 11 22 10 23 9 24 8 25 7 26 6 27 5 28 4 29 3 30 2 31 1 32
REMARK H PARENT
REMARK Flexibility Score: inf
ROOT
ATOM      1  C   UNL     1     114.475 109.229 121.561  1.00  0.00     0.000 C 
ENDROOT
BRANCH   1   2
ATOM      2  C   UNL     1     113.246 110.034 121.094  1.00  0.00     0.000 C 
BRANCH   2   3
ATOM      3  C   UNL     1     111.995 109.882 121.980  1.00  0.00     0.000 C 
BRANCH   3   4
ATOM      4  C   UNL     1     111.543 111.170 122.697  1.00  0.00     0.000 C 
BRANCH   4   5
ATOM      5  C   UNL     1     111.911 112.478 121.974  1.00  0.00     0.000 C 
BRANCH   5   6
ATOM      6  C   UNL     1     110.753 113.035 121.127  1.00  0.00     0.000 C 
BRANCH   6   7
ATOM      7  C   UNL     1     110.784 112.536 119.674  1.00  0.00     0.000 C 
BRANCH   7   8
ATOM      8  C   UNL     1     109.558 111.676 119.320  1.00  0.00     0.000 C 
BRANCH   8   9
ATOM      9  C   UNL     1     109.897 110.472 118.415  1.00  0.00     0.000 C 
BRANCH   9  10
ATOM     10  C   UNL     1     111.385 110.377 118.014  1.00  0.00     0.000 C 
BRANCH  10  11
ATOM     11  C   UNL     1     111.640 110.253 116.502  1.00  0.00     0.000 C 
BRANCH  11  12
ATOM     12  C   UNL     1     111.772 108.790 116.021  1.00  0.00     0.000 C 
BRANCH  12  13
ATOM     13  C   UNL     1     113.043 108.572 115.188  1.00  0.00     0.006 C 
BRANCH  13  14
ATOM     14  C   UNL     1     113.902 107.445 115.773  1.00  0.00     0.053 C 
BRANCH  14  15
ATOM     15  C   UNL     1     114.906 106.967 114.771  1.00  0.00     0.041 C 
ATOM     16  O   UNL     1     114.540 106.672 113.601  1.00  0.00    -0.550 OA
ATOM     17  O   UNL     1     116.247 106.841 115.126  1.00  0.00    -0.550 OA
ENDBRANCH  14  15
ENDBRANCH  13  14
ENDBRANCH  12  13
ENDBRANCH  11  12
ENDBRANCH  10  11
ENDBRANCH   9  10
ENDBRANCH   8   9
ENDBRANCH   7   8
ENDBRANCH   6   7
ENDBRANCH   5   6
ENDBRANCH   4   5
ENDBRANCH   3   4
ENDBRANCH   2   3
ENDBRANCH   1   2
BRANCH   1  18
ATOM     18  C   UNL     1     115.774 110.046 121.704  1.00  0.00     0.000 C 
BRANCH  18  19
ATOM     19  C   UNL     1     115.727 111.169 122.758  1.00  0.00     0.000 C 
BRANCH  19  20
ATOM     20  C   UNL     1     115.931 112.593 122.201  1.00  0.00     0.000 C 
BRANCH  20  21
ATOM     21  C   UNL     1     115.955 112.692 120.663  1.00  0.00     0.000 C 
BRANCH  21  22
ATOM     22  C   UNL     1     114.795 113.493 120.045  1.00  0.00     0.000 C 
BRANCH  22  23
ATOM     23  C   UNL     1     114.246 112.857 118.757  1.00  0.00     0.000 C 
BRANCH  23  24
ATOM     24  C   UNL     1     115.356 112.682 117.709  1.00  0.00    -0.000 C 
BRANCH  24  25
ATOM     25  C   UNL     1     115.276 111.324 116.981  1.00  0.00    -0.000 C 
BRANCH  25  26
ATOM     26  C   UNL     1     115.052 110.124 117.918  1.00  0.00    -0.000 C 
BRANCH  26  27
ATOM     27  C   UNL     1     116.313 109.265 118.107  1.00  0.00    -0.000 C 
BRANCH  27  28
ATOM     28  C   UNL     1     117.416 109.598 117.090  1.00  0.00    -0.000 C 
BRANCH  28  29
ATOM     29  C   UNL     1     118.682 110.158 117.755  1.00  0.00    -0.000 C 
BRANCH  29  30
ATOM     30  C   UNL     1     118.458 110.383 119.258  1.00  0.00    -0.000 C 
BRANCH  30  31
ATOM     31  C   UNL     1     119.597 109.806 120.114  1.00  0.00    -0.003 C 
ATOM     32  C   UNL     1     119.413 110.085 121.605  1.00  0.00     0.004 C 
ENDBRANCH  30  31
ENDBRANCH  29  30
ENDBRANCH  28  29
ENDBRANCH  27  28
ENDBRANCH  26  27
ENDBRANCH  25  26
ENDBRANCH  24  25
ENDBRANCH  23  24
ENDBRANCH  22  23
ENDBRANCH  21  22
ENDBRANCH  20  21
ENDBRANCH  19  20
ENDBRANCH  18  19
ENDBRANCH   1  18
TORSDOF 28
ENDMDL
MODEL 8
REMARK VINA RESULT:    -4.061      2.350      4.987
REMARK INTER + INTRA:         -15.669
REMARK INTER:                 -11.397
REMARK INTRA:                  -4.271
REMARK UNBOUND:                -4.960
REMARK SMILES CCCCCCCCCCCCCCCCCCCCCCCCCCCCCC(=O)[O-]
REMARK SMILES IDX 16 1 17 2 18 3 19 4 20 5 21 6 22 7 23 8 24 9 25 10 26 11
REMARK SMILES IDX 27 12 28 13 29 14 30 15 31 16 32 17 15 18 14 19 13 20 12 21
REMARK SMILES IDX 11 22 10 23 9 24 8 25 7 26 6 27 5 28 4 29 3 30 2 31 1 32
REMARK H PARENT
REMARK Flexibility Score: inf
ROOT
ATOM      1  C   UNL     1     110.667 112.876 120.899  1.00  0.00     0.000 C 
ENDROOT
BRANCH   1   2
ATOM      2  C   UNL     1     110.933 112.618 119.402  1.00  0.00     0.000 C 
BRANCH   2   3
ATOM      3  C   UNL     1     109.909 111.698 118.710  1.00  0.00     0.000 C 
BRANCH   3   4
ATOM      4  C   UNL     1     110.479 110.364 118.190  1.00  0.00     0.000 C 
BRANCH   4   5
ATOM      5  C   UNL     1     109.431 109.266 117.934  1.00  0.00     0.000 C 
BRANCH   5   6
ATOM      6  C   UNL     1     107.997 109.819 117.854  1.00  0.00     0.000 C 
BRANCH   6   7
ATOM      7  C   UNL     1     107.088 109.278 118.968  1.00  0.00     0.000 C 
BRANCH   7   8
ATOM      8  C   UNL     1     106.945 107.746 118.919  1.00  0.00     0.000 C 
BRANCH   8   9
ATOM      9  C   UNL     1     105.514 107.277 118.579  1.00  0.00     0.000 C 
BRANCH   9  10
ATOM     10  C   UNL     1     104.918 107.924 117.310  1.00  0.00     0.000 C 
BRANCH  10  11
ATOM     11  C   UNL     1     103.380 107.954 117.263  1.00  0.00     0.000 C 
BRANCH  11  12
ATOM     12  C   UNL     1     102.807 109.317 116.811  1.00  0.00     0.000 C 
BRANCH  12  13
ATOM     13  C   UNL     1     103.822 110.124 115.991  1.00  0.00     0.006 C 
BRANCH  13  14
ATOM     14  C   UNL     1     103.132 110.894 114.859  1.00  0.00     0.053 C 
BRANCH  14  15
ATOM     15  C   UNL     1     102.947 112.333 115.231  1.00  0.00     0.041 C 
ATOM     16  O   UNL     1     103.905 112.985 115.728  1.00  0.00    -0.550 OA
ATOM     17  O   UNL     1     101.717 112.956 115.035  1.00  0.00    -0.550 OA
ENDBRANCH  14  15
ENDBRANCH  13  14
ENDBRANCH  12  13
ENDBRANCH  11  12
ENDBRANCH  10  11
ENDBRANCH   9  10
ENDBRANCH   8   9
ENDBRANCH   7   8
ENDBRANCH   6   7
ENDBRANCH   5   6
ENDBRANCH   4   5
ENDBRANCH   3   4
ENDBRANCH   2   3
ENDBRANCH   1   2
BRANCH   1  18
ATOM     18  C   UNL     1     111.868 112.615 121.830  1.00  0.00     0.000 C 
BRANCH  18  19
ATOM     19  C   UNL     1     111.762 111.342 122.692  1.00  0.00     0.000 C 
BRANCH  19  20
ATOM     20  C   UNL     1     111.903 110.017 121.916  1.00  0.00     0.000 C 
BRANCH  20  21
ATOM     21  C   UNL     1     113.137 109.930 120.997  1.00  0.00     0.000 C 
BRANCH  21  22
ATOM     22  C   UNL     1     114.348 109.197 121.602  1.00  0.00     0.000 C 
BRANCH  22  23
ATOM     23  C   UNL     1     115.628 110.048 121.596  1.00  0.00     0.000 C 
BRANCH  23  24
ATOM     24  C   UNL     1     115.558 111.163 122.651  1.00  0.00    -0.000 C 
BRANCH  24  25
ATOM     25  C   UNL     1     115.574 112.573 122.026  1.00  0.00    -0.000 C 
BRANCH  25  26
ATOM     26  C   UNL     1     115.796 112.580 120.503  1.00  0.00    -0.000 C 
BRANCH  26  27
ATOM     27  C   UNL     1     114.734 113.390 119.744  1.00  0.00    -0.000 C 
BRANCH  27  28
ATOM     28  C   UNL     1     114.581 112.946 118.280  1.00  0.00    -0.000 C 
BRANCH  28  29
ATOM     29  C   UNL     1     114.181 111.469 118.151  1.00  0.00    -0.000 C 
BRANCH  29  30
ATOM     30  C   UNL     1     115.181 110.704 117.270  1.00  0.00    -0.000 C 
BRANCH  30  31
ATOM     31  C   UNL     1     115.917 109.598 118.041  1.00  0.00    -0.003 C 
ATOM     32  C   UNL     1     117.301 109.299 117.466  1.00  0.00     0.004 C 
ENDBRANCH  30  31
ENDBRANCH  29  30
ENDBRANCH  28  29
ENDBRANCH  27  28
ENDBRANCH  26  27
ENDBRANCH  25  26
ENDBRANCH  24  25
ENDBRANCH  23  24
ENDBRANCH  22  23
ENDBRANCH  21  22
ENDBRANCH  20  21
ENDBRANCH  19  20
ENDBRANCH  18  19
ENDBRANCH   1  18
TORSDOF 28
ENDMDL
MODEL 9
REMARK VINA RESULT:    -4.057      2.194      5.742
REMARK INTER + INTRA:         -15.658
REMARK INTER:                 -10.451
REMARK INTRA:                  -5.206
REMARK UNBOUND:                -4.960
REMARK SMILES CCCCCCCCCCCCCCCCCCCCCCCCCCCCCC(=O)[O-]
REMARK SMILES IDX 16 1 17 2 18 3 19 4 20 5 21 6 22 7 23 8 24 9 25 10 26 11
REMARK SMILES IDX 27 12 28 13 29 14 30 15 31 16 32 17 15 18 14 19 13 20 12 21
REMARK SMILES IDX 11 22 10 23 9 24 8 25 7 26 6 27 5 28 4 29 3 30 2 31 1 32
REMARK H PARENT
REMARK Flexibility Score: inf
ROOT
ATOM      1  C   UNL     1     108.748 111.096 118.327  1.00  0.00     0.000 C 
ENDROOT
BRANCH   1   2
ATOM      2  C   UNL     1     107.656 110.119 118.808  1.00  0.00     0.000 C 
BRANCH   2   3
ATOM      3  C   UNL     1     108.158 108.703 119.151  1.00  0.00     0.000 C 
BRANCH   3   4
ATOM      4  C   UNL     1     107.134 107.806 119.874  1.00  0.00     0.000 C 
BRANCH   4   5
ATOM      5  C   UNL     1     105.811 107.590 119.117  1.00  0.00     0.000 C 
BRANCH   5   6
ATOM      6  C   UNL     1     105.965 106.649 117.908  1.00  0.00     0.000 C 
BRANCH   6   7
ATOM      7  C   UNL     1     104.926 106.918 116.808  1.00  0.00     0.000 C 
BRANCH   7   8
ATOM      8  C   UNL     1     103.836 107.907 117.258  1.00  0.00     0.000 C 
BRANCH   8   9
ATOM      9  C   UNL     1     103.729 109.151 116.351  1.00  0.00     0.000 C 
BRANCH   9  10
ATOM     10  C   UNL     1     104.900 110.147 116.495  1.00  0.00     0.000 C 
BRANCH  10  11
ATOM     11  C   UNL     1     105.574 110.546 115.171  1.00  0.00     0.000 C 
BRANCH  11  12
ATOM     12  C   UNL     1     106.424 109.415 114.549  1.00  0.00     0.000 C 
BRANCH  12  13
ATOM     13  C   UNL     1     107.687 109.127 115.371  1.00  0.00     0.006 C 
BRANCH  13  14
ATOM     14  C   UNL     1     108.202 107.705 115.116  1.00  0.00     0.053 C 
BRANCH  14  15
ATOM     15  C   UNL     1     109.362 107.392 116.009  1.00  0.00     0.041 C 
ATOM     16  O   UNL     1     110.182 108.298 116.321  1.00  0.00    -0.550 OA
ATOM     17  O   UNL     1     109.545 106.100 116.494  1.00  0.00    -0.550 OA
ENDBRANCH  14  15
ENDBRANCH  13  14
ENDBRANCH  12  13
ENDBRANCH  11  12
ENDBRANCH  10  11
ENDBRANCH   9  10
ENDBRANCH   8   9
ENDBRANCH   7   8
ENDBRANCH   6   7
ENDBRANCH   5   6
ENDBRANCH   4   5
ENDBRANCH   3   4
ENDBRANCH   2   3
ENDBRANCH   1   2
BRANCH   1  18
ATOM     18  C   UNL     1     110.013 111.145 119.207  1.00  0.00     0.000 C 
BRANCH  18  19
ATOM     19  C   UNL     1     110.435 112.555 119.665  1.00  0.00     0.000 C 
BRANCH  19  20
ATOM     20  C   UNL     1     110.693 112.697 121.179  1.00  0.00     0.000 C 
BRANCH  20  21
ATOM     21  C   UNL     1     112.136 112.387 121.623  1.00  0.00     0.000 C 
BRANCH  21  22
ATOM     22  C   UNL     1     112.342 110.990 122.236  1.00  0.00     0.000 C 
BRANCH  22  23
ATOM     23  C   UNL     1     112.778 109.940 121.202  1.00  0.00     0.000 C 
BRANCH  23  24
ATOM     24  C   UNL     1     114.066 109.227 121.644  1.00  0.00    -0.000 C 
BRANCH  24  25
ATOM     25  C   UNL     1     115.207 110.211 121.970  1.00  0.00    -0.000 C 
BRANCH  25  26
ATOM     26  C   UNL     1     115.980 110.705 120.734  1.00  0.00    -0.000 C 
BRANCH  26  27
ATOM     27  C   UNL     1     115.640 112.155 120.352  1.00  0.00    -0.000 C 
BRANCH  27  28
ATOM     28  C   UNL     1     115.405 112.333 118.844  1.00  0.00    -0.000 C 
BRANCH  28  29
ATOM     29  C   UNL     1     113.930 112.156 118.452  1.00  0.00    -0.000 C 
BRANCH  29  30
ATOM     30  C   UNL     1     113.791 111.197 117.260  1.00  0.00    -0.000 C 
BRANCH  30  31
ATOM     31  C   UNL     1     113.312 109.799 117.683  1.00  0.00    -0.003 C 
ATOM     32  C   UNL     1     114.467 108.823 117.905  1.00  0.00     0.004 C 
ENDBRANCH  30  31
ENDBRANCH  29  30
ENDBRANCH  28  29
ENDBRANCH  27  28
ENDBRANCH  26  27
ENDBRANCH  25  26
ENDBRANCH  24  25
ENDBRANCH  23  24
ENDBRANCH  22  23
ENDBRANCH  21  22
ENDBRANCH  20  21
ENDBRANCH  19  20
ENDBRANCH  18  19
ENDBRANCH   1  18
TORSDOF 28
ENDMDL
