MODEL 1
REMARK VINA RESULT:    37.954      0.000      0.000
REMARK INTER + INTRA:          47.386
REMARK INTER:                  46.829
REMARK INTRA:                   0.557
REMARK UNBOUND:                 0.557
REMARK SMILES COc1cc(-c2oc3cc(O)cc(O)c3c(=O)c2O)ccc1O
REMARK SMILES IDX 6 1 18 2 16 3 17 4 15 5 13 6 12 7 10 8 9 9 8 10 7 11 5 12
REMARK SMILES IDX 3 13 22 14 4 15 21 16 20 17 2 18 1 19 23 20 19 22 14 24
REMARK SMILES IDX 11 26
REMARK H PARENT 23 21 19 23 14 25 11 27
REMARK Flexibility Score: inf
ROOT
ATOM      1  C   UNL     1      15.861  49.796  58.922  1.00  0.00     0.180 A 
ATOM      2  C   UNL     1      14.955  50.725  58.378  1.00  0.00     0.208 A 
ATOM      3  C   UNL     1      14.925  52.029  58.899  1.00  0.00     0.238 A 
ATOM      4  O   UNL     1      14.125  52.873  58.411  1.00  0.00    -0.285 OA
ATOM      5  C   UNL     1      15.783  52.374  59.962  1.00  0.00     0.111 A 
ATOM      6  C   UNL     1      15.813  53.663  60.546  1.00  0.00     0.134 A 
ATOM      7  C   UNL     1      16.690  53.925  61.609  1.00  0.00     0.093 A 
ATOM      8  C   UNL     1      17.536  52.924  62.098  1.00  0.00     0.123 A 
ATOM      9  C   UNL     1      17.511  51.651  61.525  1.00  0.00     0.094 A 
ATOM     10  C   UNL     1      16.645  51.370  60.464  1.00  0.00     0.146 A 
ATOM     11  O   UNL     1      16.646  50.153  59.934  1.00  0.00    -0.452 OA
ENDROOT
BRANCH   1  12
ATOM     12  C   UNL     1      15.965  48.408  58.415  1.00  0.00     0.025 A 
ATOM     13  C   UNL     1      17.055  46.784  56.947  1.00  0.00     0.161 A 
ATOM     14  C   UNL     1      16.155  45.796  57.384  1.00  0.00     0.157 A 
ATOM     15  C   UNL     1      16.948  48.091  57.463  1.00  0.00     0.062 A 
ATOM     16  C   UNL     1      15.163  46.117  58.316  1.00  0.00     0.051 A 
ATOM     17  C   UNL     1      15.062  47.413  58.824  1.00  0.00     0.016 A 
BRANCH  13  18
ATOM     18  O   UNL     1      18.036  46.437  56.004  1.00  0.00    -0.493 OA
ATOM     19  C   UNL     1      18.373  45.102  55.643  1.00  0.00     0.278 C 
ENDBRANCH  13  18
BRANCH  14  20
ATOM     20  O   UNL     1      16.226  44.490  56.900  1.00  0.00    -0.504 OA
ATOM     21  H   UNL     1      16.879  43.811  57.272  1.00  0.00     0.293 HD
ENDBRANCH  14  20
ENDBRANCH   1  12
BRANCH   2  22
ATOM     22  O   UNL     1      14.080  50.344  57.357  1.00  0.00    -0.502 OA
ATOM     23  H   UNL     1      14.255  49.541  56.763  1.00  0.00     0.293 HD
ENDBRANCH   2  22
BRANCH   6  24
ATOM     24  O   UNL     1      14.981  54.682  60.081  1.00  0.00    -0.507 OA
ATOM     25  H   UNL     1      14.893  55.565  60.570  1.00  0.00     0.293 HD
ENDBRANCH   6  24
BRANCH   8  26
ATOM     26  O   UNL     1      18.408  53.184  63.154  1.00  0.00    -0.508 OA
ATOM     27  H   UNL     1      19.289  52.691  63.248  1.00  0.00     0.293 HD
ENDBRANCH   8  26
TORSDOF 6
ENDMDL
MODEL 2
REMARK VINA RESULT:    38.156      1.894      2.955
REMARK INTER + INTRA:          47.635
REMARK INTER:                  47.024
REMARK INTRA:                   0.611
REMARK UNBOUND:                 0.557
REMARK SMILES COc1cc(-c2oc3cc(O)cc(O)c3c(=O)c2O)ccc1O
REMARK SMILES IDX 6 1 18 2 16 3 17 4 15 5 13 6 12 7 10 8 9 9 8 10 7 11 5 12
REMARK SMILES IDX 3 13 22 14 4 15 21 16 20 17 2 18 1 19 23 20 19 22 14 24
REMARK SMILES IDX 11 26
REMARK H PARENT 23 21 19 23 14 25 11 27
REMARK Flexibility Score: inf
ROOT
ATOM      1  C   UNL     1      16.066  49.185  59.679  1.00  0.00     0.180 A 
ATOM      2  C   UNL     1      15.492  48.947  60.942  1.00  0.00     0.208 A 
ATOM      3  C   UNL     1      14.961  50.030  61.661  1.00  0.00     0.238 A 
ATOM      4  O   UNL     1      14.433  49.826  62.788  1.00  0.00    -0.285 OA
ATOM      5  C   UNL     1      15.030  51.329  61.117  1.00  0.00     0.111 A 
ATOM      6  C   UNL     1      14.523  52.473  61.778  1.00  0.00     0.134 A 
ATOM      7  C   UNL     1      14.640  53.734  61.175  1.00  0.00     0.093 A 
ATOM      8  C   UNL     1      15.254  53.871  59.925  1.00  0.00     0.123 A 
ATOM      9  C   UNL     1      15.755  52.745  59.269  1.00  0.00     0.094 A 
ATOM     10  C   UNL     1      15.647  51.480  59.853  1.00  0.00     0.146 A 
ATOM     11  O   UNL     1      16.128  50.426  59.204  1.00  0.00    -0.452 OA
ENDROOT
BRANCH   1  12
ATOM     12  C   UNL     1      16.632  48.094  58.852  1.00  0.00     0.025 A 
ATOM     13  C   UNL     1      16.278  46.226  57.314  1.00  0.00     0.161 A 
ATOM     14  C   UNL     1      17.661  45.973  57.316  1.00  0.00     0.157 A 
ATOM     15  C   UNL     1      15.771  47.286  58.092  1.00  0.00     0.062 A 
ATOM     16  C   UNL     1      18.516  46.764  58.090  1.00  0.00     0.051 A 
ATOM     17  C   UNL     1      18.007  47.813  58.858  1.00  0.00     0.016 A 
BRANCH  13  18
ATOM     18  O   UNL     1      15.442  45.410  56.534  1.00  0.00    -0.493 OA
ATOM     19  C   UNL     1      15.891  44.322  55.735  1.00  0.00     0.278 C 
ENDBRANCH  13  18
BRANCH  14  20
ATOM     20  O   UNL     1      18.206  44.935  56.561  1.00  0.00    -0.504 OA
ATOM     21  H   UNL     1      17.763  44.591  55.717  1.00  0.00     0.293 HD
ENDBRANCH  14  20
ENDBRANCH   1  12
BRANCH   2  22
ATOM     22  O   UNL     1      15.479  47.658  61.480  1.00  0.00    -0.502 OA
ATOM     23  H   UNL     1      16.318  47.095  61.563  1.00  0.00     0.293 HD
ENDBRANCH   2  22
BRANCH   6  24
ATOM     24  O   UNL     1      13.906  52.367  63.025  1.00  0.00    -0.507 OA
ATOM     25  H   UNL     1      14.293  52.810  63.851  1.00  0.00     0.293 HD
ENDBRANCH   6  24
BRANCH   8  26
ATOM     26  O   UNL     1      15.370  55.124  59.325  1.00  0.00    -0.508 OA
ATOM     27  H   UNL     1      15.882  55.878  59.768  1.00  0.00     0.293 HD
ENDBRANCH   8  26
TORSDOF 6
ENDMDL
MODEL 3
REMARK VINA RESULT:    39.669      2.013      2.968
REMARK INTER + INTRA:          49.502
REMARK INTER:                  49.813
REMARK INTRA:                  -0.311
REMARK UNBOUND:                 0.557
REMARK SMILES COc1cc(-c2oc3cc(O)cc(O)c3c(=O)c2O)ccc1O
REMARK SMILES IDX 6 1 18 2 16 3 17 4 15 5 13 6 12 7 10 8 9 9 8 10 7 11 5 12
REMARK SMILES IDX 3 13 22 14 4 15 21 16 20 17 2 18 1 19 23 20 19 22 14 24
REMARK SMILES IDX 11 26
REMARK H PARENT 23 21 19 23 14 25 11 27
REMARK Flexibility Score: inf
ROOT
ATOM      1  C   UNL     1      16.719  49.838  59.496  1.00  0.00     0.180 A 
ATOM      2  C   UNL     1      17.841  50.655  59.727  1.00  0.00     0.208 A 
ATOM      3  C   UNL     1      17.733  51.715  60.642  1.00  0.00     0.238 A 
ATOM      4  O   UNL     1      18.735  52.446  60.865  1.00  0.00    -0.285 OA
ATOM      5  C   UNL     1      16.505  51.949  61.294  1.00  0.00     0.111 A 
ATOM      6  C   UNL     1      16.311  52.996  62.226  1.00  0.00     0.134 A 
ATOM      7  C   UNL     1      15.055  53.171  62.825  1.00  0.00     0.093 A 
ATOM      8  C   UNL     1      13.990  52.319  62.509  1.00  0.00     0.123 A 
ATOM      9  C   UNL     1      14.177  51.284  61.591  1.00  0.00     0.094 A 
ATOM     10  C   UNL     1      15.422  51.094  60.984  1.00  0.00     0.146 A 
ATOM     11  O   UNL     1      15.573  50.098  60.118  1.00  0.00    -0.452 OA
ENDROOT
BRANCH   1  12
ATOM     12  C   UNL     1      16.759  48.691  58.560  1.00  0.00     0.025 A 
ATOM     13  C   UNL     1      17.532  46.429  58.040  1.00  0.00     0.161 A 
ATOM     14  C   UNL     1      16.908  46.514  56.783  1.00  0.00     0.157 A 
ATOM     15  C   UNL     1      17.458  47.527  58.921  1.00  0.00     0.062 A 
ATOM     16  C   UNL     1      16.230  47.681  56.415  1.00  0.00     0.051 A 
ATOM     17  C   UNL     1      16.160  48.764  57.292  1.00  0.00     0.016 A 
BRANCH  13  18
ATOM     18  O   UNL     1      18.214  45.249  58.380  1.00  0.00    -0.493 OA
ATOM     19  C   UNL     1      19.347  45.189  59.240  1.00  0.00     0.278 C 
ENDBRANCH  13  18
BRANCH  14  20
ATOM     20  O   UNL     1      16.956  45.451  55.881  1.00  0.00    -0.504 OA
ATOM     21  H   UNL     1      17.092  44.493  56.182  1.00  0.00     0.293 HD
ENDBRANCH  14  20
ENDBRANCH   1  12
BRANCH   2  22
ATOM     22  O   UNL     1      19.032  50.432  59.032  1.00  0.00    -0.502 OA
ATOM     23  H   UNL     1      19.384  49.500  58.842  1.00  0.00     0.293 HD
ENDBRANCH   2  22
BRANCH   6  24
ATOM     24  O   UNL     1      17.353  53.862  62.560  1.00  0.00    -0.507 OA
ATOM     25  H   UNL     1      17.886  54.355  61.852  1.00  0.00     0.293 HD
ENDBRANCH   6  24
BRANCH   8  26
ATOM     26  O   UNL     1      12.742  52.492  63.104  1.00  0.00    -0.508 OA
ATOM     27  H   UNL     1      12.630  53.029  63.956  1.00  0.00     0.293 HD
ENDBRANCH   8  26
TORSDOF 6
ENDMDL
