MODEL 1
REMARK VINA RESULT:    -4.584      0.000      0.000
REMARK INTER + INTRA:          -5.288
REMARK INTER:                  -4.985
REMARK INTRA:                  -0.302
REMARK UNBOUND:                -0.302
REMARK SMILES CC(=O)c1cc(C)ccc1O
REMARK SMILES IDX 7 1 6 2 5 3 4 4 10 5 9 6 8 7 2 8 3 9 1 10 11 11
REMARK H PARENT 11 12
REMARK Flexibility Score: inf
ROOT
ATOM      1  C   UNL     1      82.492  30.478  64.374  1.00  0.00     0.044 C 
ATOM      2  C   UNL     1      83.586  30.929  65.296  1.00  0.00    -0.050 A 
ATOM      3  C   UNL     1      84.921  30.590  65.026  1.00  0.00     0.019 A 
ATOM      4  C   UNL     1      85.959  30.976  65.898  1.00  0.00     0.059 A 
ATOM      5  C   UNL     1      85.628  31.702  67.067  1.00  0.00     0.126 A 
ATOM      6  C   UNL     1      84.290  32.024  67.338  1.00  0.00     0.047 A 
ATOM      7  C   UNL     1      83.277  31.634  66.464  1.00  0.00     0.007 A 
ENDROOT
BRANCH   4   8
ATOM      8  C   UNL     1      87.374  30.622  65.585  1.00  0.00     0.163 C 
ATOM      9  O   UNL     1      88.125  30.161  66.487  1.00  0.00    -0.294 OA
ATOM     10  C   UNL     1      87.955  30.831  64.219  1.00  0.00     0.093 C 
ENDBRANCH   4   8
BRANCH   5  11
ATOM     11  O   UNL     1      86.619  32.094  67.968  1.00  0.00    -0.507 OA
ATOM     12  H   UNL     1      86.985  31.458  68.668  1.00  0.00     0.293 HD
ENDBRANCH   5  11
TORSDOF 2
ENDMDL
MODEL 2
REMARK VINA RESULT:    -4.217      1.563      3.730
REMARK INTER + INTRA:          -4.890
REMARK INTER:                  -4.661
REMARK INTRA:                  -0.229
REMARK UNBOUND:                -0.302
REMARK SMILES CC(=O)c1cc(C)ccc1O
REMARK SMILES IDX 7 1 6 2 5 3 4 4 10 5 9 6 8 7 2 8 3 9 1 10 11 11
REMARK H PARENT 11 12
REMARK Flexibility Score: inf
ROOT
ATOM      1  C   UNL     1      88.125  30.710  63.644  1.00  0.00     0.044 C 
ATOM      2  C   UNL     1      87.256  31.023  64.826  1.00  0.00    -0.050 A 
ATOM      3  C   UNL     1      85.859  31.028  64.694  1.00  0.00     0.019 A 
ATOM      4  C   UNL     1      85.027  31.353  65.786  1.00  0.00     0.059 A 
ATOM      5  C   UNL     1      85.630  31.692  67.020  1.00  0.00     0.126 A 
ATOM      6  C   UNL     1      87.027  31.700  67.141  1.00  0.00     0.047 A 
ATOM      7  C   UNL     1      87.834  31.375  66.051  1.00  0.00     0.007 A 
ENDROOT
BRANCH   4   8
ATOM      8  C   UNL     1      83.544  31.335  65.631  1.00  0.00     0.163 C 
ATOM      9  O   UNL     1      82.821  32.043  66.383  1.00  0.00    -0.294 OA
ATOM     10  C   UNL     1      82.868  30.463  64.616  1.00  0.00     0.093 C 
ENDBRANCH   4   8
BRANCH   5  11
ATOM     11  O   UNL     1      84.849  32.035  68.125  1.00  0.00    -0.507 OA
ATOM     12  H   UNL     1      85.243  32.505  68.931  1.00  0.00     0.293 HD
ENDBRANCH   5  11
TORSDOF 2
ENDMDL
MODEL 3
REMARK VINA RESULT:    -4.192      2.329      4.413
REMARK INTER + INTRA:          -4.862
REMARK INTER:                  -4.578
REMARK INTRA:                  -0.284
REMARK UNBOUND:                -0.302
REMARK SMILES CC(=O)c1cc(C)ccc1O
REMARK SMILES IDX 7 1 6 2 5 3 4 4 10 5 9 6 8 7 2 8 3 9 1 10 11 11
REMARK H PARENT 11 12
REMARK Flexibility Score: inf
ROOT
ATOM      1  C   UNL     1      88.125  34.006  65.175  1.00  0.00     0.044 C 
ATOM      2  C   UNL     1      87.327  32.737  65.104  1.00  0.00    -0.050 A 
ATOM      3  C   UNL     1      85.972  32.734  65.468  1.00  0.00     0.019 A 
ATOM      4  C   UNL     1      85.215  31.545  65.439  1.00  0.00     0.059 A 
ATOM      5  C   UNL     1      85.854  30.344  65.051  1.00  0.00     0.126 A 
ATOM      6  C   UNL     1      87.213  30.351  64.704  1.00  0.00     0.047 A 
ATOM      7  C   UNL     1      87.945  31.537  64.737  1.00  0.00     0.007 A 
ENDROOT
BRANCH   4   8
ATOM      8  C   UNL     1      83.771  31.565  65.812  1.00  0.00     0.163 C 
ATOM      9  O   UNL     1      82.891  31.290  64.951  1.00  0.00    -0.294 OA
ATOM     10  C   UNL     1      83.317  31.941  67.190  1.00  0.00     0.093 C 
ENDBRANCH   4   8
BRANCH   5  11
ATOM     11  O   UNL     1      85.150  29.139  65.021  1.00  0.00    -0.507 OA
ATOM     12  H   UNL     1      85.284  28.425  65.728  1.00  0.00     0.293 HD
ENDBRANCH   5  11
TORSDOF 2
ENDMDL
MODEL 4
REMARK VINA RESULT:    -4.091      2.783      4.123
REMARK INTER + INTRA:          -4.752
REMARK INTER:                  -4.546
REMARK INTRA:                  -0.206
REMARK UNBOUND:                -0.302
REMARK SMILES CC(=O)c1cc(C)ccc1O
REMARK SMILES IDX 7 1 6 2 5 3 4 4 10 5 9 6 8 7 2 8 3 9 1 10 11 11
REMARK H PARENT 11 12
REMARK Flexibility Score: inf
ROOT
ATOM      1  C   UNL     1      88.123  30.451  66.183  1.00  0.00     0.044 C 
ATOM      2  C   UNL     1      86.820  30.993  65.673  1.00  0.00    -0.050 A 
ATOM      3  C   UNL     1      85.753  30.124  65.400  1.00  0.00     0.019 A 
ATOM      4  C   UNL     1      84.532  30.612  64.889  1.00  0.00     0.059 A 
ATOM      5  C   UNL     1      84.407  31.999  64.639  1.00  0.00     0.126 A 
ATOM      6  C   UNL     1      85.483  32.859  64.900  1.00  0.00     0.047 A 
ATOM      7  C   UNL     1      86.682  32.359  65.406  1.00  0.00     0.007 A 
ENDROOT
BRANCH   4   8
ATOM      8  C   UNL     1      83.403  29.675  64.622  1.00  0.00     0.163 C 
ATOM      9  O   UNL     1      82.219  30.108  64.573  1.00  0.00    -0.294 OA
ATOM     10  C   UNL     1      83.624  28.204  64.440  1.00  0.00     0.093 C 
ENDBRANCH   4   8
BRANCH   5  11
ATOM     11  O   UNL     1      83.224  32.526  64.120  1.00  0.00    -0.507 OA
ATOM     12  H   UNL     1      82.890  32.280  63.196  1.00  0.00     0.293 HD
ENDBRANCH   5  11
TORSDOF 2
ENDMDL
MODEL 5
REMARK VINA RESULT:    -3.750      2.709      3.955
REMARK INTER + INTRA:          -4.382
REMARK INTER:                  -4.103
REMARK INTRA:                  -0.279
REMARK UNBOUND:                -0.302
REMARK SMILES CC(=O)c1cc(C)ccc1O
REMARK SMILES IDX 7 1 6 2 5 3 4 4 10 5 9 6 8 7 2 8 3 9 1 10 11 11
REMARK H PARENT 11 12
REMARK Flexibility Score: inf
ROOT
ATOM      1  C   UNL     1      87.108  32.471  65.905  1.00  0.00     0.044 C 
ATOM      2  C   UNL     1      85.715  32.023  66.236  1.00  0.00    -0.050 A 
ATOM      3  C   UNL     1      84.967  31.294  65.299  1.00  0.00     0.019 A 
ATOM      4  C   UNL     1      83.644  30.893  65.579  1.00  0.00     0.059 A 
ATOM      5  C   UNL     1      83.075  31.256  66.823  1.00  0.00     0.126 A 
ATOM      6  C   UNL     1      83.822  31.998  67.748  1.00  0.00     0.047 A 
ATOM      7  C   UNL     1      85.129  32.385  67.454  1.00  0.00     0.007 A 
ENDROOT
BRANCH   4   8
ATOM      8  C   UNL     1      82.871  30.102  64.578  1.00  0.00     0.163 C 
ATOM      9  O   UNL     1      81.866  30.610  64.010  1.00  0.00    -0.294 OA
ATOM     10  C   UNL     1      83.232  28.687  64.242  1.00  0.00     0.093 C 
ENDBRANCH   4   8
BRANCH   5  11
ATOM     11  O   UNL     1      81.764  30.895  67.140  1.00  0.00    -0.507 OA
ATOM     12  H   UNL     1      81.036  30.856  66.436  1.00  0.00     0.293 HD
ENDBRANCH   5  11
TORSDOF 2
ENDMDL
MODEL 6
REMARK VINA RESULT:    -3.590     15.112     16.741
REMARK INTER + INTRA:          -4.207
REMARK INTER:                  -3.899
REMARK INTRA:                  -0.308
REMARK UNBOUND:                -0.302
REMARK SMILES CC(=O)c1cc(C)ccc1O
REMARK SMILES IDX 7 1 6 2 5 3 4 4 10 5 9 6 8 7 2 8 3 9 1 10 11 11
REMARK H PARENT 11 12
REMARK Flexibility Score: inf
ROOT
ATOM      1  C   UNL     1      75.682  35.810  52.217  1.00  0.00     0.044 C 
ATOM      2  C   UNL     1      76.960  35.454  51.518  1.00  0.00    -0.050 A 
ATOM      3  C   UNL     1      77.822  34.494  52.068  1.00  0.00     0.019 A 
ATOM      4  C   UNL     1      79.044  34.170  51.442  1.00  0.00     0.059 A 
ATOM      5  C   UNL     1      79.396  34.849  50.251  1.00  0.00     0.126 A 
ATOM      6  C   UNL     1      78.537  35.820  49.716  1.00  0.00     0.047 A 
ATOM      7  C   UNL     1      77.333  36.125  50.348  1.00  0.00     0.007 A 
ENDROOT
BRANCH   4   8
ATOM      8  C   UNL     1      79.939  33.133  52.032  1.00  0.00     0.163 C 
ATOM      9  O   UNL     1      81.149  33.400  52.265  1.00  0.00    -0.294 OA
ATOM     10  C   UNL     1      79.450  31.748  52.331  1.00  0.00     0.093 C 
ENDBRANCH   4   8
BRANCH   5  11
ATOM     11  O   UNL     1      80.602  34.574  49.604  1.00  0.00    -0.507 OA
ATOM     12  H   UNL     1      80.629  34.131  48.693  1.00  0.00     0.293 HD
ENDBRANCH   5  11
TORSDOF 2
ENDMDL
MODEL 7
REMARK VINA RESULT:    -3.504     15.489     17.194
REMARK INTER + INTRA:          -4.113
REMARK INTER:                  -3.822
REMARK INTRA:                  -0.291
REMARK UNBOUND:                -0.302
REMARK SMILES CC(=O)c1cc(C)ccc1O
REMARK SMILES IDX 7 1 6 2 5 3 4 4 10 5 9 6 8 7 2 8 3 9 1 10 11 11
REMARK H PARENT 11 12
REMARK Flexibility Score: inf
ROOT
ATOM      1  C   UNL     1      79.831  31.712  52.789  1.00  0.00     0.044 C 
ATOM      2  C   UNL     1      79.687  32.888  51.869  1.00  0.00    -0.050 A 
ATOM      3  C   UNL     1      78.557  33.716  51.954  1.00  0.00     0.019 A 
ATOM      4  C   UNL     1      78.388  34.807  51.075  1.00  0.00     0.059 A 
ATOM      5  C   UNL     1      79.376  35.042  50.090  1.00  0.00     0.126 A 
ATOM      6  C   UNL     1      80.494  34.201  50.001  1.00  0.00     0.047 A 
ATOM      7  C   UNL     1      80.645  33.128  50.878  1.00  0.00     0.007 A 
ENDROOT
BRANCH   4   8
ATOM      8  C   UNL     1      77.190  35.687  51.193  1.00  0.00     0.163 C 
ATOM      9  O   UNL     1      76.623  36.125  50.155  1.00  0.00    -0.294 OA
ATOM     10  C   UNL     1      76.646  36.105  52.526  1.00  0.00     0.093 C 
ENDBRANCH   4   8
BRANCH   5  11
ATOM     11  O   UNL     1      79.246  36.100  49.188  1.00  0.00    -0.507 OA
ATOM     12  H   UNL     1      80.053  36.587  48.817  1.00  0.00     0.293 HD
ENDBRANCH   5  11
TORSDOF 2
ENDMDL
MODEL 8
REMARK VINA RESULT:    -3.469      2.214      4.154
REMARK INTER + INTRA:          -4.075
REMARK INTER:                  -3.772
REMARK INTRA:                  -0.304
REMARK UNBOUND:                -0.302
REMARK SMILES CC(=O)c1cc(C)ccc1O
REMARK SMILES IDX 7 1 6 2 5 3 4 4 10 5 9 6 8 7 2 8 3 9 1 10 11 11
REMARK H PARENT 11 12
REMARK Flexibility Score: inf
ROOT
ATOM      1  C   UNL     1      88.125  28.325  65.075  1.00  0.00     0.044 C 
ATOM      2  C   UNL     1      87.414  29.638  64.928  1.00  0.00    -0.050 A 
ATOM      3  C   UNL     1      86.023  29.710  65.094  1.00  0.00     0.019 A 
ATOM      4  C   UNL     1      85.333  30.929  64.928  1.00  0.00     0.059 A 
ATOM      5  C   UNL     1      86.072  32.082  64.571  1.00  0.00     0.126 A 
ATOM      6  C   UNL     1      87.460  32.000  64.392  1.00  0.00     0.047 A 
ATOM      7  C   UNL     1      88.125  30.786  64.561  1.00  0.00     0.007 A 
ENDROOT
BRANCH   4   8
ATOM      8  C   UNL     1      83.857  30.989  65.127  1.00  0.00     0.163 C 
ATOM      9  O   UNL     1      83.363  31.799  65.959  1.00  0.00    -0.294 OA
ATOM     10  C   UNL     1      82.923  30.081  64.385  1.00  0.00     0.093 C 
ENDBRANCH   4   8
BRANCH   5  11
ATOM     11  O   UNL     1      85.432  33.308  64.381  1.00  0.00    -0.507 OA
ATOM     12  H   UNL     1      84.459  33.365  64.104  1.00  0.00     0.293 HD
ENDBRANCH   5  11
TORSDOF 2
ENDMDL
