MODEL 1
REMARK VINA RESULT:    31.111      0.000      0.000
REMARK INTER + INTRA:          34.718
REMARK INTER:                  33.839
REMARK INTRA:                   0.879
REMARK UNBOUND:                 0.879
REMARK SMILES CC1(C)CC[C@]2(C(=O)[O-])CC[C@]3(C)C(=CC[C@H]4[C@]5(C)CC[C@@H](O)C(C)(C)[C@@H]5CC[C@@]43C)[C@H]2C1
REMARK SMILES IDX 6 1 5 2 10 3 32 4 4 5 11 6 14 7 33 8 2 9 12 10 15 11 1 12
REMARK SMILES IDX 3 13 13 14 30 15 16 16 17 17 29 18 31 19 18 20 28 21 27 22
REMARK SMILES IDX 20 23 19 24 24 25 21 26 22 27 25 28 26 29 7 30 8 31 9 32
REMARK SMILES IDX 23 33
REMARK H PARENT 23 34
REMARK Flexibility Score: inf
ROOT
ATOM      1  C   UNL     1      25.263  -2.578  15.596  1.00  0.00     0.017 C 
ATOM      2  C   UNL     1      26.125  -2.990  16.854  1.00  0.00     0.014 C 
ATOM      3  C   UNL     1      25.603  -1.111  15.133  1.00  0.00     0.014 C 
ATOM      4  C   UNL     1      23.749  -2.692  15.968  1.00  0.00     0.028 C 
ATOM      5  C   UNL     1      25.345  -3.699  17.982  1.00  0.00     0.007 C 
ATOM      6  C   UNL     1      24.477  -0.076  15.371  1.00  0.00     0.013 C 
ATOM      7  C   UNL     1      22.885  -1.989  14.919  1.00  0.00    -0.064 C 
ATOM      8  C   UNL     1      23.363  -4.139  16.376  1.00  0.00     0.015 C 
ATOM      9  C   UNL     1      24.315  -4.746  17.466  1.00  0.00    -0.035 C 
ATOM     10  C   UNL     1      23.069  -0.458  14.758  1.00  0.00    -0.006 C 
ATOM     11  C   UNL     1      22.008  -2.667  14.149  1.00  0.00    -0.027 C 
ATOM     12  C   UNL     1      25.067  -5.973  16.897  1.00  0.00     0.011 C 
ATOM     13  C   UNL     1      23.477  -5.224  18.672  1.00  0.00     0.011 C 
ATOM     14  C   UNL     1      22.018   0.130  15.754  1.00  0.00     0.017 C 
ATOM     15  C   UNL     1      22.826   0.070  13.201  1.00  0.00    -0.020 C 
ATOM     16  C   UNL     1      21.450  -2.054  12.904  1.00  0.00     0.032 C 
ATOM     17  C   UNL     1      22.562  -1.182  12.263  1.00  0.00     0.006 C 
ATOM     18  C   UNL     1      24.048   0.839  12.609  1.00  0.00     0.008 C 
ATOM     19  C   UNL     1      21.645   1.105  13.153  1.00  0.00     0.012 C 
ATOM     20  C   UNL     1      22.461  -0.943  10.692  1.00  0.00    -0.025 C 
ATOM     21  C   UNL     1      23.992   1.123  11.089  1.00  0.00     0.005 C 
ATOM     22  C   UNL     1      23.720  -0.112  10.182  1.00  0.00     0.003 C 
ATOM     23  C   UNL     1      22.379  -2.292   9.896  1.00  0.00     0.010 C 
ATOM     24  C   UNL     1      21.141  -0.178  10.333  1.00  0.00     0.012 C 
ATOM     25  C   UNL     1      25.054  -0.905   9.770  1.00  0.00    -0.006 C 
ATOM     26  C   UNL     1      23.690  -3.064   9.831  1.00  0.00     0.033 C 
ATOM     27  C   UNL     1      24.726  -2.252   9.053  1.00  0.00     0.120 C 
ATOM     28  C   UNL     1      25.883  -0.044   8.770  1.00  0.00     0.014 C 
ATOM     29  C   UNL     1      26.011  -1.210  10.955  1.00  0.00     0.014 C 
ENDROOT
BRANCH   1  30
ATOM     30  C   UNL     1      25.628  -3.493  14.423  1.00  0.00     0.048 C 
ATOM     31  O   UNL     1      25.901  -4.711  14.601  1.00  0.00    -0.550 OA
ATOM     32  O   UNL     1      25.520  -3.024  13.118  1.00  0.00    -0.550 OA
ENDBRANCH   1  30
BRANCH  27  33
ATOM     33  O   UNL     1      24.264  -2.018   7.742  1.00  0.00    -0.393 OA
ATOM     34  H   UNL     1      23.703  -1.201   7.772  1.00  0.00     0.210 HD
ENDBRANCH  27  33
TORSDOF 2
ENDMDL
