MODEL 1
REMARK VINA RESULT:    -4.688      0.000      0.000
REMARK INTER + INTRA:          -5.051
REMARK INTER:                  -4.963
REMARK INTRA:                  -0.089
REMARK UNBOUND:                -0.089
REMARK SMILES C=C(C)[C@H]1CC=C(C)C(=O)C1
REMARK SMILES IDX 8 1 7 2 6 3 5 4 4 5 11 6 9 7 10 8 2 9 1 10 3 11
REMARK H PARENT
REMARK Flexibility Score: inf
ROOT
ATOM      1  C   UNL     1      13.645  18.001  30.126  1.00  0.00     0.048 C 
ATOM      2  C   UNL     1      14.758  18.758  30.798  1.00  0.00    -0.012 C 
ATOM      3  C   UNL     1      15.874  19.067  30.115  1.00  0.00    -0.019 C 
ATOM      4  C   UNL     1      17.046  19.752  30.767  1.00  0.00     0.036 C 
ATOM      5  C   UNL     1      16.585  20.672  31.914  1.00  0.00     0.025 C 
ATOM      6  C   UNL     1      15.735  19.880  32.926  1.00  0.00     0.089 C 
ATOM      7  C   UNL     1      14.628  19.141  32.226  1.00  0.00     0.158 C 
ATOM      8  O   UNL     1      13.602  18.810  32.879  1.00  0.00    -0.295 OA
ENDROOT
BRANCH   5   9
ATOM      9  C   UNL     1      17.764  21.362  32.590  1.00  0.00    -0.077 C 
ATOM     10  C   UNL     1      17.804  22.697  32.733  1.00  0.00     0.008 C 
ATOM     11  C   UNL     1      18.918  20.546  33.114  1.00  0.00     0.039 C 
ENDBRANCH   5   9
TORSDOF 1
ENDMDL
MODEL 2
REMARK VINA RESULT:    -4.553     14.014     15.778
REMARK INTER + INTRA:          -4.908
REMARK INTER:                  -4.813
REMARK INTRA:                  -0.095
REMARK UNBOUND:                -0.089
REMARK SMILES C=C(C)[C@H]1CC=C(C)C(=O)C1
REMARK SMILES IDX 8 1 7 2 6 3 5 4 4 5 11 6 9 7 10 8 2 9 1 10 3 11
REMARK H PARENT
REMARK Flexibility Score: inf
ROOT
ATOM      1  C   UNL     1       9.361  19.164  16.205  1.00  0.00     0.048 C 
ATOM      2  C   UNL     1      10.842  19.073  16.454  1.00  0.00    -0.012 C 
ATOM      3  C   UNL     1      11.376  19.621  17.560  1.00  0.00    -0.019 C 
ATOM      4  C   UNL     1      12.860  19.626  17.811  1.00  0.00     0.036 C 
ATOM      5  C   UNL     1      13.536  18.394  17.179  1.00  0.00     0.025 C 
ATOM      6  C   UNL     1      13.200  18.312  15.677  1.00  0.00     0.089 C 
ATOM      7  C   UNL     1      11.713  18.397  15.462  1.00  0.00     0.158 C 
ATOM      8  O   UNL     1      11.219  17.925  14.403  1.00  0.00    -0.295 OA
ENDROOT
BRANCH   5   9
ATOM      9  C   UNL     1      15.041  18.394  17.417  1.00  0.00    -0.077 C 
ATOM     10  C   UNL     1      15.562  18.757  18.602  1.00  0.00     0.008 C 
ATOM     11  C   UNL     1      15.981  17.981  16.313  1.00  0.00     0.039 C 
ENDBRANCH   5   9
TORSDOF 1
ENDMDL
MODEL 3
REMARK VINA RESULT:    -4.388     14.643     16.093
REMARK INTER + INTRA:          -4.733
REMARK INTER:                  -4.639
REMARK INTRA:                  -0.093
REMARK UNBOUND:                -0.089
REMARK SMILES C=C(C)[C@H]1CC=C(C)C(=O)C1
REMARK SMILES IDX 8 1 7 2 6 3 5 4 4 5 11 6 9 7 10 8 2 9 1 10 3 11
REMARK H PARENT
REMARK Flexibility Score: inf
ROOT
ATOM      1  C   UNL     1      11.740  20.211  17.741  1.00  0.00     0.048 C 
ATOM      2  C   UNL     1      12.733  19.213  17.208  1.00  0.00    -0.012 C 
ATOM      3  C   UNL     1      13.889  18.996  17.860  1.00  0.00    -0.019 C 
ATOM      4  C   UNL     1      14.946  18.068  17.323  1.00  0.00     0.036 C 
ATOM      5  C   UNL     1      14.319  16.926  16.500  1.00  0.00     0.025 C 
ATOM      6  C   UNL     1      13.425  17.500  15.384  1.00  0.00     0.089 C 
ATOM      7  C   UNL     1      12.439  18.487  15.948  1.00  0.00     0.158 C 
ATOM      8  O   UNL     1      11.378  18.725  15.312  1.00  0.00    -0.295 OA
ENDROOT
BRANCH   5   9
ATOM      9  C   UNL     1      15.380  15.986  15.942  1.00  0.00    -0.077 C 
ATOM     10  C   UNL     1      16.521  16.457  15.410  1.00  0.00     0.008 C 
ATOM     11  C   UNL     1      15.163  14.496  15.978  1.00  0.00     0.039 C 
ENDBRANCH   5   9
TORSDOF 1
ENDMDL
MODEL 4
REMARK VINA RESULT:    -4.199     16.814     18.188
REMARK INTER + INTRA:          -4.534
REMARK INTER:                  -4.437
REMARK INTRA:                  -0.097
REMARK UNBOUND:                -0.089
REMARK SMILES C=C(C)[C@H]1CC=C(C)C(=O)C1
REMARK SMILES IDX 8 1 7 2 6 3 5 4 4 5 11 6 9 7 10 8 2 9 1 10 3 11
REMARK H PARENT
REMARK Flexibility Score: inf
ROOT
ATOM      1  C   UNL     1      16.587  28.503  15.063  1.00  0.00     0.048 C 
ATOM      2  C   UNL     1      15.334  27.718  15.340  1.00  0.00    -0.012 C 
ATOM      3  C   UNL     1      14.129  28.247  15.064  1.00  0.00    -0.019 C 
ATOM      4  C   UNL     1      12.847  27.533  15.398  1.00  0.00     0.036 C 
ATOM      5  C   UNL     1      13.029  26.004  15.338  1.00  0.00     0.025 C 
ATOM      6  C   UNL     1      14.194  25.568  16.248  1.00  0.00     0.089 C 
ATOM      7  C   UNL     1      15.433  26.365  15.942  1.00  0.00     0.158 C 
ATOM      8  O   UNL     1      16.559  25.888  16.244  1.00  0.00    -0.295 OA
ENDROOT
BRANCH   5   9
ATOM      9  C   UNL     1      11.741  25.269  15.685  1.00  0.00    -0.077 C 
ATOM     10  C   UNL     1      11.706  24.340  16.656  1.00  0.00     0.008 C 
ATOM     11  C   UNL     1      10.470  25.577  14.936  1.00  0.00     0.039 C 
ENDBRANCH   5   9
TORSDOF 1
ENDMDL
MODEL 5
REMARK VINA RESULT:    -4.198     19.725     20.606
REMARK INTER + INTRA:          -4.532
REMARK INTER:                  -4.437
REMARK INTRA:                  -0.095
REMARK UNBOUND:                -0.089
REMARK SMILES C=C(C)[C@H]1CC=C(C)C(=O)C1
REMARK SMILES IDX 8 1 7 2 6 3 5 4 4 5 11 6 9 7 10 8 2 9 1 10 3 11
REMARK H PARENT
REMARK Flexibility Score: inf
ROOT
ATOM      1  C   UNL     1       3.227  26.059  16.040  1.00  0.00     0.048 C 
ATOM      2  C   UNL     1       4.248  27.121  16.344  1.00  0.00    -0.012 C 
ATOM      3  C   UNL     1       5.522  26.778  16.606  1.00  0.00    -0.019 C 
ATOM      4  C   UNL     1       6.559  27.798  16.995  1.00  0.00     0.036 C 
ATOM      5  C   UNL     1       6.264  29.166  16.350  1.00  0.00     0.025 C 
ATOM      6  C   UNL     1       4.836  29.625  16.700  1.00  0.00     0.089 C 
ATOM      7  C   UNL     1       3.838  28.547  16.377  1.00  0.00     0.158 C 
ATOM      8  O   UNL     1       2.635  28.864  16.178  1.00  0.00    -0.295 OA
ENDROOT
BRANCH   5   9
ATOM      9  C   UNL     1       7.302  30.209  16.745  1.00  0.00    -0.077 C 
ATOM     10  C   UNL     1       7.046  31.125  17.695  1.00  0.00     0.008 C 
ATOM     11  C   UNL     1       8.648  30.231  16.067  1.00  0.00     0.039 C 
ENDBRANCH   5   9
TORSDOF 1
ENDMDL
MODEL 6
REMARK VINA RESULT:    -4.184     16.693     17.452
REMARK INTER + INTRA:          -4.517
REMARK INTER:                  -4.420
REMARK INTRA:                  -0.098
REMARK UNBOUND:                -0.089
REMARK SMILES C=C(C)[C@H]1CC=C(C)C(=O)C1
REMARK SMILES IDX 8 1 7 2 6 3 5 4 4 5 11 6 9 7 10 8 2 9 1 10 3 11
REMARK H PARENT
REMARK Flexibility Score: inf
ROOT
ATOM      1  C   UNL     1      11.704  24.332  16.610  1.00  0.00     0.048 C 
ATOM      2  C   UNL     1      12.955  25.028  16.146  1.00  0.00    -0.012 C 
ATOM      3  C   UNL     1      13.090  26.356  16.310  1.00  0.00    -0.019 C 
ATOM      4  C   UNL     1      14.287  27.107  15.790  1.00  0.00     0.036 C 
ATOM      5  C   UNL     1      15.544  26.217  15.785  1.00  0.00     0.025 C 
ATOM      6  C   UNL     1      15.280  24.922  14.994  1.00  0.00     0.089 C 
ATOM      7  C   UNL     1      14.029  24.246  15.485  1.00  0.00     0.158 C 
ATOM      8  O   UNL     1      13.882  23.010  15.289  1.00  0.00    -0.295 OA
ENDROOT
BRANCH   5   9
ATOM      9  C   UNL     1      16.760  26.963  15.250  1.00  0.00    -0.077 C 
ATOM     10  C   UNL     1      17.887  26.313  14.913  1.00  0.00     0.008 C 
ATOM     11  C   UNL     1      16.717  28.461  15.089  1.00  0.00     0.039 C 
ENDBRANCH   5   9
TORSDOF 1
ENDMDL
MODEL 7
REMARK VINA RESULT:    -4.145     14.417     16.621
REMARK INTER + INTRA:          -4.477
REMARK INTER:                  -4.382
REMARK INTRA:                  -0.095
REMARK UNBOUND:                -0.089
REMARK SMILES C=C(C)[C@H]1CC=C(C)C(=O)C1
REMARK SMILES IDX 8 1 7 2 6 3 5 4 4 5 11 6 9 7 10 8 2 9 1 10 3 11
REMARK H PARENT
REMARK Flexibility Score: inf
ROOT
ATOM      1  C   UNL     1      15.135  18.728  18.099  1.00  0.00     0.048 C 
ATOM      2  C   UNL     1      13.788  18.848  17.439  1.00  0.00    -0.012 C 
ATOM      3  C   UNL     1      12.791  19.508  18.053  1.00  0.00    -0.019 C 
ATOM      4  C   UNL     1      11.406  19.585  17.469  1.00  0.00     0.036 C 
ATOM      5  C   UNL     1      11.448  19.547  15.929  1.00  0.00     0.025 C 
ATOM      6  C   UNL     1      12.216  18.302  15.446  1.00  0.00     0.089 C 
ATOM      7  C   UNL     1      13.560  18.214  16.117  1.00  0.00     0.158 C 
ATOM      8  O   UNL     1      14.480  17.555  15.563  1.00  0.00    -0.295 OA
ENDROOT
BRANCH   5   9
ATOM      9  C   UNL     1      10.050  19.613  15.326  1.00  0.00    -0.077 C 
ATOM     10  C   UNL     1       8.978  19.155  15.995  1.00  0.00     0.008 C 
ATOM     11  C   UNL     1       9.846  20.201  13.954  1.00  0.00     0.039 C 
ENDBRANCH   5   9
TORSDOF 1
ENDMDL
MODEL 8
REMARK VINA RESULT:    -4.134     17.294     18.261
REMARK INTER + INTRA:          -4.465
REMARK INTER:                  -4.367
REMARK INTRA:                  -0.098
REMARK UNBOUND:                -0.089
REMARK SMILES C=C(C)[C@H]1CC=C(C)C(=O)C1
REMARK SMILES IDX 8 1 7 2 6 3 5 4 4 5 11 6 9 7 10 8 2 9 1 10 3 11
REMARK H PARENT
REMARK Flexibility Score: inf
ROOT
ATOM      1  C   UNL     1      13.285  26.575  16.245  1.00  0.00     0.048 C 
ATOM      2  C   UNL     1      14.740  26.619  15.865  1.00  0.00    -0.012 C 
ATOM      3  C   UNL     1      15.536  25.565  16.117  1.00  0.00    -0.019 C 
ATOM      4  C   UNL     1      17.013  25.592  15.828  1.00  0.00     0.036 C 
ATOM      5  C   UNL     1      17.329  26.505  14.627  1.00  0.00     0.025 C 
ATOM      6  C   UNL     1      16.754  27.915  14.862  1.00  0.00     0.089 C 
ATOM      7  C   UNL     1      15.297  27.839  15.232  1.00  0.00     0.158 C 
ATOM      8  O   UNL     1      14.563  28.845  15.039  1.00  0.00    -0.295 OA
ENDROOT
BRANCH   5   9
ATOM      9  C   UNL     1      18.823  26.551  14.332  1.00  0.00    -0.077 C 
ATOM     10  C   UNL     1      19.355  27.519  13.567  1.00  0.00     0.008 C 
ATOM     11  C   UNL     1      19.738  25.497  14.901  1.00  0.00     0.039 C 
ENDBRANCH   5   9
TORSDOF 1
ENDMDL
MODEL 9
REMARK VINA RESULT:    -4.088     14.779     16.114
REMARK INTER + INTRA:          -4.416
REMARK INTER:                  -4.322
REMARK INTRA:                  -0.094
REMARK UNBOUND:                -0.089
REMARK SMILES C=C(C)[C@H]1CC=C(C)C(=O)C1
REMARK SMILES IDX 8 1 7 2 6 3 5 4 4 5 11 6 9 7 10 8 2 9 1 10 3 11
REMARK H PARENT
REMARK Flexibility Score: inf
ROOT
ATOM      1  C   UNL     1      17.289  17.213  15.514  1.00  0.00     0.048 C 
ATOM      2  C   UNL     1      16.022  17.885  15.969  1.00  0.00    -0.012 C 
ATOM      3  C   UNL     1      15.934  18.390  17.212  1.00  0.00    -0.019 C 
ATOM      4  C   UNL     1      14.661  18.999  17.738  1.00  0.00     0.036 C 
ATOM      5  C   UNL     1      13.841  19.642  16.604  1.00  0.00     0.025 C 
ATOM      6  C   UNL     1      13.577  18.615  15.486  1.00  0.00     0.089 C 
ATOM      7  C   UNL     1      14.862  17.967  15.047  1.00  0.00     0.158 C 
ATOM      8  O   UNL     1      14.928  17.452  13.899  1.00  0.00    -0.295 OA
ENDROOT
BRANCH   5   9
ATOM      9  C   UNL     1      12.545  20.251  17.123  1.00  0.00    -0.077 C 
ATOM     10  C   UNL     1      11.852  19.676  18.121  1.00  0.00     0.008 C 
ATOM     11  C   UNL     1      12.013  21.525  16.518  1.00  0.00     0.039 C 
ENDBRANCH   5   9
TORSDOF 1
ENDMDL
