MODEL 1
REMARK VINA RESULT:    -8.665      0.000      0.000
REMARK INTER + INTRA:         -12.756
REMARK INTER:                 -11.451
REMARK INTRA:                  -1.305
REMARK UNBOUND:                -1.305
REMARK SMILES CC[C@H](C=C[C@H](C)[C@@H]1CC[C@@H]2C3=CC[C@@H]4C[C@@H](O)CC[C@]4(C)[C@@H]3CC[C@@]21C)C(C)C
REMARK SMILES IDX 6 1 7 2 5 3 4 4 3 5 2 6 1 7 28 8 29 9 30 10 8 11 9 12 26 13
REMARK SMILES IDX 10 14 11 15 25 16 27 17 12 18 24 19 23 20 13 21 21 22 14 23
REMARK SMILES IDX 15 24 20 25 22 26 16 27 19 28 17 29 18 30
REMARK H PARENT 18 31
REMARK Flexibility Score: inf
ROOT
ATOM      1  C   UNL     1     131.221 124.754 140.747  1.00  0.00     0.012 C 
ATOM      2  C   UNL     1     130.478 124.740 139.403  1.00  0.00     0.012 C 
ENDROOT
BRANCH   1   3
ATOM      3  C   UNL     1     132.455 123.882 140.619  1.00  0.00    -0.028 C 
ATOM      4  C   UNL     1     132.939 123.522 139.418  1.00  0.00    -0.027 C 
BRANCH   4   5
ATOM      5  C   UNL     1     134.241 122.752 139.280  1.00  0.00     0.014 C 
BRANCH   5   6
ATOM      6  C   UNL     1     135.442 123.659 138.872  1.00  0.00     0.004 C 
ATOM      7  C   UNL     1     135.087 124.989 138.195  1.00  0.00     0.004 C 
ENDBRANCH   5   6
BRANCH   5   8
ATOM      8  C   UNL     1     134.478 121.862 140.542  1.00  0.00    -0.011 C 
ATOM      9  C   UNL     1     135.956 121.716 140.930  1.00  0.00     0.008 C 
ATOM     10  C   UNL     1     133.822 120.478 140.406  1.00  0.00     0.008 C 
ENDBRANCH   5   8
ENDBRANCH   4   5
ENDBRANCH   1   3
BRANCH   1  11
ATOM     11  C   UNL     1     131.628 126.196 141.203  1.00  0.00     0.002 C 
ATOM     12  C   UNL     1     133.148 126.382 141.153  1.00  0.00     0.005 C 
ATOM     13  C   UNL     1     131.203 126.730 142.613  1.00  0.00    -0.023 C 
ATOM     14  C   UNL     1     133.475 127.577 142.040  1.00  0.00     0.009 C 
ATOM     15  C   UNL     1     132.198 127.916 142.815  1.00  0.00     0.021 C 
ATOM     16  C   UNL     1     131.294 125.650 143.759  1.00  0.00     0.008 C 
ATOM     17  C   UNL     1     129.762 127.308 142.580  1.00  0.00     0.012 C 
ATOM     18  C   UNL     1     132.475 128.256 144.272  1.00  0.00    -0.067 C 
ATOM     19  C   UNL     1     132.518 125.785 144.670  1.00  0.00     0.009 C 
ATOM     20  C   UNL     1     132.543 127.178 145.335  1.00  0.00     0.021 C 
ATOM     21  C   UNL     1     132.609 129.535 144.654  1.00  0.00    -0.027 C 
ATOM     22  C   UNL     1     133.733 127.422 146.357  1.00  0.00    -0.023 C 
ATOM     23  C   UNL     1     132.766 129.858 146.108  1.00  0.00     0.031 C 
ATOM     24  C   UNL     1     133.849 128.966 146.754  1.00  0.00     0.002 C 
ATOM     25  C   UNL     1     135.082 126.907 145.758  1.00  0.00     0.010 C 
ATOM     26  C   UNL     1     133.436 126.607 147.645  1.00  0.00     0.012 C 
ATOM     27  C   UNL     1     135.247 129.566 146.477  1.00  0.00     0.036 C 
ATOM     28  C   UNL     1     136.319 127.250 146.606  1.00  0.00     0.032 C 
ATOM     29  C   UNL     1     136.353 128.709 147.110  1.00  0.00     0.114 C 
BRANCH  29  30
ATOM     30  O   UNL     1     136.230 128.724 148.511  1.00  0.00    -0.393 OA
ATOM     31  H   UNL     1     136.308 129.672 148.796  1.00  0.00     0.210 HD
ENDBRANCH  29  30
ENDBRANCH   1  11
TORSDOF 6
ENDMDL
MODEL 2
REMARK VINA RESULT:    -8.174      3.910      5.765
REMARK INTER + INTRA:         -12.107
REMARK INTER:                 -10.901
REMARK INTRA:                  -1.206
REMARK UNBOUND:                -1.305
REMARK SMILES CC[C@H](C=C[C@H](C)[C@@H]1CC[C@@H]2C3=CC[C@@H]4C[C@@H](O)CC[C@]4(C)[C@@H]3CC[C@@]21C)C(C)C
REMARK SMILES IDX 6 1 7 2 5 3 4 4 3 5 2 6 1 7 28 8 29 9 30 10 8 11 9 12 26 13
REMARK SMILES IDX 10 14 11 15 25 16 27 17 12 18 24 19 23 20 13 21 21 22 14 23
REMARK SMILES IDX 15 24 20 25 22 26 16 27 19 28 17 29 18 30
REMARK H PARENT 18 31
REMARK Flexibility Score: inf
ROOT
ATOM      1  C   UNL     1     133.093 127.514 136.706  1.00  0.00     0.012 C 
ATOM      2  C   UNL     1     134.380 127.611 135.875  1.00  0.00     0.012 C 
ENDROOT
BRANCH   1   3
ATOM      3  C   UNL     1     133.374 126.658 137.925  1.00  0.00    -0.028 C 
ATOM      4  C   UNL     1     133.471 125.320 137.836  1.00  0.00    -0.027 C 
BRANCH   4   5
ATOM      5  C   UNL     1     133.872 124.467 139.027  1.00  0.00     0.014 C 
BRANCH   5   6
ATOM      6  C   UNL     1     134.621 125.278 140.129  1.00  0.00     0.004 C 
ATOM      7  C   UNL     1     136.143 125.096 140.186  1.00  0.00     0.004 C 
ENDBRANCH   5   6
BRANCH   5   8
ATOM      8  C   UNL     1     132.651 123.632 139.529  1.00  0.00    -0.011 C 
ATOM      9  C   UNL     1     131.798 124.351 140.583  1.00  0.00     0.008 C 
ATOM     10  C   UNL     1     133.070 122.242 140.037  1.00  0.00     0.008 C 
ENDBRANCH   5   8
ENDBRANCH   4   5
ENDBRANCH   1   3
BRANCH   1  11
ATOM     11  C   UNL     1     132.547 128.914 137.149  1.00  0.00     0.002 C 
ATOM     12  C   UNL     1     133.335 129.462 138.342  1.00  0.00     0.005 C 
ATOM     13  C   UNL     1     131.041 129.087 137.546  1.00  0.00    -0.023 C 
ATOM     14  C   UNL     1     132.467 130.534 138.990  1.00  0.00     0.009 C 
ATOM     15  C   UNL     1     131.079 130.424 138.351  1.00  0.00     0.021 C 
ATOM     16  C   UNL     1     130.459 127.883 138.383  1.00  0.00     0.008 C 
ATOM     17  C   UNL     1     130.152 129.303 136.292  1.00  0.00     0.012 C 
ATOM     18  C   UNL     1     129.958 130.571 139.370  1.00  0.00    -0.067 C 
ATOM     19  C   UNL     1     130.332 128.150 139.887  1.00  0.00     0.009 C 
ATOM     20  C   UNL     1     129.431 129.377 140.140  1.00  0.00     0.021 C 
ATOM     21  C   UNL     1     129.373 131.762 139.564  1.00  0.00    -0.027 C 
ATOM     22  C   UNL     1     129.166 129.721 141.667  1.00  0.00    -0.023 C 
ATOM     23  C   UNL     1     128.195 131.864 140.485  1.00  0.00     0.031 C 
ATOM     24  C   UNL     1     128.487 131.160 141.828  1.00  0.00     0.002 C 
ATOM     25  C   UNL     1     130.498 129.650 142.483  1.00  0.00     0.010 C 
ATOM     26  C   UNL     1     128.194 128.655 142.240  1.00  0.00     0.012 C 
ATOM     27  C   UNL     1     129.282 132.112 142.750  1.00  0.00     0.036 C 
ATOM     28  C   UNL     1     130.372 130.131 143.938  1.00  0.00     0.032 C 
ATOM     29  C   UNL     1     129.587 131.450 144.102  1.00  0.00     0.114 C 
BRANCH  29  30
ATOM     30  O   UNL     1     128.389 131.199 144.795  1.00  0.00    -0.393 OA
ATOM     31  H   UNL     1     128.148 132.041 145.265  1.00  0.00     0.210 HD
ENDBRANCH  29  30
ENDBRANCH   1  11
TORSDOF 6
ENDMDL
MODEL 3
REMARK VINA RESULT:    -8.144      4.859      8.831
REMARK INTER + INTRA:         -12.067
REMARK INTER:                 -10.885
REMARK INTRA:                  -1.182
REMARK UNBOUND:                -1.305
REMARK SMILES CC[C@H](C=C[C@H](C)[C@@H]1CC[C@@H]2C3=CC[C@@H]4C[C@@H](O)CC[C@]4(C)[C@@H]3CC[C@@]21C)C(C)C
REMARK SMILES IDX 6 1 7 2 5 3 4 4 3 5 2 6 1 7 28 8 29 9 30 10 8 11 9 12 26 13
REMARK SMILES IDX 10 14 11 15 25 16 27 17 12 18 24 19 23 20 13 21 21 22 14 23
REMARK SMILES IDX 15 24 20 25 22 26 16 27 19 28 17 29 18 30
REMARK H PARENT 18 31
REMARK Flexibility Score: inf
ROOT
ATOM      1  C   UNL     1     132.895 125.771 139.220  1.00  0.00     0.012 C 
ATOM      2  C   UNL     1     132.465 126.833 140.242  1.00  0.00     0.012 C 
ENDROOT
BRANCH   1   3
ATOM      3  C   UNL     1     132.745 126.357 137.830  1.00  0.00    -0.028 C 
ATOM      4  C   UNL     1     132.853 127.679 137.610  1.00  0.00    -0.027 C 
BRANCH   4   5
ATOM      5  C   UNL     1     132.825 128.260 136.207  1.00  0.00     0.014 C 
BRANCH   5   6
ATOM      6  C   UNL     1     131.547 129.105 135.925  1.00  0.00     0.004 C 
ATOM      7  C   UNL     1     130.507 129.158 137.052  1.00  0.00     0.004 C 
ENDBRANCH   5   6
BRANCH   5   8
ATOM      8  C   UNL     1     134.178 128.973 135.892  1.00  0.00    -0.011 C 
ATOM      9  C   UNL     1     135.351 128.493 136.759  1.00  0.00     0.008 C 
ATOM     10  C   UNL     1     134.056 130.504 135.960  1.00  0.00     0.008 C 
ENDBRANCH   5   8
ENDBRANCH   4   5
ENDBRANCH   1   3
BRANCH   1  11
ATOM     11  C   UNL     1     134.365 125.275 139.437  1.00  0.00     0.002 C 
ATOM     12  C   UNL     1     135.021 124.893 138.107  1.00  0.00     0.005 C 
ATOM     13  C   UNL     1     134.662 124.071 140.394  1.00  0.00    -0.023 C 
ATOM     14  C   UNL     1     136.209 123.999 138.442  1.00  0.00     0.009 C 
ATOM     15  C   UNL     1     136.087 123.639 139.926  1.00  0.00     0.021 C 
ATOM     16  C   UNL     1     133.605 122.904 140.298  1.00  0.00     0.008 C 
ATOM     17  C   UNL     1     134.759 124.540 141.871  1.00  0.00     0.012 C 
ATOM     18  C   UNL     1     136.418 122.180 140.199  1.00  0.00    -0.067 C 
ATOM     19  C   UNL     1     134.068 121.685 139.493  1.00  0.00     0.009 C 
ATOM     20  C   UNL     1     135.360 121.099 140.101  1.00  0.00     0.021 C 
ATOM     21  C   UNL     1     137.652 121.828 140.591  1.00  0.00    -0.027 C 
ATOM     22  C   UNL     1     135.909 119.788 139.393  1.00  0.00    -0.023 C 
ATOM     23  C   UNL     1     137.929 120.404 140.966  1.00  0.00     0.031 C 
ATOM     24  C   UNL     1     137.388 119.438 139.889  1.00  0.00     0.002 C 
ATOM     25  C   UNL     1     135.877 119.952 137.838  1.00  0.00     0.010 C 
ATOM     26  C   UNL     1     134.974 118.608 139.772  1.00  0.00     0.012 C 
ATOM     27  C   UNL     1     138.411 119.325 138.735  1.00  0.00     0.036 C 
ATOM     28  C   UNL     1     136.545 118.799 137.070  1.00  0.00     0.032 C 
ATOM     29  C   UNL     1     137.912 118.366 137.644  1.00  0.00     0.114 C 
BRANCH  29  30
ATOM     30  O   UNL     1     137.811 117.062 138.160  1.00  0.00    -0.393 OA
ATOM     31  H   UNL     1     138.028 117.118 139.129  1.00  0.00     0.210 HD
ENDBRANCH  29  30
ENDBRANCH   1  11
TORSDOF 6
ENDMDL
MODEL 4
REMARK VINA RESULT:    -8.060      4.718      6.980
REMARK INTER + INTRA:         -11.957
REMARK INTER:                 -10.341
REMARK INTRA:                  -1.616
REMARK UNBOUND:                -1.305
REMARK SMILES CC[C@H](C=C[C@H](C)[C@@H]1CC[C@@H]2C3=CC[C@@H]4C[C@@H](O)CC[C@]4(C)[C@@H]3CC[C@@]21C)C(C)C
REMARK SMILES IDX 6 1 7 2 5 3 4 4 3 5 2 6 1 7 28 8 29 9 30 10 8 11 9 12 26 13
REMARK SMILES IDX 10 14 11 15 25 16 27 17 12 18 24 19 23 20 13 21 21 22 14 23
REMARK SMILES IDX 15 24 20 25 22 26 16 27 19 28 17 29 18 30
REMARK H PARENT 18 31
REMARK Flexibility Score: inf
ROOT
ATOM      1  C   UNL     1     131.931 125.572 140.276  1.00  0.00     0.012 C 
ATOM      2  C   UNL     1     131.826 124.118 140.759  1.00  0.00     0.012 C 
ENDROOT
BRANCH   1   3
ATOM      3  C   UNL     1     132.253 125.561 138.794  1.00  0.00    -0.028 C 
ATOM      4  C   UNL     1     133.297 126.248 138.298  1.00  0.00    -0.027 C 
BRANCH   4   5
ATOM      5  C   UNL     1     133.698 126.145 136.837  1.00  0.00     0.014 C 
BRANCH   5   6
ATOM      6  C   UNL     1     133.324 127.415 136.014  1.00  0.00     0.004 C 
ATOM      7  C   UNL     1     132.484 128.472 136.743  1.00  0.00     0.004 C 
ENDBRANCH   5   6
BRANCH   5   8
ATOM      8  C   UNL     1     135.186 125.688 136.717  1.00  0.00    -0.011 C 
ATOM      9  C   UNL     1     135.745 125.050 137.996  1.00  0.00     0.008 C 
ATOM     10  C   UNL     1     136.105 126.826 136.242  1.00  0.00     0.008 C 
ENDBRANCH   5   8
ENDBRANCH   4   5
ENDBRANCH   1   3
BRANCH   1  11
ATOM     11  C   UNL     1     130.624 126.396 140.534  1.00  0.00     0.002 C 
ATOM     12  C   UNL     1     129.918 126.738 139.219  1.00  0.00     0.005 C 
ATOM     13  C   UNL     1     130.683 127.748 141.324  1.00  0.00    -0.023 C 
ATOM     14  C   UNL     1     128.980 127.902 139.512  1.00  0.00     0.009 C 
ATOM     15  C   UNL     1     129.333 128.413 140.912  1.00  0.00     0.021 C 
ATOM     16  C   UNL     1     131.938 128.637 140.973  1.00  0.00     0.008 C 
ATOM     17  C   UNL     1     130.654 127.502 142.857  1.00  0.00     0.012 C 
ATOM     18  C   UNL     1     129.335 129.932 140.992  1.00  0.00    -0.067 C 
ATOM     19  C   UNL     1     131.646 129.815 140.036  1.00  0.00     0.009 C 
ATOM     20  C   UNL     1     130.573 130.738 140.651  1.00  0.00     0.021 C 
ATOM     21  C   UNL     1     128.248 130.589 141.425  1.00  0.00    -0.027 C 
ATOM     22  C   UNL     1     130.227 132.035 139.804  1.00  0.00    -0.023 C 
ATOM     23  C   UNL     1     128.308 132.075 141.607  1.00  0.00     0.031 C 
ATOM     24  C   UNL     1     128.913 132.757 140.359  1.00  0.00     0.002 C 
ATOM     25  C   UNL     1     130.056 131.672 138.293  1.00  0.00     0.010 C 
ATOM     26  C   UNL     1     131.417 133.024 139.929  1.00  0.00     0.012 C 
ATOM     27  C   UNL     1     127.815 132.939 139.286  1.00  0.00     0.036 C 
ATOM     28  C   UNL     1     129.556 132.834 137.419  1.00  0.00     0.032 C 
ATOM     29  C   UNL     1     128.376 133.621 138.030  1.00  0.00     0.114 C 
BRANCH  29  30
ATOM     30  O   UNL     1     128.794 134.928 138.338  1.00  0.00    -0.393 OA
ATOM     31  H   UNL     1     128.642 135.478 137.524  1.00  0.00     0.210 HD
ENDBRANCH  29  30
ENDBRANCH   1  11
TORSDOF 6
ENDMDL
MODEL 5
REMARK VINA RESULT:    -8.049      5.125      6.957
REMARK INTER + INTRA:         -11.942
REMARK INTER:                 -10.862
REMARK INTRA:                  -1.080
REMARK UNBOUND:                -1.305
REMARK SMILES CC[C@H](C=C[C@H](C)[C@@H]1CC[C@@H]2C3=CC[C@@H]4C[C@@H](O)CC[C@]4(C)[C@@H]3CC[C@@]21C)C(C)C
REMARK SMILES IDX 6 1 7 2 5 3 4 4 3 5 2 6 1 7 28 8 29 9 30 10 8 11 9 12 26 13
REMARK SMILES IDX 10 14 11 15 25 16 27 17 12 18 24 19 23 20 13 21 21 22 14 23
REMARK SMILES IDX 15 24 20 25 22 26 16 27 19 28 17 29 18 30
REMARK H PARENT 18 31
REMARK Flexibility Score: inf
ROOT
ATOM      1  C   UNL     1     132.137 125.558 140.138  1.00  0.00     0.012 C 
ATOM      2  C   UNL     1     131.194 124.415 140.543  1.00  0.00     0.012 C 
ENDROOT
BRANCH   1   3
ATOM      3  C   UNL     1     133.503 124.968 139.847  1.00  0.00    -0.028 C 
ATOM      4  C   UNL     1     133.768 123.668 140.064  1.00  0.00    -0.027 C 
BRANCH   4   5
ATOM      5  C   UNL     1     135.094 123.046 139.661  1.00  0.00     0.014 C 
BRANCH   5   6
ATOM      6  C   UNL     1     136.322 123.903 140.091  1.00  0.00     0.004 C 
ATOM      7  C   UNL     1     136.496 124.129 141.599  1.00  0.00     0.004 C 
ENDBRANCH   5   6
BRANCH   5   8
ATOM      8  C   UNL     1     135.141 121.547 140.099  1.00  0.00    -0.011 C 
ATOM      9  C   UNL     1     135.940 120.647 139.147  1.00  0.00     0.008 C 
ATOM     10  C   UNL     1     133.736 120.967 140.330  1.00  0.00     0.008 C 
ENDBRANCH   5   8
ENDBRANCH   4   5
ENDBRANCH   1   3
BRANCH   1  11
ATOM     11  C   UNL     1     131.623 126.360 138.895  1.00  0.00     0.002 C 
ATOM     12  C   UNL     1     132.779 126.733 137.962  1.00  0.00     0.005 C 
ATOM     13  C   UNL     1     130.816 127.690 139.089  1.00  0.00    -0.023 C 
ATOM     14  C   UNL     1     132.287 127.879 137.086  1.00  0.00     0.009 C 
ATOM     15  C   UNL     1     130.958 128.353 137.683  1.00  0.00     0.021 C 
ATOM     16  C   UNL     1     131.360 128.602 140.255  1.00  0.00     0.008 C 
ATOM     17  C   UNL     1     129.312 127.399 139.337  1.00  0.00     0.012 C 
ATOM     18  C   UNL     1     130.834 129.869 137.693  1.00  0.00    -0.067 C 
ATOM     19  C   UNL     1     132.193 129.803 139.794  1.00  0.00     0.009 C 
ATOM     20  C   UNL     1     131.367 130.697 138.845  1.00  0.00     0.021 C 
ATOM     21  C   UNL     1     130.194 130.502 136.698  1.00  0.00    -0.027 C 
ATOM     22  C   UNL     1     132.098 132.014 138.346  1.00  0.00    -0.023 C 
ATOM     23  C   UNL     1     129.980 131.982 136.782  1.00  0.00     0.031 C 
ATOM     24  C   UNL     1     131.294 132.706 137.149  1.00  0.00     0.002 C 
ATOM     25  C   UNL     1     133.564 131.694 137.907  1.00  0.00     0.010 C 
ATOM     26  C   UNL     1     132.159 133.011 139.534  1.00  0.00     0.012 C 
ATOM     27  C   UNL     1     132.147 132.908 135.876  1.00  0.00     0.036 C 
ATOM     28  C   UNL     1     134.299 132.876 137.253  1.00  0.00     0.032 C 
ATOM     29  C   UNL     1     133.463 133.632 136.198  1.00  0.00     0.114 C 
BRANCH  29  30
ATOM     30  O   UNL     1     133.195 134.933 136.658  1.00  0.00    -0.393 OA
ATOM     31  H   UNL     1     133.066 135.502 135.853  1.00  0.00     0.210 HD
ENDBRANCH  29  30
ENDBRANCH   1  11
TORSDOF 6
ENDMDL
MODEL 6
REMARK VINA RESULT:    -7.910      4.127      5.553
REMARK INTER + INTRA:         -11.758
REMARK INTER:                 -10.572
REMARK INTRA:                  -1.187
REMARK UNBOUND:                -1.305
REMARK SMILES CC[C@H](C=C[C@H](C)[C@@H]1CC[C@@H]2C3=CC[C@@H]4C[C@@H](O)CC[C@]4(C)[C@@H]3CC[C@@]21C)C(C)C
REMARK SMILES IDX 6 1 7 2 5 3 4 4 3 5 2 6 1 7 28 8 29 9 30 10 8 11 9 12 26 13
REMARK SMILES IDX 10 14 11 15 25 16 27 17 12 18 24 19 23 20 13 21 21 22 14 23
REMARK SMILES IDX 15 24 20 25 22 26 16 27 19 28 17 29 18 30
REMARK H PARENT 18 31
REMARK Flexibility Score: inf
ROOT
ATOM      1  C   UNL     1     130.512 125.217 141.641  1.00  0.00     0.012 C 
ATOM      2  C   UNL     1     129.764 123.886 141.805  1.00  0.00     0.012 C 
ENDROOT
BRANCH   1   3
ATOM      3  C   UNL     1     131.782 124.956 140.854  1.00  0.00    -0.028 C 
ATOM      4  C   UNL     1     132.033 123.755 140.304  1.00  0.00    -0.027 C 
BRANCH   4   5
ATOM      5  C   UNL     1     133.242 123.521 139.414  1.00  0.00     0.014 C 
BRANCH   5   6
ATOM      6  C   UNL     1     133.919 124.847 138.950  1.00  0.00     0.004 C 
ATOM      7  C   UNL     1     133.565 125.330 137.538  1.00  0.00     0.004 C 
ENDBRANCH   5   6
BRANCH   5   8
ATOM      8  C   UNL     1     134.200 122.477 140.069  1.00  0.00    -0.011 C 
ATOM      9  C   UNL     1     135.498 122.246 139.282  1.00  0.00     0.008 C 
ATOM     10  C   UNL     1     133.497 121.138 140.345  1.00  0.00     0.008 C 
ENDBRANCH   5   8
ENDBRANCH   4   5
ENDBRANCH   1   3
BRANCH   1  11
ATOM     11  C   UNL     1     129.654 126.314 140.925  1.00  0.00     0.002 C 
ATOM     12  C   UNL     1     130.502 127.119 139.934  1.00  0.00     0.005 C 
ATOM     13  C   UNL     1     128.885 127.390 141.764  1.00  0.00    -0.023 C 
ATOM     14  C   UNL     1     129.752 128.418 139.666  1.00  0.00     0.009 C 
ATOM     15  C   UNL     1     128.618 128.495 140.693  1.00  0.00     0.021 C 
ATOM     16  C   UNL     1     129.692 127.925 143.009  1.00  0.00     0.008 C 
ATOM     17  C   UNL     1     127.514 126.846 142.249  1.00  0.00     0.012 C 
ATOM     18  C   UNL     1     128.449 129.893 141.268  1.00  0.00    -0.067 C 
ATOM     19  C   UNL     1     130.327 129.306 142.816  1.00  0.00     0.009 C 
ATOM     20  C   UNL     1     129.245 130.352 142.474  1.00  0.00     0.021 C 
ATOM     21  C   UNL     1     127.542 130.733 140.747  1.00  0.00    -0.027 C 
ATOM     22  C   UNL     1     129.768 131.842 142.311  1.00  0.00    -0.023 C 
ATOM     23  C   UNL     1     127.308 132.062 141.398  1.00  0.00     0.031 C 
ATOM     24  C   UNL     1     128.647 132.784 141.668  1.00  0.00     0.002 C 
ATOM     25  C   UNL     1     131.071 131.874 141.448  1.00  0.00     0.010 C 
ATOM     26  C   UNL     1     130.113 132.388 143.723  1.00  0.00     0.012 C 
ATOM     27  C   UNL     1     129.116 133.503 140.383  1.00  0.00     0.036 C 
ATOM     28  C   UNL     1     131.560 133.289 141.096  1.00  0.00     0.032 C 
ATOM     29  C   UNL     1     130.444 134.240 140.613  1.00  0.00     0.114 C 
BRANCH  29  30
ATOM     30  O   UNL     1     130.266 135.270 141.553  1.00  0.00    -0.393 OA
ATOM     31  H   UNL     1     129.286 135.381 141.675  1.00  0.00     0.210 HD
ENDBRANCH  29  30
ENDBRANCH   1  11
TORSDOF 6
ENDMDL
MODEL 7
REMARK VINA RESULT:    -7.889      5.202      7.081
REMARK INTER + INTRA:         -11.731
REMARK INTER:                 -10.415
REMARK INTRA:                  -1.317
REMARK UNBOUND:                -1.305
REMARK SMILES CC[C@H](C=C[C@H](C)[C@@H]1CC[C@@H]2C3=CC[C@@H]4C[C@@H](O)CC[C@]4(C)[C@@H]3CC[C@@]21C)C(C)C
REMARK SMILES IDX 6 1 7 2 5 3 4 4 3 5 2 6 1 7 28 8 29 9 30 10 8 11 9 12 26 13
REMARK SMILES IDX 10 14 11 15 25 16 27 17 12 18 24 19 23 20 13 21 21 22 14 23
REMARK SMILES IDX 15 24 20 25 22 26 16 27 19 28 17 29 18 30
REMARK H PARENT 18 31
REMARK Flexibility Score: inf
ROOT
ATOM      1  C   UNL     1     130.515 126.696 141.309  1.00  0.00     0.012 C 
ATOM      2  C   UNL     1     129.483 125.641 141.735  1.00  0.00     0.012 C 
ENDROOT
BRANCH   1   3
ATOM      3  C   UNL     1     131.808 125.985 140.958  1.00  0.00    -0.028 C 
ATOM      4  C   UNL     1     131.881 124.644 140.911  1.00  0.00    -0.027 C 
BRANCH   4   5
ATOM      5  C   UNL     1     133.136 123.929 140.443  1.00  0.00     0.014 C 
BRANCH   5   6
ATOM      6  C   UNL     1     132.840 122.537 139.806  1.00  0.00     0.004 C 
ATOM      7  C   UNL     1     133.761 121.387 140.234  1.00  0.00     0.004 C 
ENDBRANCH   5   6
BRANCH   5   8
ATOM      8  C   UNL     1     134.010 124.887 139.573  1.00  0.00    -0.011 C 
ATOM      9  C   UNL     1     133.683 124.836 138.074  1.00  0.00     0.008 C 
ATOM     10  C   UNL     1     135.515 124.665 139.799  1.00  0.00     0.008 C 
ENDBRANCH   5   8
ENDBRANCH   4   5
ENDBRANCH   1   3
BRANCH   1  11
ATOM     11  C   UNL     1     130.034 127.563 140.096  1.00  0.00     0.002 C 
ATOM     12  C   UNL     1     130.988 127.426 138.906  1.00  0.00     0.005 C 
ATOM     13  C   UNL     1     129.817 129.106 140.263  1.00  0.00    -0.023 C 
ATOM     14  C   UNL     1     130.735 128.622 137.997  1.00  0.00     0.009 C 
ATOM     15  C   UNL     1     129.841 129.590 138.779  1.00  0.00     0.021 C 
ATOM     16  C   UNL     1     130.909 129.811 141.157  1.00  0.00     0.008 C 
ATOM     17  C   UNL     1     128.412 129.413 140.849  1.00  0.00     0.012 C 
ATOM     18  C   UNL     1     130.264 131.041 138.603  1.00  0.00    -0.067 C 
ATOM     19  C   UNL     1     131.974 130.587 140.375  1.00  0.00     0.009 C 
ATOM     20  C   UNL     1     131.313 131.671 139.498  1.00  0.00     0.021 C 
ATOM     21  C   UNL     1     129.668 131.812 137.681  1.00  0.00    -0.027 C 
ATOM     22  C   UNL     1     132.318 132.591 138.682  1.00  0.00    -0.023 C 
ATOM     23  C   UNL     1     130.014 133.267 137.601  1.00  0.00     0.031 C 
ATOM     24  C   UNL     1     131.546 133.466 137.589  1.00  0.00     0.002 C 
ATOM     25  C   UNL     1     133.427 131.722 138.005  1.00  0.00     0.010 C 
ATOM     26  C   UNL     1     133.007 133.557 139.683  1.00  0.00     0.012 C 
ATOM     27  C   UNL     1     132.084 133.265 136.154  1.00  0.00     0.036 C 
ATOM     28  C   UNL     1     134.350 132.507 137.057  1.00  0.00     0.032 C 
ATOM     29  C   UNL     1     133.606 133.462 136.099  1.00  0.00     0.114 C 
BRANCH  29  30
ATOM     30  O   UNL     1     133.931 134.792 136.419  1.00  0.00    -0.393 OA
ATOM     31  H   UNL     1     134.917 134.826 136.540  1.00  0.00     0.210 HD
ENDBRANCH  29  30
ENDBRANCH   1  11
TORSDOF 6
ENDMDL
MODEL 8
REMARK VINA RESULT:    -7.878      5.244      8.898
REMARK INTER + INTRA:         -11.716
REMARK INTER:                 -10.080
REMARK INTRA:                  -1.635
REMARK UNBOUND:                -1.305
REMARK SMILES CC[C@H](C=C[C@H](C)[C@@H]1CC[C@@H]2C3=CC[C@@H]4C[C@@H](O)CC[C@]4(C)[C@@H]3CC[C@@]21C)C(C)C
REMARK SMILES IDX 6 1 7 2 5 3 4 4 3 5 2 6 1 7 28 8 29 9 30 10 8 11 9 12 26 13
REMARK SMILES IDX 10 14 11 15 25 16 27 17 12 18 24 19 23 20 13 21 21 22 14 23
REMARK SMILES IDX 15 24 20 25 22 26 16 27 19 28 17 29 18 30
REMARK H PARENT 18 31
REMARK Flexibility Score: inf
ROOT
ATOM      1  C   UNL     1     131.490 132.223 137.154  1.00  0.00     0.012 C 
ATOM      2  C   UNL     1     131.799 133.036 135.888  1.00  0.00     0.012 C 
ENDROOT
BRANCH   1   3
ATOM      3  C   UNL     1     130.111 132.616 137.649  1.00  0.00    -0.028 C 
ATOM      4  C   UNL     1     129.864 132.812 138.956  1.00  0.00    -0.027 C 
BRANCH   4   5
ATOM      5  C   UNL     1     128.521 133.323 139.447  1.00  0.00     0.014 C 
BRANCH   5   6
ATOM      6  C   UNL     1     127.793 132.313 140.384  1.00  0.00     0.004 C 
ATOM      7  C   UNL     1     128.554 131.021 140.709  1.00  0.00     0.004 C 
ENDBRANCH   5   6
BRANCH   5   8
ATOM      8  C   UNL     1     128.669 134.770 140.015  1.00  0.00    -0.011 C 
ATOM      9  C   UNL     1     128.620 135.867 138.942  1.00  0.00     0.008 C 
ATOM     10  C   UNL     1     129.930 134.926 140.881  1.00  0.00     0.008 C 
ENDBRANCH   5   8
ENDBRANCH   4   5
ENDBRANCH   1   3
BRANCH   1  11
ATOM     11  C   UNL     1     131.552 130.676 136.915  1.00  0.00     0.002 C 
ATOM     12  C   UNL     1     130.166 130.040 137.053  1.00  0.00     0.005 C 
ATOM     13  C   UNL     1     132.496 129.778 137.785  1.00  0.00    -0.023 C 
ATOM     14  C   UNL     1     130.386 128.551 137.289  1.00  0.00     0.009 C 
ATOM     15  C   UNL     1     131.882 128.362 137.559  1.00  0.00     0.021 C 
ATOM     16  C   UNL     1     132.545 130.190 139.307  1.00  0.00     0.008 C 
ATOM     17  C   UNL     1     133.942 129.775 137.219  1.00  0.00     0.012 C 
ATOM     18  C   UNL     1     132.148 127.378 138.688  1.00  0.00    -0.067 C 
ATOM     19  C   UNL     1     131.721 129.296 140.239  1.00  0.00     0.009 C 
ATOM     20  C   UNL     1     132.193 127.830 140.134  1.00  0.00     0.021 C 
ATOM     21  C   UNL     1     132.408 126.090 138.417  1.00  0.00    -0.027 C 
ATOM     22  C   UNL     1     131.458 126.809 141.102  1.00  0.00    -0.023 C 
ATOM     23  C   UNL     1     132.782 125.162 139.532  1.00  0.00     0.031 C 
ATOM     24  C   UNL     1     131.793 125.296 140.711  1.00  0.00     0.002 C 
ATOM     25  C   UNL     1     129.913 127.051 141.081  1.00  0.00     0.010 C 
ATOM     26  C   UNL     1     131.965 127.065 142.547  1.00  0.00     0.012 C 
ATOM     27  C   UNL     1     130.535 124.442 140.431  1.00  0.00     0.036 C 
ATOM     28  C   UNL     1     129.101 126.002 141.860  1.00  0.00     0.032 C 
ATOM     29  C   UNL     1     129.528 124.544 141.587  1.00  0.00     0.114 C 
BRANCH  29  30
ATOM     30  O   UNL     1     130.081 123.991 142.756  1.00  0.00    -0.393 OA
ATOM     31  H   UNL     1     129.451 123.289 143.068  1.00  0.00     0.210 HD
ENDBRANCH  29  30
ENDBRANCH   1  11
TORSDOF 6
ENDMDL
MODEL 9
REMARK VINA RESULT:    -7.810      5.705      8.820
REMARK INTER + INTRA:         -11.627
REMARK INTER:                 -10.341
REMARK INTRA:                  -1.286
REMARK UNBOUND:                -1.305
REMARK SMILES CC[C@H](C=C[C@H](C)[C@@H]1CC[C@@H]2C3=CC[C@@H]4C[C@@H](O)CC[C@]4(C)[C@@H]3CC[C@@]21C)C(C)C
REMARK SMILES IDX 6 1 7 2 5 3 4 4 3 5 2 6 1 7 28 8 29 9 30 10 8 11 9 12 26 13
REMARK SMILES IDX 10 14 11 15 25 16 27 17 12 18 24 19 23 20 13 21 21 22 14 23
REMARK SMILES IDX 15 24 20 25 22 26 16 27 19 28 17 29 18 30
REMARK H PARENT 18 31
REMARK Flexibility Score: inf
ROOT
ATOM      1  C   UNL     1     129.450 134.351 140.038  1.00  0.00     0.012 C 
ATOM      2  C   UNL     1     129.074 135.753 140.539  1.00  0.00     0.012 C 
ENDROOT
BRANCH   1   3
ATOM      3  C   UNL     1     130.903 134.372 139.604  1.00  0.00    -0.028 C 
ATOM      4  C   UNL     1     131.297 135.036 138.503  1.00  0.00    -0.027 C 
BRANCH   4   5
ATOM      5  C   UNL     1     132.764 135.163 138.130  1.00  0.00     0.014 C 
BRANCH   5   6
ATOM      6  C   UNL     1     133.720 134.610 139.230  1.00  0.00     0.004 C 
ATOM      7  C   UNL     1     134.248 135.633 140.244  1.00  0.00     0.004 C 
ENDBRANCH   5   6
BRANCH   5   8
ATOM      8  C   UNL     1     133.006 134.601 136.694  1.00  0.00    -0.011 C 
ATOM      9  C   UNL     1     131.792 133.875 136.098  1.00  0.00     0.008 C 
ATOM     10  C   UNL     1     134.252 133.702 136.625  1.00  0.00     0.008 C 
ENDBRANCH   5   8
ENDBRANCH   4   5
ENDBRANCH   1   3
BRANCH   1  11
ATOM     11  C   UNL     1     129.229 133.239 141.118  1.00  0.00     0.002 C 
ATOM     12  C   UNL     1     130.552 132.844 141.782  1.00  0.00     0.005 C 
ATOM     13  C   UNL     1     128.553 131.880 140.728  1.00  0.00    -0.023 C 
ATOM     14  C   UNL     1     130.332 131.481 142.426  1.00  0.00     0.009 C 
ATOM     15  C   UNL     1     128.986 130.960 141.913  1.00  0.00     0.021 C 
ATOM     16  C   UNL     1     129.002 131.323 139.323  1.00  0.00     0.008 C 
ATOM     17  C   UNL     1     127.005 131.999 140.750  1.00  0.00     0.012 C 
ATOM     18  C   UNL     1     129.028 129.479 141.570  1.00  0.00    -0.067 C 
ATOM     19  C   UNL     1     130.024 130.182 139.383  1.00  0.00     0.009 C 
ATOM     20  C   UNL     1     129.461 128.999 140.199  1.00  0.00     0.021 C 
ATOM     21  C   UNL     1     128.625 128.565 142.466  1.00  0.00    -0.027 C 
ATOM     22  C   UNL     1     130.401 127.723 140.282  1.00  0.00    -0.023 C 
ATOM     23  C   UNL     1     128.565 127.122 142.070  1.00  0.00     0.031 C 
ATOM     24  C   UNL     1     129.876 126.686 141.380  1.00  0.00     0.002 C 
ATOM     25  C   UNL     1     131.874 128.148 140.590  1.00  0.00     0.010 C 
ATOM     26  C   UNL     1     130.383 127.020 138.898  1.00  0.00     0.012 C 
ATOM     27  C   UNL     1     130.935 126.341 142.452  1.00  0.00     0.036 C 
ATOM     28  C   UNL     1     132.827 126.970 140.854  1.00  0.00     0.032 C 
ATOM     29  C   UNL     1     132.255 125.897 141.804  1.00  0.00     0.114 C 
BRANCH  29  30
ATOM     30  O   UNL     1     132.063 124.698 141.095  1.00  0.00    -0.393 OA
ATOM     31  H   UNL     1     132.752 124.674 140.379  1.00  0.00     0.210 HD
ENDBRANCH  29  30
ENDBRANCH   1  11
TORSDOF 6
ENDMDL
