MODEL 1
REMARK VINA RESULT:    -5.135      0.000      0.000
REMARK INTER + INTRA:          -5.135
REMARK INTER:                  -5.135
REMARK INTRA:                   0.000
REMARK UNBOUND:                 0.000
REMARK SMILES CC1=CC(=O)[C@@H]2C[C@H]1C2(C)C
REMARK SMILES IDX 1 1 2 2 3 3 4 4 5 5 6 6 7 7 8 8 9 9 10 10 11 11
REMARK H PARENT
REMARK Flexibility Score: inf
ROOT
ATOM      1  C   UNL     1     103.339 115.474 127.689  1.00  0.00     0.040 C 
ATOM      2  C   UNL     1     102.236 114.887 126.867  1.00  0.00    -0.066 C 
ATOM      3  C   UNL     1     101.249 115.666 126.346  1.00  0.00     0.047 C 
ATOM      4  C   UNL     1     100.218 114.964 125.514  1.00  0.00     0.159 C 
ATOM      5  O   UNL     1      99.278 115.579 124.947  1.00  0.00    -0.295 OA
ATOM      6  C   UNL     1     100.390 113.449 125.401  1.00  0.00     0.067 C 
ATOM      7  C   UNL     1     100.679 112.992 126.848  1.00  0.00     0.021 C 
ATOM      8  C   UNL     1     102.153 113.372 126.582  1.00  0.00     0.022 C 
ATOM      9  C   UNL     1     101.879 113.143 125.067  1.00  0.00    -0.019 C 
ATOM     10  C   UNL     1     102.097 111.669 124.643  1.00  0.00     0.012 C 
ATOM     11  C   UNL     1     102.608 114.057 124.042  1.00  0.00     0.012 C 
ENDROOT
TORSDOF 0
ENDMDL
MODEL 2
REMARK VINA RESULT:    -5.120      2.145      3.747
REMARK INTER + INTRA:          -5.120
REMARK INTER:                  -5.120
REMARK INTRA:                   0.000
REMARK UNBOUND:                 0.000
REMARK SMILES CC1=CC(=O)[C@@H]2C[C@H]1C2(C)C
REMARK SMILES IDX 1 1 2 2 3 3 4 4 5 5 6 6 7 7 8 8 9 9 10 10 11 11
REMARK H PARENT
REMARK Flexibility Score: inf
ROOT
ATOM      1  C   UNL     1     101.007 112.018 122.855  1.00  0.00     0.040 C 
ATOM      2  C   UNL     1     101.135 112.382 124.300  1.00  0.00    -0.066 C 
ATOM      3  C   UNL     1     102.003 111.731 125.121  1.00  0.00     0.047 C 
ATOM      4  C   UNL     1     102.061 112.209 126.541  1.00  0.00     0.159 C 
ATOM      5  O   UNL     1     102.851 111.714 127.386  1.00  0.00    -0.295 OA
ATOM      6  C   UNL     1     101.095 113.342 126.888  1.00  0.00     0.067 C 
ATOM      7  C   UNL     1      99.755 112.903 126.260  1.00  0.00     0.021 C 
ATOM      8  C   UNL     1     100.280 113.500 124.934  1.00  0.00     0.022 C 
ATOM      9  C   UNL     1     101.192 114.432 125.783  1.00  0.00    -0.019 C 
ATOM     10  C   UNL     1     100.480 115.748 126.188  1.00  0.00     0.012 C 
ATOM     11  C   UNL     1     102.597 114.794 125.223  1.00  0.00     0.012 C 
ENDROOT
TORSDOF 0
ENDMDL
MODEL 3
REMARK VINA RESULT:    -5.037      1.997      3.521
REMARK INTER + INTRA:          -5.037
REMARK INTER:                  -5.037
REMARK INTRA:                   0.000
REMARK UNBOUND:                 0.000
REMARK SMILES CC1=CC(=O)[C@@H]2C[C@H]1C2(C)C
REMARK SMILES IDX 1 1 2 2 3 3 4 4 5 5 6 6 7 7 8 8 9 9 10 10 11 11
REMARK H PARENT
REMARK Flexibility Score: inf
ROOT
ATOM      1  C   UNL     1      99.437 112.532 126.134  1.00  0.00     0.040 C 
ATOM      2  C   UNL     1     100.198 113.814 126.257  1.00  0.00    -0.066 C 
ATOM      3  C   UNL     1     101.395 113.868 126.904  1.00  0.00     0.047 C 
ATOM      4  C   UNL     1     102.074 115.204 126.933  1.00  0.00     0.159 C 
ATOM      5  O   UNL     1     103.201 115.374 127.466  1.00  0.00    -0.295 OA
ATOM      6  C   UNL     1     101.303 116.344 126.268  1.00  0.00     0.067 C 
ATOM      7  C   UNL     1      99.860 116.183 126.795  1.00  0.00     0.021 C 
ATOM      8  C   UNL     1      99.659 115.137 125.674  1.00  0.00     0.022 C 
ATOM      9  C   UNL     1     100.791 115.854 124.883  1.00  0.00    -0.019 C 
ATOM     10  C   UNL     1     100.256 117.016 124.007  1.00  0.00     0.012 C 
ATOM     11  C   UNL     1     101.741 114.986 124.010  1.00  0.00     0.012 C 
ENDROOT
TORSDOF 0
ENDMDL
MODEL 4
REMARK VINA RESULT:    -4.851      1.726      3.336
REMARK INTER + INTRA:          -4.851
REMARK INTER:                  -4.851
REMARK INTRA:                   0.000
REMARK UNBOUND:                 0.000
REMARK SMILES CC1=CC(=O)[C@@H]2C[C@H]1C2(C)C
REMARK SMILES IDX 1 1 2 2 3 3 4 4 5 5 6 6 7 7 8 8 9 9 10 10 11 11
REMARK H PARENT
REMARK Flexibility Score: inf
ROOT
ATOM      1  C   UNL     1     103.147 110.988 126.140  1.00  0.00     0.040 C 
ATOM      2  C   UNL     1     102.424 112.097 125.443  1.00  0.00    -0.066 C 
ATOM      3  C   UNL     1     101.928 111.939 124.186  1.00  0.00     0.047 C 
ATOM      4  C   UNL     1     101.197 113.113 123.608  1.00  0.00     0.159 C 
ATOM      5  O   UNL     1     100.660 113.078 122.471  1.00  0.00    -0.295 OA
ATOM      6  C   UNL     1     101.147 114.355 124.498  1.00  0.00     0.067 C 
ATOM      7  C   UNL     1     102.594 114.507 125.017  1.00  0.00     0.021 C 
ATOM      8  C   UNL     1     102.220 113.476 126.106  1.00  0.00     0.022 C 
ATOM      9  C   UNL     1     100.738 113.919 125.934  1.00  0.00    -0.019 C 
ATOM     10  C   UNL     1     100.374 115.126 126.836  1.00  0.00     0.012 C 
ATOM     11  C   UNL     1      99.626 112.844 126.091  1.00  0.00     0.012 C 
ENDROOT
TORSDOF 0
ENDMDL
MODEL 5
REMARK VINA RESULT:    -4.838      1.703      3.635
REMARK INTER + INTRA:          -4.838
REMARK INTER:                  -4.838
REMARK INTRA:                   0.000
REMARK UNBOUND:                 0.000
REMARK SMILES CC1=CC(=O)[C@@H]2C[C@H]1C2(C)C
REMARK SMILES IDX 1 1 2 2 3 3 4 4 5 5 6 6 7 7 8 8 9 9 10 10 11 11
REMARK H PARENT
REMARK Flexibility Score: inf
ROOT
ATOM      1  C   UNL     1      99.032 112.619 126.436  1.00  0.00     0.040 C 
ATOM      2  C   UNL     1     100.088 113.587 126.007  1.00  0.00    -0.066 C 
ATOM      3  C   UNL     1     100.928 113.307 124.972  1.00  0.00     0.047 C 
ATOM      4  C   UNL     1     101.923 114.370 124.618  1.00  0.00     0.159 C 
ATOM      5  O   UNL     1     102.727 114.247 123.658  1.00  0.00    -0.295 OA
ATOM      6  C   UNL     1     101.891 115.617 125.503  1.00  0.00     0.067 C 
ATOM      7  C   UNL     1     101.815 115.058 126.941  1.00  0.00     0.021 C 
ATOM      8  C   UNL     1     100.289 114.940 126.722  1.00  0.00     0.022 C 
ATOM      9  C   UNL     1     100.413 116.074 125.663  1.00  0.00    -0.019 C 
ATOM     10  C   UNL     1     100.296 117.485 126.291  1.00  0.00     0.012 C 
ATOM     11  C   UNL     1      99.485 116.019 124.416  1.00  0.00     0.012 C 
ENDROOT
TORSDOF 0
ENDMDL
MODEL 6
REMARK VINA RESULT:    -4.831      1.643      2.247
REMARK INTER + INTRA:          -4.831
REMARK INTER:                  -4.831
REMARK INTRA:                   0.000
REMARK UNBOUND:                 0.000
REMARK SMILES CC1=CC(=O)[C@@H]2C[C@H]1C2(C)C
REMARK SMILES IDX 1 1 2 2 3 3 4 4 5 5 6 6 7 7 8 8 9 9 10 10 11 11
REMARK H PARENT
REMARK Flexibility Score: inf
ROOT
ATOM      1  C   UNL     1      99.986 116.982 126.497  1.00  0.00     0.040 C 
ATOM      2  C   UNL     1     100.282 115.679 125.825  1.00  0.00    -0.066 C 
ATOM      3  C   UNL     1     100.362 115.583 124.469  1.00  0.00     0.047 C 
ATOM      4  C   UNL     1     100.695 114.229 123.918  1.00  0.00     0.159 C 
ATOM      5  O   UNL     1     100.835 114.020 122.685  1.00  0.00    -0.295 OA
ATOM      6  C   UNL     1     100.855 113.121 124.959  1.00  0.00     0.067 C 
ATOM      7  C   UNL     1      99.648 113.310 125.903  1.00  0.00     0.021 C 
ATOM      8  C   UNL     1     100.495 114.379 126.631  1.00  0.00     0.022 C 
ATOM      9  C   UNL     1     101.764 113.646 126.107  1.00  0.00    -0.019 C 
ATOM     10  C   UNL     1     102.227 112.514 127.058  1.00  0.00     0.012 C 
ATOM     11  C   UNL     1     103.006 114.504 125.732  1.00  0.00     0.012 C 
ENDROOT
TORSDOF 0
ENDMDL
MODEL 7
REMARK VINA RESULT:    -4.743      1.364      2.856
REMARK INTER + INTRA:          -4.743
REMARK INTER:                  -4.743
REMARK INTRA:                   0.000
REMARK UNBOUND:                 0.000
REMARK SMILES CC1=CC(=O)[C@@H]2C[C@H]1C2(C)C
REMARK SMILES IDX 1 1 2 2 3 3 4 4 5 5 6 6 7 7 8 8 9 9 10 10 11 11
REMARK H PARENT
REMARK Flexibility Score: inf
ROOT
ATOM      1  C   UNL     1     100.996 114.359 122.593  1.00  0.00     0.040 C 
ATOM      2  C   UNL     1     101.087 114.627 124.062  1.00  0.00    -0.066 C 
ATOM      3  C   UNL     1     100.341 115.601 124.652  1.00  0.00     0.047 C 
ATOM      4  C   UNL     1     100.498 115.751 126.135  1.00  0.00     0.159 C 
ATOM      5  O   UNL     1      99.835 116.589 126.800  1.00  0.00    -0.295 OA
ATOM      6  C   UNL     1     101.517 114.814 126.782  1.00  0.00     0.067 C 
ATOM      7  C   UNL     1     102.746 114.888 125.850  1.00  0.00     0.021 C 
ATOM      8  C   UNL     1     102.039 113.826 124.976  1.00  0.00     0.022 C 
ATOM      9  C   UNL     1     101.272 113.372 126.252  1.00  0.00    -0.019 C 
ATOM     10  C   UNL     1     102.052 112.305 127.061  1.00  0.00     0.012 C 
ATOM     11  C   UNL     1      99.804 112.884 126.093  1.00  0.00     0.012 C 
ENDROOT
TORSDOF 0
ENDMDL
MODEL 8
REMARK VINA RESULT:    -4.741      1.733      3.010
REMARK INTER + INTRA:          -4.741
REMARK INTER:                  -4.741
REMARK INTRA:                   0.000
REMARK UNBOUND:                 0.000
REMARK SMILES CC1=CC(=O)[C@@H]2C[C@H]1C2(C)C
REMARK SMILES IDX 1 1 2 2 3 3 4 4 5 5 6 6 7 7 8 8 9 9 10 10 11 11
REMARK H PARENT
REMARK Flexibility Score: inf
ROOT
ATOM      1  C   UNL     1      99.503 116.734 124.532  1.00  0.00     0.040 C 
ATOM      2  C   UNL     1     100.577 115.798 124.990  1.00  0.00    -0.066 C 
ATOM      3  C   UNL     1     101.212 115.977 126.181  1.00  0.00     0.047 C 
ATOM      4  C   UNL     1     102.247 114.954 126.541  1.00  0.00     0.159 C 
ATOM      5  O   UNL     1     102.875 114.988 127.631  1.00  0.00    -0.295 OA
ATOM      6  C   UNL     1     102.485 113.867 125.492  1.00  0.00     0.067 C 
ATOM      7  C   UNL     1     102.573 114.641 124.159  1.00  0.00     0.021 C 
ATOM      8  C   UNL     1     101.029 114.598 124.131  1.00  0.00     0.022 C 
ATOM      9  C   UNL     1     101.106 113.323 125.021  1.00  0.00    -0.019 C 
ATOM     10  C   UNL     1     101.238 112.025 124.184  1.00  0.00     0.012 C 
ATOM     11  C   UNL     1      99.996 113.103 126.087  1.00  0.00     0.012 C 
ENDROOT
TORSDOF 0
ENDMDL
MODEL 9
REMARK VINA RESULT:    -4.732      1.481      2.457
REMARK INTER + INTRA:          -4.732
REMARK INTER:                  -4.732
REMARK INTRA:                   0.000
REMARK UNBOUND:                 0.000
REMARK SMILES CC1=CC(=O)[C@@H]2C[C@H]1C2(C)C
REMARK SMILES IDX 1 1 2 2 3 3 4 4 5 5 6 6 7 7 8 8 9 9 10 10 11 11
REMARK H PARENT
REMARK Flexibility Score: inf
ROOT
ATOM      1  C   UNL     1     103.222 115.350 127.545  1.00  0.00     0.040 C 
ATOM      2  C   UNL     1     102.254 114.710 126.601  1.00  0.00    -0.066 C 
ATOM      3  C   UNL     1     101.200 113.977 127.056  1.00  0.00     0.047 C 
ATOM      4  C   UNL     1     100.284 113.414 126.012  1.00  0.00     0.159 C 
ATOM      5  O   UNL     1      99.255 112.753 126.306  1.00  0.00    -0.295 OA
ATOM      6  C   UNL     1     100.686 113.702 124.565  1.00  0.00     0.067 C 
ATOM      7  C   UNL     1     102.200 113.403 124.526  1.00  0.00     0.021 C 
ATOM      8  C   UNL     1     102.409 114.835 125.070  1.00  0.00     0.022 C 
ATOM      9  C   UNL     1     101.037 115.212 124.439  1.00  0.00    -0.019 C 
ATOM     10  C   UNL     1     101.171 115.666 122.963  1.00  0.00     0.012 C 
ATOM     11  C   UNL     1     100.143 116.243 125.185  1.00  0.00     0.012 C 
ENDROOT
TORSDOF 0
ENDMDL
