MODEL 1
REMARK VINA RESULT:     5.233      0.000      0.000
REMARK INTER + INTRA:           8.540
REMARK INTER:                   9.822
REMARK INTRA:                  -1.281
REMARK UNBOUND:                -1.281
REMARK SMILES CCCCCCCCC=CCCCCCCCC(=O)[O-]
REMARK SMILES IDX 10 1 9 2 11 3 12 4 13 5 14 6 15 7 16 8 17 9 18 10 19 11
REMARK SMILES IDX 20 12 8 13 7 14 6 15 5 16 4 17 3 18 2 19 1 20
REMARK H PARENT
REMARK Flexibility Score: inf
ROOT
ATOM      1  C   UNL     1       4.423  -4.804  40.116  1.00  0.00    -0.031 C 
ATOM      2  C   UNL     1       3.778  -5.119  38.979  1.00  0.00    -0.031 C 
ENDROOT
BRANCH   1   3
ATOM      3  C   UNL     1       5.612  -3.878  40.207  1.00  0.00     0.027 C 
BRANCH   3   4
ATOM      4  C   UNL     1       6.140  -3.729  41.646  1.00  0.00     0.004 C 
BRANCH   4   5
ATOM      5  C   UNL     1       7.627  -3.331  41.744  1.00  0.00     0.000 C 
BRANCH   5   6
ATOM      6  C   UNL     1       8.467  -3.632  40.487  1.00  0.00     0.000 C 
BRANCH   6   7
ATOM      7  C   UNL     1       9.934  -4.010  40.758  1.00  0.00     0.000 C 
BRANCH   7   8
ATOM      8  C   UNL     1      10.773  -4.103  39.476  1.00  0.00     0.006 C 
BRANCH   8   9
ATOM      9  C   UNL     1      11.125  -2.709  38.949  1.00  0.00     0.053 C 
BRANCH   9  10
ATOM     10  C   UNL     1      11.050  -2.679  37.455  1.00  0.00     0.041 C 
ATOM     11  O   UNL     1      11.086  -3.753  36.797  1.00  0.00    -0.550 OA
ATOM     12  O   UNL     1      10.988  -1.463  36.786  1.00  0.00    -0.550 OA
ENDBRANCH   9  10
ENDBRANCH   8   9
ENDBRANCH   7   8
ENDBRANCH   6   7
ENDBRANCH   5   6
ENDBRANCH   4   5
ENDBRANCH   3   4
ENDBRANCH   1   3
BRANCH   2  13
ATOM     13  C   UNL     1       4.096  -4.534  37.622  1.00  0.00     0.027 C 
BRANCH  13  14
ATOM     14  C   UNL     1       3.119  -3.407  37.239  1.00  0.00     0.004 C 
BRANCH  14  15
ATOM     15  C   UNL     1       3.609  -1.994  37.621  1.00  0.00     0.000 C 
BRANCH  15  16
ATOM     16  C   UNL     1       2.512  -1.021  38.089  1.00  0.00     0.000 C 
BRANCH  16  17
ATOM     17  C   UNL     1       1.887  -1.412  39.439  1.00  0.00    -0.000 C 
BRANCH  17  18
ATOM     18  C   UNL     1       2.586  -0.735  40.628  1.00  0.00    -0.000 C 
BRANCH  18  19
ATOM     19  C   UNL     1       1.673   0.244  41.379  1.00  0.00    -0.003 C 
ATOM     20  C   UNL     1       0.384  -0.439  41.823  1.00  0.00     0.004 C 
ENDBRANCH  18  19
ENDBRANCH  17  18
ENDBRANCH  16  17
ENDBRANCH  15  16
ENDBRANCH  14  15
ENDBRANCH  13  14
ENDBRANCH   2  13
TORSDOF 15
ENDMDL
MODEL 2
REMARK VINA RESULT:     6.453      1.082      1.707
REMARK INTER + INTRA:          10.831
REMARK INTER:                  11.566
REMARK INTRA:                  -0.734
REMARK UNBOUND:                -1.281
REMARK SMILES CCCCCCCCC=CCCCCCCCC(=O)[O-]
REMARK SMILES IDX 10 1 9 2 11 3 12 4 13 5 14 6 15 7 16 8 17 9 18 10 19 11
REMARK SMILES IDX 20 12 8 13 7 14 6 15 5 16 4 17 3 18 2 19 1 20
REMARK H PARENT
REMARK Flexibility Score: inf
ROOT
ATOM      1  C   UNL     1       5.123  -4.242  40.896  1.00  0.00    -0.031 C 
ATOM      2  C   UNL     1       4.341  -4.999  40.108  1.00  0.00    -0.031 C 
ENDROOT
BRANCH   1   3
ATOM      3  C   UNL     1       6.309  -3.438  40.422  1.00  0.00     0.027 C 
BRANCH   3   4
ATOM      4  C   UNL     1       7.421  -3.336  41.482  1.00  0.00     0.004 C 
BRANCH   4   5
ATOM      5  C   UNL     1       8.624  -4.271  41.239  1.00  0.00     0.000 C 
BRANCH   5   6
ATOM      6  C   UNL     1      10.006  -3.629  41.471  1.00  0.00     0.000 C 
BRANCH   6   7
ATOM      7  C   UNL     1      11.123  -4.137  40.541  1.00  0.00     0.000 C 
BRANCH   7   8
ATOM      8  C   UNL     1      11.062  -3.513  39.139  1.00  0.00     0.006 C 
BRANCH   8   9
ATOM      9  C   UNL     1       9.614  -3.402  38.652  1.00  0.00     0.053 C 
BRANCH   9  10
ATOM     10  C   UNL     1       9.496  -2.347  37.598  1.00  0.00     0.041 C 
ATOM     11  O   UNL     1      10.469  -2.098  36.839  1.00  0.00    -0.550 OA
ATOM     12  O   UNL     1       8.326  -1.606  37.484  1.00  0.00    -0.550 OA
ENDBRANCH   9  10
ENDBRANCH   8   9
ENDBRANCH   7   8
ENDBRANCH   6   7
ENDBRANCH   5   6
ENDBRANCH   4   5
ENDBRANCH   3   4
ENDBRANCH   1   3
BRANCH   2  13
ATOM     13  C   UNL     1       4.481  -5.103  38.607  1.00  0.00     0.027 C 
BRANCH  13  14
ATOM     14  C   UNL     1       3.112  -5.124  37.902  1.00  0.00     0.004 C 
BRANCH  14  15
ATOM     15  C   UNL     1       2.680  -3.759  37.325  1.00  0.00     0.000 C 
BRANCH  15  16
ATOM     16  C   UNL     1       3.639  -2.590  37.612  1.00  0.00     0.000 C 
BRANCH  16  17
ATOM     17  C   UNL     1       2.979  -1.209  37.456  1.00  0.00    -0.000 C 
BRANCH  17  18
ATOM     18  C   UNL     1       2.024  -0.881  38.615  1.00  0.00    -0.000 C 
BRANCH  18  19
ATOM     19  C   UNL     1       2.732  -0.832  39.976  1.00  0.00    -0.003 C 
ATOM     20  C   UNL     1       1.769  -0.410  41.081  1.00  0.00     0.004 C 
ENDBRANCH  18  19
ENDBRANCH  17  18
ENDBRANCH  16  17
ENDBRANCH  15  16
ENDBRANCH  14  15
ENDBRANCH  13  14
ENDBRANCH   2  13
TORSDOF 15
ENDMDL
MODEL 3
REMARK VINA RESULT:     7.469      1.179      2.263
REMARK INTER + INTRA:          12.737
REMARK INTER:                  13.872
REMARK INTRA:                  -1.136
REMARK UNBOUND:                -1.281
REMARK SMILES CCCCCCCCC=CCCCCCCCC(=O)[O-]
REMARK SMILES IDX 10 1 9 2 11 3 12 4 13 5 14 6 15 7 16 8 17 9 18 10 19 11
REMARK SMILES IDX 20 12 8 13 7 14 6 15 5 16 4 17 3 18 2 19 1 20
REMARK H PARENT
REMARK Flexibility Score: inf
ROOT
ATOM      1  C   UNL     1       3.615  -5.048  38.011  1.00  0.00    -0.031 C 
ATOM      2  C   UNL     1       3.007  -4.000  37.427  1.00  0.00    -0.031 C 
ENDROOT
BRANCH   1   3
ATOM      3  C   UNL     1       4.850  -4.960  38.874  1.00  0.00     0.027 C 
BRANCH   3   4
ATOM      4  C   UNL     1       4.555  -4.402  40.279  1.00  0.00     0.004 C 
BRANCH   4   5
ATOM      5  C   UNL     1       5.604  -3.400  40.802  1.00  0.00     0.000 C 
BRANCH   5   6
ATOM      6  C   UNL     1       6.681  -4.005  41.725  1.00  0.00     0.000 C 
BRANCH   6   7
ATOM      7  C   UNL     1       7.968  -4.459  41.014  1.00  0.00     0.000 C 
BRANCH   7   8
ATOM      8  C   UNL     1       9.036  -3.357  40.953  1.00  0.00     0.006 C 
BRANCH   8   9
ATOM      9  C   UNL     1      10.258  -3.823  40.155  1.00  0.00     0.053 C 
BRANCH   9  10
ATOM     10  C   UNL     1      10.142  -3.398  38.725  1.00  0.00     0.041 C 
ATOM     11  O   UNL     1       9.143  -2.735  38.340  1.00  0.00    -0.550 OA
ATOM     12  O   UNL     1      11.114  -3.775  37.807  1.00  0.00    -0.550 OA
ENDBRANCH   9  10
ENDBRANCH   8   9
ENDBRANCH   7   8
ENDBRANCH   6   7
ENDBRANCH   5   6
ENDBRANCH   4   5
ENDBRANCH   3   4
ENDBRANCH   1   3
BRANCH   2  13
ATOM     13  C   UNL     1       3.423  -2.559  37.607  1.00  0.00     0.027 C 
BRANCH  13  14
ATOM     14  C   UNL     1       2.242  -1.669  38.036  1.00  0.00     0.004 C 
BRANCH  14  15
ATOM     15  C   UNL     1       2.632  -0.526  38.997  1.00  0.00     0.000 C 
BRANCH  15  16
ATOM     16  C   UNL     1       2.603  -0.885  40.493  1.00  0.00     0.000 C 
BRANCH  16  17
ATOM     17  C   UNL     1       1.846   0.144  41.351  1.00  0.00    -0.000 C 
BRANCH  17  18
ATOM     18  C   UNL     1       0.374  -0.242  41.568  1.00  0.00    -0.000 C 
BRANCH  18  19
ATOM     19  C   UNL     1      -0.492   0.942  42.021  1.00  0.00    -0.003 C 
ATOM     20  C   UNL     1      -0.295   2.147  41.107  1.00  0.00     0.004 C 
ENDBRANCH  18  19
ENDBRANCH  17  18
ENDBRANCH  16  17
ENDBRANCH  15  16
ENDBRANCH  14  15
ENDBRANCH  13  14
ENDBRANCH   2  13
TORSDOF 15
ENDMDL
MODEL 4
REMARK VINA RESULT:     7.685     20.038     21.923
REMARK INTER + INTRA:          13.143
REMARK INTER:                  14.314
REMARK INTRA:                  -1.170
REMARK UNBOUND:                -1.281
REMARK SMILES CCCCCCCCC=CCCCCCCCC(=O)[O-]
REMARK SMILES IDX 10 1 9 2 11 3 12 4 13 5 14 6 15 7 16 8 17 9 18 10 19 11
REMARK SMILES IDX 20 12 8 13 7 14 6 15 5 16 4 17 3 18 2 19 1 20
REMARK H PARENT
REMARK Flexibility Score: inf
ROOT
ATOM      1  C   UNL     1       5.685  14.706  24.753  1.00  0.00    -0.031 C 
ATOM      2  C   UNL     1       4.914  15.074  25.791  1.00  0.00    -0.031 C 
ENDROOT
BRANCH   1   3
ATOM      3  C   UNL     1       5.168  14.215  23.423  1.00  0.00     0.027 C 
BRANCH   3   4
ATOM      4  C   UNL     1       6.176  13.307  22.692  1.00  0.00     0.004 C 
BRANCH   4   5
ATOM      5  C   UNL     1       7.604  13.881  22.601  1.00  0.00     0.000 C 
BRANCH   5   6
ATOM      6  C   UNL     1       8.728  12.828  22.540  1.00  0.00     0.000 C 
BRANCH   6   7
ATOM      7  C   UNL     1      10.150  13.381  22.742  1.00  0.00     0.000 C 
BRANCH   7   8
ATOM      8  C   UNL     1      11.041  12.447  23.575  1.00  0.00     0.006 C 
BRANCH   8   9
ATOM      9  C   UNL     1      11.125  12.921  25.028  1.00  0.00     0.053 C 
BRANCH   9  10
ATOM     10  C   UNL     1      10.136  12.186  25.877  1.00  0.00     0.041 C 
ATOM     11  O   UNL     1      10.522  11.264  26.643  1.00  0.00    -0.550 OA
ATOM     12  O   UNL     1       8.783  12.486  25.786  1.00  0.00    -0.550 OA
ENDBRANCH   9  10
ENDBRANCH   8   9
ENDBRANCH   7   8
ENDBRANCH   6   7
ENDBRANCH   5   6
ENDBRANCH   4   5
ENDBRANCH   3   4
ENDBRANCH   1   3
BRANCH   2  13
ATOM     13  C   UNL     1       3.404  15.125  25.762  1.00  0.00     0.027 C 
BRANCH  13  14
ATOM     14  C   UNL     1       2.775  13.777  26.158  1.00  0.00     0.004 C 
BRANCH  14  15
ATOM     15  C   UNL     1       3.793  12.733  26.665  1.00  0.00     0.000 C 
BRANCH  15  16
ATOM     16  C   UNL     1       4.107  11.589  25.685  1.00  0.00     0.000 C 
BRANCH  16  17
ATOM     17  C   UNL     1       2.867  11.077  24.930  1.00  0.00    -0.000 C 
BRANCH  17  18
ATOM     18  C   UNL     1       3.190   9.890  24.009  1.00  0.00    -0.000 C 
BRANCH  18  19
ATOM     19  C   UNL     1       2.875  10.178  22.534  1.00  0.00    -0.003 C 
ATOM     20  C   UNL     1       1.530   9.579  22.133  1.00  0.00     0.004 C 
ENDBRANCH  18  19
ENDBRANCH  17  18
ENDBRANCH  16  17
ENDBRANCH  15  16
ENDBRANCH  14  15
ENDBRANCH  13  14
ENDBRANCH   2  13
TORSDOF 15
ENDMDL
MODEL 5
REMARK VINA RESULT:     7.737     19.867     22.627
REMARK INTER + INTRA:          13.241
REMARK INTER:                  14.566
REMARK INTRA:                  -1.325
REMARK UNBOUND:                -1.281
REMARK SMILES CCCCCCCCC=CCCCCCCCC(=O)[O-]
REMARK SMILES IDX 10 1 9 2 11 3 12 4 13 5 14 6 15 7 16 8 17 9 18 10 19 11
REMARK SMILES IDX 20 12 8 13 7 14 6 15 5 16 4 17 3 18 2 19 1 20
REMARK H PARENT
REMARK Flexibility Score: inf
ROOT
ATOM      1  C   UNL     1       4.970  14.407  23.602  1.00  0.00    -0.031 C 
ATOM      2  C   UNL     1       5.568  13.394  22.951  1.00  0.00    -0.031 C 
ENDROOT
BRANCH   1   3
ATOM      3  C   UNL     1       5.496  15.057  24.858  1.00  0.00     0.027 C 
BRANCH   3   4
ATOM      4  C   UNL     1       5.244  14.207  26.118  1.00  0.00     0.004 C 
BRANCH   4   5
ATOM      5  C   UNL     1       3.842  14.382  26.737  1.00  0.00     0.000 C 
BRANCH   5   6
ATOM      6  C   UNL     1       2.836  13.264  26.400  1.00  0.00     0.000 C 
BRANCH   6   7
ATOM      7  C   UNL     1       3.442  12.025  25.717  1.00  0.00     0.000 C 
BRANCH   7   8
ATOM      8  C   UNL     1       2.377  11.034  25.224  1.00  0.00     0.006 C 
BRANCH   8   9
ATOM      9  C   UNL     1       3.009   9.933  24.367  1.00  0.00     0.053 C 
BRANCH   9  10
ATOM     10  C   UNL     1       2.543  10.042  22.949  1.00  0.00     0.041 C 
ATOM     11  O   UNL     1       3.319   9.742  22.003  1.00  0.00    -0.550 OA
ATOM     12  O   UNL     1       1.269  10.520  22.670  1.00  0.00    -0.550 OA
ENDBRANCH   9  10
ENDBRANCH   8   9
ENDBRANCH   7   8
ENDBRANCH   6   7
ENDBRANCH   5   6
ENDBRANCH   4   5
ENDBRANCH   3   4
ENDBRANCH   1   3
BRANCH   2  13
ATOM     13  C   UNL     1       6.903  12.798  23.333  1.00  0.00     0.027 C 
BRANCH  13  14
ATOM     14  C   UNL     1       7.929  12.905  22.190  1.00  0.00     0.004 C 
BRANCH  14  15
ATOM     15  C   UNL     1       9.138  13.809  22.514  1.00  0.00     0.000 C 
BRANCH  15  16
ATOM     16  C   UNL     1      10.496  13.089  22.591  1.00  0.00     0.000 C 
BRANCH  16  17
ATOM     17  C   UNL     1      11.125  13.124  23.994  1.00  0.00    -0.000 C 
BRANCH  17  18
ATOM     18  C   UNL     1      10.349  12.268  25.007  1.00  0.00    -0.000 C 
BRANCH  18  19
ATOM     19  C   UNL     1      10.926  12.355  26.427  1.00  0.00    -0.003 C 
ATOM     20  C   UNL     1      10.765  11.031  27.167  1.00  0.00     0.004 C 
ENDBRANCH  18  19
ENDBRANCH  17  18
ENDBRANCH  16  17
ENDBRANCH  15  16
ENDBRANCH  14  15
ENDBRANCH  13  14
ENDBRANCH   2  13
TORSDOF 15
ENDMDL
MODEL 6
REMARK VINA RESULT:     7.775     14.658     19.290
REMARK INTER + INTRA:          13.311
REMARK INTER:                  13.852
REMARK INTRA:                  -0.541
REMARK UNBOUND:                -1.281
REMARK SMILES CCCCCCCCC=CCCCCCCCC(=O)[O-]
REMARK SMILES IDX 10 1 9 2 11 3 12 4 13 5 14 6 15 7 16 8 17 9 18 10 19 11
REMARK SMILES IDX 20 12 8 13 7 14 6 15 5 16 4 17 3 18 2 19 1 20
REMARK H PARENT
REMARK Flexibility Score: inf
ROOT
ATOM      1  C   UNL     1      -2.188  14.951  37.982  1.00  0.00    -0.031 C 
ATOM      2  C   UNL     1      -2.008  13.818  37.282  1.00  0.00    -0.031 C 
ENDROOT
BRANCH   1   3
ATOM      3  C   UNL     1      -2.634  15.015  39.423  1.00  0.00     0.027 C 
BRANCH   3   4
ATOM      4  C   UNL     1      -3.698  13.954  39.763  1.00  0.00     0.004 C 
BRANCH   4   5
ATOM      5  C   UNL     1      -3.758  13.563  41.254  1.00  0.00     0.000 C 
BRANCH   5   6
ATOM      6  C   UNL     1      -5.049  12.841  41.688  1.00  0.00     0.000 C 
BRANCH   6   7
ATOM      7  C   UNL     1      -6.348  13.634  41.458  1.00  0.00     0.000 C 
BRANCH   7   8
ATOM      8  C   UNL     1      -7.513  12.748  40.991  1.00  0.00     0.006 C 
BRANCH   8   9
ATOM      9  C   UNL     1      -8.334  13.450  39.906  1.00  0.00     0.053 C 
BRANCH   9  10
ATOM     10  C   UNL     1      -8.153  12.767  38.588  1.00  0.00     0.041 C 
ATOM     11  O   UNL     1      -7.100  12.118  38.350  1.00  0.00    -0.550 OA
ATOM     12  O   UNL     1      -9.125  12.888  37.602  1.00  0.00    -0.550 OA
ENDBRANCH   9  10
ENDBRANCH   8   9
ENDBRANCH   7   8
ENDBRANCH   6   7
ENDBRANCH   5   6
ENDBRANCH   4   5
ENDBRANCH   3   4
ENDBRANCH   1   3
BRANCH   2  13
ATOM     13  C   UNL     1      -2.149  12.426  37.851  1.00  0.00     0.027 C 
BRANCH  13  14
ATOM     14  C   UNL     1      -0.821  11.903  38.428  1.00  0.00     0.004 C 
BRANCH  14  15
ATOM     15  C   UNL     1      -0.896  10.461  38.974  1.00  0.00     0.000 C 
BRANCH  15  16
ATOM     16  C   UNL     1      -1.072  10.343  40.498  1.00  0.00     0.000 C 
BRANCH  16  17
ATOM     17  C   UNL     1       0.260  10.219  41.257  1.00  0.00    -0.000 C 
BRANCH  17  18
ATOM     18  C   UNL     1       0.521   8.789  41.756  1.00  0.00    -0.000 C 
BRANCH  18  19
ATOM     19  C   UNL     1       1.801   8.177  41.170  1.00  0.00    -0.003 C 
ATOM     20  C   UNL     1       1.755   6.653  41.226  1.00  0.00     0.004 C 
ENDBRANCH  18  19
ENDBRANCH  17  18
ENDBRANCH  16  17
ENDBRANCH  15  16
ENDBRANCH  14  15
ENDBRANCH  13  14
ENDBRANCH   2  13
TORSDOF 15
ENDMDL
