MODEL 1
REMARK VINA RESULT:    -2.470      0.000      0.000
REMARK INTER + INTRA:          -6.850
REMARK INTER:                  -4.780
REMARK INTRA:                  -2.070
REMARK UNBOUND:                -2.070
REMARK SMILES CCCCCCCCCCCCCCCCCC(=O)[O-]
REMARK SMILES IDX 10 1 11 2 12 3 13 4 14 5 15 6 16 7 17 8 18 9 19 10 20 11
REMARK SMILES IDX 9 12 8 13 7 14 6 15 5 16 4 17 3 18 2 19 1 20
REMARK H PARENT
REMARK Flexibility Score: inf
ROOT
ATOM      1  C   UNL     1      54.003   1.846  24.538  1.00  0.00     0.000 C 
ENDROOT
BRANCH   1   2
ATOM      2  C   UNL     1      53.015   3.014  24.704  1.00  0.00     0.000 C 
BRANCH   2   3
ATOM      3  C   UNL     1      51.581   2.538  24.987  1.00  0.00     0.000 C 
BRANCH   3   4
ATOM      4  C   UNL     1      50.599   2.932  23.869  1.00  0.00     0.000 C 
BRANCH   4   5
ATOM      5  C   UNL     1      49.937   1.713  23.207  1.00  0.00     0.000 C 
BRANCH   5   6
ATOM      6  C   UNL     1      50.491   0.379  23.738  1.00  0.00     0.000 C 
BRANCH   6   7
ATOM      7  C   UNL     1      50.726  -0.654  22.619  1.00  0.00     0.006 C 
BRANCH   7   8
ATOM      8  C   UNL     1      52.152  -0.657  22.048  1.00  0.00     0.053 C 
BRANCH   8   9
ATOM      9  C   UNL     1      52.236   0.082  20.749  1.00  0.00     0.041 C 
ATOM     10  O   UNL     1      52.860   1.175  20.678  1.00  0.00    -0.550 OA
ATOM     11  O   UNL     1      51.651  -0.450  19.608  1.00  0.00    -0.550 OA
ENDBRANCH   8   9
ENDBRANCH   7   8
ENDBRANCH   6   7
ENDBRANCH   5   6
ENDBRANCH   4   5
ENDBRANCH   3   4
ENDBRANCH   2   3
ENDBRANCH   1   2
BRANCH   1  12
ATOM     12  C   UNL     1      54.894   1.989  23.291  1.00  0.00     0.000 C 
BRANCH  12  13
ATOM     13  C   UNL     1      56.376   2.293  23.581  1.00  0.00    -0.000 C 
BRANCH  13  14
ATOM     14  C   UNL     1      56.779   1.978  25.031  1.00  0.00    -0.000 C 
BRANCH  14  15
ATOM     15  C   UNL     1      57.803   0.834  25.124  1.00  0.00    -0.000 C 
BRANCH  15  16
ATOM     16  C   UNL     1      57.185  -0.543  24.835  1.00  0.00    -0.000 C 
BRANCH  16  17
ATOM     17  C   UNL     1      58.266  -1.557  24.430  1.00  0.00    -0.000 C 
BRANCH  17  18
ATOM     18  C   UNL     1      58.361  -1.731  22.900  1.00  0.00    -0.000 C 
BRANCH  18  19
ATOM     19  C   UNL     1      57.166  -1.138  22.136  1.00  0.00    -0.003 C 
ATOM     20  C   UNL     1      57.582  -0.195  21.009  1.00  0.00     0.004 C 
ENDBRANCH  18  19
ENDBRANCH  17  18
ENDBRANCH  16  17
ENDBRANCH  15  16
ENDBRANCH  14  15
ENDBRANCH  13  14
ENDBRANCH  12  13
ENDBRANCH   1  12
TORSDOF 16
ENDMDL
MODEL 2
REMARK VINA RESULT:    -2.432      2.841      7.021
REMARK INTER + INTRA:          -6.778
REMARK INTER:                  -4.811
REMARK INTRA:                  -1.967
REMARK UNBOUND:                -2.070
REMARK SMILES CCCCCCCCCCCCCCCCCC(=O)[O-]
REMARK SMILES IDX 10 1 11 2 12 3 13 4 14 5 15 6 16 7 17 8 18 9 19 10 20 11
REMARK SMILES IDX 9 12 8 13 7 14 6 15 5 16 4 17 3 18 2 19 1 20
REMARK H PARENT
REMARK Flexibility Score: inf
ROOT
ATOM      1  C   UNL     1      52.283  -0.348  21.187  1.00  0.00     0.000 C 
ENDROOT
BRANCH   1   2
ATOM      2  C   UNL     1      53.429   0.672  21.298  1.00  0.00     0.000 C 
BRANCH   2   3
ATOM      3  C   UNL     1      53.735   1.059  22.754  1.00  0.00     0.000 C 
BRANCH   3   4
ATOM      4  C   UNL     1      55.011   1.909  22.882  1.00  0.00     0.000 C 
BRANCH   4   5
ATOM      5  C   UNL     1      55.399   2.180  24.344  1.00  0.00     0.000 C 
BRANCH   5   6
ATOM      6  C   UNL     1      56.587   1.320  24.809  1.00  0.00     0.000 C 
BRANCH   6   7
ATOM      7  C   UNL     1      57.008   0.272  23.762  1.00  0.00     0.006 C 
BRANCH   7   8
ATOM      8  C   UNL     1      57.258  -1.131  24.335  1.00  0.00     0.053 C 
BRANCH   8   9
ATOM      9  C   UNL     1      58.506  -1.748  23.783  1.00  0.00     0.041 C 
ATOM     10  O   UNL     1      59.516  -1.907  24.520  1.00  0.00    -0.550 OA
ATOM     11  O   UNL     1      58.545  -2.173  22.462  1.00  0.00    -0.550 OA
ENDBRANCH   8   9
ENDBRANCH   7   8
ENDBRANCH   6   7
ENDBRANCH   5   6
ENDBRANCH   4   5
ENDBRANCH   3   4
ENDBRANCH   2   3
ENDBRANCH   1   2
BRANCH   1  12
ATOM     12  C   UNL     1      51.559  -0.290  19.829  1.00  0.00     0.000 C 
BRANCH  12  13
ATOM     13  C   UNL     1      50.283   0.572  19.808  1.00  0.00    -0.000 C 
BRANCH  13  14
ATOM     14  C   UNL     1      50.500   1.946  19.151  1.00  0.00    -0.000 C 
BRANCH  14  15
ATOM     15  C   UNL     1      50.873   3.035  20.171  1.00  0.00    -0.000 C 
BRANCH  15  16
ATOM     16  C   UNL     1      49.878   3.125  21.338  1.00  0.00    -0.000 C 
BRANCH  16  17
ATOM     17  C   UNL     1      50.583   2.886  22.682  1.00  0.00    -0.000 C 
BRANCH  17  18
ATOM     18  C   UNL     1      49.875   1.807  23.530  1.00  0.00    -0.000 C 
BRANCH  18  19
ATOM     19  C   UNL     1      50.786   1.155  24.583  1.00  0.00    -0.003 C 
ATOM     20  C   UNL     1      50.624  -0.361  24.659  1.00  0.00     0.004 C 
ENDBRANCH  18  19
ENDBRANCH  17  18
ENDBRANCH  16  17
ENDBRANCH  15  16
ENDBRANCH  14  15
ENDBRANCH  13  14
ENDBRANCH  12  13
ENDBRANCH   1  12
TORSDOF 16
ENDMDL
MODEL 3
REMARK VINA RESULT:    -2.431      1.575      2.230
REMARK INTER + INTRA:          -6.775
REMARK INTER:                  -4.920
REMARK INTRA:                  -1.855
REMARK UNBOUND:                -2.070
REMARK SMILES CCCCCCCCCCCCCCCCCC(=O)[O-]
REMARK SMILES IDX 10 1 11 2 12 3 13 4 14 5 15 6 16 7 17 8 18 9 19 10 20 11
REMARK SMILES IDX 9 12 8 13 7 14 6 15 5 16 4 17 3 18 2 19 1 20
REMARK H PARENT
REMARK Flexibility Score: inf
ROOT
ATOM      1  C   UNL     1      55.974   2.748  22.989  1.00  0.00     0.000 C 
ENDROOT
BRANCH   1   2
ATOM      2  C   UNL     1      54.574   2.942  22.381  1.00  0.00     0.000 C 
BRANCH   2   3
ATOM      3  C   UNL     1      53.452   2.509  23.338  1.00  0.00     0.000 C 
BRANCH   3   4
ATOM      4  C   UNL     1      52.482   1.505  22.690  1.00  0.00     0.000 C 
BRANCH   4   5
ATOM      5  C   UNL     1      53.118   0.738  21.519  1.00  0.00     0.000 C 
BRANCH   5   6
ATOM      6  C   UNL     1      52.560  -0.690  21.376  1.00  0.00     0.000 C 
BRANCH   6   7
ATOM      7  C   UNL     1      51.481  -1.014  22.426  1.00  0.00     0.006 C 
BRANCH   7   8
ATOM      8  C   UNL     1      50.098  -1.328  21.836  1.00  0.00     0.053 C 
BRANCH   8   9
ATOM      9  C   UNL     1      49.997  -0.923  20.398  1.00  0.00     0.041 C 
ATOM     10  O   UNL     1      49.878   0.292  20.086  1.00  0.00    -0.550 OA
ATOM     11  O   UNL     1      50.063  -1.886  19.399  1.00  0.00    -0.550 OA
ENDBRANCH   8   9
ENDBRANCH   7   8
ENDBRANCH   6   7
ENDBRANCH   5   6
ENDBRANCH   4   5
ENDBRANCH   3   4
ENDBRANCH   2   3
ENDBRANCH   1   2
BRANCH   1  12
ATOM     12  C   UNL     1      56.009   1.655  24.073  1.00  0.00     0.000 C 
BRANCH  12  13
ATOM     13  C   UNL     1      57.122   1.817  25.125  1.00  0.00    -0.000 C 
BRANCH  13  14
ATOM     14  C   UNL     1      58.122   0.648  25.122  1.00  0.00    -0.000 C 
BRANCH  14  15
ATOM     15  C   UNL     1      57.443  -0.709  24.870  1.00  0.00    -0.000 C 
BRANCH  15  16
ATOM     16  C   UNL     1      58.425  -1.784  24.378  1.00  0.00    -0.000 C 
BRANCH  16  17
ATOM     17  C   UNL     1      58.658  -1.664  22.864  1.00  0.00    -0.000 C 
BRANCH  17  18
ATOM     18  C   UNL     1      57.366  -1.898  22.053  1.00  0.00    -0.000 C 
BRANCH  18  19
ATOM     19  C   UNL     1      56.792  -0.617  21.425  1.00  0.00    -0.003 C 
ATOM     20  C   UNL     1      57.869   0.316  20.877  1.00  0.00     0.004 C 
ENDBRANCH  18  19
ENDBRANCH  17  18
ENDBRANCH  16  17
ENDBRANCH  15  16
ENDBRANCH  14  15
ENDBRANCH  13  14
ENDBRANCH  12  13
ENDBRANCH   1  12
TORSDOF 16
ENDMDL
MODEL 4
REMARK VINA RESULT:    -2.411      1.697      2.787
REMARK INTER + INTRA:          -6.737
REMARK INTER:                  -5.192
REMARK INTRA:                  -1.545
REMARK UNBOUND:                -2.070
REMARK SMILES CCCCCCCCCCCCCCCCCC(=O)[O-]
REMARK SMILES IDX 10 1 11 2 12 3 13 4 14 5 15 6 16 7 17 8 18 9 19 10 20 11
REMARK SMILES IDX 9 12 8 13 7 14 6 15 5 16 4 17 3 18 2 19 1 20
REMARK H PARENT
REMARK Flexibility Score: inf
ROOT
ATOM      1  C   UNL     1      54.833   1.627  24.624  1.00  0.00     0.000 C 
ENDROOT
BRANCH   1   2
ATOM      2  C   UNL     1      53.299   1.653  24.510  1.00  0.00     0.000 C 
BRANCH   2   3
ATOM      3  C   UNL     1      52.804   1.224  23.119  1.00  0.00     0.000 C 
BRANCH   3   4
ATOM      4  C   UNL     1      51.359   0.696  23.146  1.00  0.00     0.000 C 
BRANCH   4   5
ATOM      5  C   UNL     1      51.182  -0.587  22.317  1.00  0.00     0.000 C 
BRANCH   5   6
ATOM      6  C   UNL     1      52.209  -0.699  21.177  1.00  0.00     0.000 C 
BRANCH   6   7
ATOM      7  C   UNL     1      51.648  -0.225  19.823  1.00  0.00     0.006 C 
BRANCH   7   8
ATOM      8  C   UNL     1      50.193   0.262  19.876  1.00  0.00     0.053 C 
BRANCH   8   9
ATOM      9  C   UNL     1      50.072   1.709  19.511  1.00  0.00     0.041 C 
ATOM     10  O   UNL     1      50.173   2.599  20.397  1.00  0.00    -0.550 OA
ATOM     11  O   UNL     1      49.876   2.077  18.186  1.00  0.00    -0.550 OA
ENDBRANCH   8   9
ENDBRANCH   7   8
ENDBRANCH   6   7
ENDBRANCH   5   6
ENDBRANCH   4   5
ENDBRANCH   3   4
ENDBRANCH   2   3
ENDBRANCH   1   2
BRANCH   1  12
ATOM     12  C   UNL     1      55.498   2.890  24.047  1.00  0.00     0.000 C 
BRANCH  12  13
ATOM     13  C   UNL     1      55.908   2.792  22.566  1.00  0.00    -0.000 C 
BRANCH  13  14
ATOM     14  C   UNL     1      57.054   1.794  22.327  1.00  0.00    -0.000 C 
BRANCH  14  15
ATOM     15  C   UNL     1      56.595   0.539  21.565  1.00  0.00    -0.000 C 
BRANCH  15  16
ATOM     16  C   UNL     1      57.280  -0.743  22.061  1.00  0.00    -0.000 C 
BRANCH  16  17
ATOM     17  C   UNL     1      56.721  -1.172  23.426  1.00  0.00    -0.000 C 
BRANCH  17  18
ATOM     18  C   UNL     1      57.761  -1.023  24.557  1.00  0.00    -0.000 C 
BRANCH  18  19
ATOM     19  C   UNL     1      58.785  -2.170  24.609  1.00  0.00    -0.003 C 
ATOM     20  C   UNL     1      60.213  -1.688  24.854  1.00  0.00     0.004 C 
ENDBRANCH  18  19
ENDBRANCH  17  18
ENDBRANCH  16  17
ENDBRANCH  15  16
ENDBRANCH  14  15
ENDBRANCH  13  14
ENDBRANCH  12  13
ENDBRANCH   1  12
TORSDOF 16
ENDMDL
MODEL 5
REMARK VINA RESULT:    -2.410      1.688      2.526
REMARK INTER + INTRA:          -6.734
REMARK INTER:                  -4.792
REMARK INTRA:                  -1.942
REMARK UNBOUND:                -2.070
REMARK SMILES CCCCCCCCCCCCCCCCCC(=O)[O-]
REMARK SMILES IDX 10 1 11 2 12 3 13 4 14 5 15 6 16 7 17 8 18 9 19 10 20 11
REMARK SMILES IDX 9 12 8 13 7 14 6 15 5 16 4 17 3 18 2 19 1 20
REMARK H PARENT
REMARK Flexibility Score: inf
ROOT
ATOM      1  C   UNL     1      54.025   0.864  21.963  1.00  0.00     0.000 C 
ENDROOT
BRANCH   1   2
ATOM      2  C   UNL     1      52.910   1.201  20.959  1.00  0.00     0.000 C 
BRANCH   2   3
ATOM      3  C   UNL     1      52.229   2.545  21.263  1.00  0.00     0.000 C 
BRANCH   3   4
ATOM      4  C   UNL     1      50.957   2.380  22.115  1.00  0.00     0.000 C 
BRANCH   4   5
ATOM      5  C   UNL     1      51.082   3.037  23.499  1.00  0.00     0.000 C 
BRANCH   5   6
ATOM      6  C   UNL     1      50.671   2.091  24.641  1.00  0.00     0.000 C 
BRANCH   6   7
ATOM      7  C   UNL     1      51.069   0.628  24.372  1.00  0.00     0.006 C 
BRANCH   7   8
ATOM      8  C   UNL     1      50.010  -0.189  23.617  1.00  0.00     0.053 C 
BRANCH   8   9
ATOM      9  C   UNL     1      50.523  -1.538  23.216  1.00  0.00     0.041 C 
ATOM     10  O   UNL     1      50.106  -2.574  23.799  1.00  0.00    -0.550 OA
ATOM     11  O   UNL     1      51.440  -1.653  22.180  1.00  0.00    -0.550 OA
ENDBRANCH   8   9
ENDBRANCH   7   8
ENDBRANCH   6   7
ENDBRANCH   5   6
ENDBRANCH   4   5
ENDBRANCH   3   4
ENDBRANCH   2   3
ENDBRANCH   1   2
BRANCH   1  12
ATOM     12  C   UNL     1      54.689   2.117  22.563  1.00  0.00     0.000 C 
BRANCH  12  13
ATOM     13  C   UNL     1      54.518   2.280  24.085  1.00  0.00    -0.000 C 
BRANCH  13  14
ATOM     14  C   UNL     1      55.320   1.243  24.890  1.00  0.00    -0.000 C 
BRANCH  14  15
ATOM     15  C   UNL     1      56.778   1.675  25.122  1.00  0.00    -0.000 C 
BRANCH  15  16
ATOM     16  C   UNL     1      57.783   0.543  24.858  1.00  0.00    -0.000 C 
BRANCH  16  17
ATOM     17  C   UNL     1      57.086  -0.678  24.237  1.00  0.00    -0.000 C 
BRANCH  17  18
ATOM     18  C   UNL     1      58.093  -1.693  23.656  1.00  0.00    -0.000 C 
BRANCH  18  19
ATOM     19  C   UNL     1      58.145  -1.699  22.119  1.00  0.00    -0.003 C 
ATOM     20  C   UNL     1      57.418  -0.512  21.490  1.00  0.00     0.004 C 
ENDBRANCH  18  19
ENDBRANCH  17  18
ENDBRANCH  16  17
ENDBRANCH  15  16
ENDBRANCH  14  15
ENDBRANCH  13  14
ENDBRANCH  12  13
ENDBRANCH   1  12
TORSDOF 16
ENDMDL
MODEL 6
REMARK VINA RESULT:    -2.406      2.632      6.012
REMARK INTER + INTRA:          -6.727
REMARK INTER:                  -4.589
REMARK INTRA:                  -2.138
REMARK UNBOUND:                -2.070
REMARK SMILES CCCCCCCCCCCCCCCCCC(=O)[O-]
REMARK SMILES IDX 10 1 11 2 12 3 13 4 14 5 15 6 16 7 17 8 18 9 19 10 20 11
REMARK SMILES IDX 9 12 8 13 7 14 6 15 5 16 4 17 3 18 2 19 1 20
REMARK H PARENT
REMARK Flexibility Score: inf
ROOT
ATOM      1  C   UNL     1      52.995   1.273  24.087  1.00  0.00     0.000 C 
ENDROOT
BRANCH   1   2
ATOM      2  C   UNL     1      53.926   1.987  25.083  1.00  0.00     0.000 C 
BRANCH   2   3
ATOM      3  C   UNL     1      54.749   3.104  24.422  1.00  0.00     0.000 C 
BRANCH   3   4
ATOM      4  C   UNL     1      55.004   2.843  22.927  1.00  0.00     0.000 C 
BRANCH   4   5
ATOM      5  C   UNL     1      56.501   2.808  22.579  1.00  0.00     0.000 C 
BRANCH   5   6
ATOM      6  C   UNL     1      56.990   1.395  22.216  1.00  0.00     0.000 C 
BRANCH   6   7
ATOM      7  C   UNL     1      55.916   0.316  22.450  1.00  0.00     0.006 C 
BRANCH   7   8
ATOM      8  C   UNL     1      56.464  -1.116  22.535  1.00  0.00     0.053 C 
BRANCH   8   9
ATOM      9  C   UNL     1      57.515  -1.252  23.593  1.00  0.00     0.041 C 
ATOM     10  O   UNL     1      58.671  -1.656  23.292  1.00  0.00    -0.550 OA
ATOM     11  O   UNL     1      57.228  -0.905  24.906  1.00  0.00    -0.550 OA
ENDBRANCH   8   9
ENDBRANCH   7   8
ENDBRANCH   6   7
ENDBRANCH   5   6
ENDBRANCH   4   5
ENDBRANCH   3   4
ENDBRANCH   2   3
ENDBRANCH   1   2
BRANCH   1  12
ATOM     12  C   UNL     1      51.629   1.966  23.942  1.00  0.00     0.000 C 
BRANCH  12  13
ATOM     13  C   UNL     1      50.414   1.020  23.946  1.00  0.00    -0.000 C 
BRANCH  13  14
ATOM     14  C   UNL     1      50.812  -0.464  23.890  1.00  0.00    -0.000 C 
BRANCH  14  15
ATOM     15  C   UNL     1      49.875  -1.293  22.994  1.00  0.00    -0.000 C 
BRANCH  15  16
ATOM     16  C   UNL     1      50.497  -1.627  21.630  1.00  0.00    -0.000 C 
BRANCH  16  17
ATOM     17  C   UNL     1      50.595  -0.372  20.748  1.00  0.00    -0.000 C 
BRANCH  17  18
ATOM     18  C   UNL     1      51.980  -0.234  20.079  1.00  0.00    -0.000 C 
BRANCH  18  19
ATOM     19  C   UNL     1      52.824   0.921  20.642  1.00  0.00    -0.003 C 
ATOM     20  C   UNL     1      52.149   2.283  20.496  1.00  0.00     0.004 C 
ENDBRANCH  18  19
ENDBRANCH  17  18
ENDBRANCH  16  17
ENDBRANCH  15  16
ENDBRANCH  14  15
ENDBRANCH  13  14
ENDBRANCH  12  13
ENDBRANCH   1  12
TORSDOF 16
ENDMDL
MODEL 7
REMARK VINA RESULT:    -2.398      2.212      3.134
REMARK INTER + INTRA:          -6.712
REMARK INTER:                  -5.920
REMARK INTRA:                  -0.791
REMARK UNBOUND:                -2.070
REMARK SMILES CCCCCCCCCCCCCCCCCC(=O)[O-]
REMARK SMILES IDX 10 1 11 2 12 3 13 4 14 5 15 6 16 7 17 8 18 9 19 10 20 11
REMARK SMILES IDX 9 12 8 13 7 14 6 15 5 16 4 17 3 18 2 19 1 20
REMARK H PARENT
REMARK Flexibility Score: inf
ROOT
ATOM      1  C   UNL     1      54.992   2.468  22.610  1.00  0.00     0.000 C 
ENDROOT
BRANCH   1   2
ATOM      2  C   UNL     1      53.584   3.085  22.553  1.00  0.00     0.000 C 
BRANCH   2   3
ATOM      3  C   UNL     1      52.497   2.044  22.239  1.00  0.00     0.000 C 
BRANCH   3   4
ATOM      4  C   UNL     1      52.443   1.681  20.745  1.00  0.00     0.000 C 
BRANCH   4   5
ATOM      5  C   UNL     1      52.563   0.169  20.498  1.00  0.00     0.000 C 
BRANCH   5   6
ATOM      6  C   UNL     1      51.217  -0.477  20.123  1.00  0.00     0.000 C 
BRANCH   6   7
ATOM      7  C   UNL     1      50.679  -1.411  21.223  1.00  0.00     0.006 C 
BRANCH   7   8
ATOM      8  C   UNL     1      49.876  -0.698  22.321  1.00  0.00     0.053 C 
BRANCH   8   9
ATOM      9  C   UNL     1      50.152  -1.270  23.678  1.00  0.00     0.041 C 
ATOM     10  O   UNL     1      49.877  -2.474  23.928  1.00  0.00    -0.550 OA
ATOM     11  O   UNL     1      50.740  -0.480  24.658  1.00  0.00    -0.550 OA
ENDBRANCH   8   9
ENDBRANCH   7   8
ENDBRANCH   6   7
ENDBRANCH   5   6
ENDBRANCH   4   5
ENDBRANCH   3   4
ENDBRANCH   2   3
ENDBRANCH   1   2
BRANCH   1  12
ATOM     12  C   UNL     1      55.819   2.975  23.806  1.00  0.00     0.000 C 
BRANCH  12  13
ATOM     13  C   UNL     1      55.606   2.201  25.120  1.00  0.00    -0.000 C 
BRANCH  13  14
ATOM     14  C   UNL     1      56.009   0.720  25.015  1.00  0.00    -0.000 C 
BRANCH  14  15
ATOM     15  C   UNL     1      57.032   0.466  23.895  1.00  0.00    -0.000 C 
BRANCH  15  16
ATOM     16  C   UNL     1      56.679  -0.754  23.031  1.00  0.00    -0.000 C 
BRANCH  16  17
ATOM     17  C   UNL     1      57.897  -1.229  22.224  1.00  0.00    -0.000 C 
BRANCH  17  18
ATOM     18  C   UNL     1      58.661  -2.368  22.934  1.00  0.00    -0.000 C 
BRANCH  18  19
ATOM     19  C   UNL     1      58.845  -2.140  24.443  1.00  0.00    -0.003 C 
ATOM     20  C   UNL     1      60.172  -1.470  24.791  1.00  0.00     0.004 C 
ENDBRANCH  18  19
ENDBRANCH  17  18
ENDBRANCH  16  17
ENDBRANCH  15  16
ENDBRANCH  14  15
ENDBRANCH  13  14
ENDBRANCH  12  13
ENDBRANCH   1  12
TORSDOF 16
ENDMDL
MODEL 8
REMARK VINA RESULT:    -2.240     18.859     21.841
REMARK INTER + INTRA:          -6.406
REMARK INTER:                  -4.866
REMARK INTRA:                  -1.540
REMARK UNBOUND:                -2.070
REMARK SMILES CCCCCCCCCCCCCCCCCC(=O)[O-]
REMARK SMILES IDX 10 1 11 2 12 3 13 4 14 5 15 6 16 7 17 8 18 9 19 10 20 11
REMARK SMILES IDX 9 12 8 13 7 14 6 15 5 16 4 17 3 18 2 19 1 20
REMARK H PARENT
REMARK Flexibility Score: inf
ROOT
ATOM      1  C   UNL     1      67.542  -0.517  10.636  1.00  0.00     0.000 C 
ENDROOT
BRANCH   1   2
ATOM      2  C   UNL     1      68.784  -1.332  11.033  1.00  0.00     0.000 C 
BRANCH   2   3
ATOM      3  C   UNL     1      69.382  -2.111   9.850  1.00  0.00     0.000 C 
BRANCH   3   4
ATOM      4  C   UNL     1      69.669  -1.208   8.637  1.00  0.00     0.000 C 
BRANCH   4   5
ATOM      5  C   UNL     1      69.994  -2.010   7.366  1.00  0.00     0.000 C 
BRANCH   5   6
ATOM      6  C   UNL     1      70.000  -3.529   7.612  1.00  0.00     0.000 C 
BRANCH   6   7
ATOM      7  C   UNL     1      70.125  -4.342   6.309  1.00  0.00     0.006 C 
BRANCH   7   8
ATOM      8  C   UNL     1      69.033  -5.405   6.119  1.00  0.00     0.053 C 
BRANCH   8   9
ATOM      9  C   UNL     1      69.603  -6.789   6.059  1.00  0.00     0.041 C 
ATOM     10  O   UNL     1      69.660  -7.405   4.961  1.00  0.00    -0.550 OA
ATOM     11  O   UNL     1      70.097  -7.387   7.210  1.00  0.00    -0.550 OA
ENDBRANCH   8   9
ENDBRANCH   7   8
ENDBRANCH   6   7
ENDBRANCH   5   6
ENDBRANCH   4   5
ENDBRANCH   3   4
ENDBRANCH   2   3
ENDBRANCH   1   2
BRANCH   1  12
ATOM     12  C   UNL     1      67.516   0.884  11.273  1.00  0.00     0.000 C 
BRANCH  12  13
ATOM     13  C   UNL     1      67.882   2.039  10.323  1.00  0.00    -0.000 C 
BRANCH  13  14
ATOM     14  C   UNL     1      69.319   2.548  10.526  1.00  0.00    -0.000 C 
BRANCH  14  15
ATOM     15  C   UNL     1      70.125   2.579   9.216  1.00  0.00    -0.000 C 
BRANCH  15  16
ATOM     16  C   UNL     1      69.415   1.852   8.063  1.00  0.00    -0.000 C 
BRANCH  16  17
ATOM     17  C   UNL     1      69.461   2.688   6.775  1.00  0.00    -0.000 C 
BRANCH  17  18
ATOM     18  C   UNL     1      68.051   3.013   6.238  1.00  0.00    -0.000 C 
BRANCH  18  19
ATOM     19  C   UNL     1      66.929   2.227   6.936  1.00  0.00    -0.003 C 
ATOM     20  C   UNL     1      65.831   3.125   7.502  1.00  0.00     0.004 C 
ENDBRANCH  18  19
ENDBRANCH  17  18
ENDBRANCH  16  17
ENDBRANCH  15  16
ENDBRANCH  14  15
ENDBRANCH  13  14
ENDBRANCH  12  13
ENDBRANCH   1  12
TORSDOF 16
ENDMDL
