MODEL 1
REMARK VINA RESULT:    -3.086      0.000      0.000
REMARK INTER + INTRA:          -4.057
REMARK INTER:                  -4.709
REMARK INTRA:                   0.652
REMARK UNBOUND:                 0.652
REMARK SMILES CC1=CCC[C@H](C)C(=O)C[C@H](C(C)C)C(=O)C1
REMARK SMILES IDX 8 1 9 2 6 3 7 4 5 5 4 6 3 7 2 8 1 9 10 11 11 12 15 13 16 14
REMARK SMILES IDX 17 15 12 17 13 18 14 19
REMARK H PARENT
REMARK Flexibility Score: 70.00
ROOT
ATOM      1  C   UNL     1      17.069  -6.497  15.325  1.00  0.00     0.136 C 
ATOM      2  O   UNL     1      17.781  -7.410  15.718  1.00  0.00    -0.299 OA
ENDROOT
BRANCH   1   3
ATOM      3  C   UNL     1      15.742  -6.235  16.008  1.00  0.00     0.053 C 
ATOM      4  C   UNL     1      15.989  -5.870  17.475  1.00  0.00     0.016 C 
BRANCH   3   5
ATOM      5  C   UNL     1      14.935  -5.113  15.309  1.00  0.00     0.015 C 
BRANCH   5   6
ATOM      6  C   UNL     1      14.607  -5.403  13.836  1.00  0.00     0.028 C 
BRANCH   6   7
ATOM      7  C   UNL     1      14.159  -6.833  13.640  1.00  0.00    -0.028 C 
ATOM      8  C   UNL     1      14.718  -7.710  12.776  1.00  0.00    -0.070 CG0
ATOM      9  C   UNL     1      14.130  -9.096  12.694  1.00  0.00     0.039 C 
ATOM     10  G   UNL     1      15.899  -7.357  11.890  1.00  0.00     0.000 G0
ENDBRANCH   6   7
ENDBRANCH   5   6
ENDBRANCH   3   5
ENDBRANCH   1   3
BRANCH   1  11
ATOM     11  C   UNL     1      17.511  -5.685  14.129  1.00  0.00     0.087 C 
BRANCH  11  12
ATOM     12  C   UNL     1      18.189  -6.534  13.024  1.00  0.00     0.066 C 
BRANCH  12  13
ATOM     13  C   UNL     1      17.260  -7.628  12.508  1.00  0.00     0.140 C 
ATOM     14  O   UNL     1      17.595  -8.797  12.631  1.00  0.00    -0.299 OA
BRANCH  13  15
ATOM     15  C   UNL     1      15.908  -7.339  11.889  1.00  0.00     0.106 CG0
ATOM     16  G   UNL     1      14.727  -7.705  12.769  1.00  0.00     0.000 G0
ENDBRANCH  13  15
ENDBRANCH  12  13
BRANCH  12  17
ATOM     17  C   UNL     1      18.755  -5.637  11.879  1.00  0.00    -0.006 C 
ATOM     18  C   UNL     1      18.096  -4.250  11.876  1.00  0.00     0.008 C 
ATOM     19  C   UNL     1      20.287  -5.485  11.894  1.00  0.00     0.008 C 
ENDBRANCH  12  17
ENDBRANCH  11  12
ENDBRANCH   1  11
TORSDOF 1
ENDMDL
MODEL 2
REMARK VINA RESULT:    -2.082      2.167      3.795
REMARK INTER + INTRA:          -2.525
REMARK INTER:                  -2.459
REMARK INTRA:                  -0.066
REMARK UNBOUND:                 0.652
REMARK SMILES CC1=CCC[C@H](C)C(=O)C[C@H](C(C)C)C(=O)C1
REMARK SMILES IDX 8 1 9 2 6 3 7 4 5 5 4 6 3 7 2 8 1 9 10 11 11 12 15 13 16 14
REMARK SMILES IDX 17 15 12 17 13 18 14 19
REMARK H PARENT
REMARK Flexibility Score: 70.00
ROOT
ATOM      1  C   UNL     1      14.210  -6.468  13.288  1.00  0.00     0.136 C 
ATOM      2  O   UNL     1      13.267  -7.238  13.183  1.00  0.00    -0.299 OA
ENDROOT
BRANCH   1   3
ATOM      3  C   UNL     1      13.957  -5.018  13.651  1.00  0.00     0.053 C 
ATOM      4  C   UNL     1      13.014  -4.394  12.617  1.00  0.00     0.016 C 
BRANCH   3   5
ATOM      5  C   UNL     1      13.364  -4.865  15.072  1.00  0.00     0.015 C 
BRANCH   5   6
ATOM      6  C   UNL     1      14.333  -4.243  16.090  1.00  0.00     0.028 C 
BRANCH   6   7
ATOM      7  C   UNL     1      14.810  -5.265  17.095  1.00  0.00    -0.028 C 
ATOM      8  C   UNL     1      16.038  -5.832  17.101  1.00  0.00    -0.070 CG0
ATOM      9  C   UNL     1      16.341  -6.853  18.169  1.00  0.00     0.039 C 
ATOM     10  G   UNL     1      17.110  -5.492  16.082  1.00  0.00     0.000 G0
ENDBRANCH   6   7
ENDBRANCH   5   6
ENDBRANCH   3   5
ENDBRANCH   1   3
BRANCH   1  11
ATOM     11  C   UNL     1      15.606  -6.973  13.001  1.00  0.00     0.087 C 
BRANCH  11  12
ATOM     12  C   UNL     1      16.721  -6.022  13.501  1.00  0.00     0.066 C 
BRANCH  12  13
ATOM     13  C   UNL     1      17.218  -6.418  14.888  1.00  0.00     0.140 C 
ATOM     14  O   UNL     1      17.744  -7.510  15.040  1.00  0.00    -0.299 OA
BRANCH  13  15
ATOM     15  C   UNL     1      17.133  -5.499  16.090  1.00  0.00     0.106 CG0
ATOM     16  G   UNL     1      16.030  -5.852  17.070  1.00  0.00     0.000 G0
ENDBRANCH  13  15
ENDBRANCH  12  13
BRANCH  12  17
ATOM     17  C   UNL     1      17.879  -5.900  12.461  1.00  0.00    -0.006 C 
ATOM     18  C   UNL     1      18.924  -4.865  12.905  1.00  0.00     0.008 C 
ATOM     19  C   UNL     1      18.573  -7.233  12.130  1.00  0.00     0.008 C 
ENDBRANCH  12  17
ENDBRANCH  11  12
ENDBRANCH   1  11
TORSDOF 1
ENDMDL
MODEL 3
REMARK VINA RESULT:    -2.043      2.086      3.950
REMARK INTER + INTRA:          -2.466
REMARK INTER:                  -3.663
REMARK INTRA:                   1.197
REMARK UNBOUND:                 0.652
REMARK SMILES CC1=CCC[C@H](C)C(=O)C[C@H](C(C)C)C(=O)C1
REMARK SMILES IDX 8 1 9 2 6 3 7 4 5 5 4 6 3 7 2 8 1 9 10 11 11 12 15 13 16 14
REMARK SMILES IDX 17 15 12 17 13 18 14 19
REMARK H PARENT
REMARK Flexibility Score: 70.00
ROOT
ATOM      1  C   UNL     1      15.522  -5.615  12.180  1.00  0.00     0.136 C 
ATOM      2  O   UNL     1      16.141  -4.593  11.923  1.00  0.00    -0.299 OA
ENDROOT
BRANCH   1   3
ATOM      3  C   UNL     1      14.138  -5.520  12.790  1.00  0.00     0.053 C 
ATOM      4  C   UNL     1      13.593  -6.931  13.037  1.00  0.00     0.016 C 
BRANCH   3   5
ATOM      5  C   UNL     1      14.134  -4.710  14.109  1.00  0.00     0.015 C 
BRANCH   5   6
ATOM      6  C   UNL     1      14.011  -5.575  15.374  1.00  0.00     0.028 C 
BRANCH   6   7
ATOM      7  C   UNL     1      15.140  -5.307  16.340  1.00  0.00    -0.028 C 
ATOM      8  C   UNL     1      16.345  -5.922  16.315  1.00  0.00    -0.070 CG0
ATOM      9  C   UNL     1      17.354  -5.547  17.372  1.00  0.00     0.039 C 
ATOM     10  G   UNL     1      16.716  -6.969  15.281  1.00  0.00     0.000 G0
ENDBRANCH   6   7
ENDBRANCH   5   6
ENDBRANCH   3   5
ENDBRANCH   1   3
BRANCH   1  11
ATOM     11  C   UNL     1      16.179  -6.953  11.928  1.00  0.00     0.087 C 
BRANCH  11  12
ATOM     12  C   UNL     1      17.500  -7.148  12.715  1.00  0.00     0.066 C 
BRANCH  12  13
ATOM     13  C   UNL     1      17.465  -6.425  14.058  1.00  0.00     0.140 C 
ATOM     14  O   UNL     1      18.017  -5.341  14.162  1.00  0.00    -0.299 OA
BRANCH  13  15
ATOM     15  C   UNL     1      16.731  -6.967  15.268  1.00  0.00     0.106 CG0
ATOM     16  G   UNL     1      16.351  -5.913  16.292  1.00  0.00     0.000 G0
ENDBRANCH  13  15
ENDBRANCH  12  13
BRANCH  12  17
ATOM     17  C   UNL     1      17.866  -8.658  12.854  1.00  0.00    -0.006 C 
ATOM     18  C   UNL     1      18.560  -8.945  14.194  1.00  0.00     0.008 C 
ATOM     19  C   UNL     1      16.676  -9.617  12.669  1.00  0.00     0.008 C 
ENDBRANCH  12  17
ENDBRANCH  11  12
ENDBRANCH   1  11
TORSDOF 1
ENDMDL
MODEL 4
REMARK VINA RESULT:    -2.007      1.950      4.716
REMARK INTER + INTRA:          -2.410
REMARK INTER:                  -4.629
REMARK INTRA:                   2.219
REMARK UNBOUND:                 0.652
REMARK SMILES CC1=CCC[C@H](C)C(=O)C[C@H](C(C)C)C(=O)C1
REMARK SMILES IDX 8 1 9 2 6 3 7 4 5 5 4 6 3 7 2 8 1 9 10 11 11 12 15 13 16 14
REMARK SMILES IDX 17 15 12 17 13 18 14 19
REMARK H PARENT
REMARK Flexibility Score: 70.00
ROOT
ATOM      1  C   UNL     1      15.331  -8.873  12.701  1.00  0.00     0.136 C 
ATOM      2  O   UNL     1      14.345  -9.547  12.440  1.00  0.00    -0.299 OA
ENDROOT
BRANCH   1   3
ATOM      3  C   UNL     1      16.508  -9.512  13.411  1.00  0.00     0.053 C 
ATOM      4  C   UNL     1      16.522 -11.015  13.119  1.00  0.00     0.016 C 
BRANCH   3   5
ATOM      5  C   UNL     1      17.857  -8.877  12.995  1.00  0.00     0.015 C 
BRANCH   5   6
ATOM      6  C   UNL     1      17.737  -7.831  11.875  1.00  0.00     0.028 C 
BRANCH   6   7
ATOM      7  C   UNL     1      18.816  -6.779  11.983  1.00  0.00    -0.028 C 
ATOM      8  C   UNL     1      18.609  -5.488  12.330  1.00  0.00    -0.070 CG0
ATOM      9  C   UNL     1      19.802  -4.565  12.368  1.00  0.00     0.039 C 
ATOM     10  G   UNL     1      17.238  -4.935  12.673  1.00  0.00     0.000 G0
ENDBRANCH   6   7
ENDBRANCH   5   6
ENDBRANCH   3   5
ENDBRANCH   1   3
BRANCH   1  11
ATOM     11  C   UNL     1      15.327  -7.401  12.354  1.00  0.00     0.087 C 
BRANCH  11  12
ATOM     12  C   UNL     1      15.238  -6.476  13.594  1.00  0.00     0.066 C 
BRANCH  12  13
ATOM     13  C   UNL     1      16.535  -5.703  13.810  1.00  0.00     0.140 C 
ATOM     14  O   UNL     1      17.062  -5.726  14.913  1.00  0.00    -0.299 OA
BRANCH  13  15
ATOM     15  C   UNL     1      17.236  -4.939  12.705  1.00  0.00     0.106 CG0
ATOM     16  G   UNL     1      18.594  -5.498  12.324  1.00  0.00     0.000 G0
ENDBRANCH  13  15
ENDBRANCH  12  13
BRANCH  12  17
ATOM     17  C   UNL     1      13.987  -5.545  13.524  1.00  0.00    -0.006 C 
ATOM     18  C   UNL     1      13.781  -4.785  14.843  1.00  0.00     0.008 C 
ATOM     19  C   UNL     1      14.004  -4.551  12.349  1.00  0.00     0.008 C 
ENDBRANCH  12  17
ENDBRANCH  11  12
ENDBRANCH   1  11
TORSDOF 1
ENDMDL
MODEL 5
REMARK VINA RESULT:    -1.982      1.678      4.362
REMARK INTER + INTRA:          -2.373
REMARK INTER:                  -2.822
REMARK INTRA:                   0.448
REMARK UNBOUND:                 0.652
REMARK SMILES CC1=CCC[C@H](C)C(=O)C[C@H](C(C)C)C(=O)C1
REMARK SMILES IDX 8 1 9 2 6 3 7 4 5 5 4 6 3 7 2 8 1 9 10 11 11 12 15 13 16 14
REMARK SMILES IDX 17 15 12 17 13 18 14 19
REMARK H PARENT
REMARK Flexibility Score: 70.00
ROOT
ATOM      1  C   UNL     1      14.038  -5.646  14.054  1.00  0.00     0.136 C 
ATOM      2  O   UNL     1      13.143  -6.276  14.601  1.00  0.00    -0.299 OA
ENDROOT
BRANCH   1   3
ATOM      3  C   UNL     1      14.067  -5.545  12.542  1.00  0.00     0.053 C 
ATOM      4  C   UNL     1      14.999  -4.401  12.128  1.00  0.00     0.016 C 
BRANCH   3   5
ATOM      5  C   UNL     1      14.517  -6.867  11.875  1.00  0.00     0.015 C 
BRANCH   5   6
ATOM      6  C   UNL     1      15.487  -7.699  12.729  1.00  0.00     0.028 C 
BRANCH   6   7
ATOM      7  C   UNL     1      16.892  -7.652  12.175  1.00  0.00    -0.028 C 
ATOM      8  C   UNL     1      17.870  -6.825  12.610  1.00  0.00    -0.070 CG0
ATOM      9  C   UNL     1      19.213  -6.897  11.927  1.00  0.00     0.039 C 
ATOM     10  G   UNL     1      17.670  -5.833  13.741  1.00  0.00     0.000 G0
ENDBRANCH   6   7
ENDBRANCH   5   6
ENDBRANCH   3   5
ENDBRANCH   1   3
BRANCH   1  11
ATOM     11  C   UNL     1      15.125  -5.029  14.904  1.00  0.00     0.087 C 
BRANCH  11  12
ATOM     12  C   UNL     1      15.915  -6.065  15.743  1.00  0.00     0.066 C 
BRANCH  12  13
ATOM     13  C   UNL     1      17.238  -6.433  15.077  1.00  0.00     0.140 C 
ATOM     14  O   UNL     1      17.949  -7.278  15.599  1.00  0.00    -0.299 OA
BRANCH  13  15
ATOM     15  C   UNL     1      17.697  -5.832  13.764  1.00  0.00     0.106 CG0
ATOM     16  G   UNL     1      17.862  -6.840  12.641  1.00  0.00     0.000 G0
ENDBRANCH  13  15
ENDBRANCH  12  13
BRANCH  12  17
ATOM     17  C   UNL     1      16.096  -5.589  17.218  1.00  0.00    -0.006 C 
ATOM     18  C   UNL     1      14.958  -4.653  17.648  1.00  0.00     0.008 C 
ATOM     19  C   UNL     1      16.243  -6.734  18.237  1.00  0.00     0.008 C 
ENDBRANCH  12  17
ENDBRANCH  11  12
ENDBRANCH   1  11
TORSDOF 1
ENDMDL
MODEL 6
REMARK VINA RESULT:    -1.933      1.861      4.231
REMARK INTER + INTRA:          -2.298
REMARK INTER:                  -4.210
REMARK INTRA:                   1.912
REMARK UNBOUND:                 0.652
REMARK SMILES CC1=CCC[C@H](C)C(=O)C[C@H](C(C)C)C(=O)C1
REMARK SMILES IDX 8 1 9 2 6 3 7 4 5 5 4 6 3 7 2 8 1 9 10 11 11 12 15 13 16 14
REMARK SMILES IDX 17 15 12 17 13 18 14 19
REMARK H PARENT
REMARK Flexibility Score: 70.00
ROOT
ATOM      1  C   UNL     1      17.408  -7.769  13.345  1.00  0.00     0.136 C 
ATOM      2  O   UNL     1      17.371  -8.040  14.537  1.00  0.00    -0.299 OA
ENDROOT
BRANCH   1   3
ATOM      3  C   UNL     1      17.950  -6.426  12.898  1.00  0.00     0.053 C 
ATOM      4  C   UNL     1      19.346  -6.617  12.296  1.00  0.00     0.016 C 
BRANCH   3   5
ATOM      5  C   UNL     1      17.020  -5.730  11.876  1.00  0.00     0.015 C 
BRANCH   5   6
ATOM      6  C   UNL     1      16.343  -4.458  12.411  1.00  0.00     0.028 C 
BRANCH   6   7
ATOM      7  C   UNL     1      15.153  -4.789  13.280  1.00  0.00    -0.028 C 
ATOM      8  C   UNL     1      14.361  -5.876  13.131  1.00  0.00    -0.070 CG0
ATOM      9  C   UNL     1      13.199  -6.041  14.078  1.00  0.00     0.039 C 
ATOM     10  G   UNL     1      14.590  -6.922  12.055  1.00  0.00     0.000 G0
ENDBRANCH   6   7
ENDBRANCH   5   6
ENDBRANCH   3   5
ENDBRANCH   1   3
BRANCH   1  11
ATOM     11  C   UNL     1      16.860  -8.766  12.349  1.00  0.00     0.087 C 
BRANCH  11  12
ATOM     12  C   UNL     1      15.495  -9.367  12.766  1.00  0.00     0.066 C 
BRANCH  12  13
ATOM     13  C   UNL     1      14.353  -8.381  12.535  1.00  0.00     0.140 C 
ATOM     14  O   UNL     1      13.209  -8.730  12.783  1.00  0.00    -0.299 OA
BRANCH  13  15
ATOM     15  C   UNL     1      14.574  -6.961  12.055  1.00  0.00     0.106 CG0
ATOM     16  G   UNL     1      14.354  -5.901  13.119  1.00  0.00     0.000 G0
ENDBRANCH  13  15
ENDBRANCH  12  13
BRANCH  12  17
ATOM     17  C   UNL     1      15.244 -10.748  12.083  1.00  0.00    -0.006 C 
ATOM     18  C   UNL     1      16.498 -11.632  12.130  1.00  0.00     0.008 C 
ATOM     19  C   UNL     1      14.039 -11.522  12.647  1.00  0.00     0.008 C 
ENDBRANCH  12  17
ENDBRANCH  11  12
ENDBRANCH   1  11
TORSDOF 1
ENDMDL
MODEL 7
REMARK VINA RESULT:    -1.590      1.908      3.407
REMARK INTER + INTRA:          -1.774
REMARK INTER:                  -3.817
REMARK INTRA:                   2.044
REMARK UNBOUND:                 0.652
REMARK SMILES CC1=CCC[C@H](C)C(=O)C[C@H](C(C)C)C(=O)C1
REMARK SMILES IDX 8 1 9 2 6 3 7 4 5 5 4 6 3 7 2 8 1 9 10 11 11 12 15 13 16 14
REMARK SMILES IDX 17 15 12 17 13 18 14 19
REMARK H PARENT
REMARK Flexibility Score: 70.00
ROOT
ATOM      1  C   UNL     1      16.151  -5.015  12.625  1.00  0.00     0.136 C 
ATOM      2  O   UNL     1      16.281  -4.038  11.901  1.00  0.00    -0.299 OA
ENDROOT
BRANCH   1   3
ATOM      3  C   UNL     1      14.789  -5.663  12.772  1.00  0.00     0.053 C 
ATOM      4  C   UNL     1      13.702  -4.651  12.398  1.00  0.00     0.016 C 
BRANCH   3   5
ATOM      5  C   UNL     1      14.651  -6.938  11.904  1.00  0.00     0.015 C 
BRANCH   5   6
ATOM      6  C   UNL     1      13.902  -8.087  12.596  1.00  0.00     0.028 C 
BRANCH   6   7
ATOM      7  C   UNL     1      14.580  -9.415  12.353  1.00  0.00    -0.028 C 
ATOM      8  C   UNL     1      15.902  -9.580  12.119  1.00  0.00    -0.070 CG0
ATOM      9  C   UNL     1      16.409 -10.979  11.875  1.00  0.00     0.039 C 
ATOM     10  G   UNL     1      16.885  -8.423  12.084  1.00  0.00     0.000 G0
ENDBRANCH   6   7
ENDBRANCH   5   6
ENDBRANCH   3   5
ENDBRANCH   1   3
BRANCH   1  11
ATOM     11  C   UNL     1      17.349  -5.519  13.398  1.00  0.00     0.087 C 
BRANCH  11  12
ATOM     12  C   UNL     1      17.074  -6.832  14.174  1.00  0.00     0.066 C 
BRANCH  12  13
ATOM     13  C   UNL     1      17.516  -8.056  13.378  1.00  0.00     0.140 C 
ATOM     14  O   UNL     1      18.372  -8.791  13.848  1.00  0.00    -0.299 OA
BRANCH  13  15
ATOM     15  C   UNL     1      16.908  -8.437  12.044  1.00  0.00     0.106 CG0
ATOM     16  G   UNL     1      15.892  -9.562  12.120  1.00  0.00     0.000 G0
ENDBRANCH  13  15
ENDBRANCH  12  13
BRANCH  12  17
ATOM     17  C   UNL     1      17.692  -6.791  15.606  1.00  0.00    -0.006 C 
ATOM     18  C   UNL     1      16.968  -5.773  16.500  1.00  0.00     0.008 C 
ATOM     19  C   UNL     1      17.743  -8.158  16.311  1.00  0.00     0.008 C 
ENDBRANCH  12  17
ENDBRANCH  11  12
ENDBRANCH   1  11
TORSDOF 1
ENDMDL
