MODEL 1
REMARK VINA RESULT:    13.386      0.000      0.000
REMARK INTER + INTRA:          23.827
REMARK INTER:                  24.341
REMARK INTRA:                  -0.514
REMARK UNBOUND:                -0.514
REMARK SMILES CCCCCCCCCCCCCC[C@@H](C)C(=O)[O-]
REMARK SMILES IDX 9 1 10 2 11 3 12 4 13 5 14 6 15 7 16 8 17 9 18 10 19 11 8 12
REMARK SMILES IDX 7 13 6 14 5 15 4 16 3 17 2 18 1 19
REMARK H PARENT
REMARK Flexibility Score: inf
ROOT
ATOM      1  C   UNL     1       4.025  48.764  11.538  1.00  0.00     0.000 C 
ENDROOT
BRANCH   1   2
ATOM      2  C   UNL     1       3.855  48.418  10.050  1.00  0.00     0.000 C 
BRANCH   2   3
ATOM      3  C   UNL     1       4.934  49.066   9.163  1.00  0.00     0.000 C 
BRANCH   3   4
ATOM      4  C   UNL     1       5.646  50.238   9.858  1.00  0.00     0.000 C 
BRANCH   4   5
ATOM      5  C   UNL     1       7.148  49.980  10.062  1.00  0.00     0.001 C 
BRANCH   5   6
ATOM      6  C   UNL     1       7.788  49.226   8.876  1.00  0.00     0.009 C 
BRANCH   6   7
ATOM      7  C   UNL     1       8.173  47.765   9.208  1.00  0.00     0.032 C 
ATOM      8  C   UNL     1       9.648  47.509   8.876  1.00  0.00     0.014 C 
BRANCH   7   9
ATOM      9  C   UNL     1       7.919  47.437  10.653  1.00  0.00     0.044 C 
ATOM     10  O   UNL     1       8.747  47.788  11.536  1.00  0.00    -0.550 OA
ATOM     11  O   UNL     1       6.773  46.743  11.026  1.00  0.00    -0.550 OA
ENDBRANCH   7   9
ENDBRANCH   6   7
ENDBRANCH   5   6
ENDBRANCH   4   5
ENDBRANCH   3   4
ENDBRANCH   2   3
ENDBRANCH   1   2
BRANCH   1  12
ATOM     12  C   UNL     1       4.113  47.512  12.428  1.00  0.00     0.000 C 
BRANCH  12  13
ATOM     13  C   UNL     1       3.853  47.821  13.911  1.00  0.00    -0.000 C 
BRANCH  13  14
ATOM     14  C   UNL     1       2.670  47.027  14.486  1.00  0.00    -0.000 C 
BRANCH  14  15
ATOM     15  C   UNL     1       2.871  46.753  15.984  1.00  0.00    -0.000 C 
BRANCH  15  16
ATOM     16  C   UNL     1       3.282  45.300  16.275  1.00  0.00    -0.000 C 
BRANCH  16  17
ATOM     17  C   UNL     1       2.984  44.816  17.708  1.00  0.00    -0.000 C 
BRANCH  17  18
ATOM     18  C   UNL     1       2.921  45.955  18.748  1.00  0.00    -0.003 C 
ATOM     19  C   UNL     1       1.651  45.903  19.598  1.00  0.00     0.004 C 
ENDBRANCH  17  18
ENDBRANCH  16  17
ENDBRANCH  15  16
ENDBRANCH  14  15
ENDBRANCH  13  14
ENDBRANCH  12  13
ENDBRANCH   1  12
TORSDOF 14
ENDMDL
MODEL 2
REMARK VINA RESULT:    14.680     10.380     12.022
REMARK INTER + INTRA:          26.182
REMARK INTER:                  26.850
REMARK INTRA:                  -0.669
REMARK UNBOUND:                -0.514
REMARK SMILES CCCCCCCCCCCCCC[C@@H](C)C(=O)[O-]
REMARK SMILES IDX 9 1 10 2 11 3 12 4 13 5 14 6 15 7 16 8 17 9 18 10 19 11 8 12
REMARK SMILES IDX 7 13 6 14 5 15 4 16 3 17 2 18 1 19
REMARK H PARENT
REMARK Flexibility Score: inf
ROOT
ATOM      1  C   UNL     1      15.242  52.340  13.161  1.00  0.00     0.000 C 
ENDROOT
BRANCH   1   2
ATOM      2  C   UNL     1      15.238  52.347  11.624  1.00  0.00     0.000 C 
BRANCH   2   3
ATOM      3  C   UNL     1      15.212  50.930  11.024  1.00  0.00     0.000 C 
BRANCH   3   4
ATOM      4  C   UNL     1      15.243  50.937   9.487  1.00  0.00     0.000 C 
BRANCH   4   5
ATOM      5  C   UNL     1      14.841  49.583   8.881  1.00  0.00     0.001 C 
BRANCH   5   6
ATOM      6  C   UNL     1      15.736  48.423   9.369  1.00  0.00     0.009 C 
BRANCH   6   7
ATOM      7  C   UNL     1      15.068  47.034   9.246  1.00  0.00     0.032 C 
ATOM      8  C   UNL     1      16.106  45.969   8.876  1.00  0.00     0.014 C 
BRANCH   7   9
ATOM      9  C   UNL     1      14.372  46.636  10.519  1.00  0.00     0.044 C 
ATOM     10  O   UNL     1      13.949  45.458  10.666  1.00  0.00    -0.550 OA
ATOM     11  O   UNL     1      14.188  47.563  11.539  1.00  0.00    -0.550 OA
ENDBRANCH   7   9
ENDBRANCH   6   7
ENDBRANCH   5   6
ENDBRANCH   4   5
ENDBRANCH   3   4
ENDBRANCH   2   3
ENDBRANCH   1   2
BRANCH   1  12
ATOM     12  C   UNL     1      16.221  53.368  13.753  1.00  0.00     0.000 C 
BRANCH  12  13
ATOM     13  C   UNL     1      16.525  53.110  15.238  1.00  0.00    -0.000 C 
BRANCH  13  14
ATOM     14  C   UNL     1      16.789  51.627  15.542  1.00  0.00    -0.000 C 
BRANCH  14  15
ATOM     15  C   UNL     1      16.508  51.314  17.019  1.00  0.00    -0.000 C 
BRANCH  15  16
ATOM     16  C   UNL     1      17.377  50.168  17.562  1.00  0.00    -0.000 C 
BRANCH  16  17
ATOM     17  C   UNL     1      18.869  50.513  17.740  1.00  0.00    -0.000 C 
BRANCH  17  18
ATOM     18  C   UNL     1      19.333  50.528  19.212  1.00  0.00    -0.003 C 
ATOM     19  C   UNL     1      18.660  49.439  20.049  1.00  0.00     0.004 C 
ENDBRANCH  17  18
ENDBRANCH  16  17
ENDBRANCH  15  16
ENDBRANCH  14  15
ENDBRANCH  13  14
ENDBRANCH  12  13
ENDBRANCH   1  12
TORSDOF 14
ENDMDL
MODEL 3
REMARK VINA RESULT:    14.792      1.010      2.219
REMARK INTER + INTRA:          26.384
REMARK INTER:                  27.205
REMARK INTRA:                  -0.821
REMARK UNBOUND:                -0.514
REMARK SMILES CCCCCCCCCCCCCC[C@@H](C)C(=O)[O-]
REMARK SMILES IDX 9 1 10 2 11 3 12 4 13 5 14 6 15 7 16 8 17 9 18 10 19 11 8 12
REMARK SMILES IDX 7 13 6 14 5 15 4 16 3 17 2 18 1 19
REMARK H PARENT
REMARK Flexibility Score: inf
ROOT
ATOM      1  C   UNL     1       4.347  47.570  13.786  1.00  0.00     0.000 C 
ENDROOT
BRANCH   1   2
ATOM      2  C   UNL     1       4.330  48.544  12.598  1.00  0.00     0.000 C 
BRANCH   2   3
ATOM      3  C   UNL     1       4.227  47.824  11.241  1.00  0.00     0.000 C 
BRANCH   3   4
ATOM      4  C   UNL     1       3.773  48.759  10.109  1.00  0.00     0.000 C 
BRANCH   4   5
ATOM      5  C   UNL     1       4.755  48.773   8.925  1.00  0.00     0.001 C 
BRANCH   5   6
ATOM      6  C   UNL     1       6.090  49.468   9.268  1.00  0.00     0.009 C 
BRANCH   6   7
ATOM      7  C   UNL     1       7.334  48.603   8.959  1.00  0.00     0.032 C 
ATOM      8  C   UNL     1       8.608  49.454   9.013  1.00  0.00     0.014 C 
BRANCH   7   9
ATOM      9  C   UNL     1       7.460  47.449   9.915  1.00  0.00     0.044 C 
ATOM     10  O   UNL     1       6.979  46.324   9.614  1.00  0.00    -0.550 OA
ATOM     11  O   UNL     1       8.104  47.614  11.136  1.00  0.00    -0.550 OA
ENDBRANCH   7   9
ENDBRANCH   6   7
ENDBRANCH   5   6
ENDBRANCH   4   5
ENDBRANCH   3   4
ENDBRANCH   2   3
ENDBRANCH   1   2
BRANCH   1  12
ATOM     12  C   UNL     1       2.942  47.312  14.357  1.00  0.00     0.000 C 
BRANCH  12  13
ATOM     13  C   UNL     1       2.978  46.747  15.786  1.00  0.00    -0.000 C 
BRANCH  13  14
ATOM     14  C   UNL     1       3.488  45.299  15.841  1.00  0.00    -0.000 C 
BRANCH  14  15
ATOM     15  C   UNL     1       3.525  44.786  17.289  1.00  0.00    -0.000 C 
BRANCH  15  16
ATOM     16  C   UNL     1       2.173  44.931  18.008  1.00  0.00    -0.000 C 
BRANCH  16  17
ATOM     17  C   UNL     1       2.263  45.034  19.543  1.00  0.00    -0.000 C 
BRANCH  17  18
ATOM     18  C   UNL     1       1.690  46.349  20.112  1.00  0.00    -0.003 C 
ATOM     19  C   UNL     1       2.760  47.427  20.288  1.00  0.00     0.004 C 
ENDBRANCH  17  18
ENDBRANCH  16  17
ENDBRANCH  15  16
ENDBRANCH  14  15
ENDBRANCH  13  14
ENDBRANCH  12  13
ENDBRANCH   1  12
TORSDOF 14
ENDMDL
MODEL 4
REMARK VINA RESULT:    15.895     10.232     12.294
REMARK INTER + INTRA:          28.390
REMARK INTER:                  29.197
REMARK INTRA:                  -0.807
REMARK UNBOUND:                -0.514
REMARK SMILES CCCCCCCCCCCCCC[C@@H](C)C(=O)[O-]
REMARK SMILES IDX 9 1 10 2 11 3 12 4 13 5 14 6 15 7 16 8 17 9 18 10 19 11 8 12
REMARK SMILES IDX 7 13 6 14 5 15 4 16 3 17 2 18 1 19
REMARK H PARENT
REMARK Flexibility Score: inf
ROOT
ATOM      1  C   UNL     1      15.850  50.517   9.702  1.00  0.00     0.000 C 
ENDROOT
BRANCH   1   2
ATOM      2  C   UNL     1      15.102  50.875  10.997  1.00  0.00     0.000 C 
BRANCH   2   3
ATOM      3  C   UNL     1      15.413  52.300  11.488  1.00  0.00     0.000 C 
BRANCH   3   4
ATOM      4  C   UNL     1      15.286  52.441  13.013  1.00  0.00     0.000 C 
BRANCH   4   5
ATOM      5  C   UNL     1      16.387  53.329  13.618  1.00  0.00     0.001 C 
BRANCH   5   6
ATOM      6  C   UNL     1      16.818  52.866  15.026  1.00  0.00     0.009 C 
BRANCH   6   7
ATOM      7  C   UNL     1      17.219  51.374  15.090  1.00  0.00     0.032 C 
ATOM      8  C   UNL     1      18.583  51.155  14.424  1.00  0.00     0.014 C 
BRANCH   7   9
ATOM      9  C   UNL     1      17.265  50.870  16.507  1.00  0.00     0.044 C 
ATOM     10  O   UNL     1      18.366  50.547  17.027  1.00  0.00    -0.550 OA
ATOM     11  O   UNL     1      16.095  50.753  17.249  1.00  0.00    -0.550 OA
ENDBRANCH   7   9
ENDBRANCH   6   7
ENDBRANCH   5   6
ENDBRANCH   4   5
ENDBRANCH   3   4
ENDBRANCH   2   3
ENDBRANCH   1   2
BRANCH   1  12
ATOM     12  C   UNL     1      15.194  49.349   8.946  1.00  0.00     0.000 C 
BRANCH  12  13
ATOM     13  C   UNL     1      16.090  48.102   8.891  1.00  0.00    -0.000 C 
BRANCH  13  14
ATOM     14  C   UNL     1      15.361  46.825   9.334  1.00  0.00    -0.000 C 
BRANCH  14  15
ATOM     15  C   UNL     1      13.876  46.880   8.945  1.00  0.00    -0.000 C 
BRANCH  15  16
ATOM     16  C   UNL     1      13.216  45.492   8.911  1.00  0.00    -0.000 C 
BRANCH  16  17
ATOM     17  C   UNL     1      14.157  44.317   9.244  1.00  0.00    -0.000 C 
BRANCH  17  18
ATOM     18  C   UNL     1      13.428  42.969   9.428  1.00  0.00    -0.003 C 
ATOM     19  C   UNL     1      12.001  42.995   8.880  1.00  0.00     0.004 C 
ENDBRANCH  17  18
ENDBRANCH  16  17
ENDBRANCH  15  16
ENDBRANCH  14  15
ENDBRANCH  13  14
ENDBRANCH  12  13
ENDBRANCH   1  12
TORSDOF 14
ENDMDL
MODEL 5
REMARK VINA RESULT:    16.112     10.010     11.462
REMARK INTER + INTRA:          28.785
REMARK INTER:                  29.381
REMARK INTRA:                  -0.596
REMARK UNBOUND:                -0.514
REMARK SMILES CCCCCCCCCCCCCC[C@@H](C)C(=O)[O-]
REMARK SMILES IDX 9 1 10 2 11 3 12 4 13 5 14 6 15 7 16 8 17 9 18 10 19 11 8 12
REMARK SMILES IDX 7 13 6 14 5 15 4 16 3 17 2 18 1 19
REMARK H PARENT
REMARK Flexibility Score: inf
ROOT
ATOM      1  C   UNL     1      15.106  50.773  10.978  1.00  0.00     0.000 C 
ENDROOT
BRANCH   1   2
ATOM      2  C   UNL     1      14.953  50.815   9.449  1.00  0.00     0.000 C 
BRANCH   2   3
ATOM      3  C   UNL     1      13.968  49.756   8.921  1.00  0.00     0.000 C 
BRANCH   3   4
ATOM      4  C   UNL     1      14.579  48.346   8.885  1.00  0.00     0.000 C 
BRANCH   4   5
ATOM      5  C   UNL     1      13.533  47.242   9.113  1.00  0.00     0.001 C 
BRANCH   5   6
ATOM      6  C   UNL     1      14.104  46.030   9.880  1.00  0.00     0.009 C 
BRANCH   6   7
ATOM      7  C   UNL     1      14.739  44.961   8.962  1.00  0.00     0.032 C 
ATOM      8  C   UNL     1      16.258  45.159   8.877  1.00  0.00     0.014 C 
BRANCH   7   9
ATOM      9  C   UNL     1      14.440  43.567   9.439  1.00  0.00     0.044 C 
ATOM     10  O   UNL     1      15.368  42.835   9.874  1.00  0.00    -0.550 OA
ATOM     11  O   UNL     1      13.140  43.075   9.401  1.00  0.00    -0.550 OA
ENDBRANCH   7   9
ENDBRANCH   6   7
ENDBRANCH   5   6
ENDBRANCH   4   5
ENDBRANCH   3   4
ENDBRANCH   2   3
ENDBRANCH   1   2
BRANCH   1  12
ATOM     12  C   UNL     1      15.983  51.918  11.514  1.00  0.00     0.000 C 
BRANCH  12  13
ATOM     13  C   UNL     1      15.242  52.807  12.525  1.00  0.00    -0.000 C 
BRANCH  13  14
ATOM     14  C   UNL     1      15.763  52.639  13.961  1.00  0.00    -0.000 C 
BRANCH  14  15
ATOM     15  C   UNL     1      15.140  51.403  14.627  1.00  0.00    -0.000 C 
BRANCH  15  16
ATOM     16  C   UNL     1      15.495  51.286  16.118  1.00  0.00    -0.000 C 
BRANCH  16  17
ATOM     17  C   UNL     1      16.964  51.603  16.463  1.00  0.00    -0.000 C 
BRANCH  17  18
ATOM     18  C   UNL     1      17.541  50.725  17.593  1.00  0.00    -0.003 C 
ATOM     19  C   UNL     1      18.989  50.310  17.331  1.00  0.00     0.004 C 
ENDBRANCH  17  18
ENDBRANCH  16  17
ENDBRANCH  15  16
ENDBRANCH  14  15
ENDBRANCH  13  14
ENDBRANCH  12  13
ENDBRANCH   1  12
TORSDOF 14
ENDMDL
