MODEL 1
REMARK VINA RESULT:    -1.376      0.000      0.000
REMARK INTER + INTRA:          -1.497
REMARK INTER:                  -1.497
REMARK INTRA:                   0.000
REMARK UNBOUND:                 0.000
REMARK SMILES Oc1cccc(O)c1O
REMARK SMILES IDX 4 1 5 2 6 3 8 4 2 5 3 6 7 7 1 9 9 11
REMARK H PARENT 7 8 1 10 9 12
REMARK Flexibility Score: inf
ROOT
ATOM      1  C   UNL     1       1.439   5.497  -9.601  1.00  0.00     0.008 A 
ATOM      2  C   UNL     1       0.445   5.513 -10.582  1.00  0.00     0.050 A 
ATOM      3  C   UNL     1      -0.847   5.958 -10.280  1.00  0.00     0.161 A 
ATOM      4  C   UNL     1      -1.146   6.393  -8.964  1.00  0.00     0.200 A 
ATOM      5  C   UNL     1      -0.140   6.374  -7.985  1.00  0.00     0.161 A 
ATOM      6  C   UNL     1       1.149   5.925  -8.307  1.00  0.00     0.050 A 
ENDROOT
BRANCH   3   7
ATOM      7  O   UNL     1      -1.796   5.949 -11.305  1.00  0.00    -0.504 OA
ATOM      8  H   UNL     1      -2.160   5.109 -11.732  1.00  0.00     0.293 HD
ENDBRANCH   3   7
BRANCH   5   9
ATOM      9  O   UNL     1      -0.429   6.801  -6.690  1.00  0.00    -0.504 OA
ATOM     10  H   UNL     1      -1.315   6.588  -6.246  1.00  0.00     0.293 HD
ENDBRANCH   5   9
BRANCH   4  11
ATOM     11  O   UNL     1      -2.413   6.848  -8.593  1.00  0.00    -0.502 OA
ATOM     12  H   UNL     1      -3.143   6.253  -8.228  1.00  0.00     0.293 HD
ENDBRANCH   4  11
TORSDOF 3
ENDMDL
MODEL 2
REMARK VINA RESULT:    -1.020      0.185      2.813
REMARK INTER + INTRA:          -1.109
REMARK INTER:                  -1.109
REMARK INTRA:                   0.000
REMARK UNBOUND:                 0.000
REMARK SMILES Oc1cccc(O)c1O
REMARK SMILES IDX 4 1 5 2 6 3 8 4 2 5 3 6 7 7 1 9 9 11
REMARK H PARENT 7 8 1 10 9 12
REMARK Flexibility Score: inf
ROOT
ATOM      1  C   UNL     1       1.448   5.532  -9.702  1.00  0.00     0.008 A 
ATOM      2  C   UNL     1       1.260   6.017  -8.406  1.00  0.00     0.050 A 
ATOM      3  C   UNL     1      -0.001   6.453  -7.984  1.00  0.00     0.161 A 
ATOM      4  C   UNL     1      -1.095   6.401  -8.883  1.00  0.00     0.200 A 
ATOM      5  C   UNL     1      -0.897   5.912 -10.184  1.00  0.00     0.161 A 
ATOM      6  C   UNL     1       0.373   5.479 -10.589  1.00  0.00     0.050 A 
ENDROOT
BRANCH   3   7
ATOM      7  O   UNL     1      -0.121   6.927  -6.675  1.00  0.00    -0.504 OA
ATOM      8  H   UNL     1      -1.004   7.097  -6.214  1.00  0.00     0.293 HD
ENDBRANCH   3   7
BRANCH   5   9
ATOM      9  O   UNL     1      -1.970   5.860 -11.071  1.00  0.00    -0.504 OA
ATOM     10  H   UNL     1      -2.375   4.978 -11.365  1.00  0.00     0.293 HD
ENDBRANCH   5   9
BRANCH   4  11
ATOM     11  O   UNL     1      -2.379   6.820  -8.529  1.00  0.00    -0.502 OA
ATOM     12  H   UNL     1      -3.103   7.049  -9.195  1.00  0.00     0.293 HD
ENDBRANCH   4  11
TORSDOF 3
ENDMDL
MODEL 3
REMARK VINA RESULT:    -0.091      0.894      2.873
REMARK INTER + INTRA:          -0.099
REMARK INTER:                  -0.099
REMARK INTRA:                   0.000
REMARK UNBOUND:                 0.000
REMARK SMILES Oc1cccc(O)c1O
REMARK SMILES IDX 4 1 5 2 6 3 8 4 2 5 3 6 7 7 1 9 9 11
REMARK H PARENT 7 8 1 10 9 12
REMARK Flexibility Score: inf
ROOT
ATOM      1  C   UNL     1       1.174   5.645  -8.655  1.00  0.00     0.008 A 
ATOM      2  C   UNL     1      -0.011   6.151  -8.118  1.00  0.00     0.050 A 
ATOM      3  C   UNL     1      -1.143   6.322  -8.923  1.00  0.00     0.161 A 
ATOM      4  C   UNL     1      -1.082   5.976 -10.296  1.00  0.00     0.200 A 
ATOM      5  C   UNL     1       0.113   5.466 -10.827  1.00  0.00     0.161 A 
ATOM      6  C   UNL     1       1.237   5.303 -10.006  1.00  0.00     0.050 A 
ENDROOT
BRANCH   3   7
ATOM      7  O   UNL     1      -2.297   6.833  -8.324  1.00  0.00    -0.504 OA
ATOM      8  H   UNL     1      -3.130   7.093  -8.832  1.00  0.00     0.293 HD
ENDBRANCH   3   7
BRANCH   5   9
ATOM      9  O   UNL     1       0.177   5.125 -12.177  1.00  0.00    -0.504 OA
ATOM     10  H   UNL     1      -0.414   5.574 -12.867  1.00  0.00     0.293 HD
ENDBRANCH   5   9
BRANCH   4  11
ATOM     11  O   UNL     1      -2.173   6.120 -11.156  1.00  0.00    -0.502 OA
ATOM     12  H   UNL     1      -3.137   6.112 -10.854  1.00  0.00     0.293 HD
ENDBRANCH   4  11
TORSDOF 3
ENDMDL
MODEL 4
REMARK VINA RESULT:     0.455      0.923      1.698
REMARK INTER + INTRA:           0.495
REMARK INTER:                   0.495
REMARK INTRA:                   0.000
REMARK UNBOUND:                 0.000
REMARK SMILES Oc1cccc(O)c1O
REMARK SMILES IDX 4 1 5 2 6 3 8 4 2 5 3 6 7 7 1 9 9 11
REMARK H PARENT 7 8 1 10 9 12
REMARK Flexibility Score: inf
ROOT
ATOM      1  C   UNL     1       1.217   5.680  -8.750  1.00  0.00     0.008 A 
ATOM      2  C   UNL     1       1.222   5.327 -10.101  1.00  0.00     0.050 A 
ATOM      3  C   UNL     1       0.060   5.444 -10.873  1.00  0.00     0.161 A 
ATOM      4  C   UNL     1      -1.131   5.926 -10.273  1.00  0.00     0.200 A 
ATOM      5  C   UNL     1      -1.126   6.279  -8.914  1.00  0.00     0.161 A 
ATOM      6  C   UNL     1       0.048   6.155  -8.158  1.00  0.00     0.050 A 
ENDROOT
BRANCH   3   7
ATOM      7  O   UNL     1       0.131   5.074 -12.218  1.00  0.00    -0.504 OA
ATOM      8  H   UNL     1       0.281   5.724 -12.976  1.00  0.00     0.293 HD
ENDBRANCH   3   7
BRANCH   5   9
ATOM      9  O   UNL     1      -2.294   6.753  -8.321  1.00  0.00    -0.504 OA
ATOM     10  H   UNL     1      -2.948   6.129  -7.862  1.00  0.00     0.293 HD
ENDBRANCH   5   9
BRANCH   4  11
ATOM     11  O   UNL     1      -2.325   6.068 -10.983  1.00  0.00    -0.502 OA
ATOM     12  H   UNL     1      -2.624   5.442 -11.718  1.00  0.00     0.293 HD
ENDBRANCH   4  11
TORSDOF 3
ENDMDL
MODEL 5
REMARK VINA RESULT:     0.505      1.554      2.715
REMARK INTER + INTRA:           0.549
REMARK INTER:                   0.549
REMARK INTRA:                   0.000
REMARK UNBOUND:                 0.000
REMARK SMILES Oc1cccc(O)c1O
REMARK SMILES IDX 4 1 5 2 6 3 8 4 2 5 3 6 7 7 1 9 9 11
REMARK H PARENT 7 8 1 10 9 12
REMARK Flexibility Score: inf
ROOT
ATOM      1  C   UNL     1      -0.733   5.627 -11.356  1.00  0.00     0.008 A 
ATOM      2  C   UNL     1      -1.646   6.094 -10.409  1.00  0.00     0.050 A 
ATOM      3  C   UNL     1      -1.263   6.267  -9.074  1.00  0.00     0.161 A 
ATOM      4  C   UNL     1       0.065   5.963  -8.684  1.00  0.00     0.200 A 
ATOM      5  C   UNL     1       0.977   5.494  -9.643  1.00  0.00     0.161 A 
ATOM      6  C   UNL     1       0.575   5.327 -10.976  1.00  0.00     0.050 A 
ENDROOT
BRANCH   3   7
ATOM      7  O   UNL     1      -2.225   6.738  -8.176  1.00  0.00    -0.504 OA
ATOM      8  H   UNL     1      -3.209   6.813  -8.390  1.00  0.00     0.293 HD
ENDBRANCH   3   7
BRANCH   5   9
ATOM      9  O   UNL     1       2.283   5.194  -9.263  1.00  0.00    -0.504 OA
ATOM     10  H   UNL     1       2.560   5.163  -8.289  1.00  0.00     0.293 HD
ENDBRANCH   5   9
BRANCH   4  11
ATOM     11  O   UNL     1       0.514   6.111  -7.370  1.00  0.00    -0.502 OA
ATOM     12  H   UNL     1       1.472   5.970  -7.080  1.00  0.00     0.293 HD
ENDBRANCH   4  11
TORSDOF 3
ENDMDL
MODEL 6
REMARK VINA RESULT:     0.522      1.546      2.689
REMARK INTER + INTRA:           0.568
REMARK INTER:                   0.568
REMARK INTRA:                   0.000
REMARK UNBOUND:                 0.000
REMARK SMILES Oc1cccc(O)c1O
REMARK SMILES IDX 4 1 5 2 6 3 8 4 2 5 3 6 7 7 1 9 9 11
REMARK H PARENT 7 8 1 10 9 12
REMARK Flexibility Score: inf
ROOT
ATOM      1  C   UNL     1      -0.715   5.606 -11.393  1.00  0.00     0.008 A 
ATOM      2  C   UNL     1       0.586   5.319 -10.975  1.00  0.00     0.050 A 
ATOM      3  C   UNL     1       0.961   5.495  -9.638  1.00  0.00     0.161 A 
ATOM      4  C   UNL     1       0.007   5.970  -8.703  1.00  0.00     0.200 A 
ATOM      5  C   UNL     1      -1.299   6.255  -9.132  1.00  0.00     0.161 A 
ATOM      6  C   UNL     1      -1.655   6.073 -10.475  1.00  0.00     0.050 A 
ENDROOT
BRANCH   3   7
ATOM      7  O   UNL     1       2.277   5.191  -9.284  1.00  0.00    -0.504 OA
ATOM      8  H   UNL     1       2.531   4.515  -8.578  1.00  0.00     0.293 HD
ENDBRANCH   3   7
BRANCH   5   9
ATOM      9  O   UNL     1      -2.239   6.722  -8.216  1.00  0.00    -0.504 OA
ATOM     10  H   UNL     1      -2.297   7.703  -7.967  1.00  0.00     0.293 HD
ENDBRANCH   5   9
BRANCH   4  11
ATOM     11  O   UNL     1       0.312   6.169  -7.354  1.00  0.00    -0.502 OA
ATOM     12  H   UNL     1       0.951   5.590  -6.828  1.00  0.00     0.293 HD
ENDBRANCH   4  11
TORSDOF 3
ENDMDL
MODEL 7
REMARK VINA RESULT:     1.604     10.852     12.078
REMARK INTER + INTRA:           1.745
REMARK INTER:                   1.745
REMARK INTRA:                   0.000
REMARK UNBOUND:                 0.000
REMARK SMILES Oc1cccc(O)c1O
REMARK SMILES IDX 4 1 5 2 6 3 8 4 2 5 3 6 7 7 1 9 9 11
REMARK H PARENT 7 8 1 10 9 12
REMARK Flexibility Score: inf
ROOT
ATOM      1  C   UNL     1      12.023   7.134  -5.882  1.00  0.00     0.008 A 
ATOM      2  C   UNL     1      10.680   7.516  -5.876  1.00  0.00     0.050 A 
ATOM      3  C   UNL     1      10.058   7.951  -7.052  1.00  0.00     0.161 A 
ATOM      4  C   UNL     1      10.802   8.003  -8.257  1.00  0.00     0.200 A 
ATOM      5  C   UNL     1      12.151   7.617  -8.254  1.00  0.00     0.161 A 
ATOM      6  C   UNL     1      12.758   7.184  -7.066  1.00  0.00     0.050 A 
ENDROOT
BRANCH   3   7
ATOM      7  O   UNL     1       8.712   8.319  -6.979  1.00  0.00    -0.504 OA
ATOM      8  H   UNL     1       8.266   8.961  -7.618  1.00  0.00     0.293 HD
ENDBRANCH   3   7
BRANCH   5   9
ATOM      9  O   UNL     1      12.886   7.668  -9.437  1.00  0.00    -0.504 OA
ATOM     10  H   UNL     1      13.175   8.549  -9.846  1.00  0.00     0.293 HD
ENDBRANCH   5   9
BRANCH   4  11
ATOM     11  O   UNL     1      10.244   8.428  -9.466  1.00  0.00    -0.502 OA
ATOM     12  H   UNL     1      10.560   8.117 -10.374  1.00  0.00     0.293 HD
ENDBRANCH   4  11
TORSDOF 3
ENDMDL
