MODEL 1
REMARK VINA RESULT:    -2.783      0.000      0.000
REMARK INTER + INTRA:          -8.737
REMARK INTER:                  -6.362
REMARK INTRA:                  -2.376
REMARK UNBOUND:                -2.376
REMARK SMILES CCCCCCCCCCCCCCCCCCCCCCCC(=O)[O-]
REMARK SMILES IDX 13 1 14 2 15 3 16 4 17 5 18 6 19 7 20 8 21 9 22 10 23 11
REMARK SMILES IDX 24 12 25 13 26 14 12 15 11 16 10 17 9 18 8 19 7 20 6 21 5 22
REMARK SMILES IDX 4 23 3 24 2 25 1 26
REMARK H PARENT
REMARK Flexibility Score: inf
ROOT
ATOM      1  C   UNL     1      45.826  60.866  49.506  1.00  0.00     0.000 C 
ENDROOT
BRANCH   1   2
ATOM      2  C   UNL     1      45.182  59.515  49.865  1.00  0.00     0.000 C 
BRANCH   2   3
ATOM      3  C   UNL     1      46.147  58.482  50.485  1.00  0.00     0.000 C 
BRANCH   3   4
ATOM      4  C   UNL     1      46.683  57.418  49.507  1.00  0.00     0.000 C 
BRANCH   4   5
ATOM      5  C   UNL     1      45.971  57.371  48.144  1.00  0.00     0.000 C 
BRANCH   5   6
ATOM      6  C   UNL     1      44.734  56.462  48.149  1.00  0.00     0.000 C 
BRANCH   6   7
ATOM      7  C   UNL     1      43.700  56.935  47.116  1.00  0.00     0.000 C 
BRANCH   7   8
ATOM      8  C   UNL     1      44.179  58.157  46.318  1.00  0.00     0.000 C 
BRANCH   8   9
ATOM      9  C   UNL     1      44.018  57.970  44.799  1.00  0.00     0.000 C 
BRANCH   9  10
ATOM     10  C   UNL     1      42.982  56.892  44.430  1.00  0.00     0.006 C 
BRANCH  10  11
ATOM     11  C   UNL     1      41.907  57.373  43.439  1.00  0.00     0.053 C 
BRANCH  11  12
ATOM     12  C   UNL     1      40.834  58.180  44.103  1.00  0.00     0.041 C 
ATOM     13  O   UNL     1      40.844  58.345  45.351  1.00  0.00    -0.550 OA
ATOM     14  O   UNL     1      39.802  58.723  43.348  1.00  0.00    -0.550 OA
ENDBRANCH  11  12
ENDBRANCH  10  11
ENDBRANCH   9  10
ENDBRANCH   8   9
ENDBRANCH   7   8
ENDBRANCH   6   7
ENDBRANCH   5   6
ENDBRANCH   4   5
ENDBRANCH   3   4
ENDBRANCH   2   3
ENDBRANCH   1   2
BRANCH   1  15
ATOM     15  C   UNL     1      44.853  61.812  48.780  1.00  0.00     0.000 C 
BRANCH  15  16
ATOM     16  C   UNL     1      43.880  62.513  49.740  1.00  0.00     0.000 C 
BRANCH  16  17
ATOM     17  C   UNL     1      42.625  61.669  50.027  1.00  0.00     0.000 C 
BRANCH  17  18
ATOM     18  C   UNL     1      41.764  61.452  48.772  1.00  0.00    -0.000 C 
BRANCH  18  19
ATOM     19  C   UNL     1      41.758  59.985  48.306  1.00  0.00    -0.000 C 
BRANCH  19  20
ATOM     20  C   UNL     1      42.310  59.021  49.371  1.00  0.00    -0.000 C 
BRANCH  20  21
ATOM     21  C   UNL     1      41.397  57.822  49.701  1.00  0.00    -0.000 C 
BRANCH  21  22
ATOM     22  C   UNL     1      39.892  58.059  49.481  1.00  0.00    -0.000 C 
BRANCH  22  23
ATOM     23  C   UNL     1      39.365  57.403  48.193  1.00  0.00    -0.000 C 
BRANCH  23  24
ATOM     24  C   UNL     1      40.346  56.376  47.600  1.00  0.00    -0.000 C 
BRANCH  24  25
ATOM     25  C   UNL     1      39.710  55.329  46.667  1.00  0.00    -0.003 C 
ATOM     26  C   UNL     1      39.652  53.932  47.284  1.00  0.00     0.004 C 
ENDBRANCH  24  25
ENDBRANCH  23  24
ENDBRANCH  22  23
ENDBRANCH  21  22
ENDBRANCH  20  21
ENDBRANCH  19  20
ENDBRANCH  18  19
ENDBRANCH  17  18
ENDBRANCH  16  17
ENDBRANCH  15  16
ENDBRANCH   1  15
TORSDOF 22
ENDMDL
MODEL 2
REMARK VINA RESULT:    -2.734      2.492      6.679
REMARK INTER + INTRA:          -8.625
REMARK INTER:                  -5.648
REMARK INTRA:                  -2.977
REMARK UNBOUND:                -2.376
REMARK SMILES CCCCCCCCCCCCCCCCCCCCCCCC(=O)[O-]
REMARK SMILES IDX 13 1 14 2 15 3 16 4 17 5 18 6 19 7 20 8 21 9 22 10 23 11
REMARK SMILES IDX 24 12 25 13 26 14 12 15 11 16 10 17 9 18 8 19 7 20 6 21 5 22
REMARK SMILES IDX 4 23 3 24 2 25 1 26
REMARK H PARENT
REMARK Flexibility Score: inf
ROOT
ATOM      1  C   UNL     1      40.235  56.153  46.136  1.00  0.00     0.000 C 
ENDROOT
BRANCH   1   2
ATOM      2  C   UNL     1      40.027  55.959  47.649  1.00  0.00     0.000 C 
BRANCH   2   3
ATOM      3  C   UNL     1      39.017  56.932  48.294  1.00  0.00     0.000 C 
BRANCH   3   4
ATOM      4  C   UNL     1      39.645  58.107  49.068  1.00  0.00     0.000 C 
BRANCH   4   5
ATOM      5  C   UNL     1      40.994  57.797  49.740  1.00  0.00     0.000 C 
BRANCH   5   6
ATOM      6  C   UNL     1      42.119  58.733  49.278  1.00  0.00     0.000 C 
BRANCH   6   7
ATOM      7  C   UNL     1      41.659  59.608  48.103  1.00  0.00     0.000 C 
BRANCH   7   8
ATOM      8  C   UNL     1      41.667  61.106  48.443  1.00  0.00     0.000 C 
BRANCH   8   9
ATOM      9  C   UNL     1      42.156  61.383  49.876  1.00  0.00     0.000 C 
BRANCH   9  10
ATOM     10  C   UNL     1      43.568  61.996  49.923  1.00  0.00     0.006 C 
BRANCH  10  11
ATOM     11  C   UNL     1      44.473  61.568  48.754  1.00  0.00     0.053 C 
BRANCH  11  12
ATOM     12  C   UNL     1      45.868  62.097  48.883  1.00  0.00     0.041 C 
ATOM     13  O   UNL     1      46.641  61.637  49.765  1.00  0.00    -0.550 OA
ATOM     14  O   UNL     1      46.307  63.121  48.053  1.00  0.00    -0.550 OA
ENDBRANCH  11  12
ENDBRANCH  10  11
ENDBRANCH   9  10
ENDBRANCH   8   9
ENDBRANCH   7   8
ENDBRANCH   6   7
ENDBRANCH   5   6
ENDBRANCH   4   5
ENDBRANCH   3   4
ENDBRANCH   2   3
ENDBRANCH   1   2
BRANCH   1  15
ATOM     15  C   UNL     1      40.265  57.636  45.727  1.00  0.00     0.000 C 
BRANCH  15  16
ATOM     16  C   UNL     1      41.204  57.906  44.541  1.00  0.00     0.000 C 
BRANCH  16  17
ATOM     17  C   UNL     1      42.408  56.948  44.514  1.00  0.00     0.000 C 
BRANCH  17  18
ATOM     18  C   UNL     1      43.752  57.693  44.537  1.00  0.00    -0.000 C 
BRANCH  18  19
ATOM     19  C   UNL     1      44.234  58.000  45.966  1.00  0.00    -0.000 C 
BRANCH  19  20
ATOM     20  C   UNL     1      43.632  57.047  47.013  1.00  0.00    -0.000 C 
BRANCH  20  21
ATOM     21  C   UNL     1      44.662  56.302  47.887  1.00  0.00    -0.000 C 
BRANCH  21  22
ATOM     22  C   UNL     1      46.014  57.016  48.063  1.00  0.00    -0.000 C 
BRANCH  22  23
ATOM     23  C   UNL     1      45.897  58.335  48.847  1.00  0.00    -0.000 C 
BRANCH  23  24
ATOM     24  C   UNL     1      45.199  58.164  50.207  1.00  0.00    -0.000 C 
BRANCH  24  25
ATOM     25  C   UNL     1      45.973  58.726  51.414  1.00  0.00    -0.003 C 
ATOM     26  C   UNL     1      45.767  57.912  52.690  1.00  0.00     0.004 C 
ENDBRANCH  24  25
ENDBRANCH  23  24
ENDBRANCH  22  23
ENDBRANCH  21  22
ENDBRANCH  20  21
ENDBRANCH  19  20
ENDBRANCH  18  19
ENDBRANCH  17  18
ENDBRANCH  16  17
ENDBRANCH  15  16
ENDBRANCH   1  15
TORSDOF 22
ENDMDL
MODEL 3
REMARK VINA RESULT:    -2.661      2.770      6.521
REMARK INTER + INTRA:          -8.459
REMARK INTER:                  -5.655
REMARK INTRA:                  -2.804
REMARK UNBOUND:                -2.376
REMARK SMILES CCCCCCCCCCCCCCCCCCCCCCCC(=O)[O-]
REMARK SMILES IDX 13 1 14 2 15 3 16 4 17 5 18 6 19 7 20 8 21 9 22 10 23 11
REMARK SMILES IDX 24 12 25 13 26 14 12 15 11 16 10 17 9 18 8 19 7 20 6 21 5 22
REMARK SMILES IDX 4 23 3 24 2 25 1 26
REMARK H PARENT
REMARK Flexibility Score: inf
ROOT
ATOM      1  C   UNL     1      40.703  57.879  45.760  1.00  0.00     0.000 C 
ENDROOT
BRANCH   1   2
ATOM      2  C   UNL     1      40.926  58.033  44.245  1.00  0.00     0.000 C 
BRANCH   2   3
ATOM      3  C   UNL     1      41.942  57.044  43.637  1.00  0.00     0.000 C 
BRANCH   3   4
ATOM      4  C   UNL     1      43.240  56.857  44.447  1.00  0.00     0.000 C 
BRANCH   4   5
ATOM      5  C   UNL     1      43.920  58.163  44.895  1.00  0.00     0.000 C 
BRANCH   5   6
ATOM      6  C   UNL     1      44.144  58.228  46.412  1.00  0.00     0.000 C 
BRANCH   6   7
ATOM      7  C   UNL     1      43.768  56.897  47.081  1.00  0.00     0.000 C 
BRANCH   7   8
ATOM      8  C   UNL     1      44.879  56.361  47.996  1.00  0.00     0.000 C 
BRANCH   8   9
ATOM      9  C   UNL     1      46.153  57.223  47.946  1.00  0.00     0.000 C 
BRANCH   9  10
ATOM     10  C   UNL     1      46.588  57.739  49.330  1.00  0.00     0.006 C 
BRANCH  10  11
ATOM     11  C   UNL     1      45.429  57.889  50.331  1.00  0.00     0.053 C 
BRANCH  11  12
ATOM     12  C   UNL     1      45.861  58.517  51.621  1.00  0.00     0.041 C 
ATOM     13  O   UNL     1      46.310  59.693  51.634  1.00  0.00    -0.550 OA
ATOM     14  O   UNL     1      45.801  57.792  52.805  1.00  0.00    -0.550 OA
ENDBRANCH  11  12
ENDBRANCH  10  11
ENDBRANCH   9  10
ENDBRANCH   8   9
ENDBRANCH   7   8
ENDBRANCH   6   7
ENDBRANCH   5   6
ENDBRANCH   4   5
ENDBRANCH   3   4
ENDBRANCH   2   3
ENDBRANCH   1   2
BRANCH   1  15
ATOM     15  C   UNL     1      40.162  56.490  46.142  1.00  0.00     0.000 C 
BRANCH  15  16
ATOM     16  C   UNL     1      39.955  56.330  47.656  1.00  0.00     0.000 C 
BRANCH  16  17
ATOM     17  C   UNL     1      39.226  57.533  48.282  1.00  0.00     0.000 C 
BRANCH  17  18
ATOM     18  C   UNL     1      39.954  58.082  49.519  1.00  0.00    -0.000 C 
BRANCH  18  19
ATOM     19  C   UNL     1      41.441  57.689  49.554  1.00  0.00    -0.000 C 
BRANCH  19  20
ATOM     20  C   UNL     1      42.377  58.883  49.295  1.00  0.00    -0.000 C 
BRANCH  20  21
ATOM     21  C   UNL     1      41.739  60.057  48.527  1.00  0.00    -0.000 C 
BRANCH  21  22
ATOM     22  C   UNL     1      41.946  61.447  49.156  1.00  0.00    -0.000 C 
BRANCH  22  23
ATOM     23  C   UNL     1      43.302  61.584  49.870  1.00  0.00    -0.000 C 
BRANCH  23  24
ATOM     24  C   UNL     1      44.490  61.169  48.984  1.00  0.00    -0.000 C 
BRANCH  24  25
ATOM     25  C   UNL     1      45.792  61.953  49.228  1.00  0.00    -0.003 C 
ATOM     26  C   UNL     1      46.185  62.846  48.053  1.00  0.00     0.004 C 
ENDBRANCH  24  25
ENDBRANCH  23  24
ENDBRANCH  22  23
ENDBRANCH  21  22
ENDBRANCH  20  21
ENDBRANCH  19  20
ENDBRANCH  18  19
ENDBRANCH  17  18
ENDBRANCH  16  17
ENDBRANCH  15  16
ENDBRANCH   1  15
TORSDOF 22
ENDMDL
MODEL 4
REMARK VINA RESULT:    -2.194      1.530      3.752
REMARK INTER + INTRA:          -7.391
REMARK INTER:                  -4.844
REMARK INTRA:                  -2.546
REMARK UNBOUND:                -2.376
REMARK SMILES CCCCCCCCCCCCCCCCCCCCCCCC(=O)[O-]
REMARK SMILES IDX 13 1 14 2 15 3 16 4 17 5 18 6 19 7 20 8 21 9 22 10 23 11
REMARK SMILES IDX 24 12 25 13 26 14 12 15 11 16 10 17 9 18 8 19 7 20 6 21 5 22
REMARK SMILES IDX 4 23 3 24 2 25 1 26
REMARK H PARENT
REMARK Flexibility Score: inf
ROOT
ATOM      1  C   UNL     1      45.409  60.577  49.149  1.00  0.00     0.000 C 
ENDROOT
BRANCH   1   2
ATOM      2  C   UNL     1      45.423  59.741  50.441  1.00  0.00     0.000 C 
BRANCH   2   3
ATOM      3  C   UNL     1      45.990  58.314  50.283  1.00  0.00     0.000 C 
BRANCH   3   4
ATOM      4  C   UNL     1      45.922  57.737  48.856  1.00  0.00     0.000 C 
BRANCH   4   5
ATOM      5  C   UNL     1      44.621  56.988  48.519  1.00  0.00     0.000 C 
BRANCH   5   6
ATOM      6  C   UNL     1      43.531  57.178  49.584  1.00  0.00     0.000 C 
BRANCH   6   7
ATOM      7  C   UNL     1      42.140  57.266  48.939  1.00  0.00     0.000 C 
BRANCH   7   8
ATOM      8  C   UNL     1      41.076  57.812  49.902  1.00  0.00     0.000 C 
BRANCH   8   9
ATOM      9  C   UNL     1      39.752  58.145  49.192  1.00  0.00     0.000 C 
BRANCH   9  10
ATOM     10  C   UNL     1      39.601  57.436  47.833  1.00  0.00     0.006 C 
BRANCH  10  11
ATOM     11  C   UNL     1      38.948  56.046  47.923  1.00  0.00     0.053 C 
BRANCH  11  12
ATOM     12  C   UNL     1      39.660  55.022  47.094  1.00  0.00     0.041 C 
ATOM     13  O   UNL     1      40.260  55.364  46.041  1.00  0.00    -0.550 OA
ATOM     14  O   UNL     1      39.633  53.683  47.464  1.00  0.00    -0.550 OA
ENDBRANCH  11  12
ENDBRANCH  10  11
ENDBRANCH   9  10
ENDBRANCH   8   9
ENDBRANCH   7   8
ENDBRANCH   6   7
ENDBRANCH   5   6
ENDBRANCH   4   5
ENDBRANCH   3   4
ENDBRANCH   2   3
ENDBRANCH   1   2
BRANCH   1  15
ATOM     15  C   UNL     1      44.834  61.988  49.362  1.00  0.00     0.000 C 
BRANCH  15  16
ATOM     16  C   UNL     1      43.368  61.969  49.822  1.00  0.00     0.000 C 
BRANCH  16  17
ATOM     17  C   UNL     1      42.622  60.705  49.359  1.00  0.00     0.000 C 
BRANCH  17  18
ATOM     18  C   UNL     1      41.843  60.928  48.053  1.00  0.00    -0.000 C 
BRANCH  18  19
ATOM     19  C   UNL     1      42.152  59.859  46.990  1.00  0.00    -0.000 C 
BRANCH  19  20
ATOM     20  C   UNL     1      43.641  59.823  46.599  1.00  0.00    -0.000 C 
BRANCH  20  21
ATOM     21  C   UNL     1      44.050  58.642  45.696  1.00  0.00    -0.000 C 
BRANCH  21  22
ATOM     22  C   UNL     1      43.102  57.429  45.728  1.00  0.00    -0.000 C 
BRANCH  22  23
ATOM     23  C   UNL     1      42.905  56.787  44.343  1.00  0.00    -0.000 C 
BRANCH  23  24
ATOM     24  C   UNL     1      41.869  57.530  43.481  1.00  0.00    -0.000 C 
BRANCH  24  25
ATOM     25  C   UNL     1      40.662  58.095  44.251  1.00  0.00    -0.003 C 
ATOM     26  C   UNL     1      39.648  58.794  43.348  1.00  0.00     0.004 C 
ENDBRANCH  24  25
ENDBRANCH  23  24
ENDBRANCH  22  23
ENDBRANCH  21  22
ENDBRANCH  20  21
ENDBRANCH  19  20
ENDBRANCH  18  19
ENDBRANCH  17  18
ENDBRANCH  16  17
ENDBRANCH  15  16
ENDBRANCH   1  15
TORSDOF 22
ENDMDL
MODEL 5
REMARK VINA RESULT:    -1.891      1.899      6.536
REMARK INTER + INTRA:          -6.699
REMARK INTER:                  -3.630
REMARK INTRA:                  -3.069
REMARK UNBOUND:                -2.376
REMARK SMILES CCCCCCCCCCCCCCCCCCCCCCCC(=O)[O-]
REMARK SMILES IDX 13 1 14 2 15 3 16 4 17 5 18 6 19 7 20 8 21 9 22 10 23 11
REMARK SMILES IDX 24 12 25 13 26 14 12 15 11 16 10 17 9 18 8 19 7 20 6 21 5 22
REMARK SMILES IDX 4 23 3 24 2 25 1 26
REMARK H PARENT
REMARK Flexibility Score: inf
ROOT
ATOM      1  C   UNL     1      42.095  56.989  43.838  1.00  0.00     0.000 C 
ENDROOT
BRANCH   1   2
ATOM      2  C   UNL     1      41.148  58.103  44.317  1.00  0.00     0.000 C 
BRANCH   2   3
ATOM      3  C   UNL     1      40.181  57.690  45.446  1.00  0.00     0.000 C 
BRANCH   3   4
ATOM      4  C   UNL     1      40.291  56.220  45.897  1.00  0.00     0.000 C 
BRANCH   4   5
ATOM      5  C   UNL     1      40.333  56.010  47.421  1.00  0.00     0.000 C 
BRANCH   5   6
ATOM      6  C   UNL     1      39.052  56.482  48.123  1.00  0.00     0.000 C 
BRANCH   6   7
ATOM      7  C   UNL     1      39.243  57.878  48.736  1.00  0.00     0.000 C 
BRANCH   7   8
ATOM      8  C   UNL     1      40.284  57.889  49.865  1.00  0.00     0.000 C 
BRANCH   8   9
ATOM      9  C   UNL     1      41.645  58.445  49.409  1.00  0.00     0.000 C 
BRANCH   9  10
ATOM     10  C   UNL     1      41.539  59.367  48.180  1.00  0.00     0.006 C 
BRANCH  10  11
ATOM     11  C   UNL     1      42.471  60.590  48.236  1.00  0.00     0.053 C 
BRANCH  11  12
ATOM     12  C   UNL     1      42.032  61.603  49.248  1.00  0.00     0.041 C 
ATOM     13  O   UNL     1      40.886  62.120  49.171  1.00  0.00    -0.550 OA
ATOM     14  O   UNL     1      42.898  62.002  50.258  1.00  0.00    -0.550 OA
ENDBRANCH  11  12
ENDBRANCH  10  11
ENDBRANCH   9  10
ENDBRANCH   8   9
ENDBRANCH   7   8
ENDBRANCH   6   7
ENDBRANCH   5   6
ENDBRANCH   4   5
ENDBRANCH   3   4
ENDBRANCH   2   3
ENDBRANCH   1   2
BRANCH   1  15
ATOM     15  C   UNL     1      43.377  56.895  44.684  1.00  0.00     0.000 C 
BRANCH  15  16
ATOM     16  C   UNL     1      43.855  58.264  45.192  1.00  0.00     0.000 C 
BRANCH  16  17
ATOM     17  C   UNL     1      44.272  58.229  46.673  1.00  0.00     0.000 C 
BRANCH  17  18
ATOM     18  C   UNL     1      44.089  56.840  47.304  1.00  0.00    -0.000 C 
BRANCH  18  19
ATOM     19  C   UNL     1      45.367  56.329  47.992  1.00  0.00    -0.000 C 
BRANCH  19  20
ATOM     20  C   UNL     1      46.308  57.470  48.419  1.00  0.00    -0.000 C 
BRANCH  20  21
ATOM     21  C   UNL     1      46.758  57.427  49.893  1.00  0.00    -0.000 C 
BRANCH  21  22
ATOM     22  C   UNL     1      46.014  58.388  50.838  1.00  0.00    -0.000 C 
BRANCH  22  23
ATOM     23  C   UNL     1      45.126  59.396  50.088  1.00  0.00    -0.000 C 
BRANCH  23  24
ATOM     24  C   UNL     1      45.776  60.784  49.955  1.00  0.00    -0.000 C 
BRANCH  24  25
ATOM     25  C   UNL     1      45.720  61.399  48.545  1.00  0.00    -0.003 C 
ATOM     26  C   UNL     1      46.250  62.831  48.493  1.00  0.00     0.004 C 
ENDBRANCH  24  25
ENDBRANCH  23  24
ENDBRANCH  22  23
ENDBRANCH  21  22
ENDBRANCH  20  21
ENDBRANCH  19  20
ENDBRANCH  18  19
ENDBRANCH  17  18
ENDBRANCH  16  17
ENDBRANCH  15  16
ENDBRANCH   1  15
TORSDOF 22
ENDMDL
MODEL 6
REMARK VINA RESULT:    -1.817      3.458      7.374
REMARK INTER + INTRA:          -6.530
REMARK INTER:                  -3.671
REMARK INTRA:                  -2.858
REMARK UNBOUND:                -2.376
REMARK SMILES CCCCCCCCCCCCCCCCCCCCCCCC(=O)[O-]
REMARK SMILES IDX 13 1 14 2 15 3 16 4 17 5 18 6 19 7 20 8 21 9 22 10 23 11
REMARK SMILES IDX 24 12 25 13 26 14 12 15 11 16 10 17 9 18 8 19 7 20 6 21 5 22
REMARK SMILES IDX 4 23 3 24 2 25 1 26
REMARK H PARENT
REMARK Flexibility Score: inf
ROOT
ATOM      1  C   UNL     1      42.674  57.129  44.778  1.00  0.00     0.000 C 
ENDROOT
BRANCH   1   2
ATOM      2  C   UNL     1      41.418  58.010  44.653  1.00  0.00     0.000 C 
BRANCH   2   3
ATOM      3  C   UNL     1      40.240  57.593  45.557  1.00  0.00     0.000 C 
BRANCH   3   4
ATOM      4  C   UNL     1      40.410  56.235  46.267  1.00  0.00     0.000 C 
BRANCH   4   5
ATOM      5  C   UNL     1      40.241  56.275  47.796  1.00  0.00     0.000 C 
BRANCH   5   6
ATOM      6  C   UNL     1      39.461  57.507  48.277  1.00  0.00     0.000 C 
BRANCH   6   7
ATOM      7  C   UNL     1      40.118  58.123  49.521  1.00  0.00     0.000 C 
BRANCH   7   8
ATOM      8  C   UNL     1      41.543  58.628  49.247  1.00  0.00     0.000 C 
BRANCH   8   9
ATOM      9  C   UNL     1      41.582  59.736  48.179  1.00  0.00     0.000 C 
BRANCH   9  10
ATOM     10  C   UNL     1      42.243  61.034  48.680  1.00  0.00     0.006 C 
BRANCH  10  11
ATOM     11  C   UNL     1      43.147  60.839  49.910  1.00  0.00     0.053 C 
BRANCH  11  12
ATOM     12  C   UNL     1      44.566  60.535  49.539  1.00  0.00     0.041 C 
ATOM     13  O   UNL     1      45.081  59.431  49.857  1.00  0.00    -0.550 OA
ATOM     14  O   UNL     1      45.331  61.483  48.872  1.00  0.00    -0.550 OA
ENDBRANCH  11  12
ENDBRANCH  10  11
ENDBRANCH   9  10
ENDBRANCH   8   9
ENDBRANCH   7   8
ENDBRANCH   6   7
ENDBRANCH   5   6
ENDBRANCH   4   5
ENDBRANCH   3   4
ENDBRANCH   2   3
ENDBRANCH   1   2
BRANCH   1  15
ATOM     15  C   UNL     1      43.943  57.945  45.080  1.00  0.00     0.000 C 
BRANCH  15  16
ATOM     16  C   UNL     1      44.174  58.148  46.586  1.00  0.00     0.000 C 
BRANCH  16  17
ATOM     17  C   UNL     1      44.082  56.831  47.378  1.00  0.00     0.000 C 
BRANCH  17  18
ATOM     18  C   UNL     1      45.422  56.436  48.019  1.00  0.00    -0.000 C 
BRANCH  18  19
ATOM     19  C   UNL     1      46.592  56.483  47.021  1.00  0.00    -0.000 C 
BRANCH  19  20
ATOM     20  C   UNL     1      46.996  55.088  46.513  1.00  0.00    -0.000 C 
BRANCH  20  21
ATOM     21  C   UNL     1      47.877  55.084  45.247  1.00  0.00    -0.000 C 
BRANCH  21  22
ATOM     22  C   UNL     1      48.627  53.769  44.970  1.00  0.00    -0.000 C 
BRANCH  22  23
ATOM     23  C   UNL     1      48.748  53.455  43.468  1.00  0.00    -0.000 C 
BRANCH  23  24
ATOM     24  C   UNL     1      47.827  54.327  42.598  1.00  0.00    -0.000 C 
BRANCH  24  25
ATOM     25  C   UNL     1      48.518  55.511  41.897  1.00  0.00    -0.003 C 
ATOM     26  C   UNL     1      50.015  55.589  42.190  1.00  0.00     0.004 C 
ENDBRANCH  24  25
ENDBRANCH  23  24
ENDBRANCH  22  23
ENDBRANCH  21  22
ENDBRANCH  20  21
ENDBRANCH  19  20
ENDBRANCH  18  19
ENDBRANCH  17  18
ENDBRANCH  16  17
ENDBRANCH  15  16
ENDBRANCH   1  15
TORSDOF 22
ENDMDL
MODEL 7
REMARK VINA RESULT:    -1.733      3.603      4.807
REMARK INTER + INTRA:          -6.337
REMARK INTER:                  -3.159
REMARK INTRA:                  -3.178
REMARK UNBOUND:                -2.376
REMARK SMILES CCCCCCCCCCCCCCCCCCCCCCCC(=O)[O-]
REMARK SMILES IDX 13 1 14 2 15 3 16 4 17 5 18 6 19 7 20 8 21 9 22 10 23 11
REMARK SMILES IDX 24 12 25 13 26 14 12 15 11 16 10 17 9 18 8 19 7 20 6 21 5 22
REMARK SMILES IDX 4 23 3 24 2 25 1 26
REMARK H PARENT
REMARK Flexibility Score: inf
ROOT
ATOM      1  C   UNL     1      46.109  57.666  48.877  1.00  0.00     0.000 C 
ENDROOT
BRANCH   1   2
ATOM      2  C   UNL     1      45.476  56.567  48.004  1.00  0.00     0.000 C 
BRANCH   2   3
ATOM      3  C   UNL     1      44.095  56.922  47.415  1.00  0.00     0.000 C 
BRANCH   3   4
ATOM      4  C   UNL     1      44.072  58.162  46.501  1.00  0.00     0.000 C 
BRANCH   4   5
ATOM      5  C   UNL     1      43.244  58.006  45.213  1.00  0.00     0.000 C 
BRANCH   5   6
ATOM      6  C   UNL     1      43.853  56.994  44.232  1.00  0.00     0.000 C 
BRANCH   6   7
ATOM      7  C   UNL     1      45.336  57.301  43.976  1.00  0.00     0.000 C 
BRANCH   7   8
ATOM      8  C   UNL     1      46.199  56.032  43.910  1.00  0.00     0.000 C 
BRANCH   8   9
ATOM      9  C   UNL     1      47.337  56.145  42.880  1.00  0.00     0.000 C 
BRANCH   9  10
ATOM     10  C   UNL     1      47.860  54.775  42.406  1.00  0.00     0.006 C 
BRANCH  10  11
ATOM     11  C   UNL     1      49.324  54.500  42.790  1.00  0.00     0.053 C 
BRANCH  11  12
ATOM     12  C   UNL     1      49.548  54.543  44.270  1.00  0.00     0.041 C 
ATOM     13  O   UNL     1      50.198  55.490  44.785  1.00  0.00    -0.550 OA
ATOM     14  O   UNL     1      49.070  53.520  45.079  1.00  0.00    -0.550 OA
ENDBRANCH  11  12
ENDBRANCH  10  11
ENDBRANCH   9  10
ENDBRANCH   8   9
ENDBRANCH   7   8
ENDBRANCH   6   7
ENDBRANCH   5   6
ENDBRANCH   4   5
ENDBRANCH   3   4
ENDBRANCH   2   3
ENDBRANCH   1   2
BRANCH   1  15
ATOM     15  C   UNL     1      45.200  58.094  50.043  1.00  0.00     0.000 C 
BRANCH  15  16
ATOM     16  C   UNL     1      45.247  59.607  50.307  1.00  0.00     0.000 C 
BRANCH  16  17
ATOM     17  C   UNL     1      45.330  60.430  49.009  1.00  0.00     0.000 C 
BRANCH  17  18
ATOM     18  C   UNL     1      44.387  61.643  49.022  1.00  0.00    -0.000 C 
BRANCH  18  19
ATOM     19  C   UNL     1      43.131  61.408  49.880  1.00  0.00    -0.000 C 
BRANCH  19  20
ATOM     20  C   UNL     1      41.865  61.188  49.033  1.00  0.00    -0.000 C 
BRANCH  20  21
ATOM     21  C   UNL     1      41.777  59.814  48.338  1.00  0.00    -0.000 C 
BRANCH  21  22
ATOM     22  C   UNL     1      41.541  58.615  49.274  1.00  0.00    -0.000 C 
BRANCH  22  23
ATOM     23  C   UNL     1      40.291  57.800  48.899  1.00  0.00    -0.000 C 
BRANCH  23  24
ATOM     24  C   UNL     1      40.076  57.699  47.378  1.00  0.00    -0.000 C 
BRANCH  24  25
ATOM     25  C   UNL     1      40.513  56.365  46.745  1.00  0.00    -0.003 C 
ATOM     26  C   UNL     1      39.618  55.192  47.142  1.00  0.00     0.004 C 
ENDBRANCH  24  25
ENDBRANCH  23  24
ENDBRANCH  22  23
ENDBRANCH  21  22
ENDBRANCH  20  21
ENDBRANCH  19  20
ENDBRANCH  18  19
ENDBRANCH  17  18
ENDBRANCH  16  17
ENDBRANCH  15  16
ENDBRANCH   1  15
TORSDOF 22
ENDMDL
MODEL 8
REMARK VINA RESULT:    -1.675      2.893      6.328
REMARK INTER + INTRA:          -6.205
REMARK INTER:                  -3.604
REMARK INTRA:                  -2.602
REMARK UNBOUND:                -2.376
REMARK SMILES CCCCCCCCCCCCCCCCCCCCCCCC(=O)[O-]
REMARK SMILES IDX 13 1 14 2 15 3 16 4 17 5 18 6 19 7 20 8 21 9 22 10 23 11
REMARK SMILES IDX 24 12 25 13 26 14 12 15 11 16 10 17 9 18 8 19 7 20 6 21 5 22
REMARK SMILES IDX 4 23 3 24 2 25 1 26
REMARK H PARENT
REMARK Flexibility Score: inf
ROOT
ATOM      1  C   UNL     1      46.275  57.616  49.029  1.00  0.00     0.000 C 
ENDROOT
BRANCH   1   2
ATOM      2  C   UNL     1      45.201  58.159  49.988  1.00  0.00     0.000 C 
BRANCH   2   3
ATOM      3  C   UNL     1      45.429  59.610  50.461  1.00  0.00     0.000 C 
BRANCH   3   4
ATOM      4  C   UNL     1      45.655  60.638  49.335  1.00  0.00     0.000 C 
BRANCH   4   5
ATOM      5  C   UNL     1      44.371  61.220  48.719  1.00  0.00     0.000 C 
BRANCH   5   6
ATOM      6  C   UNL     1      43.283  61.503  49.765  1.00  0.00     0.000 C 
BRANCH   6   7
ATOM      7  C   UNL     1      41.884  61.430  49.138  1.00  0.00     0.000 C 
BRANCH   7   8
ATOM      8  C   UNL     1      41.669  60.147  48.320  1.00  0.00     0.000 C 
BRANCH   8   9
ATOM      9  C   UNL     1      41.539  58.897  49.207  1.00  0.00     0.000 C 
BRANCH   9  10
ATOM     10  C   UNL     1      40.405  57.955  48.761  1.00  0.00     0.006 C 
BRANCH  10  11
ATOM     11  C   UNL     1      40.898  56.636  48.141  1.00  0.00     0.053 C 
BRANCH  11  12
ATOM     12  C   UNL     1      40.237  56.334  46.831  1.00  0.00     0.041 C 
ATOM     13  O   UNL     1      40.207  57.204  45.921  1.00  0.00    -0.550 OA
ATOM     14  O   UNL     1      39.624  55.104  46.625  1.00  0.00    -0.550 OA
ENDBRANCH  11  12
ENDBRANCH  10  11
ENDBRANCH   9  10
ENDBRANCH   8   9
ENDBRANCH   7   8
ENDBRANCH   6   7
ENDBRANCH   5   6
ENDBRANCH   4   5
ENDBRANCH   3   4
ENDBRANCH   2   3
ENDBRANCH   1   2
BRANCH   1  15
ATOM     15  C   UNL     1      45.697  56.656  47.974  1.00  0.00     0.000 C 
BRANCH  15  16
ATOM     16  C   UNL     1      44.228  56.957  47.639  1.00  0.00     0.000 C 
BRANCH  16  17
ATOM     17  C   UNL     1      44.078  58.107  46.627  1.00  0.00     0.000 C 
BRANCH  17  18
ATOM     18  C   UNL     1      43.499  57.635  45.283  1.00  0.00    -0.000 C 
BRANCH  18  19
ATOM     19  C   UNL     1      44.552  57.612  44.161  1.00  0.00    -0.000 C 
BRANCH  19  20
ATOM     20  C   UNL     1      45.431  56.350  44.198  1.00  0.00    -0.000 C 
BRANCH  20  21
ATOM     21  C   UNL     1      46.747  56.448  43.400  1.00  0.00    -0.000 C 
BRANCH  21  22
ATOM     22  C   UNL     1      47.285  55.116  42.847  1.00  0.00    -0.000 C 
BRANCH  22  23
ATOM     23  C   UNL     1      48.662  55.259  42.175  1.00  0.00    -0.000 C 
BRANCH  23  24
ATOM     24  C   UNL     1      49.825  55.224  43.182  1.00  0.00    -0.000 C 
BRANCH  24  25
ATOM     25  C   UNL     1      49.466  54.679  44.577  1.00  0.00    -0.003 C 
ATOM     26  C   UNL     1      49.388  53.155  44.624  1.00  0.00     0.004 C 
ENDBRANCH  24  25
ENDBRANCH  23  24
ENDBRANCH  22  23
ENDBRANCH  21  22
ENDBRANCH  20  21
ENDBRANCH  19  20
ENDBRANCH  18  19
ENDBRANCH  17  18
ENDBRANCH  16  17
ENDBRANCH  15  16
ENDBRANCH   1  15
TORSDOF 22
ENDMDL
MODEL 9
REMARK VINA RESULT:    -1.670      3.413      5.967
REMARK INTER + INTRA:          -6.193
REMARK INTER:                  -3.316
REMARK INTRA:                  -2.877
REMARK UNBOUND:                -2.376
REMARK SMILES CCCCCCCCCCCCCCCCCCCCCCCC(=O)[O-]
REMARK SMILES IDX 13 1 14 2 15 3 16 4 17 5 18 6 19 7 20 8 21 9 22 10 23 11
REMARK SMILES IDX 24 12 25 13 26 14 12 15 11 16 10 17 9 18 8 19 7 20 6 21 5 22
REMARK SMILES IDX 4 23 3 24 2 25 1 26
REMARK H PARENT
REMARK Flexibility Score: inf
ROOT
ATOM      1  C   UNL     1      42.302  57.235  44.312  1.00  0.00     0.000 C 
ENDROOT
BRANCH   1   2
ATOM      2  C   UNL     1      43.747  57.631  44.665  1.00  0.00     0.000 C 
BRANCH   2   3
ATOM      3  C   UNL     1      43.965  58.044  46.135  1.00  0.00     0.000 C 
BRANCH   3   4
ATOM      4  C   UNL     1      43.998  56.879  47.144  1.00  0.00     0.000 C 
BRANCH   4   5
ATOM      5  C   UNL     1      44.910  57.101  48.363  1.00  0.00     0.000 C 
BRANCH   5   6
ATOM      6  C   UNL     1      46.385  56.789  48.069  1.00  0.00     0.000 C 
BRANCH   6   7
ATOM      7  C   UNL     1      46.518  55.528  47.202  1.00  0.00     0.000 C 
BRANCH   7   8
ATOM      8  C   UNL     1      47.376  55.761  45.949  1.00  0.00     0.000 C 
BRANCH   8   9
ATOM      9  C   UNL     1      47.963  54.455  45.385  1.00  0.00     0.000 C 
BRANCH   9  10
ATOM     10  C   UNL     1      49.326  54.655  44.697  1.00  0.00     0.006 C 
BRANCH  10  11
ATOM     11  C   UNL     1      49.391  54.090  43.267  1.00  0.00     0.053 C 
BRANCH  11  12
ATOM     12  C   UNL     1      48.308  54.631  42.385  1.00  0.00     0.041 C 
ATOM     13  O   UNL     1      47.401  53.870  41.956  1.00  0.00    -0.550 OA
ATOM     14  O   UNL     1      48.318  55.968  42.008  1.00  0.00    -0.550 OA
ENDBRANCH  11  12
ENDBRANCH  10  11
ENDBRANCH   9  10
ENDBRANCH   8   9
ENDBRANCH   7   8
ENDBRANCH   6   7
ENDBRANCH   5   6
ENDBRANCH   4   5
ENDBRANCH   3   4
ENDBRANCH   2   3
ENDBRANCH   1   2
BRANCH   1  15
ATOM     15  C   UNL     1      41.269  57.838  45.280  1.00  0.00     0.000 C 
BRANCH  15  16
ATOM     16  C   UNL     1      40.291  56.789  45.832  1.00  0.00     0.000 C 
BRANCH  16  17
ATOM     17  C   UNL     1      40.434  56.592  47.352  1.00  0.00     0.000 C 
BRANCH  17  18
ATOM     18  C   UNL     1      39.663  57.650  48.157  1.00  0.00    -0.000 C 
BRANCH  18  19
ATOM     19  C   UNL     1      40.387  58.048  49.456  1.00  0.00    -0.000 C 
BRANCH  19  20
ATOM     20  C   UNL     1      41.770  58.671  49.199  1.00  0.00    -0.000 C 
BRANCH  20  21
ATOM     21  C   UNL     1      41.764  59.925  48.301  1.00  0.00    -0.000 C 
BRANCH  21  22
ATOM     22  C   UNL     1      41.904  61.267  49.043  1.00  0.00    -0.000 C 
BRANCH  22  23
ATOM     23  C   UNL     1      43.229  61.387  49.817  1.00  0.00    -0.000 C 
BRANCH  23  24
ATOM     24  C   UNL     1      44.464  61.328  48.902  1.00  0.00    -0.000 C 
BRANCH  24  25
ATOM     25  C   UNL     1      45.629  60.471  49.432  1.00  0.00    -0.003 C 
ATOM     26  C   UNL     1      45.205  59.494  50.526  1.00  0.00     0.004 C 
ENDBRANCH  24  25
ENDBRANCH  23  24
ENDBRANCH  22  23
ENDBRANCH  21  22
ENDBRANCH  20  21
ENDBRANCH  19  20
ENDBRANCH  18  19
ENDBRANCH  17  18
ENDBRANCH  16  17
ENDBRANCH  15  16
ENDBRANCH   1  15
TORSDOF 22
ENDMDL
