MODEL 1
REMARK VINA RESULT:    -4.409      0.000      0.000
REMARK INTER + INTRA:          -8.684
REMARK INTER:                  -6.729
REMARK INTRA:                  -1.954
REMARK UNBOUND:                -1.954
REMARK SMILES OC[C@@H]1O[C@@H](O[C@]2(CO)O[C@H](CO)[C@H](O)[C@@H]2O)[C@@H](O)[C@H](O)[C@H]1O
REMARK SMILES IDX 6 1 5 2 3 3 22 4 4 5 20 6 18 7 2 8 1 9 23 11 21 13 19 15
REMARK SMILES IDX 7 17 16 18 10 19 14 20 11 21 8 22 9 23 17 25 15 27 12 29
REMARK SMILES IDX 13 30
REMARK H PARENT 1 10 23 12 21 14 19 16 9 24 17 26 15 28 13 31
REMARK Flexibility Score: inf
ROOT
ATOM      1  O   UNL     1      52.410  32.763  87.343  1.00  0.00    -0.313 OA
ENDROOT
BRANCH   1   2
ATOM      2  C   UNL     1      52.231  34.177  87.275  1.00  0.00     0.285 C 
ATOM      3  C   UNL     1      50.563  33.946  85.629  1.00  0.00     0.178 C 
ATOM      4  C   UNL     1      51.445  34.552  84.514  1.00  0.00     0.177 C 
ATOM      5  O   UNL     1      50.901  34.499  86.893  1.00  0.00    -0.341 OA
ATOM      6  C   UNL     1      52.932  34.324  84.852  1.00  0.00     0.179 C 
ATOM      7  C   UNL     1      53.233  34.802  86.286  1.00  0.00     0.202 C 
BRANCH   3   8
ATOM      8  C   UNL     1      49.078  34.231  85.360  1.00  0.00     0.191 C 
BRANCH   8   9
ATOM      9  O   UNL     1      48.938  35.313  84.479  1.00  0.00    -0.394 OA
ATOM     10  H   UNL     1      48.245  35.053  83.817  1.00  0.00     0.210 HD
ENDBRANCH   8   9
ENDBRANCH   3   8
BRANCH   4  11
ATOM     11  O   UNL     1      51.141  33.940  83.287  1.00  0.00    -0.387 OA
ATOM     12  H   UNL     1      50.670  34.619  82.736  1.00  0.00     0.211 HD
ENDBRANCH   4  11
BRANCH   6  13
ATOM     13  O   UNL     1      53.762  34.974  83.921  1.00  0.00    -0.387 OA
ATOM     14  H   UNL     1      54.357  34.289  83.518  1.00  0.00     0.211 HD
ENDBRANCH   6  13
BRANCH   7  15
ATOM     15  O   UNL     1      54.542  34.451  86.649  1.00  0.00    -0.385 OA
ATOM     16  H   UNL     1      54.548  34.341  87.636  1.00  0.00     0.211 HD
ENDBRANCH   7  15
ENDBRANCH   1   2
BRANCH   1  17
ATOM     17  C   UNL     1      52.653  32.243  88.652  1.00  0.00     0.224 C 
ATOM     18  C   UNL     1      53.549  30.984  88.654  1.00  0.00     0.208 C 
ATOM     19  O   UNL     1      53.365  33.232  89.367  1.00  0.00    -0.337 OA
ATOM     20  C   UNL     1      54.280  31.090  89.976  1.00  0.00     0.180 C 
ATOM     21  C   UNL     1      54.230  32.596  90.289  1.00  0.00     0.179 C 
BRANCH  17  22
ATOM     22  C   UNL     1      51.315  32.007  89.403  1.00  0.00     0.225 C 
BRANCH  22  23
ATOM     23  O   UNL     1      50.288  31.766  88.482  1.00  0.00    -0.391 OA
ATOM     24  H   UNL     1      50.439  32.394  87.728  1.00  0.00     0.210 HD
ENDBRANCH  22  23
ENDBRANCH  17  22
BRANCH  18  25
ATOM     25  O   UNL     1      54.457  30.973  87.574  1.00  0.00    -0.385 OA
ATOM     26  H   UNL     1      54.066  30.425  86.844  1.00  0.00     0.211 HD
ENDBRANCH  18  25
BRANCH  20  27
ATOM     27  O   UNL     1      55.589  30.581  89.900  1.00  0.00    -0.387 OA
ATOM     28  H   UNL     1      55.958  30.615  90.821  1.00  0.00     0.211 HD
ENDBRANCH  20  27
BRANCH  21  29
ATOM     29  C   UNL     1      55.597  33.301  90.254  1.00  0.00     0.191 C 
BRANCH  29  30
ATOM     30  O   UNL     1      56.125  33.309  88.954  1.00  0.00    -0.394 OA
ATOM     31  H   UNL     1      55.373  33.524  88.343  1.00  0.00     0.210 HD
ENDBRANCH  29  30
ENDBRANCH  21  29
ENDBRANCH   1  17
TORSDOF 13
ENDMDL
MODEL 2
REMARK VINA RESULT:    -4.291      1.562      2.708
REMARK INTER + INTRA:          -8.503
REMARK INTER:                  -6.796
REMARK INTRA:                  -1.708
REMARK UNBOUND:                -1.954
REMARK SMILES OC[C@@H]1O[C@@H](O[C@]2(CO)O[C@H](CO)[C@H](O)[C@@H]2O)[C@@H](O)[C@H](O)[C@H]1O
REMARK SMILES IDX 6 1 5 2 3 3 22 4 4 5 20 6 18 7 2 8 1 9 23 11 21 13 19 15
REMARK SMILES IDX 7 17 16 18 10 19 14 20 11 21 8 22 9 23 17 25 15 27 12 29
REMARK SMILES IDX 13 30
REMARK H PARENT 1 10 23 12 21 14 19 16 9 24 17 26 15 28 13 31
REMARK Flexibility Score: inf
ROOT
ATOM      1  O   UNL     1      53.320  32.985  88.037  1.00  0.00    -0.313 OA
ENDROOT
BRANCH   1   2
ATOM      2  C   UNL     1      53.064  34.387  87.949  1.00  0.00     0.285 C 
ATOM      3  C   UNL     1      51.116  34.010  86.681  1.00  0.00     0.178 C 
ATOM      4  C   UNL     1      51.730  34.594  85.388  1.00  0.00     0.177 C 
ATOM      5  O   UNL     1      51.671  34.637  87.828  1.00  0.00    -0.341 OA
ATOM      6  C   UNL     1      53.263  34.442  85.431  1.00  0.00     0.179 C 
ATOM      7  C   UNL     1      53.819  35.001  86.755  1.00  0.00     0.202 C 
BRANCH   3   8
ATOM      8  C   UNL     1      49.595  34.224  86.702  1.00  0.00     0.191 C 
BRANCH   8   9
ATOM      9  O   UNL     1      49.248  35.356  85.951  1.00  0.00    -0.394 OA
ATOM     10  H   UNL     1      48.324  35.603  86.218  1.00  0.00     0.210 HD
ENDBRANCH   8   9
ENDBRANCH   3   8
BRANCH   4  11
ATOM     11  O   UNL     1      51.218  33.912  84.272  1.00  0.00    -0.387 OA
ATOM     12  H   UNL     1      50.305  34.268  84.112  1.00  0.00     0.211 HD
ENDBRANCH   4  11
BRANCH   6  13
ATOM     13  O   UNL     1      53.861  35.076  84.327  1.00  0.00    -0.387 OA
ATOM     14  H   UNL     1      54.010  36.027  84.570  1.00  0.00     0.211 HD
ENDBRANCH   6  13
BRANCH   7  15
ATOM     15  O   UNL     1      55.189  34.718  86.863  1.00  0.00    -0.385 OA
ATOM     16  H   UNL     1      55.652  35.264  86.175  1.00  0.00     0.211 HD
ENDBRANCH   7  15
ENDBRANCH   1   2
BRANCH   1  17
ATOM     17  C   UNL     1      53.768  32.529  89.315  1.00  0.00     0.224 C 
ATOM     18  C   UNL     1      52.629  32.386  90.349  1.00  0.00     0.208 C 
ATOM     19  O   UNL     1      54.297  31.231  89.131  1.00  0.00    -0.337 OA
ATOM     20  C   UNL     1      53.107  31.246  91.224  1.00  0.00     0.180 C 
ATOM     21  C   UNL     1      54.074  30.476  90.308  1.00  0.00     0.179 C 
BRANCH  17  22
ATOM     22  C   UNL     1      54.922  33.424  89.841  1.00  0.00     0.225 C 
BRANCH  22  23
ATOM     23  O   UNL     1      56.092  33.169  89.113  1.00  0.00    -0.391 OA
ATOM     24  H   UNL     1      56.596  32.488  89.630  1.00  0.00     0.210 HD
ENDBRANCH  22  23
ENDBRANCH  17  22
BRANCH  18  25
ATOM     25  O   UNL     1      51.394  32.074  89.743  1.00  0.00    -0.385 OA
ATOM     26  H   UNL     1      51.127  32.839  89.168  1.00  0.00     0.211 HD
ENDBRANCH  18  25
BRANCH  20  27
ATOM     27  O   UNL     1      52.042  30.458  91.695  1.00  0.00    -0.387 OA
ATOM     28  H   UNL     1      51.207  30.899  91.388  1.00  0.00     0.211 HD
ENDBRANCH  20  27
BRANCH  21  29
ATOM     29  C   UNL     1      53.595  29.069  89.911  1.00  0.00     0.191 C 
BRANCH  29  30
ATOM     30  O   UNL     1      52.434  29.137  89.128  1.00  0.00    -0.394 OA
ATOM     31  H   UNL     1      51.693  29.390  89.738  1.00  0.00     0.210 HD
ENDBRANCH  29  30
ENDBRANCH  21  29
ENDBRANCH   1  17
TORSDOF 13
ENDMDL
MODEL 3
REMARK VINA RESULT:    -4.279      1.504      5.835
REMARK INTER + INTRA:          -8.485
REMARK INTER:                  -6.358
REMARK INTRA:                  -2.126
REMARK UNBOUND:                -1.954
REMARK SMILES OC[C@@H]1O[C@@H](O[C@]2(CO)O[C@H](CO)[C@H](O)[C@@H]2O)[C@@H](O)[C@H](O)[C@H]1O
REMARK SMILES IDX 6 1 5 2 3 3 22 4 4 5 20 6 18 7 2 8 1 9 23 11 21 13 19 15
REMARK SMILES IDX 7 17 16 18 10 19 14 20 11 21 8 22 9 23 17 25 15 27 12 29
REMARK SMILES IDX 13 30
REMARK H PARENT 1 10 23 12 21 14 19 16 9 24 17 26 15 28 13 31
REMARK Flexibility Score: inf
ROOT
ATOM      1  O   UNL     1      51.272  33.942  87.522  1.00  0.00    -0.313 OA
ENDROOT
BRANCH   1   2
ATOM      2  C   UNL     1      52.459  33.357  86.985  1.00  0.00     0.285 C 
ATOM      3  C   UNL     1      53.385  33.119  89.137  1.00  0.00     0.178 C 
ATOM      4  C   UNL     1      54.463  34.201  88.897  1.00  0.00     0.177 C 
ATOM      5  O   UNL     1      53.049  32.466  87.921  1.00  0.00    -0.341 OA
ATOM      6  C   UNL     1      53.962  35.201  87.836  1.00  0.00     0.179 C 
ATOM      7  C   UNL     1      53.467  34.451  86.585  1.00  0.00     0.202 C 
BRANCH   3   8
ATOM      8  C   UNL     1      53.892  32.061  90.128  1.00  0.00     0.191 C 
BRANCH   8   9
ATOM      9  O   UNL     1      55.277  32.182  90.310  1.00  0.00    -0.394 OA
ATOM     10  H   UNL     1      55.433  33.071  90.725  1.00  0.00     0.210 HD
ENDBRANCH   8   9
ENDBRANCH   3   8
BRANCH   4  11
ATOM     11  O   UNL     1      54.728  34.879  90.098  1.00  0.00    -0.387 OA
ATOM     12  H   UNL     1      54.865  35.833  89.865  1.00  0.00     0.211 HD
ENDBRANCH   4  11
BRANCH   6  13
ATOM     13  O   UNL     1      54.969  36.125  87.503  1.00  0.00    -0.387 OA
ATOM     14  H   UNL     1      54.915  36.292  86.526  1.00  0.00     0.211 HD
ENDBRANCH   6  13
BRANCH   7  15
ATOM     15  O   UNL     1      52.866  35.346  85.688  1.00  0.00    -0.385 OA
ATOM     16  H   UNL     1      53.366  36.202  85.754  1.00  0.00     0.211 HD
ENDBRANCH   7  15
ENDBRANCH   1   2
BRANCH   1  17
ATOM     17  C   UNL     1      50.077  33.678  86.785  1.00  0.00     0.224 C 
ATOM     18  C   UNL     1      49.275  34.954  86.442  1.00  0.00     0.208 C 
ATOM     19  O   UNL     1      50.466  33.115  85.549  1.00  0.00    -0.337 OA
ATOM     20  C   UNL     1      48.615  34.596  85.127  1.00  0.00     0.180 C 
ATOM     21  C   UNL     1      49.531  33.498  84.558  1.00  0.00     0.179 C 
BRANCH  17  22
ATOM     22  C   UNL     1      49.206  32.622  87.517  1.00  0.00     0.225 C 
BRANCH  22  23
ATOM     23  O   UNL     1      49.994  31.901  88.423  1.00  0.00    -0.391 OA
ATOM     24  H   UNL     1      49.605  32.067  89.321  1.00  0.00     0.210 HD
ENDBRANCH  22  23
ENDBRANCH  17  22
BRANCH  18  25
ATOM     25  O   UNL     1      50.106  36.084  86.299  1.00  0.00    -0.385 OA
ATOM     26  H   UNL     1      51.049  35.775  86.270  1.00  0.00     0.211 HD
ENDBRANCH  18  25
BRANCH  20  27
ATOM     27  O   UNL     1      48.488  35.710  84.278  1.00  0.00    -0.387 OA
ATOM     28  H   UNL     1      49.024  35.508  83.467  1.00  0.00     0.211 HD
ENDBRANCH  20  27
BRANCH  21  29
ATOM     29  C   UNL     1      50.294  33.900  83.284  1.00  0.00     0.191 C 
BRANCH  29  30
ATOM     30  O   UNL     1      51.205  34.933  83.550  1.00  0.00    -0.394 OA
ATOM     31  H   UNL     1      50.848  35.433  84.329  1.00  0.00     0.210 HD
ENDBRANCH  29  30
ENDBRANCH  21  29
ENDBRANCH   1  17
TORSDOF 13
ENDMDL
MODEL 4
REMARK VINA RESULT:    -4.141     12.470     14.998
REMARK INTER + INTRA:          -8.274
REMARK INTER:                  -6.255
REMARK INTRA:                  -2.018
REMARK UNBOUND:                -1.954
REMARK SMILES OC[C@@H]1O[C@@H](O[C@]2(CO)O[C@H](CO)[C@H](O)[C@@H]2O)[C@@H](O)[C@H](O)[C@H]1O
REMARK SMILES IDX 6 1 5 2 3 3 22 4 4 5 20 6 18 7 2 8 1 9 23 11 21 13 19 15
REMARK SMILES IDX 7 17 16 18 10 19 14 20 11 21 8 22 9 23 17 25 15 27 12 29
REMARK SMILES IDX 13 30
REMARK H PARENT 1 10 23 12 21 14 19 16 9 24 17 26 15 28 13 31
REMARK Flexibility Score: inf
ROOT
ATOM      1  O   UNL     1      47.949  19.826  86.864  1.00  0.00    -0.313 OA
ENDROOT
BRANCH   1   2
ATOM      2  C   UNL     1      47.689  20.973  87.674  1.00  0.00     0.285 C 
ATOM      3  C   UNL     1      47.577  19.648  89.617  1.00  0.00     0.178 C 
ATOM      4  C   UNL     1      46.056  19.859  89.788  1.00  0.00     0.177 C 
ATOM      5  O   UNL     1      48.174  20.777  88.994  1.00  0.00    -0.341 OA
ATOM      6  C   UNL     1      45.418  20.152  88.415  1.00  0.00     0.179 C 
ATOM      7  C   UNL     1      46.181  21.285  87.703  1.00  0.00     0.202 C 
BRANCH   3   8
ATOM      8  C   UNL     1      48.251  19.437  90.981  1.00  0.00     0.191 C 
BRANCH   8   9
ATOM      9  O   UNL     1      47.868  18.206  91.532  1.00  0.00    -0.394 OA
ATOM     10  H   UNL     1      47.745  17.579  90.771  1.00  0.00     0.210 HD
ENDBRANCH   8   9
ENDBRANCH   3   8
BRANCH   4  11
ATOM     11  O   UNL     1      45.478  18.704  90.341  1.00  0.00    -0.387 OA
ATOM     12  H   UNL     1      44.763  18.414  89.717  1.00  0.00     0.211 HD
ENDBRANCH   4  11
BRANCH   6  13
ATOM     13  O   UNL     1      44.055  20.472  88.554  1.00  0.00    -0.387 OA
ATOM     14  H   UNL     1      43.992  21.272  89.139  1.00  0.00     0.211 HD
ENDBRANCH   6  13
BRANCH   7  15
ATOM     15  O   UNL     1      45.703  21.442  86.393  1.00  0.00    -0.385 OA
ATOM     16  H   UNL     1      46.478  21.713  85.833  1.00  0.00     0.211 HD
ENDBRANCH   7  15
ENDBRANCH   1   2
BRANCH   1  17
ATOM     17  C   UNL     1      48.698  20.079  85.674  1.00  0.00     0.224 C 
ATOM     18  C   UNL     1      47.983  19.606  84.388  1.00  0.00     0.208 C 
ATOM     19  O   UNL     1      48.832  21.481  85.556  1.00  0.00    -0.337 OA
ATOM     20  C   UNL     1      48.470  20.593  83.347  1.00  0.00     0.180 C 
ATOM     21  C   UNL     1      48.868  21.823  84.183  1.00  0.00     0.179 C 
BRANCH  17  22
ATOM     22  C   UNL     1      50.130  19.490  85.794  1.00  0.00     0.225 C 
BRANCH  22  23
ATOM     23  O   UNL     1      50.120  18.140  85.422  1.00  0.00    -0.391 OA
ATOM     24  H   UNL     1      49.445  17.698  86.000  1.00  0.00     0.210 HD
ENDBRANCH  22  23
ENDBRANCH  17  22
BRANCH  18  25
ATOM     25  O   UNL     1      46.579  19.653  84.511  1.00  0.00    -0.385 OA
ATOM     26  H   UNL     1      46.221  20.225  83.782  1.00  0.00     0.211 HD
ENDBRANCH  18  25
BRANCH  20  27
ATOM     27  O   UNL     1      47.486  20.872  82.381  1.00  0.00    -0.387 OA
ATOM     28  H   UNL     1      46.611  20.827  82.849  1.00  0.00     0.211 HD
ENDBRANCH  20  27
BRANCH  21  29
ATOM     29  C   UNL     1      47.984  23.062  83.957  1.00  0.00     0.191 C 
BRANCH  29  30
ATOM     30  O   UNL     1      46.639  22.775  84.232  1.00  0.00    -0.394 OA
ATOM     31  H   UNL     1      46.298  23.519  84.794  1.00  0.00     0.210 HD
ENDBRANCH  29  30
ENDBRANCH  21  29
ENDBRANCH   1  17
TORSDOF 13
ENDMDL
MODEL 5
REMARK VINA RESULT:    -4.102      8.282     11.539
REMARK INTER + INTRA:          -8.215
REMARK INTER:                  -6.248
REMARK INTRA:                  -1.967
REMARK UNBOUND:                -1.954
REMARK SMILES OC[C@@H]1O[C@@H](O[C@]2(CO)O[C@H](CO)[C@H](O)[C@@H]2O)[C@@H](O)[C@H](O)[C@H]1O
REMARK SMILES IDX 6 1 5 2 3 3 22 4 4 5 20 6 18 7 2 8 1 9 23 11 21 13 19 15
REMARK SMILES IDX 7 17 16 18 10 19 14 20 11 21 8 22 9 23 17 25 15 27 12 29
REMARK SMILES IDX 13 30
REMARK H PARENT 1 10 23 12 21 14 19 16 9 24 17 26 15 28 13 31
REMARK Flexibility Score: inf
ROOT
ATOM      1  O   UNL     1      42.778  30.242  89.076  1.00  0.00    -0.313 OA
ENDROOT
BRANCH   1   2
ATOM      2  C   UNL     1      43.448  29.314  89.930  1.00  0.00     0.285 C 
ATOM      3  C   UNL     1      44.314  31.063  91.248  1.00  0.00     0.178 C 
ATOM      4  C   UNL     1      45.765  30.834  90.769  1.00  0.00     0.177 C 
ATOM      5  O   UNL     1      43.584  29.844  91.241  1.00  0.00    -0.341 OA
ATOM      6  C   UNL     1      45.750  30.192  89.368  1.00  0.00     0.179 C 
ATOM      7  C   UNL     1      44.832  28.954  89.357  1.00  0.00     0.202 C 
BRANCH   3   8
ATOM      8  C   UNL     1      44.298  31.626  92.677  1.00  0.00     0.191 C 
BRANCH   8   9
ATOM      9  O   UNL     1      44.763  32.948  92.689  1.00  0.00    -0.394 OA
ATOM     10  H   UNL     1      45.054  33.140  93.620  1.00  0.00     0.210 HD
ENDBRANCH   8   9
ENDBRANCH   3   8
BRANCH   4  11
ATOM     11  O   UNL     1      46.445  32.062  90.719  1.00  0.00    -0.387 OA
ATOM     12  H   UNL     1      47.150  31.972  90.027  1.00  0.00     0.211 HD
ENDBRANCH   4  11
BRANCH   6  13
ATOM     13  O   UNL     1      47.053  29.855  88.957  1.00  0.00    -0.387 OA
ATOM     14  H   UNL     1      47.560  29.575  89.763  1.00  0.00     0.211 HD
ENDBRANCH   6  13
BRANCH   7  15
ATOM     15  O   UNL     1      44.693  28.465  88.050  1.00  0.00    -0.385 OA
ATOM     16  H   UNL     1      43.718  28.398  87.868  1.00  0.00     0.211 HD
ENDBRANCH   7  15
ENDBRANCH   1   2
BRANCH   1  17
ATOM     17  C   UNL     1      41.618  29.733  88.417  1.00  0.00     0.224 C 
ATOM     18  C   UNL     1      41.619  29.987  86.892  1.00  0.00     0.208 C 
ATOM     19  O   UNL     1      41.627  28.329  88.582  1.00  0.00    -0.337 OA
ATOM     20  C   UNL     1      40.851  28.798  86.351  1.00  0.00     0.180 C 
ATOM     21  C   UNL     1      41.029  27.732  87.447  1.00  0.00     0.179 C 
BRANCH  17  22
ATOM     22  C   UNL     1      40.326  30.266  89.095  1.00  0.00     0.225 C 
BRANCH  22  23
ATOM     23  O   UNL     1      39.742  31.254  88.292  1.00  0.00    -0.391 OA
ATOM     24  H   UNL     1      38.900  30.864  87.941  1.00  0.00     0.210 HD
ENDBRANCH  22  23
ENDBRANCH  17  22
BRANCH  18  25
ATOM     25  O   UNL     1      42.924  30.030  86.360  1.00  0.00    -0.385 OA
ATOM     26  H   UNL     1      42.878  29.777  85.400  1.00  0.00     0.211 HD
ENDBRANCH  18  25
BRANCH  20  27
ATOM     27  O   UNL     1      41.329  28.388  85.094  1.00  0.00    -0.387 OA
ATOM     28  H   UNL     1      40.758  27.626  84.810  1.00  0.00     0.211 HD
ENDBRANCH  20  27
BRANCH  21  29
ATOM     29  C   UNL     1      41.871  26.516  87.024  1.00  0.00     0.191 C 
BRANCH  29  30
ATOM     30  O   UNL     1      43.109  26.919  86.504  1.00  0.00    -0.394 OA
ATOM     31  H   UNL     1      43.542  26.106  86.136  1.00  0.00     0.210 HD
ENDBRANCH  29  30
ENDBRANCH  21  29
ENDBRANCH   1  17
TORSDOF 13
ENDMDL
MODEL 6
REMARK VINA RESULT:    -4.047     16.572     18.722
REMARK INTER + INTRA:          -8.131
REMARK INTER:                  -6.023
REMARK INTRA:                  -2.108
REMARK UNBOUND:                -1.954
REMARK SMILES OC[C@@H]1O[C@@H](O[C@]2(CO)O[C@H](CO)[C@H](O)[C@@H]2O)[C@@H](O)[C@H](O)[C@H]1O
REMARK SMILES IDX 6 1 5 2 3 3 22 4 4 5 20 6 18 7 2 8 1 9 23 11 21 13 19 15
REMARK SMILES IDX 7 17 16 18 10 19 14 20 11 21 8 22 9 23 17 25 15 27 12 29
REMARK SMILES IDX 13 30
REMARK H PARENT 1 10 23 12 21 14 19 16 9 24 17 26 15 28 13 31
REMARK Flexibility Score: inf
ROOT
ATOM      1  O   UNL     1      44.062  20.873  76.239  1.00  0.00    -0.313 OA
ENDROOT
BRANCH   1   2
ATOM      2  C   UNL     1      45.455  21.166  76.350  1.00  0.00     0.285 C 
ATOM      3  C   UNL     1      45.928  19.938  74.397  1.00  0.00     0.178 C 
ATOM      4  C   UNL     1      46.659  18.815  75.166  1.00  0.00     0.177 C 
ATOM      5  O   UNL     1      46.069  21.181  75.070  1.00  0.00    -0.341 OA
ATOM      6  C   UNL     1      46.122  18.742  76.609  1.00  0.00     0.179 C 
ATOM      7  C   UNL     1      46.153  20.138  77.261  1.00  0.00     0.202 C 
BRANCH   3   8
ATOM      8  C   UNL     1      46.502  20.088  72.981  1.00  0.00     0.191 C 
BRANCH   8   9
ATOM      9  O   UNL     1      47.810  19.584  72.926  1.00  0.00    -0.394 OA
ATOM     10  H   UNL     1      48.415  20.338  73.156  1.00  0.00     0.210 HD
ENDBRANCH   8   9
ENDBRANCH   3   8
BRANCH   4  11
ATOM     11  O   UNL     1      46.448  17.585  74.520  1.00  0.00    -0.387 OA
ATOM     12  H   UNL     1      47.224  17.008  74.740  1.00  0.00     0.211 HD
ENDBRANCH   4  11
BRANCH   6  13
ATOM     13  O   UNL     1      46.855  17.815  77.371  1.00  0.00    -0.387 OA
ATOM     14  H   UNL     1      46.920  18.168  78.296  1.00  0.00     0.211 HD
ENDBRANCH   6  13
BRANCH   7  15
ATOM     15  O   UNL     1      45.518  20.103  78.512  1.00  0.00    -0.385 OA
ATOM     16  H   UNL     1      45.057  20.976  78.627  1.00  0.00     0.211 HD
ENDBRANCH   7  15
ENDBRANCH   1   2
BRANCH   1  17
ATOM     17  C   UNL     1      43.188  21.861  76.787  1.00  0.00     0.224 C 
ATOM     18  C   UNL     1      42.167  21.284  77.796  1.00  0.00     0.208 C 
ATOM     19  O   UNL     1      43.989  22.768  77.516  1.00  0.00    -0.337 OA
ATOM     20  C   UNL     1      41.952  22.436  78.755  1.00  0.00     0.180 C 
ATOM     21  C   UNL     1      43.239  23.267  78.607  1.00  0.00     0.179 C 
BRANCH  17  22
ATOM     22  C   UNL     1      42.495  22.666  75.655  1.00  0.00     0.225 C 
BRANCH  22  23
ATOM     23  O   UNL     1      42.700  22.029  74.425  1.00  0.00    -0.391 OA
ATOM     24  H   UNL     1      42.236  21.154  74.485  1.00  0.00     0.210 HD
ENDBRANCH  22  23
ENDBRANCH  17  22
BRANCH  18  25
ATOM     25  O   UNL     1      42.667  20.151  78.471  1.00  0.00    -0.385 OA
ATOM     26  H   UNL     1      42.258  19.342  78.066  1.00  0.00     0.211 HD
ENDBRANCH  18  25
BRANCH  20  27
ATOM     27  O   UNL     1      41.724  21.994  80.070  1.00  0.00    -0.387 OA
ATOM     28  H   UNL     1      42.588  22.081  80.551  1.00  0.00     0.211 HD
ENDBRANCH  20  27
BRANCH  21  29
ATOM     29  C   UNL     1      44.134  23.285  79.858  1.00  0.00     0.191 C 
BRANCH  29  30
ATOM     30  O   UNL     1      44.495  21.984  80.236  1.00  0.00    -0.394 OA
ATOM     31  H   UNL     1      45.083  22.070  81.031  1.00  0.00     0.210 HD
ENDBRANCH  29  30
ENDBRANCH  21  29
ENDBRANCH   1  17
TORSDOF 13
ENDMDL
MODEL 7
REMARK VINA RESULT:    -4.030      2.274      4.225
REMARK INTER + INTRA:          -8.104
REMARK INTER:                  -6.297
REMARK INTRA:                  -1.807
REMARK UNBOUND:                -1.954
REMARK SMILES OC[C@@H]1O[C@@H](O[C@]2(CO)O[C@H](CO)[C@H](O)[C@@H]2O)[C@@H](O)[C@H](O)[C@H]1O
REMARK SMILES IDX 6 1 5 2 3 3 22 4 4 5 20 6 18 7 2 8 1 9 23 11 21 13 19 15
REMARK SMILES IDX 7 17 16 18 10 19 14 20 11 21 8 22 9 23 17 25 15 27 12 29
REMARK SMILES IDX 13 30
REMARK H PARENT 1 10 23 12 21 14 19 16 9 24 17 26 15 28 13 31
REMARK Flexibility Score: inf
ROOT
ATOM      1  O   UNL     1      51.045  34.345  84.656  1.00  0.00    -0.313 OA
ENDROOT
BRANCH   1   2
ATOM      2  C   UNL     1      49.964  33.625  84.061  1.00  0.00     0.285 C 
ATOM      3  C   UNL     1      51.432  32.529  82.581  1.00  0.00     0.178 C 
ATOM      4  C   UNL     1      50.896  33.281  81.342  1.00  0.00     0.177 C 
ATOM      5  O   UNL     1      50.410  32.375  83.556  1.00  0.00    -0.341 OA
ATOM      6  C   UNL     1      50.316  34.642  81.775  1.00  0.00     0.179 C 
ATOM      7  C   UNL     1      49.319  34.454  82.934  1.00  0.00     0.202 C 
BRANCH   3   8
ATOM      8  C   UNL     1      51.940  31.134  82.190  1.00  0.00     0.191 C 
BRANCH   8   9
ATOM      9  O   UNL     1      51.300  30.687  81.025  1.00  0.00    -0.394 OA
ATOM     10  H   UNL     1      50.384  31.071  81.039  1.00  0.00     0.210 HD
ENDBRANCH   8   9
ENDBRANCH   3   8
BRANCH   4  11
ATOM     11  O   UNL     1      51.940  33.483  80.424  1.00  0.00    -0.387 OA
ATOM     12  H   UNL     1      52.524  32.682  80.473  1.00  0.00     0.211 HD
ENDBRANCH   4  11
BRANCH   6  13
ATOM     13  O   UNL     1      49.707  35.296  80.689  1.00  0.00    -0.387 OA
ATOM     14  H   UNL     1      48.924  34.753  80.410  1.00  0.00     0.211 HD
ENDBRANCH   6  13
BRANCH   7  15
ATOM     15  O   UNL     1      48.913  35.701  83.433  1.00  0.00    -0.385 OA
ATOM     16  H   UNL     1      49.651  36.339  83.250  1.00  0.00     0.211 HD
ENDBRANCH   7  15
ENDBRANCH   1   2
BRANCH   1  17
ATOM     17  C   UNL     1      51.057  34.351  86.084  1.00  0.00     0.224 C 
ATOM     18  C   UNL     1      51.573  33.029  86.698  1.00  0.00     0.208 C 
ATOM     19  O   UNL     1      51.967  35.353  86.489  1.00  0.00    -0.337 OA
ATOM     20  C   UNL     1      52.224  33.485  87.987  1.00  0.00     0.180 C 
ATOM     21  C   UNL     1      52.568  34.959  87.708  1.00  0.00     0.179 C 
BRANCH  17  22
ATOM     22  C   UNL     1      49.663  34.745  86.642  1.00  0.00     0.225 C 
BRANCH  22  23
ATOM     23  O   UNL     1      49.429  36.108  86.416  1.00  0.00    -0.391 OA
ATOM     24  H   UNL     1      48.994  36.454  87.238  1.00  0.00     0.210 HD
ENDBRANCH  22  23
ENDBRANCH  17  22
BRANCH  18  25
ATOM     25  O   UNL     1      52.507  32.382  85.863  1.00  0.00    -0.385 OA
ATOM     26  H   UNL     1      52.671  32.960  85.072  1.00  0.00     0.211 HD
ENDBRANCH  18  25
BRANCH  20  27
ATOM     27  O   UNL     1      53.345  32.705  88.319  1.00  0.00    -0.387 OA
ATOM     28  H   UNL     1      53.740  33.111  89.136  1.00  0.00     0.211 HD
ENDBRANCH  20  27
BRANCH  21  29
ATOM     29  C   UNL     1      54.076  35.260  87.639  1.00  0.00     0.191 C 
BRANCH  29  30
ATOM     30  O   UNL     1      54.679  34.558  86.585  1.00  0.00    -0.394 OA
ATOM     31  H   UNL     1      54.137  34.740  85.774  1.00  0.00     0.210 HD
ENDBRANCH  29  30
ENDBRANCH  21  29
ENDBRANCH   1  17
TORSDOF 13
ENDMDL
MODEL 8
REMARK VINA RESULT:    -3.986      7.968     11.617
REMARK INTER + INTRA:          -8.038
REMARK INTER:                  -6.466
REMARK INTRA:                  -1.572
REMARK UNBOUND:                -1.954
REMARK SMILES OC[C@@H]1O[C@@H](O[C@]2(CO)O[C@H](CO)[C@H](O)[C@@H]2O)[C@@H](O)[C@H](O)[C@H]1O
REMARK SMILES IDX 6 1 5 2 3 3 22 4 4 5 20 6 18 7 2 8 1 9 23 11 21 13 19 15
REMARK SMILES IDX 7 17 16 18 10 19 14 20 11 21 8 22 9 23 17 25 15 27 12 29
REMARK SMILES IDX 13 30
REMARK H PARENT 1 10 23 12 21 14 19 16 9 24 17 26 15 28 13 31
REMARK Flexibility Score: inf
ROOT
ATOM      1  O   UNL     1      43.199  29.010  89.839  1.00  0.00    -0.313 OA
ENDROOT
BRANCH   1   2
ATOM      2  C   UNL     1      43.420  29.668  91.086  1.00  0.00     0.285 C 
ATOM      3  C   UNL     1      45.703  29.967  90.590  1.00  0.00     0.178 C 
ATOM      4  C   UNL     1      46.166  28.956  91.663  1.00  0.00     0.177 C 
ATOM      5  O   UNL     1      44.491  30.596  90.983  1.00  0.00    -0.341 OA
ATOM      6  C   UNL     1      45.050  27.924  91.917  1.00  0.00     0.179 C 
ATOM      7  C   UNL     1      43.714  28.641  92.196  1.00  0.00     0.202 C 
BRANCH   3   8
ATOM      8  C   UNL     1      46.764  31.056  90.378  1.00  0.00     0.191 C 
BRANCH   8   9
ATOM      9  O   UNL     1      46.273  32.063  89.535  1.00  0.00    -0.394 OA
ATOM     10  H   UNL     1      47.064  32.540  89.170  1.00  0.00     0.210 HD
ENDBRANCH   8   9
ENDBRANCH   3   8
BRANCH   4  11
ATOM     11  O   UNL     1      47.326  28.298  91.223  1.00  0.00    -0.387 OA
ATOM     12  H   UNL     1      47.575  28.705  90.352  1.00  0.00     0.211 HD
ENDBRANCH   4  11
BRANCH   6  13
ATOM     13  O   UNL     1      45.391  27.066  92.978  1.00  0.00    -0.387 OA
ATOM     14  H   UNL     1      45.655  26.193  92.587  1.00  0.00     0.211 HD
ENDBRANCH   6  13
BRANCH   7  15
ATOM     15  O   UNL     1      42.669  27.707  92.268  1.00  0.00    -0.385 OA
ATOM     16  H   UNL     1      42.595  27.285  91.372  1.00  0.00     0.211 HD
ENDBRANCH   7  15
ENDBRANCH   1   2
BRANCH   1  17
ATOM     17  C   UNL     1      42.083  29.490  89.088  1.00  0.00     0.224 C 
ATOM     18  C   UNL     1      42.247  30.952  88.613  1.00  0.00     0.208 C 
ATOM     19  O   UNL     1      42.000  28.704  87.917  1.00  0.00    -0.337 OA
ATOM     20  C   UNL     1      41.473  30.974  87.311  1.00  0.00     0.180 C 
ATOM     21  C   UNL     1      41.484  29.500  86.867  1.00  0.00     0.179 C 
BRANCH  17  22
ATOM     22  C   UNL     1      40.762  29.280  89.877  1.00  0.00     0.225 C 
BRANCH  22  23
ATOM     23  O   UNL     1      40.562  27.913  90.113  1.00  0.00    -0.391 OA
ATOM     24  H   UNL     1      40.063  27.850  90.968  1.00  0.00     0.210 HD
ENDBRANCH  22  23
ENDBRANCH  17  22
BRANCH  18  25
ATOM     25  O   UNL     1      43.599  31.295  88.403  1.00  0.00    -0.385 OA
ATOM     26  H   UNL     1      44.164  30.683  88.944  1.00  0.00     0.211 HD
ENDBRANCH  18  25
BRANCH  20  27
ATOM     27  O   UNL     1      42.049  31.843  86.368  1.00  0.00    -0.387 OA
ATOM     28  H   UNL     1      43.021  31.872  86.567  1.00  0.00     0.211 HD
ENDBRANCH  20  27
BRANCH  21  29
ATOM     29  C   UNL     1      42.295  29.225  85.589  1.00  0.00     0.191 C 
BRANCH  29  30
ATOM     30  O   UNL     1      43.606  29.708  85.714  1.00  0.00    -0.394 OA
ATOM     31  H   UNL     1      44.011  29.238  86.489  1.00  0.00     0.210 HD
ENDBRANCH  29  30
ENDBRANCH  21  29
ENDBRANCH   1  17
TORSDOF 13
ENDMDL
MODEL 9
REMARK VINA RESULT:    -3.929      3.702      6.216
REMARK INTER + INTRA:          -7.950
REMARK INTER:                  -5.813
REMARK INTRA:                  -2.137
REMARK UNBOUND:                -1.954
REMARK SMILES OC[C@@H]1O[C@@H](O[C@]2(CO)O[C@H](CO)[C@H](O)[C@@H]2O)[C@@H](O)[C@H](O)[C@H]1O
REMARK SMILES IDX 6 1 5 2 3 3 22 4 4 5 20 6 18 7 2 8 1 9 23 11 21 13 19 15
REMARK SMILES IDX 7 17 16 18 10 19 14 20 11 21 8 22 9 23 17 25 15 27 12 29
REMARK SMILES IDX 13 30
REMARK H PARENT 1 10 23 12 21 14 19 16 9 24 17 26 15 28 13 31
REMARK Flexibility Score: inf
ROOT
ATOM      1  O   UNL     1      51.250  34.572  83.352  1.00  0.00    -0.313 OA
ENDROOT
BRANCH   1   2
ATOM      2  C   UNL     1      51.368  33.438  82.493  1.00  0.00     0.285 C 
ATOM      3  C   UNL     1      52.537  34.703  80.887  1.00  0.00     0.178 C 
ATOM      4  C   UNL     1      51.373  34.668  79.872  1.00  0.00     0.177 C 
ATOM      5  O   UNL     1      52.538  33.533  81.692  1.00  0.00    -0.341 OA
ATOM      6  C   UNL     1      50.038  34.497  80.624  1.00  0.00     0.179 C 
ATOM      7  C   UNL     1      50.121  33.306  81.598  1.00  0.00     0.202 C 
BRANCH   3   8
ATOM      8  C   UNL     1      53.887  34.789  80.160  1.00  0.00     0.191 C 
BRANCH   8   9
ATOM      9  O   UNL     1      54.218  36.125  79.896  1.00  0.00    -0.394 OA
ATOM     10  H   UNL     1      54.297  36.209  78.909  1.00  0.00     0.210 HD
ENDBRANCH   8   9
ENDBRANCH   3   8
BRANCH   4  11
ATOM     11  O   UNL     1      51.351  35.864  79.136  1.00  0.00    -0.387 OA
ATOM     12  H   UNL     1      50.434  35.958  78.768  1.00  0.00     0.211 HD
ENDBRANCH   4  11
BRANCH   6  13
ATOM     13  O   UNL     1      48.971  34.335  79.721  1.00  0.00    -0.387 OA
ATOM     14  H   UNL     1      48.127  34.496  80.219  1.00  0.00     0.211 HD
ENDBRANCH   6  13
BRANCH   7  15
ATOM     15  O   UNL     1      48.968  33.249  82.395  1.00  0.00    -0.385 OA
ATOM     16  H   UNL     1      48.639  32.312  82.361  1.00  0.00     0.211 HD
ENDBRANCH   7  15
ENDBRANCH   1   2
BRANCH   1  17
ATOM     17  C   UNL     1      51.242  34.277  84.750  1.00  0.00     0.224 C 
ATOM     18  C   UNL     1      50.104  34.988  85.519  1.00  0.00     0.208 C 
ATOM     19  O   UNL     1      50.998  32.891  84.882  1.00  0.00    -0.337 OA
ATOM     20  C   UNL     1      49.792  34.015  86.637  1.00  0.00     0.180 C 
ATOM     21  C   UNL     1      50.279  32.665  86.079  1.00  0.00     0.179 C 
BRANCH  17  22
ATOM     22  C   UNL     1      52.633  34.561  85.377  1.00  0.00     0.225 C 
BRANCH  22  23
ATOM     23  O   UNL     1      53.541  34.925  84.374  1.00  0.00    -0.391 OA
ATOM     24  H   UNL     1      54.152  34.151  84.259  1.00  0.00     0.210 HD
ENDBRANCH  22  23
ENDBRANCH  17  22
BRANCH  18  25
ATOM     25  O   UNL     1      48.970  35.208  84.710  1.00  0.00    -0.385 OA
ATOM     26  H   UNL     1      49.200  35.898  84.033  1.00  0.00     0.211 HD
ENDBRANCH  18  25
BRANCH  20  27
ATOM     27  O   UNL     1      48.427  34.017  86.975  1.00  0.00    -0.387 OA
ATOM     28  H   UNL     1      48.359  34.441  87.870  1.00  0.00     0.211 HD
ENDBRANCH  20  27
BRANCH  21  29
ATOM     29  C   UNL     1      49.159  31.648  85.801  1.00  0.00     0.191 C 
BRANCH  29  30
ATOM     30  O   UNL     1      48.212  32.175  84.911  1.00  0.00    -0.394 OA
ATOM     31  H   UNL     1      48.234  31.603  84.100  1.00  0.00     0.210 HD
ENDBRANCH  29  30
ENDBRANCH  21  29
ENDBRANCH   1  17
TORSDOF 13
ENDMDL
