MODEL 1
REMARK VINA RESULT:     8.652      0.000      0.000
REMARK INTER + INTRA:          13.133
REMARK INTER:                  12.192
REMARK INTRA:                   0.940
REMARK UNBOUND:                 0.940
REMARK SMILES CC1=CCC(=C(C)C)C(=O)CC(C)=CCC1
REMARK SMILES IDX 12 1 14 2 13 3 15 4 16 5 2 6 1 7 3 8 11 10 9 11 10 12 5 13
REMARK SMILES IDX 6 14 7 15 8 16 4 17
REMARK H PARENT
REMARK Flexibility Score: 60.00
ROOT
ATOM      1  C   UNL     1       9.964  79.633  16.669  1.00  0.00    -0.070 C 
ATOM      2  C   UNL     1       9.458  78.510  17.228  1.00  0.00    -0.027 C 
ATOM      3  C   UNL     1       9.088  80.409  15.720  1.00  0.00     0.039 C 
ENDROOT
BRANCH   2   4
ATOM      4  C   UNL     1      10.241  77.540  18.077  1.00  0.00     0.032 C 
BRANCH   4   5
ATOM      5  C   UNL     1       9.916  77.765  19.558  1.00  0.00     0.034 C 
BRANCH   5   6
ATOM      6  C   UNL     1      11.127  78.196  20.358  1.00  0.00    -0.077 C 
ATOM      7  C   UNL     1      12.013  77.132  20.960  1.00  0.00     0.039 C 
ATOM      8  C   UNL     1      11.509  79.490  20.507  1.00  0.00    -0.023 CG0
ATOM      9  G   UNL     1      10.760  80.729  20.049  1.00  0.00     0.000 G0
ENDBRANCH   5   6
ENDBRANCH   4   5
ENDBRANCH   2   4
BRANCH   1  10
ATOM     10  C   UNL     1      11.355  80.157  16.964  1.00  0.00     0.111 C 
BRANCH  10  11
ATOM     11  C   UNL     1      11.318  81.520  17.611  1.00  0.00     0.163 C 
ATOM     12  O   UNL     1      11.390  82.521  16.848  1.00  0.00    -0.294 OA
BRANCH  11  13
ATOM     13  C   UNL     1      11.180  81.737  19.091  1.00  0.00    -0.002 C 
ATOM     14  C   UNL     1      11.412  82.971  19.636  1.00  0.00    -0.069 C 
ATOM     15  C   UNL     1      12.082  84.072  18.845  1.00  0.00     0.039 C 
ATOM     16  C   UNL     1      11.062  83.290  21.072  1.00  0.00     0.039 C 
BRANCH  13  17
ATOM     17  C   UNL     1      10.600  80.601  19.925  1.00  0.00     0.066 CG0
ATOM     18  G   UNL     1      11.592  79.588  20.469  1.00  0.00     0.000 G0
ENDBRANCH  13  17
ENDBRANCH  11  13
ENDBRANCH  10  11
ENDBRANCH   1  10
TORSDOF 0
ENDMDL
