MODEL 1
REMARK VINA RESULT:    -4.256      0.000      0.000
REMARK INTER + INTRA:          -6.770
REMARK INTER:                  -6.496
REMARK INTRA:                  -0.274
REMARK UNBOUND:                -0.274
REMARK SMILES CC1=CCC[C@H](C)C(=O)C[C@@H](C(C)C)C(=O)C1
REMARK SMILES IDX 8 1 9 2 6 3 7 4 5 5 4 6 3 7 2 8 1 9 10 11 11 12 15 13 16 14
REMARK SMILES IDX 17 15 12 17 13 18 14 19
REMARK H PARENT
REMARK Flexibility Score: 70.00
ROOT
ATOM      1  C   UNL     1      37.350  17.979  25.325  1.00  0.00     0.136 C 
ATOM      2  O   UNL     1      36.806  17.310  24.457  1.00  0.00    -0.299 OA
ENDROOT
BRANCH   1   3
ATOM      3  C   UNL     1      38.847  17.865  25.553  1.00  0.00     0.053 C 
ATOM      4  C   UNL     1      39.661  18.627  24.495  1.00  0.00     0.016 C 
BRANCH   3   5
ATOM      5  C   UNL     1      39.233  18.293  26.984  1.00  0.00     0.015 C 
BRANCH   5   6
ATOM      6  C   UNL     1      40.055  19.595  27.043  1.00  0.00     0.028 C 
BRANCH   6   7
ATOM      7  C   UNL     1      39.480  20.548  28.058  1.00  0.00    -0.028 C 
ATOM      8  C   UNL     1      38.556  21.500  27.784  1.00  0.00    -0.070 CG0
ATOM      9  C   UNL     1      38.039  22.333  28.929  1.00  0.00     0.039 C 
ATOM     10  G   UNL     1      38.036  21.773  26.380  1.00  0.00     0.000 G0
ENDBRANCH   6   7
ENDBRANCH   5   6
ENDBRANCH   3   5
ENDBRANCH   1   3
BRANCH   1  11
ATOM     11  C   UNL     1      36.509  18.918  26.157  1.00  0.00     0.087 C 
BRANCH  11  12
ATOM     12  C   UNL     1      36.160  20.223  25.393  1.00  0.00     0.066 C 
BRANCH  12  13
ATOM     13  C   UNL     1      36.582  21.452  26.184  1.00  0.00     0.140 C 
ATOM     14  O   UNL     1      35.734  22.222  26.611  1.00  0.00    -0.299 OA
BRANCH  13  15
ATOM     15  C   UNL     1      38.042  21.787  26.375  1.00  0.00     0.106 CG0
ATOM     16  G   UNL     1      38.529  21.484  27.785  1.00  0.00     0.000 G0
ENDBRANCH  13  15
ENDBRANCH  12  13
BRANCH  12  17
ATOM     17  C   UNL     1      34.656  20.319  24.979  1.00  0.00    -0.006 C 
ATOM     18  C   UNL     1      34.488  20.285  23.452  1.00  0.00     0.008 C 
ATOM     19  C   UNL     1      33.758  19.249  25.626  1.00  0.00     0.008 C 
ENDBRANCH  12  17
ENDBRANCH  11  12
ENDBRANCH   1  11
TORSDOF 1
ENDMDL
MODEL 2
REMARK VINA RESULT:    -4.093      1.472      3.847
REMARK INTER + INTRA:          -6.521
REMARK INTER:                  -6.295
REMARK INTRA:                  -0.226
REMARK UNBOUND:                -0.274
REMARK SMILES CC1=CCC[C@H](C)C(=O)C[C@@H](C(C)C)C(=O)C1
REMARK SMILES IDX 8 1 9 2 6 3 7 4 5 5 4 6 3 7 2 8 1 9 10 11 11 12 15 13 16 14
REMARK SMILES IDX 17 15 12 17 13 18 14 19
REMARK H PARENT
REMARK Flexibility Score: 70.00
ROOT
ATOM      1  C   UNL     1      36.242  21.664  26.276  1.00  0.00     0.136 C 
ATOM      2  O   UNL     1      35.128  22.145  26.439  1.00  0.00    -0.299 OA
ENDROOT
BRANCH   1   3
ATOM      3  C   UNL     1      37.406  22.122  27.136  1.00  0.00     0.053 C 
ATOM      4  C   UNL     1      37.183  21.830  28.628  1.00  0.00     0.016 C 
BRANCH   3   5
ATOM      5  C   UNL     1      38.741  21.535  26.636  1.00  0.00     0.015 C 
BRANCH   5   6
ATOM      6  C   UNL     1      39.273  20.375  27.500  1.00  0.00     0.028 C 
BRANCH   6   7
ATOM      7  C   UNL     1      39.940  19.330  26.644  1.00  0.00    -0.028 C 
ATOM      8  C   UNL     1      39.333  18.210  26.182  1.00  0.00    -0.070 CG0
ATOM      9  C   UNL     1      40.126  17.294  25.286  1.00  0.00     0.039 C 
ATOM     10  G   UNL     1      37.902  17.833  26.542  1.00  0.00     0.000 G0
ENDBRANCH   6   7
ENDBRANCH   5   6
ENDBRANCH   3   5
ENDBRANCH   1   3
BRANCH   1  11
ATOM     11  C   UNL     1      36.433  20.610  25.211  1.00  0.00     0.087 C 
BRANCH  11  12
ATOM     12  C   UNL     1      35.867  19.232  25.645  1.00  0.00     0.066 C 
BRANCH  12  13
ATOM     13  C   UNL     1      36.902  18.131  25.465  1.00  0.00     0.140 C 
ATOM     14  O   UNL     1      36.884  17.437  24.458  1.00  0.00    -0.299 OA
BRANCH  13  15
ATOM     15  C   UNL     1      37.900  17.821  26.554  1.00  0.00     0.106 CG0
ATOM     16  G   UNL     1      39.322  18.200  26.165  1.00  0.00     0.000 G0
ENDBRANCH  13  15
ENDBRANCH  12  13
BRANCH  12  17
ATOM     17  C   UNL     1      34.528  18.857  24.931  1.00  0.00    -0.006 C 
ATOM     18  C   UNL     1      33.324  19.008  25.875  1.00  0.00     0.008 C 
ATOM     19  C   UNL     1      34.271  19.636  23.628  1.00  0.00     0.008 C 
ENDBRANCH  12  17
ENDBRANCH  11  12
ENDBRANCH   1  11
TORSDOF 1
ENDMDL
MODEL 3
REMARK VINA RESULT:    -4.082      7.436     10.301
REMARK INTER + INTRA:          -6.504
REMARK INTER:                  -7.086
REMARK INTRA:                   0.583
REMARK UNBOUND:                -0.274
REMARK SMILES CC1=CCC[C@H](C)C(=O)C[C@@H](C(C)C)C(=O)C1
REMARK SMILES IDX 8 1 9 2 6 3 7 4 5 5 4 6 3 7 2 8 1 9 10 11 11 12 15 13 16 14
REMARK SMILES IDX 17 15 12 17 13 18 14 19
REMARK H PARENT
REMARK Flexibility Score: 70.00
ROOT
ATOM      1  C   UNL     1      32.780  21.545  17.604  1.00  0.00     0.136 C 
ATOM      2  O   UNL     1      31.855  21.395  16.818  1.00  0.00    -0.299 OA
ENDROOT
BRANCH   1   3
ATOM      3  C   UNL     1      34.172  21.876  17.095  1.00  0.00     0.053 C 
ATOM      4  C   UNL     1      35.238  21.784  18.199  1.00  0.00     0.016 C 
BRANCH   3   5
ATOM      5  C   UNL     1      34.545  21.013  15.873  1.00  0.00     0.015 C 
BRANCH   5   6
ATOM      6  C   UNL     1      34.713  19.515  16.197  1.00  0.00     0.028 C 
BRANCH   6   7
ATOM      7  C   UNL     1      33.536  18.722  15.692  1.00  0.00    -0.028 C 
ATOM      8  C   UNL     1      32.684  18.022  16.480  1.00  0.00    -0.070 CG0
ATOM      9  C   UNL     1      31.520  17.330  15.820  1.00  0.00     0.039 C 
ATOM     10  G   UNL     1      32.862  17.894  17.986  1.00  0.00     0.000 G0
ENDBRANCH   6   7
ENDBRANCH   5   6
ENDBRANCH   3   5
ENDBRANCH   1   3
BRANCH   1  11
ATOM     11  C   UNL     1      32.511  21.398  19.083  1.00  0.00     0.087 C 
BRANCH  11  12
ATOM     12  C   UNL     1      32.829  19.968  19.597  1.00  0.00     0.066 C 
BRANCH  12  13
ATOM     13  C   UNL     1      32.097  18.915  18.778  1.00  0.00     0.140 C 
ATOM     14  O   UNL     1      30.877  18.855  18.814  1.00  0.00    -0.299 OA
BRANCH  13  15
ATOM     15  C   UNL     1      32.862  17.880  17.987  1.00  0.00     0.106 CG0
ATOM     16  G   UNL     1      32.678  18.044  16.485  1.00  0.00     0.000 G0
ENDBRANCH  13  15
ENDBRANCH  12  13
BRANCH  12  17
ATOM     17  C   UNL     1      32.548  19.779  21.122  1.00  0.00    -0.006 C 
ATOM     18  C   UNL     1      33.379  20.752  21.974  1.00  0.00     0.008 C 
ATOM     19  C   UNL     1      31.061  19.889  21.506  1.00  0.00     0.008 C 
ENDBRANCH  12  17
ENDBRANCH  11  12
ENDBRANCH   1  11
TORSDOF 1
ENDMDL
MODEL 4
REMARK VINA RESULT:    -3.909      8.560     11.075
REMARK INTER + INTRA:          -6.239
REMARK INTER:                  -6.448
REMARK INTRA:                   0.209
REMARK UNBOUND:                -0.274
REMARK SMILES CC1=CCC[C@H](C)C(=O)C[C@@H](C(C)C)C(=O)C1
REMARK SMILES IDX 8 1 9 2 6 3 7 4 5 5 4 6 3 7 2 8 1 9 10 11 11 12 15 13 16 14
REMARK SMILES IDX 17 15 12 17 13 18 14 19
REMARK H PARENT
REMARK Flexibility Score: 70.00
ROOT
ATOM      1  C   UNL     1      29.003  18.230  29.623  1.00  0.00     0.136 C 
ATOM      2  O   UNL     1      30.092  17.806  29.987  1.00  0.00    -0.299 OA
ENDROOT
BRANCH   1   3
ATOM      3  C   UNL     1      28.295  19.308  30.426  1.00  0.00     0.053 C 
ATOM      4  C   UNL     1      28.777  19.364  31.884  1.00  0.00     0.016 C 
BRANCH   3   5
ATOM      5  C   UNL     1      28.403  20.684  29.738  1.00  0.00     0.015 C 
BRANCH   5   6
ATOM      6  C   UNL     1      27.058  21.427  29.620  1.00  0.00     0.028 C 
BRANCH   6   7
ATOM      7  C   UNL     1      25.910  20.516  29.968  1.00  0.00    -0.028 C 
ATOM      8  C   UNL     1      25.229  19.757  29.075  1.00  0.00    -0.070 CG0
ATOM      9  C   UNL     1      24.143  18.853  29.598  1.00  0.00     0.039 C 
ATOM     10  G   UNL     1      25.503  19.792  27.578  1.00  0.00     0.000 G0
ENDBRANCH   6   7
ENDBRANCH   5   6
ENDBRANCH   3   5
ENDBRANCH   1   3
BRANCH   1  11
ATOM     11  C   UNL     1      28.384  17.667  28.367  1.00  0.00     0.087 C 
BRANCH  11  12
ATOM     12  C   UNL     1      27.926  18.783  27.389  1.00  0.00     0.066 C 
BRANCH  12  13
ATOM     13  C   UNL     1      26.432  18.695  27.115  1.00  0.00     0.140 C 
ATOM     14  O   UNL     1      25.989  17.767  26.452  1.00  0.00    -0.299 OA
BRANCH  13  15
ATOM     15  C   UNL     1      25.495  19.786  27.572  1.00  0.00     0.106 CG0
ATOM     16  G   UNL     1      25.227  19.732  29.069  1.00  0.00     0.000 G0
ENDBRANCH  13  15
ENDBRANCH  12  13
BRANCH  12  17
ATOM     17  C   UNL     1      28.736  18.809  26.053  1.00  0.00    -0.006 C 
ATOM     18  C   UNL     1      28.535  20.133  25.297  1.00  0.00     0.008 C 
ATOM     19  C   UNL     1      30.240  18.529  26.225  1.00  0.00     0.008 C 
ENDBRANCH  12  17
ENDBRANCH  11  12
ENDBRANCH   1  11
TORSDOF 1
ENDMDL
MODEL 5
REMARK VINA RESULT:    -3.846      4.232      6.758
REMARK INTER + INTRA:          -6.144
REMARK INTER:                  -6.493
REMARK INTRA:                   0.349
REMARK UNBOUND:                -0.274
REMARK SMILES CC1=CCC[C@H](C)C(=O)C[C@@H](C(C)C)C(=O)C1
REMARK SMILES IDX 8 1 9 2 6 3 7 4 5 5 4 6 3 7 2 8 1 9 10 11 11 12 15 13 16 14
REMARK SMILES IDX 17 15 12 17 13 18 14 19
REMARK H PARENT
REMARK Flexibility Score: 70.00
ROOT
ATOM      1  C   UNL     1      30.471  19.715  22.186  1.00  0.00     0.136 C 
ATOM      2  O   UNL     1      29.653  20.493  21.714  1.00  0.00    -0.299 OA
ENDROOT
BRANCH   1   3
ATOM      3  C   UNL     1      31.838  19.560  21.544  1.00  0.00     0.053 C 
ATOM      4  C   UNL     1      31.762  18.925  20.147  1.00  0.00     0.016 C 
BRANCH   3   5
ATOM      5  C   UNL     1      32.603  20.900  21.517  1.00  0.00     0.015 C 
BRANCH   5   6
ATOM      6  C   UNL     1      33.257  21.269  22.863  1.00  0.00     0.028 C 
BRANCH   6   7
ATOM      7  C   UNL     1      34.372  20.313  23.198  1.00  0.00    -0.028 C 
ATOM      8  C   UNL     1      34.399  19.513  24.291  1.00  0.00    -0.070 CG0
ATOM      9  C   UNL     1      35.564  18.569  24.447  1.00  0.00     0.039 C 
ATOM     10  G   UNL     1      33.321  19.539  25.366  1.00  0.00     0.000 G0
ENDBRANCH   6   7
ENDBRANCH   5   6
ENDBRANCH   3   5
ENDBRANCH   1   3
BRANCH   1  11
ATOM     11  C   UNL     1      30.097  18.920  23.414  1.00  0.00     0.087 C 
BRANCH  11  12
ATOM     12  C   UNL     1      30.773  19.473  24.697  1.00  0.00     0.066 C 
BRANCH  12  13
ATOM     13  C   UNL     1      32.087  18.758  24.979  1.00  0.00     0.140 C 
ATOM     14  O   UNL     1      32.133  17.537  24.952  1.00  0.00    -0.299 OA
BRANCH  13  15
ATOM     15  C   UNL     1      33.319  19.533  25.380  1.00  0.00     0.106 CG0
ATOM     16  G   UNL     1      34.395  19.512  24.304  1.00  0.00     0.000 G0
ENDBRANCH  13  15
ENDBRANCH  12  13
BRANCH  12  17
ATOM     17  C   UNL     1      29.843  19.441  25.953  1.00  0.00    -0.006 C 
ATOM     18  C   UNL     1      28.360  19.533  25.559  1.00  0.00     0.008 C 
ATOM     19  C   UNL     1      30.065  18.223  26.868  1.00  0.00     0.008 C 
ENDBRANCH  12  17
ENDBRANCH  11  12
ENDBRANCH   1  11
TORSDOF 1
ENDMDL
MODEL 6
REMARK VINA RESULT:    -3.736      1.853      4.520
REMARK INTER + INTRA:          -5.975
REMARK INTER:                  -5.691
REMARK INTRA:                  -0.284
REMARK UNBOUND:                -0.274
REMARK SMILES CC1=CCC[C@H](C)C(=O)C[C@@H](C(C)C)C(=O)C1
REMARK SMILES IDX 8 1 9 2 6 3 7 4 5 5 4 6 3 7 2 8 1 9 10 11 11 12 15 13 16 14
REMARK SMILES IDX 17 15 12 17 13 18 14 19
REMARK H PARENT
REMARK Flexibility Score: 70.00
ROOT
ATOM      1  C   UNL     1      39.393  19.692  28.112  1.00  0.00     0.136 C 
ATOM      2  O   UNL     1      40.590  19.921  28.224  1.00  0.00    -0.299 OA
ENDROOT
BRANCH   1   3
ATOM      3  C   UNL     1      38.377  20.562  28.831  1.00  0.00     0.053 C 
ATOM      4  C   UNL     1      38.516  20.482  30.360  1.00  0.00     0.016 C 
BRANCH   3   5
ATOM      5  C   UNL     1      38.430  22.020  28.332  1.00  0.00     0.015 C 
BRANCH   5   6
ATOM      6  C   UNL     1      38.106  22.176  26.832  1.00  0.00     0.028 C 
BRANCH   6   7
ATOM      7  C   UNL     1      36.669  21.821  26.554  1.00  0.00    -0.028 C 
ATOM      8  C   UNL     1      36.258  20.968  25.585  1.00  0.00    -0.070 CG0
ATOM      9  C   UNL     1      34.784  20.676  25.478  1.00  0.00     0.039 C 
ATOM     10  G   UNL     1      37.214  20.313  24.598  1.00  0.00     0.000 G0
ENDBRANCH   6   7
ENDBRANCH   5   6
ENDBRANCH   3   5
ENDBRANCH   1   3
BRANCH   1  11
ATOM     11  C   UNL     1      38.949  18.538  27.245  1.00  0.00     0.087 C 
BRANCH  11  12
ATOM     12  C   UNL     1      39.092  18.853  25.732  1.00  0.00     0.066 C 
BRANCH  12  13
ATOM     13  C   UNL     1      37.730  18.971  25.064  1.00  0.00     0.140 C 
ATOM     14  O   UNL     1      37.073  17.965  24.839  1.00  0.00    -0.299 OA
BRANCH  13  15
ATOM     15  C   UNL     1      37.214  20.309  24.592  1.00  0.00     0.106 CG0
ATOM     16  G   UNL     1      36.257  20.948  25.588  1.00  0.00     0.000 G0
ENDBRANCH  13  15
ENDBRANCH  12  13
BRANCH  12  17
ATOM     17  C   UNL     1      39.999  17.835  24.968  1.00  0.00    -0.006 C 
ATOM     18  C   UNL     1      40.758  18.510  23.815  1.00  0.00     0.008 C 
ATOM     19  C   UNL     1      40.989  17.076  25.870  1.00  0.00     0.008 C 
ENDBRANCH  12  17
ENDBRANCH  11  12
ENDBRANCH   1  11
TORSDOF 1
ENDMDL
MODEL 7
REMARK VINA RESULT:    -3.711      1.671      4.094
REMARK INTER + INTRA:          -5.938
REMARK INTER:                  -6.019
REMARK INTRA:                   0.080
REMARK UNBOUND:                -0.274
REMARK SMILES CC1=CCC[C@H](C)C(=O)C[C@@H](C(C)C)C(=O)C1
REMARK SMILES IDX 8 1 9 2 6 3 7 4 5 5 4 6 3 7 2 8 1 9 10 11 11 12 15 13 16 14
REMARK SMILES IDX 17 15 12 17 13 18 14 19
REMARK H PARENT
REMARK Flexibility Score: 70.00
ROOT
ATOM      1  C   UNL     1      36.847  18.689  24.751  1.00  0.00     0.136 C 
ATOM      2  O   UNL     1      36.712  17.484  24.917  1.00  0.00    -0.299 OA
ENDROOT
BRANCH   1   3
ATOM      3  C   UNL     1      35.631  19.570  24.521  1.00  0.00     0.053 C 
ATOM      4  C   UNL     1      34.384  19.051  25.255  1.00  0.00     0.016 C 
BRANCH   3   5
ATOM      5  C   UNL     1      35.928  21.041  24.875  1.00  0.00     0.015 C 
BRANCH   5   6
ATOM      6  C   UNL     1      35.710  21.379  26.363  1.00  0.00     0.028 C 
BRANCH   6   7
ATOM      7  C   UNL     1      36.890  22.133  26.921  1.00  0.00    -0.028 C 
ATOM      8  C   UNL     1      37.966  21.555  27.507  1.00  0.00    -0.070 CG0
ATOM      9  C   UNL     1      39.090  22.451  27.959  1.00  0.00     0.039 C 
ATOM     10  G   UNL     1      38.077  20.055  27.742  1.00  0.00     0.000 G0
ENDBRANCH   6   7
ENDBRANCH   5   6
ENDBRANCH   3   5
ENDBRANCH   1   3
BRANCH   1  11
ATOM     11  C   UNL     1      38.236  19.279  24.784  1.00  0.00     0.087 C 
BRANCH  11  12
ATOM     12  C   UNL     1      39.141  18.587  25.838  1.00  0.00     0.066 C 
BRANCH  12  13
ATOM     13  C   UNL     1      39.295  19.449  27.082  1.00  0.00     0.140 C 
ATOM     14  O   UNL     1      40.398  19.593  27.590  1.00  0.00    -0.299 OA
BRANCH  13  15
ATOM     15  C   UNL     1      38.089  20.060  27.754  1.00  0.00     0.106 CG0
ATOM     16  G   UNL     1      37.979  21.557  27.503  1.00  0.00     0.000 G0
ENDBRANCH  13  15
ENDBRANCH  12  13
BRANCH  12  17
ATOM     17  C   UNL     1      40.538  18.166  25.277  1.00  0.00    -0.006 C 
ATOM     18  C   UNL     1      40.607  16.654  25.009  1.00  0.00     0.008 C 
ATOM     19  C   UNL     1      40.968  18.940  24.017  1.00  0.00     0.008 C 
ENDBRANCH  12  17
ENDBRANCH  11  12
ENDBRANCH   1  11
TORSDOF 1
ENDMDL
MODEL 8
REMARK VINA RESULT:    -3.701      1.759      3.865
REMARK INTER + INTRA:          -5.923
REMARK INTER:                  -5.656
REMARK INTRA:                  -0.268
REMARK UNBOUND:                -0.274
REMARK SMILES CC1=CCC[C@H](C)C(=O)C[C@@H](C(C)C)C(=O)C1
REMARK SMILES IDX 8 1 9 2 6 3 7 4 5 5 4 6 3 7 2 8 1 9 10 11 11 12 15 13 16 14
REMARK SMILES IDX 17 15 12 17 13 18 14 19
REMARK H PARENT
REMARK Flexibility Score: 70.00
ROOT
ATOM      1  C   UNL     1      37.305  22.256  27.890  1.00  0.00     0.136 C 
ATOM      2  O   UNL     1      36.237  22.651  28.338  1.00  0.00    -0.299 OA
ENDROOT
BRANCH   1   3
ATOM      3  C   UNL     1      38.509  22.104  28.804  1.00  0.00     0.053 C 
ATOM      4  C   UNL     1      38.957  23.443  29.411  1.00  0.00     0.016 C 
BRANCH   3   5
ATOM      5  C   UNL     1      38.258  21.043  29.895  1.00  0.00     0.015 C 
BRANCH   5   6
ATOM      6  C   UNL     1      38.606  19.606  29.457  1.00  0.00     0.028 C 
BRANCH   6   7
ATOM      7  C   UNL     1      39.942  19.567  28.762  1.00  0.00    -0.028 C 
ATOM      8  C   UNL     1      40.135  19.164  27.483  1.00  0.00    -0.070 CG0
ATOM      9  C   UNL     1      41.530  19.242  26.920  1.00  0.00     0.039 C 
ATOM     10  G   UNL     1      39.013  18.626  26.605  1.00  0.00     0.000 G0
ENDBRANCH   6   7
ENDBRANCH   5   6
ENDBRANCH   3   5
ENDBRANCH   1   3
BRANCH   1  11
ATOM     11  C   UNL     1      37.401  21.920  26.421  1.00  0.00     0.087 C 
BRANCH  11  12
ATOM     12  C   UNL     1      37.127  20.417  26.146  1.00  0.00     0.066 C 
BRANCH  12  13
ATOM     13  C   UNL     1      38.395  19.697  25.713  1.00  0.00     0.140 C 
ATOM     14  O   UNL     1      38.883  19.930  24.616  1.00  0.00    -0.299 OA
BRANCH  13  15
ATOM     15  C   UNL     1      39.015  18.630  26.582  1.00  0.00     0.106 CG0
ATOM     16  G   UNL     1      40.116  19.176  27.479  1.00  0.00     0.000 G0
ENDBRANCH  13  15
ENDBRANCH  12  13
BRANCH  12  17
ATOM     17  C   UNL     1      35.973  20.174  25.120  1.00  0.00    -0.006 C 
ATOM     18  C   UNL     1      35.775  18.676  24.838  1.00  0.00     0.008 C 
ATOM     19  C   UNL     1      34.630  20.811  25.524  1.00  0.00     0.008 C 
ENDBRANCH  12  17
ENDBRANCH  11  12
ENDBRANCH   1  11
TORSDOF 1
ENDMDL
MODEL 9
REMARK VINA RESULT:    -3.624      2.115      4.424
REMARK INTER + INTRA:          -5.804
REMARK INTER:                  -5.552
REMARK INTRA:                  -0.252
REMARK UNBOUND:                -0.274
REMARK SMILES CC1=CCC[C@H](C)C(=O)C[C@@H](C(C)C)C(=O)C1
REMARK SMILES IDX 8 1 9 2 6 3 7 4 5 5 4 6 3 7 2 8 1 9 10 11 11 12 15 13 16 14
REMARK SMILES IDX 17 15 12 17 13 18 14 19
REMARK H PARENT
REMARK Flexibility Score: 70.00
ROOT
ATOM      1  C   UNL     1      40.486  18.674  26.520  1.00  0.00     0.136 C 
ATOM      2  O   UNL     1      41.088  17.745  27.042  1.00  0.00    -0.299 OA
ENDROOT
BRANCH   1   3
ATOM      3  C   UNL     1      40.056  18.587  25.066  1.00  0.00     0.053 C 
ATOM      4  C   UNL     1      41.247  18.663  24.098  1.00  0.00     0.016 C 
BRANCH   3   5
ATOM      5  C   UNL     1      39.194  17.335  24.808  1.00  0.00     0.015 C 
BRANCH   5   6
ATOM      6  C   UNL     1      37.727  17.487  25.256  1.00  0.00     0.028 C 
BRANCH   6   7
ATOM      7  C   UNL     1      37.184  18.836  24.865  1.00  0.00    -0.028 C 
ATOM      8  C   UNL     1      36.757  19.779  25.740  1.00  0.00    -0.070 CG0
ATOM      9  C   UNL     1      36.298  21.102  25.185  1.00  0.00     0.039 C 
ATOM     10  G   UNL     1      36.707  19.552  27.244  1.00  0.00     0.000 G0
ENDBRANCH   6   7
ENDBRANCH   5   6
ENDBRANCH   3   5
ENDBRANCH   1   3
BRANCH   1  11
ATOM     11  C   UNL     1      40.177  19.899  27.347  1.00  0.00     0.087 C 
BRANCH  11  12
ATOM     12  C   UNL     1      39.066  19.632  28.397  1.00  0.00     0.066 C 
BRANCH  12  13
ATOM     13  C   UNL     1      37.763  20.312  28.005  1.00  0.00     0.140 C 
ATOM     14  O   UNL     1      37.547  21.463  28.358  1.00  0.00    -0.299 OA
BRANCH  13  15
ATOM     15  C   UNL     1      36.689  19.558  27.260  1.00  0.00     0.106 CG0
ATOM     16  G   UNL     1      36.756  19.784  25.756  1.00  0.00     0.000 G0
ENDBRANCH  13  15
ENDBRANCH  12  13
BRANCH  12  17
ATOM     17  C   UNL     1      39.480  20.021  29.853  1.00  0.00    -0.006 C 
ATOM     18  C   UNL     1      38.519  19.422  30.892  1.00  0.00     0.008 C 
ATOM     19  C   UNL     1      40.931  19.655  30.213  1.00  0.00     0.008 C 
ENDBRANCH  12  17
ENDBRANCH  11  12
ENDBRANCH   1  11
TORSDOF 1
ENDMDL
