MODEL 1
REMARK VINA RESULT:    -5.097      0.000      0.000
REMARK INTER + INTRA:          -7.860
REMARK INTER:                  -7.480
REMARK INTRA:                  -0.380
REMARK UNBOUND:                -0.380
REMARK SMILES O=C([O-])CCCCCCCC(=O)[O-]
REMARK SMILES IDX 7 1 6 2 5 3 4 4 2 5 1 6 3 7 8 8 9 9 10 10 11 11 12 12 13 13
REMARK H PARENT
REMARK Flexibility Score: inf
ROOT
ATOM      1  C   UNL     1      44.280  26.263   2.945  1.00  0.00     0.000 C 
ENDROOT
BRANCH   1   2
ATOM      2  C   UNL     1      45.761  26.243   2.528  1.00  0.00     0.000 C 
BRANCH   2   3
ATOM      3  C   UNL     1      46.317  24.821   2.370  1.00  0.00     0.006 C 
BRANCH   3   4
ATOM      4  C   UNL     1      47.796  24.764   2.765  1.00  0.00     0.053 C 
BRANCH   4   5
ATOM      5  C   UNL     1      47.958  24.091   4.091  1.00  0.00     0.041 C 
ATOM      6  O   UNL     1      47.533  24.645   5.140  1.00  0.00    -0.550 OA
ATOM      7  O   UNL     1      48.535  22.830   4.165  1.00  0.00    -0.550 OA
ENDBRANCH   4   5
ENDBRANCH   3   4
ENDBRANCH   2   3
ENDBRANCH   1   2
BRANCH   1   8
ATOM      8  C   UNL     1      44.013  26.743   4.385  1.00  0.00     0.000 C 
BRANCH   8   9
ATOM      9  C   UNL     1      45.267  27.160   5.180  1.00  0.00     0.006 C 
BRANCH   9  10
ATOM     10  C   UNL     1      44.982  27.625   6.615  1.00  0.00     0.053 C 
BRANCH  10  11
ATOM     11  C   UNL     1      44.138  26.642   7.365  1.00  0.00     0.041 C 
ATOM     12  O   UNL     1      42.900  26.834   7.491  1.00  0.00    -0.550 OA
ATOM     13  O   UNL     1      44.725  25.530   7.956  1.00  0.00    -0.550 OA
ENDBRANCH  10  11
ENDBRANCH   9  10
ENDBRANCH   8   9
ENDBRANCH   1   8
TORSDOF 8
ENDMDL
MODEL 2
REMARK VINA RESULT:    -4.917      1.181      4.742
REMARK INTER + INTRA:          -7.596
REMARK INTER:                  -7.044
REMARK INTRA:                  -0.552
REMARK UNBOUND:                -0.380
REMARK SMILES O=C([O-])CCCCCCCC(=O)[O-]
REMARK SMILES IDX 7 1 6 2 5 3 4 4 2 5 1 6 3 7 8 8 9 9 10 10 11 11 12 12 13 13
REMARK H PARENT
REMARK Flexibility Score: inf
ROOT
ATOM      1  C   UNL     1      45.011  27.068   2.866  1.00  0.00     0.000 C 
ENDROOT
BRANCH   1   2
ATOM      2  C   UNL     1      44.098  26.297   3.835  1.00  0.00     0.000 C 
BRANCH   2   3
ATOM      3  C   UNL     1      43.854  27.048   5.151  1.00  0.00     0.006 C 
BRANCH   3   4
ATOM      4  C   UNL     1      45.179  27.431   5.817  1.00  0.00     0.053 C 
BRANCH   4   5
ATOM      5  C   UNL     1      45.738  26.271   6.578  1.00  0.00     0.041 C 
ATOM      6  O   UNL     1      45.233  25.935   7.682  1.00  0.00    -0.550 OA
ATOM      7  O   UNL     1      46.786  25.530   6.046  1.00  0.00    -0.550 OA
ENDBRANCH   4   5
ENDBRANCH   3   4
ENDBRANCH   2   3
ENDBRANCH   1   2
BRANCH   1   8
ATOM      8  C   UNL     1      46.314  26.342   2.478  1.00  0.00     0.000 C 
BRANCH   8   9
ATOM      9  C   UNL     1      46.193  24.811   2.333  1.00  0.00     0.006 C 
BRANCH   9  10
ATOM     10  C   UNL     1      47.536  24.079   2.199  1.00  0.00     0.053 C 
BRANCH  10  11
ATOM     11  C   UNL     1      47.713  23.035   3.257  1.00  0.00     0.041 C 
ATOM     12  O   UNL     1      48.357  23.297   4.307  1.00  0.00    -0.550 OA
ATOM     13  O   UNL     1      47.194  21.760   3.068  1.00  0.00    -0.550 OA
ENDBRANCH  10  11
ENDBRANCH   9  10
ENDBRANCH   8   9
ENDBRANCH   1   8
TORSDOF 8
ENDMDL
MODEL 3
REMARK VINA RESULT:    -4.864      0.871      5.132
REMARK INTER + INTRA:          -7.519
REMARK INTER:                  -7.097
REMARK INTRA:                  -0.422
REMARK UNBOUND:                -0.380
REMARK SMILES O=C([O-])CCCCCCCC(=O)[O-]
REMARK SMILES IDX 7 1 6 2 5 3 4 4 2 5 1 6 3 7 8 8 9 9 10 10 11 11 12 12 13 13
REMARK H PARENT
REMARK Flexibility Score: inf
ROOT
ATOM      1  C   UNL     1      44.991  27.001   2.688  1.00  0.00     0.000 C 
ENDROOT
BRANCH   1   2
ATOM      2  C   UNL     1      44.359  26.834   4.081  1.00  0.00     0.000 C 
BRANCH   2   3
ATOM      3  C   UNL     1      45.399  26.804   5.209  1.00  0.00     0.006 C 
BRANCH   3   4
ATOM      4  C   UNL     1      44.868  27.504   6.463  1.00  0.00     0.053 C 
BRANCH   4   5
ATOM      5  C   UNL     1      44.191  26.521   7.365  1.00  0.00     0.041 C 
ATOM      6  O   UNL     1      44.865  25.642   7.966  1.00  0.00    -0.550 OA
ATOM      7  O   UNL     1      42.821  26.604   7.580  1.00  0.00    -0.550 OA
ENDBRANCH   4   5
ENDBRANCH   3   4
ENDBRANCH   2   3
ENDBRANCH   1   2
BRANCH   1   8
ATOM      8  C   UNL     1      46.286  26.197   2.458  1.00  0.00     0.000 C 
BRANCH   8   9
ATOM      9  C   UNL     1      46.089  24.682   2.250  1.00  0.00     0.006 C 
BRANCH   9  10
ATOM     10  C   UNL     1      47.381  23.857   2.332  1.00  0.00     0.053 C 
BRANCH  10  11
ATOM     11  C   UNL     1      48.285  24.339   3.424  1.00  0.00     0.041 C 
ATOM     12  O   UNL     1      49.433  24.780   3.150  1.00  0.00    -0.550 OA
ATOM     13  O   UNL     1      47.873  24.270   4.749  1.00  0.00    -0.550 OA
ENDBRANCH  10  11
ENDBRANCH   9  10
ENDBRANCH   8   9
ENDBRANCH   1   8
TORSDOF 8
ENDMDL
MODEL 4
REMARK VINA RESULT:    -4.695      1.543      2.163
REMARK INTER + INTRA:          -7.271
REMARK INTER:                  -6.827
REMARK INTRA:                  -0.443
REMARK UNBOUND:                -0.380
REMARK SMILES O=C([O-])CCCCCCCC(=O)[O-]
REMARK SMILES IDX 7 1 6 2 5 3 4 4 2 5 1 6 3 7 8 8 9 9 10 10 11 11 12 12 13 13
REMARK H PARENT
REMARK Flexibility Score: inf
ROOT
ATOM      1  C   UNL     1      45.541  26.527   2.641  1.00  0.00     0.000 C 
ENDROOT
BRANCH   1   2
ATOM      2  C   UNL     1      46.209  25.229   2.153  1.00  0.00     0.000 C 
BRANCH   2   3
ATOM      3  C   UNL     1      47.616  25.028   2.733  1.00  0.00     0.006 C 
BRANCH   3   4
ATOM      4  C   UNL     1      47.637  23.863   3.727  1.00  0.00     0.053 C 
BRANCH   4   5
ATOM      5  C   UNL     1      48.034  22.595   3.040  1.00  0.00     0.041 C 
ATOM      6  O   UNL     1      47.633  21.484   3.478  1.00  0.00    -0.550 OA
ATOM      7  O   UNL     1      48.806  22.641   1.886  1.00  0.00    -0.550 OA
ENDBRANCH   4   5
ENDBRANCH   3   4
ENDBRANCH   2   3
ENDBRANCH   1   2
BRANCH   1   8
ATOM      8  C   UNL     1      44.228  26.331   3.425  1.00  0.00     0.000 C 
BRANCH   8   9
ATOM      9  C   UNL     1      44.077  27.213   4.682  1.00  0.00     0.006 C 
BRANCH   9  10
ATOM     10  C   UNL     1      44.345  26.482   6.005  1.00  0.00     0.053 C 
BRANCH  10  11
ATOM     11  C   UNL     1      45.764  26.645   6.457  1.00  0.00     0.041 C 
ATOM     12  O   UNL     1      46.606  25.734   6.244  1.00  0.00    -0.550 OA
ATOM     13  O   UNL     1      46.146  27.790   7.146  1.00  0.00    -0.550 OA
ENDBRANCH  10  11
ENDBRANCH   9  10
ENDBRANCH   8   9
ENDBRANCH   1   8
TORSDOF 8
ENDMDL
MODEL 5
REMARK VINA RESULT:    -4.360     14.400     16.049
REMARK INTER + INTRA:          -6.779
REMARK INTER:                  -6.454
REMARK INTRA:                  -0.325
REMARK UNBOUND:                -0.380
REMARK SMILES O=C([O-])CCCCCCCC(=O)[O-]
REMARK SMILES IDX 7 1 6 2 5 3 4 4 2 5 1 6 3 7 8 8 9 9 10 10 11 11 12 12 13 13
REMARK H PARENT
REMARK Flexibility Score: inf
ROOT
ATOM      1  C   UNL     1      41.506  23.689  19.787  1.00  0.00     0.000 C 
ENDROOT
BRANCH   1   2
ATOM      2  C   UNL     1      42.467  23.318  20.929  1.00  0.00     0.000 C 
BRANCH   2   3
ATOM      3  C   UNL     1      43.629  22.427  20.465  1.00  0.00     0.006 C 
BRANCH   3   4
ATOM      4  C   UNL     1      43.496  21.013  21.037  1.00  0.00     0.053 C 
BRANCH   4   5
ATOM      5  C   UNL     1      44.832  20.496  21.469  1.00  0.00     0.041 C 
ATOM      6  O   UNL     1      44.914  19.423  22.125  1.00  0.00    -0.550 OA
ATOM      7  O   UNL     1      45.990  21.172  21.107  1.00  0.00    -0.550 OA
ENDBRANCH   4   5
ENDBRANCH   3   4
ENDBRANCH   2   3
ENDBRANCH   1   2
BRANCH   1   8
ATOM      8  C   UNL     1      41.741  22.936  18.463  1.00  0.00     0.000 C 
BRANCH   8   9
ATOM      9  C   UNL     1      40.476  22.692  17.614  1.00  0.00     0.006 C 
BRANCH   9  10
ATOM     10  C   UNL     1      39.165  23.103  18.298  1.00  0.00     0.053 C 
BRANCH  10  11
ATOM     11  C   UNL     1      37.985  22.942  17.389  1.00  0.00     0.041 C 
ATOM     12  O   UNL     1      38.147  22.893  16.142  1.00  0.00    -0.550 OA
ATOM     13  O   UNL     1      36.703  22.880  17.921  1.00  0.00    -0.550 OA
ENDBRANCH  10  11
ENDBRANCH   9  10
ENDBRANCH   8   9
ENDBRANCH   1   8
TORSDOF 8
ENDMDL
MODEL 6
REMARK VINA RESULT:    -4.342     14.730     16.163
REMARK INTER + INTRA:          -6.752
REMARK INTER:                  -5.995
REMARK INTRA:                  -0.757
REMARK UNBOUND:                -0.380
REMARK SMILES O=C([O-])CCCCCCCC(=O)[O-]
REMARK SMILES IDX 7 1 6 2 5 3 4 4 2 5 1 6 3 7 8 8 9 9 10 10 11 11 12 12 13 13
REMARK H PARENT
REMARK Flexibility Score: inf
ROOT
ATOM      1  C   UNL     1      43.578  21.066  21.034  1.00  0.00     0.000 C 
ENDROOT
BRANCH   1   2
ATOM      2  C   UNL     1      44.977  20.535  21.390  1.00  0.00     0.000 C 
BRANCH   2   3
ATOM      3  C   UNL     1      45.987  21.656  21.674  1.00  0.00     0.006 C 
BRANCH   3   4
ATOM      4  C   UNL     1      46.664  22.125  20.384  1.00  0.00     0.053 C 
BRANCH   4   5
ATOM      5  C   UNL     1      46.312  23.550  20.095  1.00  0.00     0.041 C 
ATOM      6  O   UNL     1      46.351  23.986  18.914  1.00  0.00    -0.550 OA
ATOM      7  O   UNL     1      45.893  24.385  21.123  1.00  0.00    -0.550 OA
ENDBRANCH   4   5
ENDBRANCH   3   4
ENDBRANCH   2   3
ENDBRANCH   1   2
BRANCH   1   8
ATOM      8  C   UNL     1      43.146  22.333  21.798  1.00  0.00     0.000 C 
BRANCH   8   9
ATOM      9  C   UNL     1      42.369  23.371  20.962  1.00  0.00     0.006 C 
BRANCH   9  10
ATOM     10  C   UNL     1      42.627  23.288  19.451  1.00  0.00     0.053 C 
BRANCH  10  11
ATOM     11  C   UNL     1      41.355  23.162  18.671  1.00  0.00     0.041 C 
ATOM     12  O   UNL     1      41.311  22.441  17.641  1.00  0.00    -0.550 OA
ATOM     13  O   UNL     1      40.226  23.871  19.065  1.00  0.00    -0.550 OA
ENDBRANCH  10  11
ENDBRANCH   9  10
ENDBRANCH   8   9
ENDBRANCH   1   8
TORSDOF 8
ENDMDL
MODEL 7
REMARK VINA RESULT:    -4.341     14.340     15.393
REMARK INTER + INTRA:          -6.751
REMARK INTER:                  -6.259
REMARK INTRA:                  -0.493
REMARK UNBOUND:                -0.380
REMARK SMILES O=C([O-])CCCCCCCC(=O)[O-]
REMARK SMILES IDX 7 1 6 2 5 3 4 4 2 5 1 6 3 7 8 8 9 9 10 10 11 11 12 12 13 13
REMARK H PARENT
REMARK Flexibility Score: inf
ROOT
ATOM      1  C   UNL     1      42.763  23.334  20.927  1.00  0.00     0.000 C 
ENDROOT
BRANCH   1   2
ATOM      2  C   UNL     1      43.733  24.289  20.209  1.00  0.00     0.000 C 
BRANCH   2   3
ATOM      3  C   UNL     1      44.642  23.570  19.201  1.00  0.00     0.006 C 
BRANCH   3   4
ATOM      4  C   UNL     1      46.113  23.911  19.450  1.00  0.00     0.053 C 
BRANCH   4   5
ATOM      5  C   UNL     1      46.790  22.802  20.191  1.00  0.00     0.041 C 
ATOM      6  O   UNL     1      48.009  22.894  20.495  1.00  0.00    -0.550 OA
ATOM      7  O   UNL     1      46.064  21.686  20.589  1.00  0.00    -0.550 OA
ENDBRANCH   4   5
ENDBRANCH   3   4
ENDBRANCH   2   3
ENDBRANCH   1   2
BRANCH   1   8
ATOM      8  C   UNL     1      41.267  23.633  20.705  1.00  0.00     0.000 C 
BRANCH   8   9
ATOM      9  C   UNL     1      40.927  24.316  19.365  1.00  0.00     0.006 C 
BRANCH   9  10
ATOM     10  C   UNL     1      39.844  23.600  18.545  1.00  0.00     0.053 C 
BRANCH  10  11
ATOM     11  C   UNL     1      40.422  22.536  17.664  1.00  0.00     0.041 C 
ATOM     12  O   UNL     1      41.668  22.447  17.510  1.00  0.00    -0.550 OA
ATOM     13  O   UNL     1      39.580  21.664  16.984  1.00  0.00    -0.550 OA
ENDBRANCH  10  11
ENDBRANCH   9  10
ENDBRANCH   8   9
ENDBRANCH   1   8
TORSDOF 8
ENDMDL
MODEL 8
REMARK VINA RESULT:    -4.313     14.836     16.578
REMARK INTER + INTRA:          -6.709
REMARK INTER:                  -6.482
REMARK INTRA:                  -0.228
REMARK UNBOUND:                -0.380
REMARK SMILES O=C([O-])CCCCCCCC(=O)[O-]
REMARK SMILES IDX 7 1 6 2 5 3 4 4 2 5 1 6 3 7 8 8 9 9 10 10 11 11 12 12 13 13
REMARK H PARENT
REMARK Flexibility Score: inf
ROOT
ATOM      1  C   UNL     1      41.559  24.488  20.996  1.00  0.00     0.000 C 
ENDROOT
BRANCH   1   2
ATOM      2  C   UNL     1      41.057  24.668  19.552  1.00  0.00     0.000 C 
BRANCH   2   3
ATOM      3  C   UNL     1      40.049  23.589  19.132  1.00  0.00     0.006 C 
BRANCH   3   4
ATOM      4  C   UNL     1      39.244  24.038  17.909  1.00  0.00     0.053 C 
BRANCH   4   5
ATOM      5  C   UNL     1      38.387  22.919  17.407  1.00  0.00     0.041 C 
ATOM      6  O   UNL     1      38.912  21.929  16.831  1.00  0.00    -0.550 OA
ATOM      7  O   UNL     1      37.014  22.946  17.616  1.00  0.00    -0.550 OA
ENDBRANCH   4   5
ENDBRANCH   3   4
ENDBRANCH   2   3
ENDBRANCH   1   2
BRANCH   1   8
ATOM      8  C   UNL     1      42.264  23.147  21.280  1.00  0.00     0.000 C 
BRANCH   8   9
ATOM      9  C   UNL     1      43.791  23.150  21.058  1.00  0.00     0.006 C 
BRANCH   9  10
ATOM     10  C   UNL     1      44.580  22.308  22.071  1.00  0.00     0.053 C 
BRANCH  10  11
ATOM     11  C   UNL     1      45.460  21.301  21.397  1.00  0.00     0.041 C 
ATOM     12  O   UNL     1      46.635  21.607  21.065  1.00  0.00    -0.550 OA
ATOM     13  O   UNL     1      44.969  20.034  21.104  1.00  0.00    -0.550 OA
ENDBRANCH  10  11
ENDBRANCH   9  10
ENDBRANCH   8   9
ENDBRANCH   1   8
TORSDOF 8
ENDMDL
MODEL 9
REMARK VINA RESULT:    -4.306     14.395     16.169
REMARK INTER + INTRA:          -6.700
REMARK INTER:                  -6.408
REMARK INTRA:                  -0.292
REMARK UNBOUND:                -0.380
REMARK SMILES O=C([O-])CCCCCCCC(=O)[O-]
REMARK SMILES IDX 7 1 6 2 5 3 4 4 2 5 1 6 3 7 8 8 9 9 10 10 11 11 12 12 13 13
REMARK H PARENT
REMARK Flexibility Score: inf
ROOT
ATOM      1  C   UNL     1      42.430  22.961  21.336  1.00  0.00     0.000 C 
ENDROOT
BRANCH   1   2
ATOM      2  C   UNL     1      42.370  23.721  19.999  1.00  0.00     0.000 C 
BRANCH   2   3
ATOM      3  C   UNL     1      41.002  23.612  19.311  1.00  0.00     0.006 C 
BRANCH   3   4
ATOM      4  C   UNL     1      41.110  22.830  17.999  1.00  0.00     0.053 C 
BRANCH   4   5
ATOM      5  C   UNL     1      39.760  22.668  17.374  1.00  0.00     0.041 C 
ATOM      6  O   UNL     1      38.998  23.663  17.244  1.00  0.00    -0.550 OA
ATOM      7  O   UNL     1      39.362  21.428  16.890  1.00  0.00    -0.550 OA
ENDBRANCH   4   5
ENDBRANCH   3   4
ENDBRANCH   2   3
ENDBRANCH   1   2
BRANCH   1   8
ATOM      8  C   UNL     1      43.414  21.775  21.371  1.00  0.00     0.000 C 
BRANCH   8   9
ATOM      9  C   UNL     1      44.840  22.121  21.848  1.00  0.00     0.006 C 
BRANCH   9  10
ATOM     10  C   UNL     1      45.959  21.519  20.987  1.00  0.00     0.053 C 
BRANCH  10  11
ATOM     11  C   UNL     1      46.828  22.577  20.379  1.00  0.00     0.041 C 
ATOM     12  O   UNL     1      47.984  22.787  20.833  1.00  0.00    -0.550 OA
ATOM     13  O   UNL     1      46.347  23.355  19.333  1.00  0.00    -0.550 OA
ENDBRANCH  10  11
ENDBRANCH   9  10
ENDBRANCH   8   9
ENDBRANCH   1   8
TORSDOF 8
ENDMDL
