MODEL 1
REMARK VINA RESULT:    -5.017      0.000      0.000
REMARK INTER + INTRA:          -7.388
REMARK INTER:                  -6.923
REMARK INTRA:                  -0.465
REMARK UNBOUND:                -0.465
REMARK SMILES OC[C@@H](O)C(O)[C@H](O)CO
REMARK SMILES IDX 5 1 7 2 9 3 10 4 8 6 3 8 2 9 1 10 4 12 6 14
REMARK H PARENT 10 5 8 7 1 11 4 13 6 15
REMARK Flexibility Score: inf
ROOT
ATOM      1  C   UNL     1      62.579  52.909  31.928  1.00  0.00     0.176 C 
ENDROOT
BRANCH   1   2
ATOM      2  C   UNL     1      63.878  53.228  32.717  1.00  0.00     0.171 C 
BRANCH   2   3
ATOM      3  C   UNL     1      64.280  52.100  33.688  1.00  0.00     0.190 C 
BRANCH   3   4
ATOM      4  O   UNL     1      64.030  52.477  35.013  1.00  0.00    -0.394 OA
ATOM      5  H   UNL     1      64.862  52.909  35.340  1.00  0.00     0.210 HD
ENDBRANCH   3   4
ENDBRANCH   2   3
BRANCH   2   6
ATOM      6  O   UNL     1      64.920  53.417  31.793  1.00  0.00    -0.388 OA
ATOM      7  H   UNL     1      64.738  52.820  31.021  1.00  0.00     0.211 HD
ENDBRANCH   2   6
ENDBRANCH   1   2
BRANCH   1   8
ATOM      8  C   UNL     1      62.066  54.058  31.016  1.00  0.00     0.171 C 
BRANCH   8   9
ATOM      9  C   UNL     1      60.538  54.085  30.829  1.00  0.00     0.190 C 
BRANCH   9  10
ATOM     10  O   UNL     1      60.053  52.833  30.418  1.00  0.00    -0.394 OA
ATOM     11  H   UNL     1      59.701  52.380  31.228  1.00  0.00     0.210 HD
ENDBRANCH   9  10
ENDBRANCH   8   9
BRANCH   8  12
ATOM     12  O   UNL     1      62.471  55.295  31.549  1.00  0.00    -0.388 OA
ATOM     13  H   UNL     1      61.654  55.748  31.885  1.00  0.00     0.211 HD
ENDBRANCH   8  12
ENDBRANCH   1   8
BRANCH   1  14
ATOM     14  O   UNL     1      62.772  51.753  31.151  1.00  0.00    -0.388 OA
ATOM     15  H   UNL     1      63.105  52.046  30.262  1.00  0.00     0.211 HD
ENDBRANCH   1  14
TORSDOF 9
ENDMDL
MODEL 2
REMARK VINA RESULT:    -4.959     11.429     12.764
REMARK INTER + INTRA:          -7.308
REMARK INTER:                  -6.828
REMARK INTRA:                  -0.480
REMARK UNBOUND:                -0.465
REMARK SMILES OC[C@@H](O)C(O)[C@H](O)CO
REMARK SMILES IDX 5 1 7 2 9 3 10 4 8 6 3 8 2 9 1 10 4 12 6 14
REMARK H PARENT 10 5 8 7 1 11 4 13 6 15
REMARK Flexibility Score: inf
ROOT
ATOM      1  C   UNL     1      70.241  43.515  30.423  1.00  0.00     0.176 C 
ENDROOT
BRANCH   1   2
ATOM      2  C   UNL     1      71.543  43.099  31.161  1.00  0.00     0.171 C 
BRANCH   2   3
ATOM      3  C   UNL     1      71.302  42.739  32.640  1.00  0.00     0.190 C 
BRANCH   3   4
ATOM      4  O   UNL     1      72.506  42.388  33.264  1.00  0.00    -0.394 OA
ATOM      5  H   UNL     1      72.342  42.458  34.240  1.00  0.00     0.210 HD
ENDBRANCH   3   4
ENDBRANCH   2   3
BRANCH   2   6
ATOM      6  O   UNL     1      72.080  41.977  30.507  1.00  0.00    -0.388 OA
ATOM      7  H   UNL     1      72.373  41.340  31.211  1.00  0.00     0.211 HD
ENDBRANCH   2   6
ENDBRANCH   1   2
BRANCH   1   8
ATOM      8  C   UNL     1      69.026  42.575  30.655  1.00  0.00     0.171 C 
BRANCH   8   9
ATOM      9  C   UNL     1      67.660  43.283  30.617  1.00  0.00     0.190 C 
BRANCH   9  10
ATOM     10  O   UNL     1      67.349  43.859  31.858  1.00  0.00    -0.394 OA
ATOM     11  H   UNL     1      67.849  44.714  31.914  1.00  0.00     0.210 HD
ENDBRANCH   9  10
ENDBRANCH   8   9
BRANCH   8  12
ATOM     12  O   UNL     1      69.028  41.558  29.684  1.00  0.00    -0.388 OA
ATOM     13  H   UNL     1      68.764  41.978  28.824  1.00  0.00     0.211 HD
ENDBRANCH   8  12
ENDBRANCH   1   8
BRANCH   1  14
ATOM     14  O   UNL     1      69.888  44.825  30.793  1.00  0.00    -0.388 OA
ATOM     15  H   UNL     1      70.226  44.975  31.714  1.00  0.00     0.211 HD
ENDBRANCH   1  14
TORSDOF 9
ENDMDL
MODEL 3
REMARK VINA RESULT:    -4.916      1.206      2.146
REMARK INTER + INTRA:          -7.249
REMARK INTER:                  -6.605
REMARK INTRA:                  -0.644
REMARK UNBOUND:                -0.465
REMARK SMILES OC[C@@H](O)C(O)[C@H](O)CO
REMARK SMILES IDX 5 1 7 2 9 3 10 4 8 6 3 8 2 9 1 10 4 12 6 14
REMARK H PARENT 10 5 8 7 1 11 4 13 6 15
REMARK Flexibility Score: inf
ROOT
ATOM      1  C   UNL     1      63.481  53.768  31.440  1.00  0.00     0.176 C 
ENDROOT
BRANCH   1   2
ATOM      2  C   UNL     1      64.249  52.487  31.864  1.00  0.00     0.171 C 
BRANCH   2   3
ATOM      3  C   UNL     1      63.713  51.874  33.173  1.00  0.00     0.190 C 
BRANCH   3   4
ATOM      4  O   UNL     1      64.000  52.707  34.261  1.00  0.00    -0.394 OA
ATOM      5  H   UNL     1      64.687  53.349  33.945  1.00  0.00     0.210 HD
ENDBRANCH   3   4
ENDBRANCH   2   3
BRANCH   2   6
ATOM      6  O   UNL     1      64.121  51.536  30.837  1.00  0.00    -0.388 OA
ATOM      7  H   UNL     1      63.343  51.807  30.283  1.00  0.00     0.211 HD
ENDBRANCH   2   6
ENDBRANCH   1   2
BRANCH   1   8
ATOM      8  C   UNL     1      61.933  53.636  31.442  1.00  0.00     0.171 C 
BRANCH   8   9
ATOM      9  C   UNL     1      61.189  54.882  30.927  1.00  0.00     0.190 C 
BRANCH   9  10
ATOM     10  O   UNL     1      61.504  56.016  31.691  1.00  0.00    -0.394 OA
ATOM     11  H   UNL     1      61.767  56.730  31.054  1.00  0.00     0.210 HD
ENDBRANCH   9  10
ENDBRANCH   8   9
BRANCH   8  12
ATOM     12  O   UNL     1      61.556  52.534  30.654  1.00  0.00    -0.388 OA
ATOM     13  H   UNL     1      62.392  52.079  30.374  1.00  0.00     0.211 HD
ENDBRANCH   8  12
ENDBRANCH   1   8
BRANCH   1  14
ATOM     14  O   UNL     1      63.854  54.839  32.273  1.00  0.00    -0.388 OA
ATOM     15  H   UNL     1      63.589  54.600  33.199  1.00  0.00     0.211 HD
ENDBRANCH   1  14
TORSDOF 9
ENDMDL
MODEL 4
REMARK VINA RESULT:    -4.757     11.164     12.433
REMARK INTER + INTRA:          -7.029
REMARK INTER:                  -6.338
REMARK INTRA:                  -0.691
REMARK UNBOUND:                -0.465
REMARK SMILES OC[C@@H](O)C(O)[C@H](O)CO
REMARK SMILES IDX 5 1 7 2 9 3 10 4 8 6 3 8 2 9 1 10 4 12 6 14
REMARK H PARENT 10 5 8 7 1 11 4 13 6 15
REMARK Flexibility Score: inf
ROOT
ATOM      1  C   UNL     1      69.078  42.517  30.772  1.00  0.00     0.176 C 
ENDROOT
BRANCH   1   2
ATOM      2  C   UNL     1      70.293  43.478  30.881  1.00  0.00     0.171 C 
BRANCH   2   3
ATOM      3  C   UNL     1      71.459  43.075  29.955  1.00  0.00     0.190 C 
BRANCH   3   4
ATOM      4  O   UNL     1      72.198  42.029  30.520  1.00  0.00    -0.394 OA
ATOM      5  H   UNL     1      72.669  42.415  31.304  1.00  0.00     0.210 HD
ENDBRANCH   3   4
ENDBRANCH   2   3
BRANCH   2   6
ATOM      6  O   UNL     1      69.866  44.770  30.528  1.00  0.00    -0.388 OA
ATOM      7  H   UNL     1      70.676  45.290  30.285  1.00  0.00     0.211 HD
ENDBRANCH   2   6
ENDBRANCH   1   2
BRANCH   1   8
ATOM      8  C   UNL     1      67.695  43.217  30.663  1.00  0.00     0.171 C 
BRANCH   8   9
ATOM      9  C   UNL     1      66.535  42.274  30.297  1.00  0.00     0.190 C 
BRANCH   9  10
ATOM     10  O   UNL     1      66.705  41.007  30.876  1.00  0.00    -0.394 OA
ATOM     11  H   UNL     1      65.798  40.643  31.048  1.00  0.00     0.210 HD
ENDBRANCH   9  10
ENDBRANCH   8   9
BRANCH   8  12
ATOM     12  O   UNL     1      67.391  43.845  31.884  1.00  0.00    -0.388 OA
ATOM     13  H   UNL     1      68.186  43.741  32.470  1.00  0.00     0.211 HD
ENDBRANCH   8  12
ENDBRANCH   1   8
BRANCH   1  14
ATOM     14  O   UNL     1      69.251  41.661  29.669  1.00  0.00    -0.388 OA
ATOM     15  H   UNL     1      69.584  40.793  30.017  1.00  0.00     0.211 HD
ENDBRANCH   1  14
TORSDOF 9
ENDMDL
MODEL 5
REMARK VINA RESULT:    -4.734     11.630     13.380
REMARK INTER + INTRA:          -6.998
REMARK INTER:                  -6.450
REMARK INTRA:                  -0.548
REMARK UNBOUND:                -0.465
REMARK SMILES OC[C@@H](O)C(O)[C@H](O)CO
REMARK SMILES IDX 5 1 7 2 9 3 10 4 8 6 3 8 2 9 1 10 4 12 6 14
REMARK H PARENT 10 5 8 7 1 11 4 13 6 15
REMARK Flexibility Score: inf
ROOT
ATOM      1  C   UNL     1      70.167  43.199  30.530  1.00  0.00     0.176 C 
ENDROOT
BRANCH   1   2
ATOM      2  C   UNL     1      70.290  43.797  29.103  1.00  0.00     0.171 C 
BRANCH   2   3
ATOM      3  C   UNL     1      71.142  45.081  29.064  1.00  0.00     0.190 C 
BRANCH   3   4
ATOM      4  O   UNL     1      70.470  46.138  29.690  1.00  0.00    -0.394 OA
ATOM      5  H   UNL     1      69.997  46.631  28.969  1.00  0.00     0.210 HD
ENDBRANCH   3   4
ENDBRANCH   2   3
BRANCH   2   6
ATOM      6  O   UNL     1      70.890  42.836  28.272  1.00  0.00    -0.388 OA
ATOM      7  H   UNL     1      70.838  43.178  27.341  1.00  0.00     0.211 HD
ENDBRANCH   2   6
ENDBRANCH   1   2
BRANCH   1   8
ATOM      8  C   UNL     1      71.499  43.124  31.327  1.00  0.00     0.171 C 
BRANCH   8   9
ATOM      9  C   UNL     1      71.332  42.728  32.805  1.00  0.00     0.190 C 
BRANCH   9  10
ATOM     10  O   UNL     1      72.562  42.371  33.380  1.00  0.00    -0.394 OA
ATOM     11  H   UNL     1      72.961  43.202  33.748  1.00  0.00     0.210 HD
ENDBRANCH   9  10
ENDBRANCH   8   9
BRANCH   8  12
ATOM     12  O   UNL     1      72.361  42.199  30.712  1.00  0.00    -0.388 OA
ATOM     13  H   UNL     1      71.817  41.398  30.492  1.00  0.00     0.211 HD
ENDBRANCH   8  12
ENDBRANCH   1   8
BRANCH   1  14
ATOM     14  O   UNL     1      69.227  43.937  31.271  1.00  0.00    -0.388 OA
ATOM     15  H   UNL     1      69.709  44.700  31.687  1.00  0.00     0.211 HD
ENDBRANCH   1  14
TORSDOF 9
ENDMDL
MODEL 6
REMARK VINA RESULT:    -4.643     11.212     12.767
REMARK INTER + INTRA:          -6.872
REMARK INTER:                  -5.871
REMARK INTRA:                  -1.001
REMARK UNBOUND:                -0.465
REMARK SMILES OC[C@@H](O)C(O)[C@H](O)CO
REMARK SMILES IDX 5 1 7 2 9 3 10 4 8 6 3 8 2 9 1 10 4 12 6 14
REMARK H PARENT 10 5 8 7 1 11 4 13 6 15
REMARK Flexibility Score: inf
ROOT
ATOM      1  C   UNL     1      70.278  42.694  29.520  1.00  0.00     0.176 C 
ENDROOT
BRANCH   1   2
ATOM      2  C   UNL     1      69.635  43.865  28.729  1.00  0.00     0.171 C 
BRANCH   2   3
ATOM      3  C   UNL     1      68.098  43.764  28.655  1.00  0.00     0.190 C 
BRANCH   3   4
ATOM      4  O   UNL     1      67.527  44.008  29.910  1.00  0.00    -0.394 OA
ATOM      5  H   UNL     1      68.253  44.376  30.477  1.00  0.00     0.210 HD
ENDBRANCH   3   4
ENDBRANCH   2   3
BRANCH   2   6
ATOM      6  O   UNL     1      69.974  45.069  29.370  1.00  0.00    -0.388 OA
ATOM      7  H   UNL     1      69.218  45.305  29.970  1.00  0.00     0.211 HD
ENDBRANCH   2   6
ENDBRANCH   1   2
BRANCH   1   8
ATOM      8  C   UNL     1      71.189  43.123  30.704  1.00  0.00     0.171 C 
BRANCH   8   9
ATOM      9  C   UNL     1      70.507  43.067  32.082  1.00  0.00     0.190 C 
BRANCH   9  10
ATOM     10  O   UNL     1      69.422  43.955  32.151  1.00  0.00    -0.394 OA
ATOM     11  H   UNL     1      69.788  44.869  32.024  1.00  0.00     0.210 HD
ENDBRANCH   9  10
ENDBRANCH   8   9
BRANCH   8  12
ATOM     12  O   UNL     1      72.330  42.302  30.737  1.00  0.00    -0.388 OA
ATOM     13  H   UNL     1      72.643  42.202  29.800  1.00  0.00     0.211 HD
ENDBRANCH   8  12
ENDBRANCH   1   8
BRANCH   1  14
ATOM     14  O   UNL     1      69.269  41.839  30.000  1.00  0.00    -0.388 OA
ATOM     15  H   UNL     1      69.386  40.961  29.551  1.00  0.00     0.211 HD
ENDBRANCH   1  14
TORSDOF 9
ENDMDL
MODEL 7
REMARK VINA RESULT:    -4.610     13.568     14.806
REMARK INTER + INTRA:          -6.827
REMARK INTER:                  -6.231
REMARK INTRA:                  -0.596
REMARK UNBOUND:                -0.465
REMARK SMILES OC[C@@H](O)C(O)[C@H](O)CO
REMARK SMILES IDX 5 1 7 2 9 3 10 4 8 6 3 8 2 9 1 10 4 12 6 14
REMARK H PARENT 10 5 8 7 1 11 4 13 6 15
REMARK Flexibility Score: inf
ROOT
ATOM      1  C   UNL     1      72.391  42.784  27.822  1.00  0.00     0.176 C 
ENDROOT
BRANCH   1   2
ATOM      2  C   UNL     1      71.468  43.543  28.813  1.00  0.00     0.171 C 
BRANCH   2   3
ATOM      3  C   UNL     1      71.470  42.924  30.225  1.00  0.00     0.190 C 
BRANCH   3   4
ATOM      4  O   UNL     1      72.590  42.101  30.401  1.00  0.00    -0.394 OA
ATOM      5  H   UNL     1      72.295  41.182  30.170  1.00  0.00     0.210 HD
ENDBRANCH   3   4
ENDBRANCH   2   3
BRANCH   2   6
ATOM      6  O   UNL     1      71.916  44.872  28.905  1.00  0.00    -0.388 OA
ATOM      7  H   UNL     1      71.797  45.284  28.009  1.00  0.00     0.211 HD
ENDBRANCH   2   6
ENDBRANCH   1   2
BRANCH   1   8
ATOM      8  C   UNL     1      72.144  43.101  26.321  1.00  0.00     0.171 C 
BRANCH   8   9
ATOM      9  C   UNL     1      72.219  41.875  25.393  1.00  0.00     0.190 C 
BRANCH   9  10
ATOM     10  O   UNL     1      73.035  40.872  25.938  1.00  0.00    -0.394 OA
ATOM     11  H   UNL     1      73.814  40.772  25.332  1.00  0.00     0.210 HD
ENDBRANCH   9  10
ENDBRANCH   8   9
BRANCH   8  12
ATOM     12  O   UNL     1      70.880  43.698  26.170  1.00  0.00    -0.388 OA
ATOM     13  H   UNL     1      70.381  43.538  27.014  1.00  0.00     0.211 HD
ENDBRANCH   8  12
ENDBRANCH   1   8
BRANCH   1  14
ATOM     14  O   UNL     1      73.737  43.050  28.134  1.00  0.00    -0.388 OA
ATOM     15  H   UNL     1      74.258  42.233  27.917  1.00  0.00     0.211 HD
ENDBRANCH   1  14
TORSDOF 9
ENDMDL
MODEL 8
REMARK VINA RESULT:    -4.588     11.566     13.136
REMARK INTER + INTRA:          -6.796
REMARK INTER:                  -6.136
REMARK INTRA:                  -0.660
REMARK UNBOUND:                -0.465
REMARK SMILES OC[C@@H](O)C(O)[C@H](O)CO
REMARK SMILES IDX 5 1 7 2 9 3 10 4 8 6 3 8 2 9 1 10 4 12 6 14
REMARK H PARENT 10 5 8 7 1 11 4 13 6 15
REMARK Flexibility Score: inf
ROOT
ATOM      1  C   UNL     1      70.777  43.890  30.576  1.00  0.00     0.176 C 
ENDROOT
BRANCH   1   2
ATOM      2  C   UNL     1      70.009  43.399  31.834  1.00  0.00     0.171 C 
BRANCH   2   3
ATOM      3  C   UNL     1      68.612  42.840  31.501  1.00  0.00     0.190 C 
BRANCH   3   4
ATOM      4  O   UNL     1      67.633  43.828  31.668  1.00  0.00    -0.394 OA
ATOM      5  H   UNL     1      67.941  44.398  32.420  1.00  0.00     0.210 HD
ENDBRANCH   3   4
ENDBRANCH   2   3
BRANCH   2   6
ATOM      6  O   UNL     1      70.765  42.383  32.442  1.00  0.00    -0.388 OA
ATOM      7  H   UNL     1      71.684  42.438  32.069  1.00  0.00     0.211 HD
ENDBRANCH   2   6
ENDBRANCH   1   2
BRANCH   1   8
ATOM      8  C   UNL     1      71.416  42.765  29.715  1.00  0.00     0.171 C 
BRANCH   8   9
ATOM      9  C   UNL     1      71.877  43.220  28.319  1.00  0.00     0.190 C 
BRANCH   9  10
ATOM     10  O   UNL     1      72.522  44.465  28.375  1.00  0.00    -0.394 OA
ATOM     11  H   UNL     1      72.321  44.933  27.524  1.00  0.00     0.210 HD
ENDBRANCH   9  10
ENDBRANCH   8   9
BRANCH   8  12
ATOM     12  O   UNL     1      72.521  42.225  30.396  1.00  0.00    -0.388 OA
ATOM     13  H   UNL     1      72.288  41.289  30.632  1.00  0.00     0.211 HD
ENDBRANCH   8  12
ENDBRANCH   1   8
BRANCH   1  14
ATOM     14  O   UNL     1      69.917  44.657  29.769  1.00  0.00    -0.388 OA
ATOM     15  H   UNL     1      69.201  44.052  29.440  1.00  0.00     0.211 HD
ENDBRANCH   1  14
TORSDOF 9
ENDMDL
MODEL 9
REMARK VINA RESULT:    -4.583     11.832     13.150
REMARK INTER + INTRA:          -6.789
REMARK INTER:                  -6.469
REMARK INTRA:                  -0.321
REMARK UNBOUND:                -0.465
REMARK SMILES OC[C@@H](O)C(O)[C@H](O)CO
REMARK SMILES IDX 5 1 7 2 9 3 10 4 8 6 3 8 2 9 1 10 4 12 6 14
REMARK H PARENT 10 5 8 7 1 11 4 13 6 15
REMARK Flexibility Score: inf
ROOT
ATOM      1  C   UNL     1      70.206  43.221  30.340  1.00  0.00     0.176 C 
ENDROOT
BRANCH   1   2
ATOM      2  C   UNL     1      71.531  43.060  31.134  1.00  0.00     0.171 C 
BRANCH   2   3
ATOM      3  C   UNL     1      71.299  42.759  32.628  1.00  0.00     0.190 C 
BRANCH   3   4
ATOM      4  O   UNL     1      72.499  42.391  33.248  1.00  0.00    -0.394 OA
ATOM      5  H   UNL     1      73.214  42.913  32.800  1.00  0.00     0.210 HD
ENDBRANCH   3   4
ENDBRANCH   2   3
BRANCH   2   6
ATOM      6  O   UNL     1      72.256  41.996  30.570  1.00  0.00    -0.388 OA
ATOM      7  H   UNL     1      73.219  42.190  30.713  1.00  0.00     0.211 HD
ENDBRANCH   2   6
ENDBRANCH   1   2
BRANCH   1   8
ATOM      8  C   UNL     1      70.364  43.810  28.911  1.00  0.00     0.171 C 
BRANCH   8   9
ATOM      9  C   UNL     1      71.105  45.159  28.860  1.00  0.00     0.190 C 
BRANCH   9  10
ATOM     10  O   UNL     1      70.503  46.104  29.705  1.00  0.00    -0.394 OA
ATOM     11  H   UNL     1      69.639  45.717  30.003  1.00  0.00     0.210 HD
ENDBRANCH   9  10
ENDBRANCH   8   9
BRANCH   8  12
ATOM     12  O   UNL     1      71.054  42.892  28.099  1.00  0.00    -0.388 OA
ATOM     13  H   UNL     1      71.985  43.225  28.011  1.00  0.00     0.211 HD
ENDBRANCH   8  12
ENDBRANCH   1   8
BRANCH   1  14
ATOM     14  O   UNL     1      69.552  41.978  30.256  1.00  0.00    -0.388 OA
ATOM     15  H   UNL     1      69.838  41.439  31.040  1.00  0.00     0.211 HD
ENDBRANCH   1  14
TORSDOF 9
ENDMDL
