MODEL 1
REMARK VINA RESULT:    -5.364      0.000      0.000
REMARK INTER + INTRA:          -9.395
REMARK INTER:                  -8.342
REMARK INTRA:                  -1.053
REMARK UNBOUND:                -1.053
REMARK SMILES COc1cc(CNC(=O)CCCCC=CC(C)C)ccc1O
REMARK SMILES IDX 11 1 12 2 13 3 14 4 15 5 16 6 17 7 18 8 10 9 8 10 9 11 7 12
REMARK SMILES IDX 6 14 5 15 4 16 19 17 3 18 20 19 21 20 2 21 1 22 22 23
REMARK H PARENT 7 13 22 24
REMARK Flexibility Score: inf
ROOT
ATOM      1  C   UNL     1      -1.394  -2.101 -36.644  1.00  0.00     0.010 C 
ENDROOT
BRANCH   1   2
ATOM      2  C   UNL     1      -1.339  -0.895 -37.593  1.00  0.00     0.005 C 
BRANCH   2   3
ATOM      3  C   UNL     1      -0.694   0.332 -36.936  1.00  0.00     0.027 C 
BRANCH   3   4
ATOM      4  C   UNL     1       0.777   0.452 -37.246  1.00  0.00    -0.031 C 
ATOM      5  C   UNL     1       1.770  -0.092 -36.519  1.00  0.00    -0.028 C 
BRANCH   5   6
ATOM      6  C   UNL     1       1.585  -0.922 -35.267  1.00  0.00     0.005 C 
ATOM      7  C   UNL     1       2.035  -0.122 -34.044  1.00  0.00     0.012 C 
ATOM      8  C   UNL     1       2.390  -2.219 -35.388  1.00  0.00     0.012 C 
ENDBRANCH   5   6
ENDBRANCH   3   4
ENDBRANCH   2   3
ENDBRANCH   1   2
BRANCH   1   9
ATOM      9  C   UNL     1      -1.751  -1.664 -35.220  1.00  0.00     0.100 C 
BRANCH   9  10
ATOM     10  C   UNL     1      -2.887  -2.488 -34.696  1.00  0.00     0.220 C 
ATOM     11  O   UNL     1      -3.098  -3.631 -35.182  1.00  0.00    -0.275 OA
ATOM     12  N   UNL     1      -3.698  -1.998 -33.620  1.00  0.00    -0.352 N 
ATOM     13  H   UNL     1      -3.558  -1.019 -33.284  1.00  0.00     0.163 HD
BRANCH  12  14
ATOM     14  C   UNL     1      -4.684  -2.832 -32.940  1.00  0.00     0.151 C 
BRANCH  14  15
ATOM     15  C   UNL     1      -4.007  -3.700 -31.914  1.00  0.00    -0.025 A 
ATOM     16  C   UNL     1      -3.862  -5.077 -32.146  1.00  0.00     0.056 A 
ATOM     17  C   UNL     1      -3.563  -3.155 -30.700  1.00  0.00     0.009 A 
ATOM     18  C   UNL     1      -3.258  -5.906 -31.181  1.00  0.00     0.160 A 
ATOM     19  C   UNL     1      -2.970  -3.973 -29.738  1.00  0.00     0.050 A 
ATOM     20  C   UNL     1      -2.816  -5.346 -29.973  1.00  0.00     0.157 A 
BRANCH  18  21
ATOM     21  O   UNL     1      -3.078  -7.283 -31.385  1.00  0.00    -0.493 OA
ATOM     22  C   UNL     1      -3.438  -7.978 -32.573  1.00  0.00     0.278 C 
ENDBRANCH  18  21
BRANCH  20  23
ATOM     23  O   UNL     1      -2.223  -6.162 -29.012  1.00  0.00    -0.504 OA
ATOM     24  H   UNL     1      -2.306  -7.169 -29.048  1.00  0.00     0.293 HD
ENDBRANCH  20  23
ENDBRANCH  14  15
ENDBRANCH  12  14
ENDBRANCH   9  10
ENDBRANCH   1   9
TORSDOF 10
ENDMDL
MODEL 2
REMARK VINA RESULT:    -5.182      2.741      8.114
REMARK INTER + INTRA:          -9.113
REMARK INTER:                  -8.485
REMARK INTRA:                  -0.628
REMARK UNBOUND:                -1.053
REMARK SMILES COc1cc(CNC(=O)CCCCC=CC(C)C)ccc1O
REMARK SMILES IDX 11 1 12 2 13 3 14 4 15 5 16 6 17 7 18 8 10 9 8 10 9 11 7 12
REMARK SMILES IDX 6 14 5 15 4 16 19 17 3 18 20 19 21 20 2 21 1 22 22 23
REMARK H PARENT 7 13 22 24
REMARK Flexibility Score: inf
ROOT
ATOM      1  C   UNL     1      -3.230  -2.819 -31.550  1.00  0.00     0.010 C 
ENDROOT
BRANCH   1   2
ATOM      2  C   UNL     1      -3.896  -3.357 -30.275  1.00  0.00     0.005 C 
BRANCH   2   3
ATOM      3  C   UNL     1      -3.449  -4.788 -29.946  1.00  0.00     0.027 C 
BRANCH   3   4
ATOM      4  C   UNL     1      -2.200  -4.827 -29.101  1.00  0.00    -0.031 C 
ATOM      5  C   UNL     1      -2.136  -5.269 -27.831  1.00  0.00    -0.028 C 
BRANCH   5   6
ATOM      6  C   UNL     1      -3.303  -5.809 -27.033  1.00  0.00     0.005 C 
ATOM      7  C   UNL     1      -3.938  -4.683 -26.217  1.00  0.00     0.012 C 
ATOM      8  C   UNL     1      -2.818  -6.934 -26.114  1.00  0.00     0.012 C 
ENDBRANCH   5   6
ENDBRANCH   3   4
ENDBRANCH   2   3
ENDBRANCH   1   2
BRANCH   1   9
ATOM      9  C   UNL     1      -4.251  -2.671 -32.682  1.00  0.00     0.100 C 
BRANCH   9  10
ATOM     10  C   UNL     1      -3.601  -2.946 -34.003  1.00  0.00     0.220 C 
ATOM     11  O   UNL     1      -3.952  -3.957 -34.668  1.00  0.00    -0.275 OA
ATOM     12  N   UNL     1      -2.621  -2.041 -34.527  1.00  0.00    -0.352 N 
ATOM     13  H   UNL     1      -2.286  -1.253 -33.929  1.00  0.00     0.163 HD
BRANCH  12  14
ATOM     14  C   UNL     1      -2.103  -2.149 -35.888  1.00  0.00     0.151 C 
BRANCH  14  15
ATOM     15  C   UNL     1      -0.741  -1.515 -35.974  1.00  0.00    -0.025 A 
ATOM     16  C   UNL     1       0.373  -2.291 -36.330  1.00  0.00     0.056 A 
ATOM     17  C   UNL     1      -0.563  -0.162 -35.650  1.00  0.00     0.009 A 
ATOM     18  C   UNL     1       1.658  -1.718 -36.384  1.00  0.00     0.160 A 
ATOM     19  C   UNL     1       0.709   0.410 -35.695  1.00  0.00     0.050 A 
ATOM     20  C   UNL     1       1.820  -0.362 -36.060  1.00  0.00     0.157 A 
BRANCH  18  21
ATOM     21  O   UNL     1       2.793  -2.458 -36.754  1.00  0.00    -0.493 OA
ATOM     22  C   UNL     1       3.217  -2.669 -38.095  1.00  0.00     0.278 C 
ENDBRANCH  18  21
BRANCH  20  23
ATOM     23  O   UNL     1       3.090   0.209 -36.106  1.00  0.00    -0.504 OA
ATOM     24  H   UNL     1       3.459   0.741 -35.330  1.00  0.00     0.293 HD
ENDBRANCH  20  23
ENDBRANCH  14  15
ENDBRANCH  12  14
ENDBRANCH   9  10
ENDBRANCH   1   9
TORSDOF 10
ENDMDL
MODEL 3
REMARK VINA RESULT:    -5.017      0.773      1.870
REMARK INTER + INTRA:          -8.856
REMARK INTER:                  -7.894
REMARK INTRA:                  -0.963
REMARK UNBOUND:                -1.053
REMARK SMILES COc1cc(CNC(=O)CCCCC=CC(C)C)ccc1O
REMARK SMILES IDX 11 1 12 2 13 3 14 4 15 5 16 6 17 7 18 8 10 9 8 10 9 11 7 12
REMARK SMILES IDX 6 14 5 15 4 16 19 17 3 18 20 19 21 20 2 21 1 22 22 23
REMARK H PARENT 7 13 22 24
REMARK Flexibility Score: inf
ROOT
ATOM      1  C   UNL     1      -1.439  -2.224 -36.309  1.00  0.00     0.010 C 
ENDROOT
BRANCH   1   2
ATOM      2  C   UNL     1      -1.546  -1.061 -37.306  1.00  0.00     0.005 C 
BRANCH   2   3
ATOM      3  C   UNL     1      -0.821   0.197 -36.811  1.00  0.00     0.027 C 
BRANCH   3   4
ATOM      4  C   UNL     1       0.619   0.253 -37.259  1.00  0.00    -0.031 C 
ATOM      5  C   UNL     1       1.663  -0.256 -36.580  1.00  0.00    -0.028 C 
BRANCH   5   6
ATOM      6  C   UNL     1       1.575  -0.977 -35.252  1.00  0.00     0.005 C 
ATOM      7  C   UNL     1       2.096  -0.071 -34.136  1.00  0.00     0.012 C 
ATOM      8  C   UNL     1       2.388  -2.273 -35.318  1.00  0.00     0.012 C 
ENDBRANCH   5   6
ENDBRANCH   3   4
ENDBRANCH   2   3
ENDBRANCH   1   2
BRANCH   1   9
ATOM      9  C   UNL     1      -1.846  -1.778 -34.900  1.00  0.00     0.100 C 
BRANCH   9  10
ATOM     10  C   UNL     1      -3.048  -2.547 -34.443  1.00  0.00     0.220 C 
ATOM     11  O   UNL     1      -3.434  -3.545 -35.108  1.00  0.00    -0.275 OA
ATOM     12  N   UNL     1      -3.723  -2.178 -33.233  1.00  0.00    -0.352 N 
ATOM     13  H   UNL     1      -3.437  -1.304 -32.739  1.00  0.00     0.163 HD
BRANCH  12  14
ATOM     14  C   UNL     1      -4.768  -3.004 -32.636  1.00  0.00     0.151 C 
BRANCH  14  15
ATOM     15  C   UNL     1      -4.159  -4.214 -31.982  1.00  0.00    -0.025 A 
ATOM     16  C   UNL     1      -3.373  -4.066 -30.828  1.00  0.00     0.056 A 
ATOM     17  C   UNL     1      -4.325  -5.489 -32.544  1.00  0.00     0.009 A 
ATOM     18  C   UNL     1      -2.770  -5.186 -30.223  1.00  0.00     0.160 A 
ATOM     19  C   UNL     1      -3.725  -6.601 -31.953  1.00  0.00     0.050 A 
ATOM     20  C   UNL     1      -2.949  -6.455 -30.795  1.00  0.00     0.157 A 
BRANCH  18  21
ATOM     21  O   UNL     1      -1.994  -5.080 -29.059  1.00  0.00    -0.493 OA
ATOM     22  C   UNL     1      -2.509  -5.152 -27.734  1.00  0.00     0.278 C 
ENDBRANCH  18  21
BRANCH  20  23
ATOM     23  O   UNL     1      -2.350  -7.566 -30.204  1.00  0.00    -0.504 OA
ATOM     24  H   UNL     1      -2.735  -7.997 -29.375  1.00  0.00     0.293 HD
ENDBRANCH  20  23
ENDBRANCH  14  15
ENDBRANCH  12  14
ENDBRANCH   9  10
ENDBRANCH   1   9
TORSDOF 10
ENDMDL
MODEL 4
REMARK VINA RESULT:    -4.736      7.016     10.204
REMARK INTER + INTRA:          -8.419
REMARK INTER:                  -7.794
REMARK INTRA:                  -0.625
REMARK UNBOUND:                -1.053
REMARK SMILES COc1cc(CNC(=O)CCCCC=CC(C)C)ccc1O
REMARK SMILES IDX 11 1 12 2 13 3 14 4 15 5 16 6 17 7 18 8 10 9 8 10 9 11 7 12
REMARK SMILES IDX 6 14 5 15 4 16 19 17 3 18 20 19 21 20 2 21 1 22 22 23
REMARK H PARENT 7 13 22 24
REMARK Flexibility Score: inf
ROOT
ATOM      1  C   UNL     1      -2.827  -5.384 -26.899  1.00  0.00     0.010 C 
ENDROOT
BRANCH   1   2
ATOM      2  C   UNL     1      -1.865  -5.061 -28.052  1.00  0.00     0.005 C 
BRANCH   2   3
ATOM      3  C   UNL     1      -2.545  -5.173 -29.424  1.00  0.00     0.027 C 
BRANCH   3   4
ATOM      4  C   UNL     1      -3.966  -4.666 -29.411  1.00  0.00    -0.031 C 
ATOM      5  C   UNL     1      -4.539  -3.941 -30.389  1.00  0.00    -0.028 C 
BRANCH   5   6
ATOM      6  C   UNL     1      -3.862  -3.512 -31.673  1.00  0.00     0.005 C 
ATOM      7  C   UNL     1      -2.972  -2.297 -31.409  1.00  0.00     0.012 C 
ATOM      8  C   UNL     1      -4.922  -3.185 -32.728  1.00  0.00     0.012 C 
ENDBRANCH   5   6
ENDBRANCH   3   4
ENDBRANCH   2   3
ENDBRANCH   1   2
BRANCH   1   9
ATOM      9  C   UNL     1      -2.222  -6.430 -25.956  1.00  0.00     0.100 C 
BRANCH   9  10
ATOM     10  C   UNL     1      -1.956  -5.821 -24.614  1.00  0.00     0.220 C 
ATOM     11  O   UNL     1      -2.915  -5.349 -23.947  1.00  0.00    -0.275 OA
ATOM     12  N   UNL     1      -0.629  -5.818 -24.073  1.00  0.00    -0.352 N 
ATOM     13  H   UNL     1       0.164  -6.142 -24.671  1.00  0.00     0.163 HD
BRANCH  12  14
ATOM     14  C   UNL     1      -0.344  -5.424 -22.696  1.00  0.00     0.151 C 
BRANCH  14  15
ATOM     15  C   UNL     1       1.108  -5.656 -22.382  1.00  0.00    -0.025 A 
ATOM     16  C   UNL     1       2.010  -5.957 -23.415  1.00  0.00     0.056 A 
ATOM     17  C   UNL     1       1.565  -5.627 -21.056  1.00  0.00     0.009 A 
ATOM     18  C   UNL     1       3.366  -6.209 -23.132  1.00  0.00     0.160 A 
ATOM     19  C   UNL     1       2.906  -5.881 -20.768  1.00  0.00     0.050 A 
ATOM     20  C   UNL     1       3.809  -6.172 -21.801  1.00  0.00     0.157 A 
BRANCH  18  21
ATOM     21  O   UNL     1       4.301  -6.494 -24.140  1.00  0.00    -0.493 OA
ATOM     22  C   UNL     1       4.425  -7.752 -24.794  1.00  0.00     0.278 C 
ENDBRANCH  18  21
BRANCH  20  23
ATOM     23  O   UNL     1       5.148  -6.426 -21.514  1.00  0.00    -0.504 OA
ATOM     24  H   UNL     1       5.693  -5.804 -20.932  1.00  0.00     0.293 HD
ENDBRANCH  20  23
ENDBRANCH  14  15
ENDBRANCH  12  14
ENDBRANCH   9  10
ENDBRANCH   1   9
TORSDOF 10
ENDMDL
MODEL 5
REMARK VINA RESULT:    -4.690      4.621      7.533
REMARK INTER + INTRA:          -8.347
REMARK INTER:                  -7.352
REMARK INTRA:                  -0.995
REMARK UNBOUND:                -1.053
REMARK SMILES COc1cc(CNC(=O)CCCCC=CC(C)C)ccc1O
REMARK SMILES IDX 11 1 12 2 13 3 14 4 15 5 16 6 17 7 18 8 10 9 8 10 9 11 7 12
REMARK SMILES IDX 6 14 5 15 4 16 19 17 3 18 20 19 21 20 2 21 1 22 22 23
REMARK H PARENT 7 13 22 24
REMARK Flexibility Score: inf
ROOT
ATOM      1  C   UNL     1      -3.931  -3.648 -30.166  1.00  0.00     0.010 C 
ENDROOT
BRANCH   1   2
ATOM      2  C   UNL     1      -3.664  -2.675 -31.325  1.00  0.00     0.005 C 
BRANCH   2   3
ATOM      3  C   UNL     1      -4.567  -2.949 -32.534  1.00  0.00     0.027 C 
BRANCH   3   4
ATOM      4  C   UNL     1      -3.786  -3.169 -33.805  1.00  0.00    -0.031 C 
ATOM      5  C   UNL     1      -3.648  -4.350 -34.436  1.00  0.00    -0.028 C 
BRANCH   5   6
ATOM      6  C   UNL     1      -4.257  -5.660 -33.985  1.00  0.00     0.005 C 
ATOM      7  C   UNL     1      -3.208  -6.492 -33.247  1.00  0.00     0.012 C 
ATOM      8  C   UNL     1      -4.792  -6.422 -35.201  1.00  0.00     0.012 C 
ENDBRANCH   5   6
ENDBRANCH   3   4
ENDBRANCH   2   3
ENDBRANCH   1   2
BRANCH   1   9
ATOM      9  C   UNL     1      -2.834  -4.714 -30.081  1.00  0.00     0.100 C 
BRANCH   9  10
ATOM     10  C   UNL     1      -3.062  -5.595 -28.891  1.00  0.00     0.220 C 
ATOM     11  O   UNL     1      -4.164  -6.194 -28.766  1.00  0.00    -0.275 OA
ATOM     12  N   UNL     1      -2.018  -5.791 -27.928  1.00  0.00    -0.352 N 
ATOM     13  H   UNL     1      -1.143  -5.228 -28.006  1.00  0.00     0.163 HD
BRANCH  12  14
ATOM     14  C   UNL     1      -2.112  -6.787 -26.864  1.00  0.00     0.151 C 
BRANCH  14  15
ATOM     15  C   UNL     1      -2.172  -6.106 -25.523  1.00  0.00    -0.025 A 
ATOM     16  C   UNL     1      -1.082  -6.192 -24.644  1.00  0.00     0.056 A 
ATOM     17  C   UNL     1      -3.331  -5.426 -25.120  1.00  0.00     0.009 A 
ATOM     18  C   UNL     1      -1.137  -5.586 -23.373  1.00  0.00     0.160 A 
ATOM     19  C   UNL     1      -3.394  -4.830 -23.860  1.00  0.00     0.050 A 
ATOM     20  C   UNL     1      -2.301  -4.907 -22.986  1.00  0.00     0.157 A 
BRANCH  18  21
ATOM     21  O   UNL     1      -0.060  -5.635 -22.474  1.00  0.00    -0.493 OA
ATOM     22  C   UNL     1       1.309  -5.513 -22.844  1.00  0.00     0.278 C 
ENDBRANCH  18  21
BRANCH  20  23
ATOM     23  O   UNL     1      -2.364  -4.311 -21.728  1.00  0.00    -0.504 OA
ATOM     24  H   UNL     1      -2.022  -3.373 -21.568  1.00  0.00     0.293 HD
ENDBRANCH  20  23
ENDBRANCH  14  15
ENDBRANCH  12  14
ENDBRANCH   9  10
ENDBRANCH   1   9
TORSDOF 10
ENDMDL
MODEL 6
REMARK VINA RESULT:    -4.640      4.759      7.759
REMARK INTER + INTRA:          -8.270
REMARK INTER:                  -7.258
REMARK INTRA:                  -1.012
REMARK UNBOUND:                -1.053
REMARK SMILES COc1cc(CNC(=O)CCCCC=CC(C)C)ccc1O
REMARK SMILES IDX 11 1 12 2 13 3 14 4 15 5 16 6 17 7 18 8 10 9 8 10 9 11 7 12
REMARK SMILES IDX 6 14 5 15 4 16 19 17 3 18 20 19 21 20 2 21 1 22 22 23
REMARK H PARENT 7 13 22 24
REMARK Flexibility Score: inf
ROOT
ATOM      1  C   UNL     1      -3.838  -4.115 -30.104  1.00  0.00     0.010 C 
ENDROOT
BRANCH   1   2
ATOM      2  C   UNL     1      -3.615  -2.975 -31.109  1.00  0.00     0.005 C 
BRANCH   2   3
ATOM      3  C   UNL     1      -4.622  -3.016 -32.267  1.00  0.00     0.027 C 
BRANCH   3   4
ATOM      4  C   UNL     1      -3.959  -3.205 -33.608  1.00  0.00    -0.031 C 
ATOM      5  C   UNL     1      -3.803  -4.384 -34.237  1.00  0.00    -0.028 C 
BRANCH   5   6
ATOM      6  C   UNL     1      -4.272  -5.724 -33.713  1.00  0.00     0.005 C 
ATOM      7  C   UNL     1      -3.126  -6.424 -32.982  1.00  0.00     0.012 C 
ATOM      8  C   UNL     1      -4.773  -6.584 -34.878  1.00  0.00     0.012 C 
ENDBRANCH   5   6
ENDBRANCH   3   4
ENDBRANCH   2   3
ENDBRANCH   1   2
BRANCH   1   9
ATOM      9  C   UNL     1      -2.509  -4.588 -29.506  1.00  0.00     0.100 C 
BRANCH   9  10
ATOM     10  C   UNL     1      -2.760  -5.548 -28.385  1.00  0.00     0.220 C 
ATOM     11  O   UNL     1      -3.856  -6.167 -28.333  1.00  0.00    -0.275 OA
ATOM     12  N   UNL     1      -1.743  -5.796 -27.406  1.00  0.00    -0.352 N 
ATOM     13  H   UNL     1      -0.873  -5.218 -27.420  1.00  0.00     0.163 HD
BRANCH  12  14
ATOM     14  C   UNL     1      -1.853  -6.861 -26.413  1.00  0.00     0.151 C 
BRANCH  14  15
ATOM     15  C   UNL     1      -1.892  -6.274 -25.028  1.00  0.00    -0.025 A 
ATOM     16  C   UNL     1      -3.040  -5.600 -24.584  1.00  0.00     0.056 A 
ATOM     17  C   UNL     1      -0.768  -6.347 -24.191  1.00  0.00     0.009 A 
ATOM     18  C   UNL     1      -3.078  -5.017 -23.302  1.00  0.00     0.160 A 
ATOM     19  C   UNL     1      -0.798  -5.767 -22.923  1.00  0.00     0.050 A 
ATOM     20  C   UNL     1      -1.948  -5.102 -22.475  1.00  0.00     0.157 A 
BRANCH  18  21
ATOM     21  O   UNL     1      -4.214  -4.352 -22.816  1.00  0.00    -0.493 OA
ATOM     22  C   UNL     1      -5.057  -3.514 -23.598  1.00  0.00     0.278 C 
ENDBRANCH  18  21
BRANCH  20  23
ATOM     23  O   UNL     1      -1.977  -4.523 -21.208  1.00  0.00    -0.504 OA
ATOM     24  H   UNL     1      -2.351  -5.016 -20.408  1.00  0.00     0.293 HD
ENDBRANCH  20  23
ENDBRANCH  14  15
ENDBRANCH  12  14
ENDBRANCH   9  10
ENDBRANCH   1   9
TORSDOF 10
ENDMDL
MODEL 7
REMARK VINA RESULT:    -4.628      1.714      2.175
REMARK INTER + INTRA:          -8.252
REMARK INTER:                  -7.407
REMARK INTRA:                  -0.845
REMARK UNBOUND:                -1.053
REMARK SMILES COc1cc(CNC(=O)CCCCC=CC(C)C)ccc1O
REMARK SMILES IDX 11 1 12 2 13 3 14 4 15 5 16 6 17 7 18 8 10 9 8 10 9 11 7 12
REMARK SMILES IDX 6 14 5 15 4 16 19 17 3 18 20 19 21 20 2 21 1 22 22 23
REMARK H PARENT 7 13 22 24
REMARK Flexibility Score: inf
ROOT
ATOM      1  C   UNL     1      -1.717  -1.448 -35.494  1.00  0.00     0.010 C 
ENDROOT
BRANCH   1   2
ATOM      2  C   UNL     1      -0.727  -0.310 -35.784  1.00  0.00     0.005 C 
BRANCH   2   3
ATOM      3  C   UNL     1       0.113   0.056 -34.554  1.00  0.00     0.027 C 
BRANCH   3   4
ATOM      4  C   UNL     1       1.554   0.341 -34.898  1.00  0.00    -0.031 C 
ATOM      5  C   UNL     1       2.387  -0.516 -35.517  1.00  0.00    -0.028 C 
BRANCH   5   6
ATOM      6  C   UNL     1       2.023  -1.909 -35.981  1.00  0.00     0.005 C 
ATOM      7  C   UNL     1       2.772  -2.946 -35.143  1.00  0.00     0.012 C 
ATOM      8  C   UNL     1       2.370  -2.062 -37.465  1.00  0.00     0.012 C 
ENDBRANCH   5   6
ENDBRANCH   3   4
ENDBRANCH   2   3
ENDBRANCH   1   2
BRANCH   1   9
ATOM      9  C   UNL     1      -1.383  -2.691 -36.325  1.00  0.00     0.100 C 
BRANCH   9  10
ATOM     10  C   UNL     1      -2.197  -3.859 -35.858  1.00  0.00     0.220 C 
ATOM     11  O   UNL     1      -2.041  -4.982 -36.408  1.00  0.00    -0.275 OA
ATOM     12  N   UNL     1      -3.111  -3.709 -34.764  1.00  0.00    -0.352 N 
ATOM     13  H   UNL     1      -3.284  -2.756 -34.374  1.00  0.00     0.163 HD
BRANCH  12  14
ATOM     14  C   UNL     1      -3.779  -4.848 -34.139  1.00  0.00     0.151 C 
BRANCH  14  15
ATOM     15  C   UNL     1      -3.997  -4.579 -32.676  1.00  0.00    -0.025 A 
ATOM     16  C   UNL     1      -4.427  -5.612 -31.829  1.00  0.00     0.056 A 
ATOM     17  C   UNL     1      -3.826  -3.288 -32.155  1.00  0.00     0.009 A 
ATOM     18  C   UNL     1      -4.667  -5.367 -30.463  1.00  0.00     0.160 A 
ATOM     19  C   UNL     1      -4.068  -3.037 -30.804  1.00  0.00     0.050 A 
ATOM     20  C   UNL     1      -4.487  -4.071 -29.956  1.00  0.00     0.157 A 
BRANCH  18  21
ATOM     21  O   UNL     1      -5.080  -6.379 -29.582  1.00  0.00    -0.493 OA
ATOM     22  C   UNL     1      -4.284  -7.497 -29.207  1.00  0.00     0.278 C 
ENDBRANCH  18  21
BRANCH  20  23
ATOM     23  O   UNL     1      -4.728  -3.821 -28.607  1.00  0.00    -0.504 OA
ATOM     24  H   UNL     1      -3.978  -3.597 -27.967  1.00  0.00     0.293 HD
ENDBRANCH  20  23
ENDBRANCH  14  15
ENDBRANCH  12  14
ENDBRANCH   9  10
ENDBRANCH   1   9
TORSDOF 10
ENDMDL
MODEL 8
REMARK VINA RESULT:    -4.549      6.724     10.252
REMARK INTER + INTRA:          -8.129
REMARK INTER:                  -7.357
REMARK INTRA:                  -0.771
REMARK UNBOUND:                -1.053
REMARK SMILES COc1cc(CNC(=O)CCCCC=CC(C)C)ccc1O
REMARK SMILES IDX 11 1 12 2 13 3 14 4 15 5 16 6 17 7 18 8 10 9 8 10 9 11 7 12
REMARK SMILES IDX 6 14 5 15 4 16 19 17 3 18 20 19 21 20 2 21 1 22 22 23
REMARK H PARENT 7 13 22 24
REMARK Flexibility Score: inf
ROOT
ATOM      1  C   UNL     1      -2.442  -5.761 -26.857  1.00  0.00     0.010 C 
ENDROOT
BRANCH   1   2
ATOM      2  C   UNL     1      -3.789  -5.023 -26.875  1.00  0.00     0.005 C 
BRANCH   2   3
ATOM      3  C   UNL     1      -4.291  -4.768 -28.303  1.00  0.00     0.027 C 
BRANCH   3   4
ATOM      4  C   UNL     1      -3.323  -5.248 -29.354  1.00  0.00    -0.031 C 
ATOM      5  C   UNL     1      -3.181  -4.713 -30.581  1.00  0.00    -0.028 C 
BRANCH   5   6
ATOM      6  C   UNL     1      -3.963  -3.534 -31.117  1.00  0.00     0.005 C 
ATOM      7  C   UNL     1      -4.665  -3.925 -32.417  1.00  0.00     0.012 C 
ATOM      8  C   UNL     1      -3.015  -2.354 -31.350  1.00  0.00     0.012 C 
ENDBRANCH   5   6
ENDBRANCH   3   4
ENDBRANCH   2   3
ENDBRANCH   1   2
BRANCH   1   9
ATOM      9  C   UNL     1      -1.952  -5.972 -25.420  1.00  0.00     0.100 C 
BRANCH   9  10
ATOM     10  C   UNL     1      -1.228  -7.278 -25.309  1.00  0.00     0.220 C 
ATOM     11  O   UNL     1      -1.022  -7.963 -26.347  1.00  0.00    -0.275 OA
ATOM     12  N   UNL     1      -0.733  -7.723 -24.039  1.00  0.00    -0.352 N 
ATOM     13  H   UNL     1      -0.980  -7.183 -23.181  1.00  0.00     0.163 HD
BRANCH  12  14
ATOM     14  C   UNL     1       0.147  -8.881 -23.903  1.00  0.00     0.151 C 
BRANCH  14  15
ATOM     15  C   UNL     1       1.576  -8.473 -24.140  1.00  0.00    -0.025 A 
ATOM     16  C   UNL     1       2.129  -7.402 -23.421  1.00  0.00     0.056 A 
ATOM     17  C   UNL     1       2.350  -9.121 -25.115  1.00  0.00     0.009 A 
ATOM     18  C   UNL     1       3.455  -6.989 -23.656  1.00  0.00     0.160 A 
ATOM     19  C   UNL     1       3.662  -8.712 -25.357  1.00  0.00     0.050 A 
ATOM     20  C   UNL     1       4.217  -7.649 -24.631  1.00  0.00     0.157 A 
BRANCH  18  21
ATOM     21  O   UNL     1       4.048  -5.935 -22.943  1.00  0.00    -0.493 OA
ATOM     22  C   UNL     1       4.083  -5.839 -21.524  1.00  0.00     0.278 C 
ENDBRANCH  18  21
BRANCH  20  23
ATOM     23  O   UNL     1       5.527  -7.242 -24.872  1.00  0.00    -0.504 OA
ATOM     24  H   UNL     1       5.853  -6.321 -24.611  1.00  0.00     0.293 HD
ENDBRANCH  20  23
ENDBRANCH  14  15
ENDBRANCH  12  14
ENDBRANCH   9  10
ENDBRANCH   1   9
TORSDOF 10
ENDMDL
MODEL 9
REMARK VINA RESULT:    -4.537      7.621     11.214
REMARK INTER + INTRA:          -8.110
REMARK INTER:                  -7.320
REMARK INTRA:                  -0.790
REMARK UNBOUND:                -1.053
REMARK SMILES COc1cc(CNC(=O)CCCCC=CC(C)C)ccc1O
REMARK SMILES IDX 11 1 12 2 13 3 14 4 15 5 16 6 17 7 18 8 10 9 8 10 9 11 7 12
REMARK SMILES IDX 6 14 5 15 4 16 19 17 3 18 20 19 21 20 2 21 1 22 22 23
REMARK H PARENT 7 13 22 24
REMARK Flexibility Score: inf
ROOT
ATOM      1  C   UNL     1      -4.381  -4.365 -25.037  1.00  0.00     0.010 C 
ENDROOT
BRANCH   1   2
ATOM      2  C   UNL     1      -4.373  -4.561 -26.560  1.00  0.00     0.005 C 
BRANCH   2   3
ATOM      3  C   UNL     1      -3.488  -5.739 -26.989  1.00  0.00     0.027 C 
BRANCH   3   4
ATOM      4  C   UNL     1      -2.207  -5.294 -27.648  1.00  0.00    -0.031 C 
ATOM      5  C   UNL     1      -2.089  -4.910 -28.932  1.00  0.00    -0.028 C 
BRANCH   5   6
ATOM      6  C   UNL     1      -3.219  -4.850 -29.936  1.00  0.00     0.005 C 
ATOM      7  C   UNL     1      -3.039  -5.948 -30.985  1.00  0.00     0.012 C 
ATOM      8  C   UNL     1      -3.245  -3.470 -30.599  1.00  0.00     0.012 C 
ENDBRANCH   5   6
ENDBRANCH   3   4
ENDBRANCH   2   3
ENDBRANCH   1   2
BRANCH   1   9
ATOM      9  C   UNL     1      -3.722  -5.552 -24.327  1.00  0.00     0.100 C 
BRANCH   9  10
ATOM     10  C   UNL     1      -2.817  -5.064 -23.237  1.00  0.00     0.220 C 
ATOM     11  O   UNL     1      -3.020  -3.931 -22.725  1.00  0.00    -0.275 OA
ATOM     12  N   UNL     1      -1.759  -5.899 -22.751  1.00  0.00    -0.352 N 
ATOM     13  H   UNL     1      -1.557  -6.800 -23.239  1.00  0.00     0.163 HD
BRANCH  12  14
ATOM     14  C   UNL     1      -0.977  -5.562 -21.564  1.00  0.00     0.151 C 
BRANCH  14  15
ATOM     15  C   UNL     1       0.485  -5.806 -21.823  1.00  0.00    -0.025 A 
ATOM     16  C   UNL     1       1.432  -5.499 -20.834  1.00  0.00     0.056 A 
ATOM     17  C   UNL     1       0.918  -6.290 -23.066  1.00  0.00     0.009 A 
ATOM     18  C   UNL     1       2.807  -5.693 -21.074  1.00  0.00     0.160 A 
ATOM     19  C   UNL     1       2.279  -6.478 -23.312  1.00  0.00     0.050 A 
ATOM     20  C   UNL     1       3.225  -6.181 -22.321  1.00  0.00     0.157 A 
BRANCH  18  21
ATOM     21  O   UNL     1       3.783  -5.416 -20.103  1.00  0.00    -0.493 OA
ATOM     22  C   UNL     1       4.173  -6.313 -19.070  1.00  0.00     0.278 C 
ENDBRANCH  18  21
BRANCH  20  23
ATOM     23  O   UNL     1       4.583  -6.369 -22.566  1.00  0.00    -0.504 OA
ATOM     24  H   UNL     1       4.934  -6.545 -23.498  1.00  0.00     0.293 HD
ENDBRANCH  20  23
ENDBRANCH  14  15
ENDBRANCH  12  14
ENDBRANCH   9  10
ENDBRANCH   1   9
TORSDOF 10
ENDMDL
