MODEL 1
REMARK VINA RESULT:    -6.094      0.000      0.000
REMARK INTER + INTRA:          -7.679
REMARK INTER:                  -7.341
REMARK INTRA:                  -0.337
REMARK UNBOUND:                -0.337
REMARK SMILES Oc1cc(O)c2cc(O)c(-c3ccc(O)c(O)c3)[o+]c2c1
REMARK SMILES IDX 10 1 19 2 20 3 21 4 2 5 3 6 4 7 6 8 7 9 8 10 11 11 12 12
REMARK SMILES IDX 13 13 14 14 18 15 16 16 15 17 17 19 9 21 1 23 5 25
REMARK H PARENT 15 18 17 20 9 22 1 24 5 26
REMARK Flexibility Score: inf
ROOT
ATOM      1  C   UNL     1     110.332 103.837 100.644  1.00  0.00     0.402 A 
ATOM      2  O   UNL     1     110.291 102.888 101.574  1.00  0.00    -0.202 OA
ATOM      3  C   UNL     1     109.444 102.904 102.597  1.00  0.00     0.368 A 
ATOM      4  C   UNL     1     109.475 101.858 103.523  1.00  0.00     0.162 A 
ATOM      5  C   UNL     1     108.593 101.850 104.608  1.00  0.00     0.128 A 
ATOM      6  C   UNL     1     107.676 102.891 104.766  1.00  0.00     0.093 A 
ATOM      7  C   UNL     1     107.624 103.951 103.852  1.00  0.00     0.136 A 
ATOM      8  C   UNL     1     108.520 103.966 102.751  1.00  0.00     0.125 A 
ATOM      9  C   UNL     1     108.549 104.993 101.794  1.00  0.00     0.078 A 
ATOM     10  C   UNL     1     109.463 104.941 100.738  1.00  0.00     0.223 A 
ENDROOT
BRANCH   1  11
ATOM     11  C   UNL     1     111.315 103.700  99.544  1.00  0.00     0.087 A 
ATOM     12  C   UNL     1     112.666 104.002  99.785  1.00  0.00     0.022 A 
ATOM     13  C   UNL     1     113.615 103.861  98.770  1.00  0.00     0.051 A 
ATOM     14  C   UNL     1     113.230 103.402  97.503  1.00  0.00     0.157 A 
ATOM     15  C   UNL     1     110.937 103.219  98.278  1.00  0.00     0.068 A 
ATOM     16  C   UNL     1     111.891 103.076  97.258  1.00  0.00     0.158 A 
BRANCH  14  17
ATOM     17  O   UNL     1     114.173 103.261  96.487  1.00  0.00    -0.504 OA
ATOM     18  H   UNL     1     115.007 103.836  96.454  1.00  0.00     0.293 HD
ENDBRANCH  14  17
BRANCH  16  19
ATOM     19  O   UNL     1     111.513 102.606  96.001  1.00  0.00    -0.504 OA
ATOM     20  H   UNL     1     110.585 102.238  95.830  1.00  0.00     0.293 HD
ENDBRANCH  16  19
ENDBRANCH   1  11
BRANCH  10  21
ATOM     21  O   UNL     1     109.527 105.985  99.815  1.00  0.00    -0.500 OA
ATOM     22  H   UNL     1     108.786 106.147  99.142  1.00  0.00     0.294 HD
ENDBRANCH  10  21
BRANCH   5  23
ATOM     23  O   UNL     1     108.618 100.810 105.534  1.00  0.00    -0.507 OA
ATOM     24  H   UNL     1     107.779 100.296 105.778  1.00  0.00     0.293 HD
ENDBRANCH   5  23
BRANCH   7  25
ATOM     25  O   UNL     1     106.676 104.952 104.080  1.00  0.00    -0.507 OA
ATOM     26  H   UNL     1     105.713 104.905 103.779  1.00  0.00     0.293 HD
ENDBRANCH   7  25
TORSDOF 6
ENDMDL
MODEL 2
REMARK VINA RESULT:    -5.962      3.697      6.227
REMARK INTER + INTRA:          -7.519
REMARK INTER:                  -7.635
REMARK INTRA:                   0.116
REMARK UNBOUND:                -0.337
REMARK SMILES Oc1cc(O)c2cc(O)c(-c3ccc(O)c(O)c3)[o+]c2c1
REMARK SMILES IDX 10 1 19 2 20 3 21 4 2 5 3 6 4 7 6 8 7 9 8 10 11 11 12 12
REMARK SMILES IDX 13 13 14 14 18 15 16 16 15 17 17 19 9 21 1 23 5 25
REMARK H PARENT 15 18 17 20 9 22 1 24 5 26
REMARK Flexibility Score: inf
ROOT
ATOM      1  C   UNL     1     110.337 103.059  97.163  1.00  0.00     0.402 A 
ATOM      2  O   UNL     1     111.491 103.666  96.900  1.00  0.00    -0.202 OA
ATOM      3  C   UNL     1     112.217 104.286  97.823  1.00  0.00     0.368 A 
ATOM      4  C   UNL     1     113.418 104.893  97.449  1.00  0.00     0.162 A 
ATOM      5  C   UNL     1     114.204 105.550  98.402  1.00  0.00     0.128 A 
ATOM      6  C   UNL     1     113.786 105.597  99.734  1.00  0.00     0.093 A 
ATOM      7  C   UNL     1     112.587 104.995 100.135  1.00  0.00     0.136 A 
ATOM      8  C   UNL     1     111.785 104.331  99.170  1.00  0.00     0.125 A 
ATOM      9  C   UNL     1     110.562 103.713  99.479  1.00  0.00     0.078 A 
ATOM     10  C   UNL     1     109.823 103.081  98.474  1.00  0.00     0.223 A 
ENDROOT
BRANCH   1  11
ATOM     11  C   UNL     1     109.624 102.393  96.049  1.00  0.00     0.087 A 
ATOM     12  C   UNL     1     108.233 102.548  95.929  1.00  0.00     0.022 A 
ATOM     13  C   UNL     1     107.542 101.946  94.875  1.00  0.00     0.051 A 
ATOM     14  C   UNL     1     108.233 101.194  93.916  1.00  0.00     0.157 A 
ATOM     15  C   UNL     1     110.316 101.655  95.072  1.00  0.00     0.068 A 
ATOM     16  C   UNL     1     109.622 101.052  94.012  1.00  0.00     0.158 A 
BRANCH  14  17
ATOM     17  O   UNL     1     107.547 100.591  92.863  1.00  0.00    -0.504 OA
ATOM     18  H   UNL     1     107.759 100.812  91.897  1.00  0.00     0.293 HD
ENDBRANCH  14  17
BRANCH  16  19
ATOM     19  O   UNL     1     110.309 100.315  93.049  1.00  0.00    -0.504 OA
ATOM     20  H   UNL     1     111.311 100.169  93.107  1.00  0.00     0.293 HD
ENDBRANCH  16  19
ENDBRANCH   1  11
BRANCH  10  21
ATOM     21  O   UNL     1     108.586 102.509  98.769  1.00  0.00    -0.500 OA
ATOM     22  H   UNL     1     108.083 102.736  99.619  1.00  0.00     0.294 HD
ENDBRANCH  10  21
BRANCH   5  23
ATOM     23  O   UNL     1     115.403 106.157  98.036  1.00  0.00    -0.507 OA
ATOM     24  H   UNL     1     115.421 107.057  97.570  1.00  0.00     0.293 HD
ENDBRANCH   5  23
BRANCH   7  25
ATOM     25  O   UNL     1     112.242 105.085 101.486  1.00  0.00    -0.507 OA
ATOM     26  H   UNL     1     112.474 104.391 102.182  1.00  0.00     0.293 HD
ENDBRANCH   7  25
TORSDOF 6
ENDMDL
MODEL 3
REMARK VINA RESULT:    -5.875      5.370      8.084
REMARK INTER + INTRA:          -7.415
REMARK INTER:                  -7.077
REMARK INTRA:                  -0.338
REMARK UNBOUND:                -0.337
REMARK SMILES Oc1cc(O)c2cc(O)c(-c3ccc(O)c(O)c3)[o+]c2c1
REMARK SMILES IDX 10 1 19 2 20 3 21 4 2 5 3 6 4 7 6 8 7 9 8 10 11 11 12 12
REMARK SMILES IDX 13 13 14 14 18 15 16 16 15 17 17 19 9 21 1 23 5 25
REMARK H PARENT 15 18 17 20 9 22 1 24 5 26
REMARK Flexibility Score: inf
ROOT
ATOM      1  C   UNL     1     106.141 103.431  97.111  1.00  0.00     0.402 A 
ATOM      2  O   UNL     1     106.745 102.510  97.857  1.00  0.00    -0.202 OA
ATOM      3  C   UNL     1     107.590 101.611  97.367  1.00  0.00     0.368 A 
ATOM      4  C   UNL     1     108.177 100.685  98.232  1.00  0.00     0.162 A 
ATOM      5  C   UNL     1     109.073  99.729  97.742  1.00  0.00     0.128 A 
ATOM      6  C   UNL     1     109.383  99.701  96.381  1.00  0.00     0.093 A 
ATOM      7  C   UNL     1     108.809 100.619  95.492  1.00  0.00     0.136 A 
ATOM      8  C   UNL     1     107.897 101.588  95.985  1.00  0.00     0.125 A 
ATOM      9  C   UNL     1     107.263 102.538  95.166  1.00  0.00     0.078 A 
ATOM     10  C   UNL     1     106.372 103.460  95.722  1.00  0.00     0.223 A 
ENDROOT
BRANCH   1  11
ATOM     11  C   UNL     1     105.227 104.386  97.778  1.00  0.00     0.087 A 
ATOM     12  C   UNL     1     103.852 104.103  97.829  1.00  0.00     0.022 A 
ATOM     13  C   UNL     1     102.973 104.979  98.471  1.00  0.00     0.051 A 
ATOM     14  C   UNL     1     103.457 106.143  99.083  1.00  0.00     0.157 A 
ATOM     15  C   UNL     1     105.711 105.544  98.411  1.00  0.00     0.068 A 
ATOM     16  C   UNL     1     104.828 106.423  99.057  1.00  0.00     0.158 A 
BRANCH  14  17
ATOM     17  O   UNL     1     102.583 107.020  99.722  1.00  0.00    -0.504 OA
ATOM     18  H   UNL     1     101.797 107.434  99.234  1.00  0.00     0.293 HD
ENDBRANCH  14  17
BRANCH  16  19
ATOM     19  O   UNL     1     105.309 107.575  99.678  1.00  0.00    -0.504 OA
ATOM     20  H   UNL     1     104.721 108.390  99.812  1.00  0.00     0.293 HD
ENDBRANCH  16  19
ENDBRANCH   1  11
BRANCH  10  21
ATOM     21  O   UNL     1     105.705 104.371  94.903  1.00  0.00    -0.500 OA
ATOM     22  H   UNL     1     106.011 105.333  94.816  1.00  0.00     0.294 HD
ENDBRANCH  10  21
BRANCH   5  23
ATOM     23  O   UNL     1     109.662  98.803  98.600  1.00  0.00    -0.507 OA
ATOM     24  H   UNL     1     109.765  98.990  99.591  1.00  0.00     0.293 HD
ENDBRANCH   5  23
BRANCH   7  25
ATOM     25  O   UNL     1     109.174 100.526  94.146  1.00  0.00    -0.507 OA
ATOM     26  H   UNL     1     109.377  99.660  93.669  1.00  0.00     0.293 HD
ENDBRANCH   7  25
TORSDOF 6
ENDMDL
MODEL 4
REMARK VINA RESULT:    -5.853      5.584      7.328
REMARK INTER + INTRA:          -7.388
REMARK INTER:                  -7.163
REMARK INTRA:                  -0.225
REMARK UNBOUND:                -0.337
REMARK SMILES Oc1cc(O)c2cc(O)c(-c3ccc(O)c(O)c3)[o+]c2c1
REMARK SMILES IDX 10 1 19 2 20 3 21 4 2 5 3 6 4 7 6 8 7 9 8 10 11 11 12 12
REMARK SMILES IDX 13 13 14 14 18 15 16 16 15 17 17 19 9 21 1 23 5 25
REMARK H PARENT 15 18 17 20 9 22 1 24 5 26
REMARK Flexibility Score: inf
ROOT
ATOM      1  C   UNL     1     106.736 104.217  96.521  1.00  0.00     0.402 A 
ATOM      2  O   UNL     1     106.765 105.392  95.899  1.00  0.00    -0.202 OA
ATOM      3  C   UNL     1     106.103 106.462  96.326  1.00  0.00     0.368 A 
ATOM      4  C   UNL     1     106.198 107.654  95.604  1.00  0.00     0.162 A 
ATOM      5  C   UNL     1     105.513 108.796  96.033  1.00  0.00     0.128 A 
ATOM      6  C   UNL     1     104.731 108.743  97.189  1.00  0.00     0.093 A 
ATOM      7  C   UNL     1     104.620 107.561  97.931  1.00  0.00     0.136 A 
ATOM      8  C   UNL     1     105.310 106.399  97.497  1.00  0.00     0.125 A 
ATOM      9  C   UNL     1     105.245 105.167  98.169  1.00  0.00     0.078 A 
ATOM     10  C   UNL     1     105.950 104.064  97.680  1.00  0.00     0.223 A 
ENDROOT
BRANCH   1  11
ATOM     11  C   UNL     1     107.526 103.102  95.952  1.00  0.00     0.087 A 
ATOM     12  C   UNL     1     108.616 102.589  96.674  1.00  0.00     0.022 A 
ATOM     13  C   UNL     1     109.364 101.524  96.167  1.00  0.00     0.051 A 
ATOM     14  C   UNL     1     109.024 100.946  94.937  1.00  0.00     0.157 A 
ATOM     15  C   UNL     1     107.175 102.504  94.728  1.00  0.00     0.068 A 
ATOM     16  C   UNL     1     107.926 101.433  94.219  1.00  0.00     0.158 A 
BRANCH  14  17
ATOM     17  O   UNL     1     109.768  99.884  94.426  1.00  0.00    -0.504 OA
ATOM     18  H   UNL     1     109.810  99.697  93.430  1.00  0.00     0.293 HD
ENDBRANCH  14  17
BRANCH  16  19
ATOM     19  O   UNL     1     107.581 100.847  93.002  1.00  0.00    -0.504 OA
ATOM     20  H   UNL     1     106.696 100.368  92.876  1.00  0.00     0.293 HD
ENDBRANCH  16  19
ENDBRANCH   1  11
BRANCH  10  21
ATOM     21  O   UNL     1     105.847 102.827  98.318  1.00  0.00    -0.500 OA
ATOM     22  H   UNL     1     105.820 101.959  97.796  1.00  0.00     0.294 HD
ENDBRANCH  10  21
BRANCH   5  23
ATOM     23  O   UNL     1     105.605 109.988  95.319  1.00  0.00    -0.507 OA
ATOM     24  H   UNL     1     105.317 110.048  94.349  1.00  0.00     0.293 HD
ENDBRANCH   5  23
BRANCH   7  25
ATOM     25  O   UNL     1     103.820 107.593  99.076  1.00  0.00    -0.507 OA
ATOM     26  H   UNL     1     102.810 107.603  99.068  1.00  0.00     0.293 HD
ENDBRANCH   7  25
TORSDOF 6
ENDMDL
MODEL 5
REMARK VINA RESULT:    -5.834      5.253      6.200
REMARK INTER + INTRA:          -7.365
REMARK INTER:                  -7.508
REMARK INTRA:                   0.142
REMARK UNBOUND:                -0.337
REMARK SMILES Oc1cc(O)c2cc(O)c(-c3ccc(O)c(O)c3)[o+]c2c1
REMARK SMILES IDX 10 1 19 2 20 3 21 4 2 5 3 6 4 7 6 8 7 9 8 10 11 11 12 12
REMARK SMILES IDX 13 13 14 14 18 15 16 16 15 17 17 19 9 21 1 23 5 25
REMARK H PARENT 15 18 17 20 9 22 1 24 5 26
REMARK Flexibility Score: inf
ROOT
ATOM      1  C   UNL     1     107.028 103.664  96.826  1.00  0.00     0.402 A 
ATOM      2  O   UNL     1     105.721 103.428  96.894  1.00  0.00    -0.202 OA
ATOM      3  C   UNL     1     104.879 104.175  97.598  1.00  0.00     0.368 A 
ATOM      4  C   UNL     1     103.521 103.848  97.605  1.00  0.00     0.162 A 
ATOM      5  C   UNL     1     102.613 104.621  98.336  1.00  0.00     0.128 A 
ATOM      6  C   UNL     1     103.065 105.725  99.061  1.00  0.00     0.093 A 
ATOM      7  C   UNL     1     104.421 106.075  99.069  1.00  0.00     0.136 A 
ATOM      8  C   UNL     1     105.347 105.291  98.332  1.00  0.00     0.125 A 
ATOM      9  C   UNL     1     106.726 105.559  98.295  1.00  0.00     0.078 A 
ATOM     10  C   UNL     1     107.578 104.740  97.549  1.00  0.00     0.223 A 
ENDROOT
BRANCH   1  11
ATOM     11  C   UNL     1     107.862 102.763  95.998  1.00  0.00     0.087 A 
ATOM     12  C   UNL     1     109.116 102.349  96.476  1.00  0.00     0.022 A 
ATOM     13  C   UNL     1     109.912 101.484  95.722  1.00  0.00     0.051 A 
ATOM     14  C   UNL     1     109.459 101.007  94.485  1.00  0.00     0.157 A 
ATOM     15  C   UNL     1     107.403 102.265  94.765  1.00  0.00     0.068 A 
ATOM     16  C   UNL     1     108.201 101.394  94.008  1.00  0.00     0.158 A 
BRANCH  14  17
ATOM     17  O   UNL     1     110.250 100.144  93.728  1.00  0.00    -0.504 OA
ATOM     18  H   UNL     1     111.119  99.768  94.089  1.00  0.00     0.293 HD
ENDBRANCH  14  17
BRANCH  16  19
ATOM     19  O   UNL     1     107.747 100.907  92.783  1.00  0.00    -0.504 OA
ATOM     20  H   UNL     1     106.968 100.261  92.725  1.00  0.00     0.293 HD
ENDBRANCH  16  19
ENDBRANCH   1  11
BRANCH  10  21
ATOM     21  O   UNL     1     108.954 104.974  97.550  1.00  0.00    -0.500 OA
ATOM     22  H   UNL     1     109.334 105.906  97.665  1.00  0.00     0.294 HD
ENDBRANCH  10  21
BRANCH   5  23
ATOM     23  O   UNL     1     101.257 104.300  98.346  1.00  0.00    -0.507 OA
ATOM     24  H   UNL     1     100.570 104.884  97.883  1.00  0.00     0.293 HD
ENDBRANCH   5  23
BRANCH   7  25
ATOM     25  O   UNL     1     104.792 107.195  99.818  1.00  0.00    -0.507 OA
ATOM     26  H   UNL     1     104.489 107.376 100.764  1.00  0.00     0.293 HD
ENDBRANCH   7  25
TORSDOF 6
ENDMDL
MODEL 6
REMARK VINA RESULT:    -5.834      8.844     11.438
REMARK INTER + INTRA:          -7.365
REMARK INTER:                  -7.538
REMARK INTRA:                   0.173
REMARK UNBOUND:                -0.337
REMARK SMILES Oc1cc(O)c2cc(O)c(-c3ccc(O)c(O)c3)[o+]c2c1
REMARK SMILES IDX 10 1 19 2 20 3 21 4 2 5 3 6 4 7 6 8 7 9 8 10 11 11 12 12
REMARK SMILES IDX 13 13 14 14 18 15 16 16 15 17 17 19 9 21 1 23 5 25
REMARK H PARENT 15 18 17 20 9 22 1 24 5 26
REMARK Flexibility Score: inf
ROOT
ATOM      1  C   UNL     1     105.442 109.881  95.845  1.00  0.00     0.402 A 
ATOM      2  O   UNL     1     104.525 110.768  96.222  1.00  0.00    -0.202 OA
ATOM      3  C   UNL     1     104.417 111.979  95.686  1.00  0.00     0.368 A 
ATOM      4  C   UNL     1     103.418 112.840  96.147  1.00  0.00     0.162 A 
ATOM      5  C   UNL     1     103.280 114.119  95.598  1.00  0.00     0.128 A 
ATOM      6  C   UNL     1     104.144 114.537  94.583  1.00  0.00     0.093 A 
ATOM      7  C   UNL     1     105.153 113.692  94.103  1.00  0.00     0.136 A 
ATOM      8  C   UNL     1     105.299 112.395  94.660  1.00  0.00     0.125 A 
ATOM      9  C   UNL     1     106.289 111.487  94.250  1.00  0.00     0.078 A 
ATOM     10  C   UNL     1     106.374 110.226  94.848  1.00  0.00     0.223 A 
ENDROOT
BRANCH   1  11
ATOM     11  C   UNL     1     105.455 108.559  96.513  1.00  0.00     0.087 A 
ATOM     12  C   UNL     1     105.798 107.416  95.772  1.00  0.00     0.022 A 
ATOM     13  C   UNL     1     105.837 106.161  96.385  1.00  0.00     0.051 A 
ATOM     14  C   UNL     1     105.547 106.033  97.750  1.00  0.00     0.157 A 
ATOM     15  C   UNL     1     105.186 108.429  97.887  1.00  0.00     0.068 A 
ATOM     16  C   UNL     1     105.226 107.168  98.502  1.00  0.00     0.158 A 
BRANCH  14  17
ATOM     17  O   UNL     1     105.583 104.783  98.364  1.00  0.00    -0.504 OA
ATOM     18  H   UNL     1     106.319 104.532  99.015  1.00  0.00     0.293 HD
ENDBRANCH  14  17
BRANCH  16  19
ATOM     19  O   UNL     1     104.952 107.039  99.863  1.00  0.00    -0.504 OA
ATOM     20  H   UNL     1     104.806 106.132 100.291  1.00  0.00     0.293 HD
ENDBRANCH  16  19
ENDBRANCH   1  11
BRANCH  10  21
ATOM     21  O   UNL     1     107.388 109.342  94.478  1.00  0.00    -0.500 OA
ATOM     22  H   UNL     1     108.127 109.616  93.842  1.00  0.00     0.294 HD
ENDBRANCH  10  21
BRANCH   5  23
ATOM     23  O   UNL     1     102.286 114.983  96.053  1.00  0.00    -0.507 OA
ATOM     24  H   UNL     1     102.505 115.787  96.630  1.00  0.00     0.293 HD
ENDBRANCH   5  23
BRANCH   7  25
ATOM     25  O   UNL     1     105.973 114.184  93.084  1.00  0.00    -0.507 OA
ATOM     26  H   UNL     1     105.778 115.016  92.545  1.00  0.00     0.293 HD
ENDBRANCH   7  25
TORSDOF 6
ENDMDL
MODEL 7
REMARK VINA RESULT:    -5.822      8.592     11.023
REMARK INTER + INTRA:          -7.350
REMARK INTER:                  -7.092
REMARK INTRA:                  -0.258
REMARK UNBOUND:                -0.337
REMARK SMILES Oc1cc(O)c2cc(O)c(-c3ccc(O)c(O)c3)[o+]c2c1
REMARK SMILES IDX 10 1 19 2 20 3 21 4 2 5 3 6 4 7 6 8 7 9 8 10 11 11 12 12
REMARK SMILES IDX 13 13 14 14 18 15 16 16 15 17 17 19 9 21 1 23 5 25
REMARK H PARENT 15 18 17 20 9 22 1 24 5 26
REMARK Flexibility Score: inf
ROOT
ATOM      1  C   UNL     1     105.846 109.486  95.500  1.00  0.00     0.402 A 
ATOM      2  O   UNL     1     106.700 110.119  94.701  1.00  0.00    -0.202 OA
ATOM      3  C   UNL     1     106.540 111.380  94.314  1.00  0.00     0.368 A 
ATOM      4  C   UNL     1     107.494 111.959  93.474  1.00  0.00     0.162 A 
ATOM      5  C   UNL     1     107.351 113.286  93.053  1.00  0.00     0.128 A 
ATOM      6  C   UNL     1     106.251 114.035  93.477  1.00  0.00     0.093 A 
ATOM      7  C   UNL     1     105.282 113.477  94.320  1.00  0.00     0.136 A 
ATOM      8  C   UNL     1     105.420 112.130  94.746  1.00  0.00     0.125 A 
ATOM      9  C   UNL     1     104.491 111.485  95.579  1.00  0.00     0.078 A 
ATOM     10  C   UNL     1     104.692 110.154  95.954  1.00  0.00     0.223 A 
ENDROOT
BRANCH   1  11
ATOM     11  C   UNL     1     106.140 108.082  95.869  1.00  0.00     0.087 A 
ATOM     12  C   UNL     1     106.504 107.778  97.191  1.00  0.00     0.022 A 
ATOM     13  C   UNL     1     106.766 106.458  97.568  1.00  0.00     0.051 A 
ATOM     14  C   UNL     1     106.653 105.422  96.632  1.00  0.00     0.157 A 
ATOM     15  C   UNL     1     106.008 107.036  94.939  1.00  0.00     0.068 A 
ATOM     16  C   UNL     1     106.269 105.710  95.317  1.00  0.00     0.158 A 
BRANCH  14  17
ATOM     17  O   UNL     1     106.915 104.104  97.002  1.00  0.00    -0.504 OA
ATOM     18  H   UNL     1     106.193 103.393  96.977  1.00  0.00     0.293 HD
ENDBRANCH  14  17
BRANCH  16  19
ATOM     19  O   UNL     1     106.145 104.675  94.391  1.00  0.00    -0.504 OA
ATOM     20  H   UNL     1     105.901 104.856  93.424  1.00  0.00     0.293 HD
ENDBRANCH  16  19
ENDBRANCH   1  11
BRANCH  10  21
ATOM     21  O   UNL     1     103.746 109.497  96.740  1.00  0.00    -0.500 OA
ATOM     22  H   UNL     1     103.203 109.987  97.441  1.00  0.00     0.294 HD
ENDBRANCH  10  21
BRANCH   5  23
ATOM     23  O   UNL     1     108.299 113.870  92.216  1.00  0.00    -0.507 OA
ATOM     24  H   UNL     1     108.171 113.901  91.211  1.00  0.00     0.293 HD
ENDBRANCH   5  23
BRANCH   7  25
ATOM     25  O   UNL     1     104.214 114.294  94.700  1.00  0.00    -0.507 OA
ATOM     26  H   UNL     1     103.276 114.215  94.333  1.00  0.00     0.293 HD
ENDBRANCH   7  25
TORSDOF 6
ENDMDL
MODEL 8
REMARK VINA RESULT:    -5.800     11.986     14.335
REMARK INTER + INTRA:          -7.324
REMARK INTER:                  -6.986
REMARK INTRA:                  -0.337
REMARK UNBOUND:                -0.337
REMARK SMILES Oc1cc(O)c2cc(O)c(-c3ccc(O)c(O)c3)[o+]c2c1
REMARK SMILES IDX 10 1 19 2 20 3 21 4 2 5 3 6 4 7 6 8 7 9 8 10 11 11 12 12
REMARK SMILES IDX 13 13 14 14 18 15 16 16 15 17 17 19 9 21 1 23 5 25
REMARK H PARENT 15 18 17 20 9 22 1 24 5 26
REMARK Flexibility Score: inf
ROOT
ATOM      1  C   UNL     1     110.755 113.175  93.075  1.00  0.00     0.402 A 
ATOM      2  O   UNL     1     111.324 113.151  91.874  1.00  0.00    -0.202 OA
ATOM      3  C   UNL     1     112.610 112.878  91.680  1.00  0.00     0.368 A 
ATOM      4  C   UNL     1     113.116 112.875  90.378  1.00  0.00     0.162 A 
ATOM      5  C   UNL     1     114.465 112.588  90.146  1.00  0.00     0.128 A 
ATOM      6  C   UNL     1     115.310 112.303  91.221  1.00  0.00     0.093 A 
ATOM      7  C   UNL     1     114.827 112.299  92.535  1.00  0.00     0.136 A 
ATOM      8  C   UNL     1     113.459 112.593  92.776  1.00  0.00     0.125 A 
ATOM      9  C   UNL     1     112.892 112.626  94.060  1.00  0.00     0.078 A 
ATOM     10  C   UNL     1     111.536 112.927  94.220  1.00  0.00     0.223 A 
ENDROOT
BRANCH   1  11
ATOM     11  C   UNL     1     109.308 113.482  93.160  1.00  0.00     0.087 A 
ATOM     12  C   UNL     1     108.896 114.807  93.377  1.00  0.00     0.022 A 
ATOM     13  C   UNL     1     107.537 115.125  93.440  1.00  0.00     0.051 A 
ATOM     14  C   UNL     1     106.570 114.125  93.273  1.00  0.00     0.157 A 
ATOM     15  C   UNL     1     108.334 112.485  92.972  1.00  0.00     0.068 A 
ATOM     16  C   UNL     1     106.969 112.804  93.035  1.00  0.00     0.158 A 
BRANCH  14  17
ATOM     17  O   UNL     1     105.214 114.437  93.338  1.00  0.00    -0.504 OA
ATOM     18  H   UNL     1     104.662 114.580  92.499  1.00  0.00     0.293 HD
ENDBRANCH  14  17
BRANCH  16  19
ATOM     19  O   UNL     1     106.005 111.814  92.855  1.00  0.00    -0.504 OA
ATOM     20  H   UNL     1     105.313 111.612  93.568  1.00  0.00     0.293 HD
ENDBRANCH  16  19
ENDBRANCH   1  11
BRANCH  10  21
ATOM     21  O   UNL     1     110.982 113.008  95.498  1.00  0.00    -0.500 OA
ATOM     22  H   UNL     1     111.551 112.916  96.331  1.00  0.00     0.294 HD
ENDBRANCH  10  21
BRANCH   5  23
ATOM     23  O   UNL     1     114.976 112.583  88.850  1.00  0.00    -0.507 OA
ATOM     24  H   UNL     1     115.776 113.149  88.593  1.00  0.00     0.293 HD
ENDBRANCH   5  23
BRANCH   7  25
ATOM     25  O   UNL     1     115.736 112.001  93.554  1.00  0.00    -0.507 OA
ATOM     26  H   UNL     1     116.740 112.020  93.447  1.00  0.00     0.293 HD
ENDBRANCH   7  25
TORSDOF 6
ENDMDL
MODEL 9
REMARK VINA RESULT:    -5.613      8.204     11.084
REMARK INTER + INTRA:          -7.098
REMARK INTER:                  -6.746
REMARK INTRA:                  -0.353
REMARK UNBOUND:                -0.337
REMARK SMILES Oc1cc(O)c2cc(O)c(-c3ccc(O)c(O)c3)[o+]c2c1
REMARK SMILES IDX 10 1 19 2 20 3 21 4 2 5 3 6 4 7 6 8 7 9 8 10 11 11 12 12
REMARK SMILES IDX 13 13 14 14 18 15 16 16 15 17 17 19 9 21 1 23 5 25
REMARK H PARENT 15 18 17 20 9 22 1 24 5 26
REMARK Flexibility Score: inf
ROOT
ATOM      1  C   UNL     1     106.154 109.613  95.588  1.00  0.00     0.402 A 
ATOM      2  O   UNL     1     107.417 110.030  95.553  1.00  0.00    -0.202 OA
ATOM      3  C   UNL     1     107.809 111.117  94.897  1.00  0.00     0.368 A 
ATOM      4  C   UNL     1     109.158 111.476  94.922  1.00  0.00     0.162 A 
ATOM      5  C   UNL     1     109.598 112.617  94.242  1.00  0.00     0.128 A 
ATOM      6  C   UNL     1     108.682 113.400  93.535  1.00  0.00     0.093 A 
ATOM      7  C   UNL     1     107.324 113.061  93.495  1.00  0.00     0.136 A 
ATOM      8  C   UNL     1     106.875 111.903  94.181  1.00  0.00     0.125 A 
ATOM      9  C   UNL     1     105.535 111.480  94.184  1.00  0.00     0.078 A 
ATOM     10  C   UNL     1     105.167 110.324  94.880  1.00  0.00     0.223 A 
ENDROOT
BRANCH   1  11
ATOM     11  C   UNL     1     105.840 108.391  96.364  1.00  0.00     0.087 A 
ATOM     12  C   UNL     1     105.990 107.132  95.760  1.00  0.00     0.022 A 
ATOM     13  C   UNL     1     105.720 105.965  96.478  1.00  0.00     0.051 A 
ATOM     14  C   UNL     1     105.310 106.039  97.816  1.00  0.00     0.157 A 
ATOM     15  C   UNL     1     105.450 108.460  97.713  1.00  0.00     0.068 A 
ATOM     16  C   UNL     1     105.179 107.287  98.436  1.00  0.00     0.158 A 
BRANCH  14  17
ATOM     17  O   UNL     1     105.038 104.878  98.536  1.00  0.00    -0.504 OA
ATOM     18  H   UNL     1     104.636 104.060  98.091  1.00  0.00     0.293 HD
ENDBRANCH  14  17
BRANCH  16  19
ATOM     19  O   UNL     1     104.785 107.357  99.771  1.00  0.00    -0.504 OA
ATOM     20  H   UNL     1     103.905 106.964 100.086  1.00  0.00     0.293 HD
ENDBRANCH  16  19
ENDBRANCH   1  11
BRANCH  10  21
ATOM     21  O   UNL     1     103.847 109.876  94.843  1.00  0.00    -0.500 OA
ATOM     22  H   UNL     1     103.319 109.845  93.979  1.00  0.00     0.294 HD
ENDBRANCH  10  21
BRANCH   5  23
ATOM     23  O   UNL     1     110.942 112.981  94.263  1.00  0.00    -0.507 OA
ATOM     24  H   UNL     1     111.277 113.737  94.849  1.00  0.00     0.293 HD
ENDBRANCH   5  23
BRANCH   7  25
ATOM     25  O   UNL     1     106.474 113.899  92.768  1.00  0.00    -0.507 OA
ATOM     26  H   UNL     1     106.322 113.833  91.772  1.00  0.00     0.293 HD
ENDBRANCH   7  25
TORSDOF 6
ENDMDL
