MODEL 1
REMARK VINA RESULT:    -7.173      0.000      0.000
REMARK INTER + INTRA:         -10.576
REMARK INTER:                 -10.108
REMARK INTRA:                  -0.468
REMARK UNBOUND:                -0.468
REMARK SMILES COc1ccc(-c2cc(=O)c3c(OC)c(OC)c(OC)c(OC)c3o2)cc1OC
REMARK SMILES IDX 7 1 8 2 9 3 10 4 11 5 24 6 25 7 21 8 18 9 15 10 12 11 6 12
REMARK SMILES IDX 3 13 27 14 4 15 26 16 5 17 2 18 1 19 28 20 29 21 22 22 23 23
REMARK SMILES IDX 13 24 14 25 19 26 20 27 16 28 17 29
REMARK H PARENT
REMARK Flexibility Score: inf
ROOT
ATOM      1  C   UNL     1     165.617 146.716 149.428  1.00  0.00     0.138 A 
ATOM      2  C   UNL     1     164.661 147.728 149.592  1.00  0.00     0.100 A 
ATOM      3  C   UNL     1     164.982 149.034 149.232  1.00  0.00     0.197 A 
ATOM      4  O   UNL     1     164.120 149.938 149.407  1.00  0.00    -0.289 OA
ATOM      5  C   UNL     1     166.257 149.320 148.694  1.00  0.00     0.115 A 
ATOM      6  C   UNL     1     167.183 148.254 148.602  1.00  0.00     0.188 A 
ATOM      7  O   UNL     1     166.826 147.023 148.962  1.00  0.00    -0.452 OA
ATOM      8  C   UNL     1     168.479 148.478 148.103  1.00  0.00     0.209 A 
ATOM      9  C   UNL     1     168.853 149.770 147.664  1.00  0.00     0.211 A 
ATOM     10  C   UNL     1     167.945 150.834 147.769  1.00  0.00     0.208 A 
ATOM     11  C   UNL     1     166.630 150.606 148.239  1.00  0.00     0.179 A 
ENDROOT
BRANCH   1  12
ATOM     12  C   UNL     1     165.308 145.308 149.775  1.00  0.00     0.021 A 
ATOM     13  C   UNL     1     164.703 142.636 150.458  1.00  0.00     0.160 A 
ATOM     14  C   UNL     1     165.306 142.922 149.223  1.00  0.00     0.161 A 
ATOM     15  C   UNL     1     164.417 143.686 151.349  1.00  0.00     0.051 A 
ATOM     16  C   UNL     1     165.608 144.258 148.888  1.00  0.00     0.062 A 
ATOM     17  C   UNL     1     164.722 145.005 151.012  1.00  0.00     0.016 A 
BRANCH  13  18
ATOM     18  O   UNL     1     164.406 141.299 150.760  1.00  0.00    -0.493 OA
ATOM     19  C   UNL     1     163.633 140.877 151.878  1.00  0.00     0.278 C 
ENDBRANCH  13  18
BRANCH  14  20
ATOM     20  O   UNL     1     165.587 141.853 148.354  1.00  0.00    -0.493 OA
ATOM     21  C   UNL     1     165.584 141.944 146.932  1.00  0.00     0.278 C 
ENDBRANCH  14  20
ENDBRANCH   1  12
BRANCH   8  22
ATOM     22  O   UNL     1     169.387 147.416 148.033  1.00  0.00    -0.490 OA
ATOM     23  C   UNL     1     169.625 146.693 146.830  1.00  0.00     0.278 C 
ENDBRANCH   8  22
BRANCH  11  24
ATOM     24  O   UNL     1     165.691 151.639 148.207  1.00  0.00    -0.492 OA
ATOM     25  C   UNL     1     165.600 152.584 149.266  1.00  0.00     0.278 C 
ENDBRANCH  11  24
BRANCH   9  26
ATOM     26  O   UNL     1     170.119 150.075 147.126  1.00  0.00    -0.490 OA
ATOM     27  C   UNL     1     171.306 150.367 147.855  1.00  0.00     0.279 C 
ENDBRANCH   9  26
BRANCH  10  28
ATOM     28  O   UNL     1     168.407 152.106 147.386  1.00  0.00    -0.490 OA
ATOM     29  C   UNL     1     168.907 153.103 148.265  1.00  0.00     0.278 C 
ENDBRANCH  10  28
TORSDOF 7
ENDMDL
MODEL 2
REMARK VINA RESULT:    -6.855      1.269      3.421
REMARK INTER + INTRA:         -10.128
REMARK INTER:                  -9.559
REMARK INTRA:                  -0.569
REMARK UNBOUND:                -0.468
REMARK SMILES COc1ccc(-c2cc(=O)c3c(OC)c(OC)c(OC)c(OC)c3o2)cc1OC
REMARK SMILES IDX 7 1 8 2 9 3 10 4 11 5 24 6 25 7 21 8 18 9 15 10 12 11 6 12
REMARK SMILES IDX 3 13 27 14 4 15 26 16 5 17 2 18 1 19 28 20 29 21 22 22 23 23
REMARK SMILES IDX 13 24 14 25 19 26 20 27 16 28 17 29
REMARK H PARENT
REMARK Flexibility Score: inf
ROOT
ATOM      1  C   UNL     1     167.007 146.052 149.551  1.00  0.00     0.138 A 
ATOM      2  C   UNL     1     168.403 146.132 149.444  1.00  0.00     0.100 A 
ATOM      3  C   UNL     1     168.994 147.347 149.111  1.00  0.00     0.197 A 
ATOM      4  O   UNL     1     170.248 147.397 148.996  1.00  0.00    -0.289 OA
ATOM      5  C   UNL     1     168.184 148.486 148.902  1.00  0.00     0.115 A 
ATOM      6  C   UNL     1     166.781 148.317 148.983  1.00  0.00     0.188 A 
ATOM      7  O   UNL     1     166.267 147.131 149.302  1.00  0.00    -0.452 OA
ATOM      8  C   UNL     1     165.918 149.404 148.756  1.00  0.00     0.209 A 
ATOM      9  C   UNL     1     166.453 150.682 148.472  1.00  0.00     0.211 A 
ATOM     10  C   UNL     1     167.843 150.853 148.372  1.00  0.00     0.208 A 
ATOM     11  C   UNL     1     168.714 149.769 148.633  1.00  0.00     0.179 A 
ENDROOT
BRANCH   1  12
ATOM     12  C   UNL     1     166.340 144.783 149.927  1.00  0.00     0.021 A 
ATOM     13  C   UNL     1     165.045 142.381 150.652  1.00  0.00     0.160 A 
ATOM     14  C   UNL     1     166.286 142.336 149.997  1.00  0.00     0.161 A 
ATOM     15  C   UNL     1     164.465 143.627 150.952  1.00  0.00     0.051 A 
ATOM     16  C   UNL     1     166.929 143.539 149.640  1.00  0.00     0.062 A 
ATOM     17  C   UNL     1     165.109 144.813 150.598  1.00  0.00     0.016 A 
BRANCH  13  18
ATOM     18  O   UNL     1     164.424 141.169 150.987  1.00  0.00    -0.493 OA
ATOM     19  C   UNL     1     163.614 140.968 152.140  1.00  0.00     0.278 C 
ENDBRANCH  13  18
BRANCH  14  20
ATOM     20  O   UNL     1     166.846 141.077 149.714  1.00  0.00    -0.493 OA
ATOM     21  C   UNL     1     168.124 140.876 149.119  1.00  0.00     0.278 C 
ENDBRANCH  14  20
ENDBRANCH   1  12
BRANCH   8  22
ATOM     22  O   UNL     1     164.534 149.215 148.826  1.00  0.00    -0.490 OA
ATOM     23  C   UNL     1     163.779 149.523 149.993  1.00  0.00     0.278 C 
ENDBRANCH   8  22
BRANCH  11  24
ATOM     24  O   UNL     1     170.094 149.981 148.672  1.00  0.00    -0.492 OA
ATOM     25  C   UNL     1     170.822 150.307 147.495  1.00  0.00     0.278 C 
ENDBRANCH  11  24
BRANCH   9  26
ATOM     26  O   UNL     1     165.663 151.829 148.259  1.00  0.00    -0.490 OA
ATOM     27  C   UNL     1     165.134 152.696 149.255  1.00  0.00     0.279 C 
ENDBRANCH   9  26
BRANCH  10  28
ATOM     28  O   UNL     1     168.303 152.132 148.012  1.00  0.00    -0.490 OA
ATOM     29  C   UNL     1     168.765 153.127 148.913  1.00  0.00     0.278 C 
ENDBRANCH  10  28
TORSDOF 7
ENDMDL
MODEL 3
REMARK VINA RESULT:    -6.795      5.441      7.625
REMARK INTER + INTRA:         -10.043
REMARK INTER:                  -9.281
REMARK INTRA:                  -0.762
REMARK UNBOUND:                -0.468
REMARK SMILES COc1ccc(-c2cc(=O)c3c(OC)c(OC)c(OC)c(OC)c3o2)cc1OC
REMARK SMILES IDX 7 1 8 2 9 3 10 4 11 5 24 6 25 7 21 8 18 9 15 10 12 11 6 12
REMARK SMILES IDX 3 13 27 14 4 15 26 16 5 17 2 18 1 19 28 20 29 21 22 22 23 23
REMARK SMILES IDX 13 24 14 25 19 26 20 27 16 28 17 29
REMARK H PARENT
REMARK Flexibility Score: inf
ROOT
ATOM      1  C   UNL     1     170.552 143.084 150.596  1.00  0.00     0.138 A 
ATOM      2  C   UNL     1     169.429 142.258 150.742  1.00  0.00     0.100 A 
ATOM      3  C   UNL     1     168.290 142.514 149.984  1.00  0.00     0.197 A 
ATOM      4  O   UNL     1     167.280 141.777 150.143  1.00  0.00    -0.289 OA
ATOM      5  C   UNL     1     168.286 143.590 149.068  1.00  0.00     0.115 A 
ATOM      6  C   UNL     1     169.440 144.406 149.010  1.00  0.00     0.188 A 
ATOM      7  O   UNL     1     170.503 144.119 149.759  1.00  0.00    -0.452 OA
ATOM      8  C   UNL     1     169.489 145.511 148.141  1.00  0.00     0.209 A 
ATOM      9  C   UNL     1     168.388 145.795 147.298  1.00  0.00     0.211 A 
ATOM     10  C   UNL     1     167.233 145.000 147.364  1.00  0.00     0.208 A 
ATOM     11  C   UNL     1     167.194 143.868 148.212  1.00  0.00     0.179 A 
ENDROOT
BRANCH   1  12
ATOM     12  C   UNL     1     171.794 142.830 151.365  1.00  0.00     0.021 A 
ATOM     13  C   UNL     1     174.147 142.361 152.853  1.00  0.00     0.160 A 
ATOM     14  C   UNL     1     173.969 141.733 151.610  1.00  0.00     0.161 A 
ATOM     15  C   UNL     1     173.153 143.229 153.340  1.00  0.00     0.051 A 
ATOM     16  C   UNL     1     172.794 141.973 150.871  1.00  0.00     0.062 A 
ATOM     17  C   UNL     1     171.993 143.464 152.600  1.00  0.00     0.016 A 
BRANCH  13  18
ATOM     18  O   UNL     1     175.323 142.096 153.571  1.00  0.00    -0.493 OA
ATOM     19  C   UNL     1     176.009 143.048 154.376  1.00  0.00     0.278 C 
ENDBRANCH  13  18
BRANCH  14  20
ATOM     20  O   UNL     1     174.982 140.875 151.145  1.00  0.00    -0.493 OA
ATOM     21  C   UNL     1     175.813 141.139 150.019  1.00  0.00     0.278 C 
ENDBRANCH  14  20
ENDBRANCH   1  12
BRANCH   8  22
ATOM     22  O   UNL     1     170.632 146.316 148.107  1.00  0.00    -0.490 OA
ATOM     23  C   UNL     1     170.739 147.523 148.853  1.00  0.00     0.278 C 
ENDBRANCH   8  22
BRANCH  11  24
ATOM     24  O   UNL     1     166.099 143.003 148.167  1.00  0.00    -0.492 OA
ATOM     25  C   UNL     1     165.874 142.159 147.045  1.00  0.00     0.278 C 
ENDBRANCH  11  24
BRANCH   9  26
ATOM     26  O   UNL     1     168.363 146.863 146.380  1.00  0.00    -0.490 OA
ATOM     27  C   UNL     1     168.006 148.213 146.654  1.00  0.00     0.279 C 
ENDBRANCH   9  26
BRANCH  10  28
ATOM     28  O   UNL     1     166.149 145.383 146.555  1.00  0.00    -0.490 OA
ATOM     29  C   UNL     1     164.999 146.089 146.995  1.00  0.00     0.278 C 
ENDBRANCH  10  28
TORSDOF 7
ENDMDL
MODEL 4
REMARK VINA RESULT:    -6.685      5.332      7.775
REMARK INTER + INTRA:          -9.889
REMARK INTER:                  -9.102
REMARK INTRA:                  -0.787
REMARK UNBOUND:                -0.468
REMARK SMILES COc1ccc(-c2cc(=O)c3c(OC)c(OC)c(OC)c(OC)c3o2)cc1OC
REMARK SMILES IDX 7 1 8 2 9 3 10 4 11 5 24 6 25 7 21 8 18 9 15 10 12 11 6 12
REMARK SMILES IDX 3 13 27 14 4 15 26 16 5 17 2 18 1 19 28 20 29 21 22 22 23 23
REMARK SMILES IDX 13 24 14 25 19 26 20 27 16 28 17 29
REMARK H PARENT
REMARK Flexibility Score: inf
ROOT
ATOM      1  C   UNL     1     170.544 142.965 150.445  1.00  0.00     0.138 A 
ATOM      2  C   UNL     1     169.430 142.129 150.609  1.00  0.00     0.100 A 
ATOM      3  C   UNL     1     168.267 142.394 149.892  1.00  0.00     0.197 A 
ATOM      4  O   UNL     1     167.266 141.648 150.067  1.00  0.00    -0.289 OA
ATOM      5  C   UNL     1     168.228 143.489 148.998  1.00  0.00     0.115 A 
ATOM      6  C   UNL     1     169.376 144.312 148.921  1.00  0.00     0.188 A 
ATOM      7  O   UNL     1     170.463 144.016 149.631  1.00  0.00    -0.452 OA
ATOM      8  C   UNL     1     169.392 145.435 148.074  1.00  0.00     0.209 A 
ATOM      9  C   UNL     1     168.265 145.729 147.272  1.00  0.00     0.211 A 
ATOM     10  C   UNL     1     167.117 144.926 147.357  1.00  0.00     0.208 A 
ATOM     11  C   UNL     1     167.110 143.778 148.183  1.00  0.00     0.179 A 
ENDROOT
BRANCH   1  12
ATOM     12  C   UNL     1     171.810 142.702 151.170  1.00  0.00     0.021 A 
ATOM     13  C   UNL     1     174.229 142.185 152.530  1.00  0.00     0.160 A 
ATOM     14  C   UNL     1     173.376 143.203 152.985  1.00  0.00     0.161 A 
ATOM     15  C   UNL     1     173.862 141.424 151.406  1.00  0.00     0.051 A 
ATOM     16  C   UNL     1     172.168 143.455 152.303  1.00  0.00     0.062 A 
ATOM     17  C   UNL     1     172.663 141.677 150.739  1.00  0.00     0.016 A 
BRANCH  13  18
ATOM     18  O   UNL     1     175.429 141.963 153.223  1.00  0.00    -0.493 OA
ATOM     19  C   UNL     1     176.727 142.111 152.656  1.00  0.00     0.278 C 
ENDBRANCH  13  18
BRANCH  14  20
ATOM     20  O   UNL     1     173.765 143.945 154.114  1.00  0.00    -0.493 OA
ATOM     21  C   UNL     1     173.100 145.115 154.582  1.00  0.00     0.278 C 
ENDBRANCH  14  20
ENDBRANCH   1  12
BRANCH   8  22
ATOM     22  O   UNL     1     170.530 146.246 148.021  1.00  0.00    -0.490 OA
ATOM     23  C   UNL     1     170.674 147.413 148.824  1.00  0.00     0.278 C 
ENDBRANCH   8  22
BRANCH  11  24
ATOM     24  O   UNL     1     166.018 142.907 148.153  1.00  0.00    -0.492 OA
ATOM     25  C   UNL     1     165.762 142.086 147.021  1.00  0.00     0.278 C 
ENDBRANCH  11  24
BRANCH   9  26
ATOM     26  O   UNL     1     168.206 146.816 146.376  1.00  0.00    -0.490 OA
ATOM     27  C   UNL     1     167.893 148.166 146.696  1.00  0.00     0.279 C 
ENDBRANCH   9  26
BRANCH  10  28
ATOM     28  O   UNL     1     166.006 145.320 146.590  1.00  0.00    -0.490 OA
ATOM     29  C   UNL     1     164.869 146.016 147.078  1.00  0.00     0.278 C 
ENDBRANCH  10  28
TORSDOF 7
ENDMDL
MODEL 5
REMARK VINA RESULT:    -6.236      1.416      2.452
REMARK INTER + INTRA:          -9.255
REMARK INTER:                  -8.848
REMARK INTRA:                  -0.407
REMARK UNBOUND:                -0.468
REMARK SMILES COc1ccc(-c2cc(=O)c3c(OC)c(OC)c(OC)c(OC)c3o2)cc1OC
REMARK SMILES IDX 7 1 8 2 9 3 10 4 11 5 24 6 25 7 21 8 18 9 15 10 12 11 6 12
REMARK SMILES IDX 3 13 27 14 4 15 26 16 5 17 2 18 1 19 28 20 29 21 22 22 23 23
REMARK SMILES IDX 13 24 14 25 19 26 20 27 16 28 17 29
REMARK H PARENT
REMARK Flexibility Score: inf
ROOT
ATOM      1  C   UNL     1     166.371 147.048 148.273  1.00  0.00     0.138 A 
ATOM      2  C   UNL     1     165.326 147.933 148.573  1.00  0.00     0.100 A 
ATOM      3  C   UNL     1     165.613 149.275 148.802  1.00  0.00     0.197 A 
ATOM      4  O   UNL     1     164.666 150.055 149.095  1.00  0.00    -0.289 OA
ATOM      5  C   UNL     1     166.948 149.731 148.714  1.00  0.00     0.115 A 
ATOM      6  C   UNL     1     167.953 148.771 148.451  1.00  0.00     0.188 A 
ATOM      7  O   UNL     1     167.624 147.497 148.242  1.00  0.00    -0.452 OA
ATOM      8  C   UNL     1     169.304 149.153 148.379  1.00  0.00     0.209 A 
ATOM      9  C   UNL     1     169.661 150.513 148.544  1.00  0.00     0.211 A 
ATOM     10  C   UNL     1     168.672 151.468 148.822  1.00  0.00     0.208 A 
ATOM     11  C   UNL     1     167.309 151.091 148.861  1.00  0.00     0.179 A 
ENDROOT
BRANCH   1  12
ATOM     12  C   UNL     1     166.105 145.615 147.997  1.00  0.00     0.021 A 
ATOM     13  C   UNL     1     165.614 142.890 147.448  1.00  0.00     0.160 A 
ATOM     14  C   UNL     1     165.237 143.432 148.686  1.00  0.00     0.161 A 
ATOM     15  C   UNL     1     166.224 143.716 146.486  1.00  0.00     0.051 A 
ATOM     16  C   UNL     1     165.482 144.794 148.954  1.00  0.00     0.062 A 
ATOM     17  C   UNL     1     166.460 145.065 146.758  1.00  0.00     0.016 A 
BRANCH  13  18
ATOM     18  O   UNL     1     165.366 141.529 147.213  1.00  0.00    -0.493 OA
ATOM     19  C   UNL     1     165.572 140.875 145.966  1.00  0.00     0.278 C 
ENDBRANCH  13  18
BRANCH  14  20
ATOM     20  O   UNL     1     164.624 142.585 149.627  1.00  0.00    -0.493 OA
ATOM     21  C   UNL     1     164.371 142.932 150.985  1.00  0.00     0.278 C 
ENDBRANCH  14  20
ENDBRANCH   1  12
BRANCH   8  22
ATOM     22  O   UNL     1     170.286 148.188 148.133  1.00  0.00    -0.490 OA
ATOM     23  C   UNL     1     170.601 147.164 149.070  1.00  0.00     0.278 C 
ENDBRANCH   8  22
BRANCH  11  24
ATOM     24  O   UNL     1     166.321 152.069 148.997  1.00  0.00    -0.492 OA
ATOM     25  C   UNL     1     166.058 152.999 147.954  1.00  0.00     0.278 C 
ENDBRANCH  11  24
BRANCH   9  26
ATOM     26  O   UNL     1     170.986 150.987 148.461  1.00  0.00    -0.490 OA
ATOM     27  C   UNL     1     171.821 150.984 147.309  1.00  0.00     0.279 C 
ENDBRANCH   9  26
BRANCH  10  28
ATOM     28  O   UNL     1     169.105 152.786 149.049  1.00  0.00    -0.490 OA
ATOM     29  C   UNL     1     169.550 153.307 150.293  1.00  0.00     0.278 C 
ENDBRANCH  10  28
TORSDOF 7
ENDMDL
MODEL 6
REMARK VINA RESULT:    -6.115      2.258      8.131
REMARK INTER + INTRA:          -9.085
REMARK INTER:                  -8.309
REMARK INTRA:                  -0.776
REMARK UNBOUND:                -0.468
REMARK SMILES COc1ccc(-c2cc(=O)c3c(OC)c(OC)c(OC)c(OC)c3o2)cc1OC
REMARK SMILES IDX 7 1 8 2 9 3 10 4 11 5 24 6 25 7 21 8 18 9 15 10 12 11 6 12
REMARK SMILES IDX 3 13 27 14 4 15 26 16 5 17 2 18 1 19 28 20 29 21 22 22 23 23
REMARK SMILES IDX 13 24 14 25 19 26 20 27 16 28 17 29
REMARK H PARENT
REMARK Flexibility Score: inf
ROOT
ATOM      1  C   UNL     1     167.892 148.001 148.791  1.00  0.00     0.138 A 
ATOM      2  C   UNL     1     166.494 147.917 148.838  1.00  0.00     0.100 A 
ATOM      3  C   UNL     1     165.894 146.705 149.167  1.00  0.00     0.197 A 
ATOM      4  O   UNL     1     164.635 146.638 149.182  1.00  0.00    -0.289 OA
ATOM      5  C   UNL     1     166.699 145.582 149.462  1.00  0.00     0.115 A 
ATOM      6  C   UNL     1     168.101 145.733 149.349  1.00  0.00     0.188 A 
ATOM      7  O   UNL     1     168.625 146.915 149.029  1.00  0.00    -0.452 OA
ATOM      8  C   UNL     1     168.958 144.646 149.601  1.00  0.00     0.209 A 
ATOM      9  C   UNL     1     168.418 143.400 149.997  1.00  0.00     0.211 A 
ATOM     10  C   UNL     1     167.027 143.238 150.093  1.00  0.00     0.208 A 
ATOM     11  C   UNL     1     166.165 144.338 149.874  1.00  0.00     0.179 A 
ENDROOT
BRANCH   1  12
ATOM     12  C   UNL     1     168.571 149.280 148.471  1.00  0.00     0.021 A 
ATOM     13  C   UNL     1     169.888 151.700 147.859  1.00  0.00     0.160 A 
ATOM     14  C   UNL     1     168.486 151.659 147.899  1.00  0.00     0.161 A 
ATOM     15  C   UNL     1     170.625 150.534 148.136  1.00  0.00     0.051 A 
ATOM     16  C   UNL     1     167.834 150.449 148.208  1.00  0.00     0.062 A 
ATOM     17  C   UNL     1     169.971 149.340 148.444  1.00  0.00     0.016 A 
BRANCH  13  18
ATOM     18  O   UNL     1     170.510 152.917 147.540  1.00  0.00    -0.493 OA
ATOM     19  C   UNL     1     171.062 153.816 148.495  1.00  0.00     0.278 C 
ENDBRANCH  13  18
BRANCH  14  20
ATOM     20  O   UNL     1     167.776 152.841 147.624  1.00  0.00    -0.493 OA
ATOM     21  C   UNL     1     167.259 153.724 148.614  1.00  0.00     0.278 C 
ENDBRANCH  14  20
ENDBRANCH   1  12
BRANCH   8  22
ATOM     22  O   UNL     1     170.341 144.809 149.469  1.00  0.00    -0.490 OA
ATOM     23  C   UNL     1     171.007 144.701 148.216  1.00  0.00     0.278 C 
ENDBRANCH   8  22
BRANCH  11  24
ATOM     24  O   UNL     1     164.796 144.206 150.111  1.00  0.00    -0.492 OA
ATOM     25  C   UNL     1     164.281 144.136 151.435  1.00  0.00     0.278 C 
ENDBRANCH  11  24
BRANCH   9  26
ATOM     26  O   UNL     1     169.204 142.268 150.294  1.00  0.00    -0.490 OA
ATOM     27  C   UNL     1     170.037 142.085 151.433  1.00  0.00     0.279 C 
ENDBRANCH   9  26
BRANCH  10  28
ATOM     28  O   UNL     1     166.556 141.954 150.418  1.00  0.00    -0.490 OA
ATOM     29  C   UNL     1     166.013 141.017 149.499  1.00  0.00     0.278 C 
ENDBRANCH  10  28
TORSDOF 7
ENDMDL
MODEL 7
REMARK VINA RESULT:    -6.087      5.575      7.767
REMARK INTER + INTRA:          -9.046
REMARK INTER:                  -8.439
REMARK INTRA:                  -0.607
REMARK UNBOUND:                -0.468
REMARK SMILES COc1ccc(-c2cc(=O)c3c(OC)c(OC)c(OC)c(OC)c3o2)cc1OC
REMARK SMILES IDX 7 1 8 2 9 3 10 4 11 5 24 6 25 7 21 8 18 9 15 10 12 11 6 12
REMARK SMILES IDX 3 13 27 14 4 15 26 16 5 17 2 18 1 19 28 20 29 21 22 22 23 23
REMARK SMILES IDX 13 24 14 25 19 26 20 27 16 28 17 29
REMARK H PARENT
REMARK Flexibility Score: inf
ROOT
ATOM      1  C   UNL     1     170.670 143.870 150.765  1.00  0.00     0.138 A 
ATOM      2  C   UNL     1     170.774 145.242 150.499  1.00  0.00     0.100 A 
ATOM      3  C   UNL     1     169.872 145.838 149.623  1.00  0.00     0.197 A 
ATOM      4  O   UNL     1     169.992 147.068 149.375  1.00  0.00    -0.289 OA
ATOM      5  C   UNL     1     168.855 145.058 149.026  1.00  0.00     0.115 A 
ATOM      6  C   UNL     1     168.843 143.672 149.308  1.00  0.00     0.188 A 
ATOM      7  O   UNL     1     169.731 143.151 150.153  1.00  0.00    -0.452 OA
ATOM      8  C   UNL     1     167.876 142.834 148.723  1.00  0.00     0.209 A 
ATOM      9  C   UNL     1     166.891 143.384 147.868  1.00  0.00     0.211 A 
ATOM     10  C   UNL     1     166.910 144.755 147.571  1.00  0.00     0.208 A 
ATOM     11  C   UNL     1     167.859 145.605 148.184  1.00  0.00     0.179 A 
ENDROOT
BRANCH   1  12
ATOM     12  C   UNL     1     171.595 143.202 151.712  1.00  0.00     0.021 A 
ATOM     13  C   UNL     1     173.354 141.906 153.499  1.00  0.00     0.160 A 
ATOM     14  C   UNL     1     173.152 143.291 153.599  1.00  0.00     0.161 A 
ATOM     15  C   UNL     1     172.666 141.174 152.514  1.00  0.00     0.051 A 
ATOM     16  C   UNL     1     172.271 143.933 152.706  1.00  0.00     0.062 A 
ATOM     17  C   UNL     1     171.792 141.816 151.636  1.00  0.00     0.016 A 
BRANCH  13  18
ATOM     18  O   UNL     1     174.244 141.296 154.396  1.00  0.00    -0.493 OA
ATOM     19  C   UNL     1     175.571 140.897 154.070  1.00  0.00     0.278 C 
ENDBRANCH  13  18
BRANCH  14  20
ATOM     20  O   UNL     1     173.849 143.996 154.597  1.00  0.00    -0.493 OA
ATOM     21  C   UNL     1     173.245 144.577 155.748  1.00  0.00     0.278 C 
ENDBRANCH  14  20
ENDBRANCH   1  12
BRANCH   8  22
ATOM     22  O   UNL     1     167.887 141.463 149.001  1.00  0.00    -0.490 OA
ATOM     23  C   UNL     1     167.034 140.875 149.977  1.00  0.00     0.278 C 
ENDBRANCH   8  22
BRANCH  11  24
ATOM     24  O   UNL     1     167.781 146.986 147.994  1.00  0.00    -0.492 OA
ATOM     25  C   UNL     1     168.169 147.583 146.762  1.00  0.00     0.278 C 
ENDBRANCH  11  24
BRANCH   9  26
ATOM     26  O   UNL     1     165.871 142.623 147.262  1.00  0.00    -0.490 OA
ATOM     27  C   UNL     1     166.018 141.711 146.180  1.00  0.00     0.279 C 
ENDBRANCH   9  26
BRANCH  10  28
ATOM     28  O   UNL     1     165.949 145.221 146.654  1.00  0.00    -0.490 OA
ATOM     29  C   UNL     1     164.797 145.982 146.982  1.00  0.00     0.278 C 
ENDBRANCH  10  28
TORSDOF 7
ENDMDL
MODEL 8
REMARK VINA RESULT:    -6.056      1.615      8.597
REMARK INTER + INTRA:          -9.001
REMARK INTER:                  -8.452
REMARK INTRA:                  -0.550
REMARK UNBOUND:                -0.468
REMARK SMILES COc1ccc(-c2cc(=O)c3c(OC)c(OC)c(OC)c(OC)c3o2)cc1OC
REMARK SMILES IDX 7 1 8 2 9 3 10 4 11 5 24 6 25 7 21 8 18 9 15 10 12 11 6 12
REMARK SMILES IDX 3 13 27 14 4 15 26 16 5 17 2 18 1 19 28 20 29 21 22 22 23 23
REMARK SMILES IDX 13 24 14 25 19 26 20 27 16 28 17 29
REMARK H PARENT
REMARK Flexibility Score: inf
ROOT
ATOM      1  C   UNL     1     168.185 147.160 147.576  1.00  0.00     0.138 A 
ATOM      2  C   UNL     1     168.783 146.128 146.839  1.00  0.00     0.100 A 
ATOM      3  C   UNL     1     168.302 144.829 146.971  1.00  0.00     0.197 A 
ATOM      4  O   UNL     1     168.864 143.907 146.319  1.00  0.00    -0.289 OA
ATOM      5  C   UNL     1     167.211 144.569 147.831  1.00  0.00     0.115 A 
ATOM      6  C   UNL     1     166.691 145.654 148.576  1.00  0.00     0.188 A 
ATOM      7  O   UNL     1     167.190 146.879 148.414  1.00  0.00    -0.452 OA
ATOM      8  C   UNL     1     165.625 145.458 149.472  1.00  0.00     0.209 A 
ATOM      9  C   UNL     1     165.049 144.173 149.611  1.00  0.00     0.211 A 
ATOM     10  C   UNL     1     165.571 143.089 148.889  1.00  0.00     0.208 A 
ATOM     11  C   UNL     1     166.621 143.291 147.962  1.00  0.00     0.179 A 
ENDROOT
BRANCH   1  12
ATOM     12  C   UNL     1     168.651 148.562 147.445  1.00  0.00     0.021 A 
ATOM     13  C   UNL     1     169.562 151.221 147.186  1.00  0.00     0.160 A 
ATOM     14  C   UNL     1     168.220 150.971 147.512  1.00  0.00     0.161 A 
ATOM     15  C   UNL     1     170.444 150.141 147.004  1.00  0.00     0.051 A 
ATOM     16  C   UNL     1     167.771 149.642 147.643  1.00  0.00     0.062 A 
ATOM     17  C   UNL     1     169.992 148.827 147.138  1.00  0.00     0.016 A 
BRANCH  13  18
ATOM     18  O   UNL     1     169.978 152.555 147.053  1.00  0.00    -0.493 OA
ATOM     19  C   UNL     1     170.764 153.254 148.012  1.00  0.00     0.278 C 
ENDBRANCH  13  18
BRANCH  14  20
ATOM     20  O   UNL     1     167.362 152.070 147.695  1.00  0.00    -0.493 OA
ATOM     21  C   UNL     1     167.108 152.700 148.947  1.00  0.00     0.278 C 
ENDBRANCH  14  20
ENDBRANCH   1  12
BRANCH   8  22
ATOM     22  O   UNL     1     165.133 146.538 150.211  1.00  0.00    -0.490 OA
ATOM     23  C   UNL     1     164.543 147.678 149.596  1.00  0.00     0.278 C 
ENDBRANCH   8  22
BRANCH  11  24
ATOM     24  O   UNL     1     167.038 142.237 147.145  1.00  0.00    -0.492 OA
ATOM     25  C   UNL     1     166.234 141.781 146.065  1.00  0.00     0.278 C 
ENDBRANCH  11  24
BRANCH   9  26
ATOM     26  O   UNL     1     163.962 143.893 150.465  1.00  0.00    -0.490 OA
ATOM     27  C   UNL     1     163.991 143.824 151.885  1.00  0.00     0.279 C 
ENDBRANCH   9  26
BRANCH  10  28
ATOM     28  O   UNL     1     165.001 141.827 149.132  1.00  0.00    -0.490 OA
ATOM     29  C   UNL     1     165.473 140.875 150.074  1.00  0.00     0.278 C 
ENDBRANCH  10  28
TORSDOF 7
ENDMDL
MODEL 9
REMARK VINA RESULT:    -5.884      2.140      7.891
REMARK INTER + INTRA:          -8.760
REMARK INTER:                  -8.078
REMARK INTRA:                  -0.681
REMARK UNBOUND:                -0.468
REMARK SMILES COc1ccc(-c2cc(=O)c3c(OC)c(OC)c(OC)c(OC)c3o2)cc1OC
REMARK SMILES IDX 7 1 8 2 9 3 10 4 11 5 24 6 25 7 21 8 18 9 15 10 12 11 6 12
REMARK SMILES IDX 3 13 27 14 4 15 26 16 5 17 2 18 1 19 28 20 29 21 22 22 23 23
REMARK SMILES IDX 13 24 14 25 19 26 20 27 16 28 17 29
REMARK H PARENT
REMARK Flexibility Score: inf
ROOT
ATOM      1  C   UNL     1     167.115 148.010 148.235  1.00  0.00     0.138 A 
ATOM      2  C   UNL     1     165.849 147.596 147.798  1.00  0.00     0.100 A 
ATOM      3  C   UNL     1     165.540 146.239 147.790  1.00  0.00     0.197 A 
ATOM      4  O   UNL     1     164.406 145.880 147.373  1.00  0.00    -0.289 OA
ATOM      5  C   UNL     1     166.497 145.299 148.237  1.00  0.00     0.115 A 
ATOM      6  C   UNL     1     167.768 145.790 148.619  1.00  0.00     0.188 A 
ATOM      7  O   UNL     1     168.013 147.099 148.605  1.00  0.00    -0.452 OA
ATOM      8  C   UNL     1     168.775 144.905 149.044  1.00  0.00     0.209 A 
ATOM      9  C   UNL     1     168.509 143.517 149.118  1.00  0.00     0.211 A 
ATOM     10  C   UNL     1     167.257 143.023 148.722  1.00  0.00     0.208 A 
ATOM     11  C   UNL     1     166.232 143.913 148.327  1.00  0.00     0.179 A 
ENDROOT
BRANCH   1  12
ATOM     12  C   UNL     1     167.476 149.448 148.283  1.00  0.00     0.021 A 
ATOM     13  C   UNL     1     168.135 152.190 148.382  1.00  0.00     0.160 A 
ATOM     14  C   UNL     1     169.146 151.235 148.195  1.00  0.00     0.161 A 
ATOM     15  C   UNL     1     166.799 151.770 148.506  1.00  0.00     0.051 A 
ATOM     16  C   UNL     1     168.811 149.867 148.143  1.00  0.00     0.062 A 
ATOM     17  C   UNL     1     166.474 150.413 148.451  1.00  0.00     0.016 A 
BRANCH  13  18
ATOM     18  O   UNL     1     168.500 153.544 148.439  1.00  0.00    -0.493 OA
ATOM     19  C   UNL     1     168.820 154.244 149.636  1.00  0.00     0.278 C 
ENDBRANCH  13  18
BRANCH  14  20
ATOM     20  O   UNL     1     170.473 151.684 148.068  1.00  0.00    -0.493 OA
ATOM     21  C   UNL     1     171.501 150.983 147.376  1.00  0.00     0.278 C 
ENDBRANCH  14  20
ENDBRANCH   1  12
BRANCH   8  22
ATOM     22  O   UNL     1     170.030 145.406 149.405  1.00  0.00    -0.490 OA
ATOM     23  C   UNL     1     171.121 145.462 148.492  1.00  0.00     0.278 C 
ENDBRANCH   8  22
BRANCH  11  24
ATOM     24  O   UNL     1     164.948 143.426 148.073  1.00  0.00    -0.492 OA
ATOM     25  C   UNL     1     164.035 143.168 149.132  1.00  0.00     0.278 C 
ENDBRANCH  11  24
BRANCH   9  26
ATOM     26  O   UNL     1     169.450 142.565 149.558  1.00  0.00    -0.490 OA
ATOM     27  C   UNL     1     169.880 142.348 150.897  1.00  0.00     0.279 C 
ENDBRANCH   9  26
BRANCH  10  28
ATOM     28  O   UNL     1     167.086 141.627 148.748  1.00  0.00    -0.490 OA
ATOM     29  C   UNL     1     166.592 140.875 149.846  1.00  0.00     0.278 C 
ENDBRANCH  10  28
TORSDOF 7
ENDMDL
