MODEL 1
REMARK VINA RESULT:    -3.456      0.000      0.000
REMARK INTER + INTRA:         -10.131
REMARK INTER:                  -7.496
REMARK INTRA:                  -2.636
REMARK UNBOUND:                -2.636
REMARK SMILES CCCCCCCCCCCCCCCCCCCCCC(=O)[O-]
REMARK SMILES IDX 12 1 11 2 10 3 9 4 8 5 7 6 6 7 5 8 4 9 3 10 2 11 1 12 13 13
REMARK SMILES IDX 14 14 15 15 16 16 17 17 18 18 19 19 20 20 21 21 22 22 23 23
REMARK SMILES IDX 24 24
REMARK H PARENT
REMARK Flexibility Score: inf
ROOT
ATOM      1  C   UNL     1      72.081  48.714  57.197  1.00  0.00     0.000 C 
ENDROOT
BRANCH   1   2
ATOM      2  C   UNL     1      72.780  49.743  56.294  1.00  0.00     0.000 C 
BRANCH   2   3
ATOM      3  C   UNL     1      73.749  50.647  57.068  1.00  0.00     0.000 C 
BRANCH   3   4
ATOM      4  C   UNL     1      72.989  51.612  57.987  1.00  0.00    -0.000 C 
BRANCH   4   5
ATOM      5  C   UNL     1      72.429  52.802  57.191  1.00  0.00    -0.000 C 
BRANCH   5   6
ATOM      6  C   UNL     1      70.893  52.752  57.052  1.00  0.00    -0.000 C 
BRANCH   6   7
ATOM      7  C   UNL     1      70.387  53.150  55.652  1.00  0.00    -0.000 C 
BRANCH   7   8
ATOM      8  C   UNL     1      69.358  52.184  55.037  1.00  0.00    -0.000 C 
BRANCH   8   9
ATOM      9  C   UNL     1      69.958  51.005  54.243  1.00  0.00    -0.000 C 
BRANCH   9  10
ATOM     10  C   UNL     1      71.242  51.329  53.458  1.00  0.00    -0.000 C 
BRANCH  10  11
ATOM     11  C   UNL     1      70.963  51.818  52.030  1.00  0.00    -0.003 C 
ATOM     12  C   UNL     1      69.586  51.364  51.553  1.00  0.00     0.004 C 
ENDBRANCH  10  11
ENDBRANCH   9  10
ENDBRANCH   8   9
ENDBRANCH   7   8
ENDBRANCH   6   7
ENDBRANCH   5   6
ENDBRANCH   4   5
ENDBRANCH   3   4
ENDBRANCH   2   3
ENDBRANCH   1   2
BRANCH   1  13
ATOM     13  C   UNL     1      70.548  48.785  57.103  1.00  0.00     0.000 C 
BRANCH  13  14
ATOM     14  C   UNL     1      69.907  49.530  58.286  1.00  0.00     0.000 C 
BRANCH  14  15
ATOM     15  C   UNL     1      68.487  50.059  57.989  1.00  0.00     0.000 C 
BRANCH  15  16
ATOM     16  C   UNL     1      67.628  49.029  57.239  1.00  0.00     0.000 C 
BRANCH  16  17
ATOM     17  C   UNL     1      67.012  48.015  58.211  1.00  0.00     0.000 C 
BRANCH  17  18
ATOM     18  C   UNL     1      66.130  47.004  57.465  1.00  0.00     0.000 C 
BRANCH  18  19
ATOM     19  C   UNL     1      65.008  46.430  58.344  1.00  0.00     0.000 C 
BRANCH  19  20
ATOM     20  C   UNL     1      64.988  44.884  58.388  1.00  0.00     0.006 C 
BRANCH  20  21
ATOM     21  C   UNL     1      65.643  44.234  57.158  1.00  0.00     0.053 C 
BRANCH  21  22
ATOM     22  C   UNL     1      65.798  42.749  57.308  1.00  0.00     0.041 C 
ATOM     23  O   UNL     1      66.914  42.200  57.114  1.00  0.00    -0.550 OA
ATOM     24  O   UNL     1      64.715  41.980  57.716  1.00  0.00    -0.550 OA
ENDBRANCH  21  22
ENDBRANCH  20  21
ENDBRANCH  19  20
ENDBRANCH  18  19
ENDBRANCH  17  18
ENDBRANCH  16  17
ENDBRANCH  15  16
ENDBRANCH  14  15
ENDBRANCH  13  14
ENDBRANCH   1  13
TORSDOF 20
ENDMDL
MODEL 2
REMARK VINA RESULT:    -3.392      5.111     12.048
REMARK INTER + INTRA:          -9.993
REMARK INTER:                  -8.944
REMARK INTRA:                  -1.048
REMARK UNBOUND:                -2.636
REMARK SMILES CCCCCCCCCCCCCCCCCCCCCC(=O)[O-]
REMARK SMILES IDX 12 1 11 2 10 3 9 4 8 5 7 6 6 7 5 8 4 9 3 10 2 11 1 12 13 13
REMARK SMILES IDX 14 14 15 15 16 16 17 17 18 18 19 19 20 20 21 21 22 22 23 23
REMARK SMILES IDX 24 24
REMARK H PARENT
REMARK Flexibility Score: inf
ROOT
ATOM      1  C   UNL     1      65.748  43.187  56.875  1.00  0.00     0.000 C 
ENDROOT
BRANCH   1   2
ATOM      2  C   UNL     1      66.500  41.912  57.285  1.00  0.00     0.000 C 
BRANCH   2   3
ATOM      3  C   UNL     1      65.939  41.281  58.567  1.00  0.00     0.000 C 
BRANCH   3   4
ATOM      4  C   UNL     1      64.501  40.789  58.356  1.00  0.00    -0.000 C 
BRANCH   4   5
ATOM      5  C   UNL     1      64.479  39.293  58.005  1.00  0.00    -0.000 C 
BRANCH   5   6
ATOM      6  C   UNL     1      63.106  38.830  57.474  1.00  0.00    -0.000 C 
BRANCH   6   7
ATOM      7  C   UNL     1      63.198  37.937  56.222  1.00  0.00    -0.000 C 
BRANCH   7   8
ATOM      8  C   UNL     1      61.915  37.880  55.372  1.00  0.00    -0.000 C 
BRANCH   8   9
ATOM      9  C   UNL     1      60.826  36.920  55.892  1.00  0.00    -0.000 C 
BRANCH   9  10
ATOM     10  C   UNL     1      59.376  37.372  55.636  1.00  0.00    -0.000 C 
BRANCH  10  11
ATOM     11  C   UNL     1      58.886  38.413  56.653  1.00  0.00    -0.003 C 
ATOM     12  C   UNL     1      59.084  37.918  58.084  1.00  0.00     0.004 C 
ENDBRANCH  10  11
ENDBRANCH   9  10
ENDBRANCH   8   9
ENDBRANCH   7   8
ENDBRANCH   6   7
ENDBRANCH   5   6
ENDBRANCH   4   5
ENDBRANCH   3   4
ENDBRANCH   2   3
ENDBRANCH   1   2
BRANCH   1  13
ATOM     13  C   UNL     1      66.027  44.370  57.817  1.00  0.00     0.000 C 
BRANCH  13  14
ATOM     14  C   UNL     1      64.762  45.175  58.163  1.00  0.00     0.000 C 
BRANCH  14  15
ATOM     15  C   UNL     1      65.041  46.659  58.486  1.00  0.00     0.000 C 
BRANCH  15  16
ATOM     16  C   UNL     1      66.149  47.249  57.599  1.00  0.00     0.000 C 
BRANCH  16  17
ATOM     17  C   UNL     1      66.544  48.653  58.074  1.00  0.00     0.000 C 
BRANCH  17  18
ATOM     18  C   UNL     1      67.647  49.244  57.184  1.00  0.00     0.000 C 
BRANCH  18  19
ATOM     19  C   UNL     1      67.540  50.770  57.040  1.00  0.00     0.000 C 
BRANCH  19  20
ATOM     20  C   UNL     1      68.639  51.383  56.140  1.00  0.00     0.006 C 
BRANCH  20  21
ATOM     21  C   UNL     1      68.920  50.553  54.876  1.00  0.00     0.053 C 
BRANCH  21  22
ATOM     22  C   UNL     1      69.759  51.296  53.878  1.00  0.00     0.041 C 
ATOM     23  O   UNL     1      70.517  52.230  54.249  1.00  0.00    -0.550 OA
ATOM     24  O   UNL     1      69.741  50.915  52.541  1.00  0.00    -0.550 OA
ENDBRANCH  21  22
ENDBRANCH  20  21
ENDBRANCH  19  20
ENDBRANCH  18  19
ENDBRANCH  17  18
ENDBRANCH  16  17
ENDBRANCH  15  16
ENDBRANCH  14  15
ENDBRANCH  13  14
ENDBRANCH   1  13
TORSDOF 20
ENDMDL
MODEL 3
REMARK VINA RESULT:    -3.384      3.453      8.569
REMARK INTER + INTRA:          -9.975
REMARK INTER:                  -8.001
REMARK INTRA:                  -1.974
REMARK UNBOUND:                -2.636
REMARK SMILES CCCCCCCCCCCCCCCCCCCCCC(=O)[O-]
REMARK SMILES IDX 12 1 11 2 10 3 9 4 8 5 7 6 6 7 5 8 4 9 3 10 2 11 1 12 13 13
REMARK SMILES IDX 14 14 15 15 16 16 17 17 18 18 19 19 20 20 21 21 22 22 23 23
REMARK SMILES IDX 24 24
REMARK H PARENT
REMARK Flexibility Score: inf
ROOT
ATOM      1  C   UNL     1      71.411  49.183  57.197  1.00  0.00     0.000 C 
ENDROOT
BRANCH   1   2
ATOM      2  C   UNL     1      70.198  48.749  58.035  1.00  0.00     0.000 C 
BRANCH   2   3
ATOM      3  C   UNL     1      69.096  49.817  58.077  1.00  0.00     0.000 C 
BRANCH   3   4
ATOM      4  C   UNL     1      67.915  49.427  57.178  1.00  0.00    -0.000 C 
BRANCH   4   5
ATOM      5  C   UNL     1      66.752  48.866  58.012  1.00  0.00    -0.000 C 
BRANCH   5   6
ATOM      6  C   UNL     1      66.287  47.479  57.523  1.00  0.00    -0.000 C 
BRANCH   6   7
ATOM      7  C   UNL     1      65.320  46.774  58.494  1.00  0.00    -0.000 C 
BRANCH   7   8
ATOM      8  C   UNL     1      65.184  45.255  58.281  1.00  0.00    -0.000 C 
BRANCH   8   9
ATOM      9  C   UNL     1      65.741  44.727  56.943  1.00  0.00    -0.000 C 
BRANCH   9  10
ATOM     10  C   UNL     1      65.590  43.210  56.723  1.00  0.00    -0.000 C 
BRANCH  10  11
ATOM     11  C   UNL     1      66.740  42.399  57.337  1.00  0.00    -0.003 C 
ATOM     12  C   UNL     1      66.207  41.259  58.201  1.00  0.00     0.004 C 
ENDBRANCH  10  11
ENDBRANCH   9  10
ENDBRANCH   8   9
ENDBRANCH   7   8
ENDBRANCH   6   7
ENDBRANCH   5   6
ENDBRANCH   4   5
ENDBRANCH   3   4
ENDBRANCH   2   3
ENDBRANCH   1   2
BRANCH   1  13
ATOM     13  C   UNL     1      71.744  50.675  57.362  1.00  0.00     0.000 C 
BRANCH  13  14
ATOM     14  C   UNL     1      71.834  51.423  56.021  1.00  0.00     0.000 C 
BRANCH  14  15
ATOM     15  C   UNL     1      70.743  51.014  55.008  1.00  0.00     0.000 C 
BRANCH  15  16
ATOM     16  C   UNL     1      69.707  52.127  54.789  1.00  0.00     0.000 C 
BRANCH  16  17
ATOM     17  C   UNL     1      70.286  53.499  55.156  1.00  0.00     0.000 C 
BRANCH  17  18
ATOM     18  C   UNL     1      70.395  54.399  53.918  1.00  0.00     0.000 C 
BRANCH  18  19
ATOM     19  C   UNL     1      69.902  53.710  52.636  1.00  0.00     0.000 C 
BRANCH  19  20
ATOM     20  C   UNL     1      71.044  53.304  51.675  1.00  0.00     0.006 C 
BRANCH  20  21
ATOM     21  C   UNL     1      71.019  51.813  51.300  1.00  0.00     0.053 C 
BRANCH  21  22
ATOM     22  C   UNL     1      69.679  51.371  50.789  1.00  0.00     0.041 C 
ATOM     23  O   UNL     1      69.291  51.708  49.640  1.00  0.00    -0.550 OA
ATOM     24  O   UNL     1      68.883  50.540  51.568  1.00  0.00    -0.550 OA
ENDBRANCH  21  22
ENDBRANCH  20  21
ENDBRANCH  19  20
ENDBRANCH  18  19
ENDBRANCH  17  18
ENDBRANCH  16  17
ENDBRANCH  15  16
ENDBRANCH  14  15
ENDBRANCH  13  14
ENDBRANCH   1  13
TORSDOF 20
ENDMDL
MODEL 4
REMARK VINA RESULT:    -3.381      1.864      3.319
REMARK INTER + INTRA:          -9.970
REMARK INTER:                  -7.986
REMARK INTRA:                  -1.984
REMARK UNBOUND:                -2.636
REMARK SMILES CCCCCCCCCCCCCCCCCCCCCC(=O)[O-]
REMARK SMILES IDX 12 1 11 2 10 3 9 4 8 5 7 6 6 7 5 8 4 9 3 10 2 11 1 12 13 13
REMARK SMILES IDX 14 14 15 15 16 16 17 17 18 18 19 19 20 20 21 21 22 22 23 23
REMARK SMILES IDX 24 24
REMARK H PARENT
REMARK Flexibility Score: inf
ROOT
ATOM      1  C   UNL     1      70.930  50.936  55.610  1.00  0.00     0.000 C 
ENDROOT
BRANCH   1   2
ATOM      2  C   UNL     1      71.093  52.171  56.509  1.00  0.00     0.000 C 
BRANCH   2   3
ATOM      3  C   UNL     1      70.666  53.471  55.812  1.00  0.00     0.000 C 
BRANCH   3   4
ATOM      4  C   UNL     1      70.443  53.244  54.311  1.00  0.00    -0.000 C 
BRANCH   4   5
ATOM      5  C   UNL     1      69.871  54.505  53.644  1.00  0.00    -0.000 C 
BRANCH   5   6
ATOM      6  C   UNL     1      70.572  54.841  52.311  1.00  0.00    -0.000 C 
BRANCH   6   7
ATOM      7  C   UNL     1      70.196  53.890  51.159  1.00  0.00    -0.000 C 
BRANCH   7   8
ATOM      8  C   UNL     1      68.827  54.170  50.510  1.00  0.00    -0.000 C 
BRANCH   8   9
ATOM      9  C   UNL     1      68.257  53.017  49.659  1.00  0.00    -0.000 C 
BRANCH   9  10
ATOM     10  C   UNL     1      69.054  51.701  49.720  1.00  0.00    -0.000 C 
BRANCH  10  11
ATOM     11  C   UNL     1      68.385  50.636  50.601  1.00  0.00    -0.003 C 
ATOM     12  C   UNL     1      68.940  50.674  52.023  1.00  0.00     0.004 C 
ENDBRANCH  10  11
ENDBRANCH   9  10
ENDBRANCH   8   9
ENDBRANCH   7   8
ENDBRANCH   6   7
ENDBRANCH   5   6
ENDBRANCH   4   5
ENDBRANCH   3   4
ENDBRANCH   2   3
ENDBRANCH   1   2
BRANCH   1  13
ATOM     13  C   UNL     1      69.834  49.980  56.107  1.00  0.00     0.000 C 
BRANCH  13  14
ATOM     14  C   UNL     1      68.433  50.351  55.592  1.00  0.00     0.000 C 
BRANCH  14  15
ATOM     15  C   UNL     1      67.628  51.235  56.569  1.00  0.00     0.000 C 
BRANCH  15  16
ATOM     16  C   UNL     1      67.623  50.668  57.997  1.00  0.00     0.000 C 
BRANCH  16  17
ATOM     17  C   UNL     1      66.358  49.840  58.256  1.00  0.00     0.000 C 
BRANCH  17  18
ATOM     18  C   UNL     1      66.640  48.340  58.091  1.00  0.00     0.000 C 
BRANCH  18  19
ATOM     19  C   UNL     1      65.404  47.469  58.365  1.00  0.00     0.000 C 
BRANCH  19  20
ATOM     20  C   UNL     1      65.751  46.031  58.817  1.00  0.00     0.006 C 
BRANCH  20  21
ATOM     21  C   UNL     1      64.807  44.967  58.232  1.00  0.00     0.053 C 
BRANCH  21  22
ATOM     22  C   UNL     1      65.370  44.311  57.006  1.00  0.00     0.041 C 
ATOM     23  O   UNL     1      65.281  43.065  56.850  1.00  0.00    -0.550 OA
ATOM     24  O   UNL     1      65.948  45.089  56.010  1.00  0.00    -0.550 OA
ENDBRANCH  21  22
ENDBRANCH  20  21
ENDBRANCH  19  20
ENDBRANCH  18  19
ENDBRANCH  17  18
ENDBRANCH  16  17
ENDBRANCH  15  16
ENDBRANCH  14  15
ENDBRANCH  13  14
ENDBRANCH   1  13
TORSDOF 20
ENDMDL
MODEL 5
REMARK VINA RESULT:    -3.374      6.489     10.618
REMARK INTER + INTRA:          -9.955
REMARK INTER:                  -7.067
REMARK INTRA:                  -2.888
REMARK UNBOUND:                -2.636
REMARK SMILES CCCCCCCCCCCCCCCCCCCCCC(=O)[O-]
REMARK SMILES IDX 12 1 11 2 10 3 9 4 8 5 7 6 6 7 5 8 4 9 3 10 2 11 1 12 13 13
REMARK SMILES IDX 14 14 15 15 16 16 17 17 18 18 19 19 20 20 21 21 22 22 23 23
REMARK SMILES IDX 24 24
REMARK H PARENT
REMARK Flexibility Score: inf
ROOT
ATOM      1  C   UNL     1      69.494  51.076  51.786  1.00  0.00     0.000 C 
ENDROOT
BRANCH   1   2
ATOM      2  C   UNL     1      70.841  51.728  51.435  1.00  0.00     0.000 C 
BRANCH   2   3
ATOM      3  C   UNL     1      71.169  52.929  52.332  1.00  0.00     0.000 C 
BRANCH   3   4
ATOM      4  C   UNL     1      70.731  54.245  51.676  1.00  0.00    -0.000 C 
BRANCH   4   5
ATOM      5  C   UNL     1      69.782  55.028  52.597  1.00  0.00    -0.000 C 
BRANCH   5   6
ATOM      6  C   UNL     1      70.245  55.022  54.069  1.00  0.00    -0.000 C 
BRANCH   6   7
ATOM      7  C   UNL     1      69.199  54.448  55.043  1.00  0.00    -0.000 C 
BRANCH   7   8
ATOM      8  C   UNL     1      69.672  53.225  55.852  1.00  0.00    -0.000 C 
BRANCH   8   9
ATOM      9  C   UNL     1      69.156  51.863  55.344  1.00  0.00    -0.000 C 
BRANCH   9  10
ATOM     10  C   UNL     1      70.141  50.690  55.498  1.00  0.00    -0.000 C 
BRANCH  10  11
ATOM     11  C   UNL     1      71.610  51.124  55.394  1.00  0.00    -0.003 C 
ATOM     12  C   UNL     1      72.544  50.030  55.905  1.00  0.00     0.004 C 
ENDBRANCH  10  11
ENDBRANCH   9  10
ENDBRANCH   8   9
ENDBRANCH   7   8
ENDBRANCH   6   7
ENDBRANCH   5   6
ENDBRANCH   4   5
ENDBRANCH   3   4
ENDBRANCH   2   3
ENDBRANCH   1   2
BRANCH   1  13
ATOM     13  C   UNL     1      68.610  50.837  50.551  1.00  0.00     0.000 C 
BRANCH  13  14
ATOM     14  C   UNL     1      68.826  51.884  49.445  1.00  0.00     0.000 C 
BRANCH  14  15
ATOM     15  C   UNL     1      67.934  53.135  49.593  1.00  0.00     0.000 C 
BRANCH  15  16
ATOM     16  C   UNL     1      68.433  54.309  48.736  1.00  0.00     0.000 C 
BRANCH  16  17
ATOM     17  C   UNL     1      69.719  53.937  47.987  1.00  0.00     0.000 C 
BRANCH  17  18
ATOM     18  C   UNL     1      69.546  54.119  46.473  1.00  0.00     0.000 C 
BRANCH  18  19
ATOM     19  C   UNL     1      68.135  54.591  46.088  1.00  0.00     0.000 C 
BRANCH  19  20
ATOM     20  C   UNL     1      67.914  54.691  44.561  1.00  0.00     0.006 C 
BRANCH  20  21
ATOM     21  C   UNL     1      69.101  54.161  43.740  1.00  0.00     0.053 C 
BRANCH  21  22
ATOM     22  C   UNL     1      68.745  52.947  42.933  1.00  0.00     0.041 C 
ATOM     23  O   UNL     1      69.333  52.706  41.846  1.00  0.00    -0.550 OA
ATOM     24  O   UNL     1      67.797  52.052  43.415  1.00  0.00    -0.550 OA
ENDBRANCH  21  22
ENDBRANCH  20  21
ENDBRANCH  19  20
ENDBRANCH  18  19
ENDBRANCH  17  18
ENDBRANCH  16  17
ENDBRANCH  15  16
ENDBRANCH  14  15
ENDBRANCH  13  14
ENDBRANCH   1  13
TORSDOF 20
ENDMDL
MODEL 6
REMARK VINA RESULT:    -3.372      1.424      1.919
REMARK INTER + INTRA:          -9.950
REMARK INTER:                  -7.356
REMARK INTRA:                  -2.594
REMARK UNBOUND:                -2.636
REMARK SMILES CCCCCCCCCCCCCCCCCCCCCC(=O)[O-]
REMARK SMILES IDX 12 1 11 2 10 3 9 4 8 5 7 6 6 7 5 8 4 9 3 10 2 11 1 12 13 13
REMARK SMILES IDX 14 14 15 15 16 16 17 17 18 18 19 19 20 20 21 21 22 22 23 23
REMARK SMILES IDX 24 24
REMARK H PARENT
REMARK Flexibility Score: inf
ROOT
ATOM      1  C   UNL     1      71.108  50.089  56.312  1.00  0.00     0.000 C 
ENDROOT
BRANCH   1   2
ATOM      2  C   UNL     1      71.845  50.405  57.623  1.00  0.00     0.000 C 
BRANCH   2   3
ATOM      3  C   UNL     1      71.476  51.782  58.191  1.00  0.00     0.000 C 
BRANCH   3   4
ATOM      4  C   UNL     1      71.636  52.878  57.129  1.00  0.00    -0.000 C 
BRANCH   4   5
ATOM      5  C   UNL     1      70.397  53.787  57.088  1.00  0.00    -0.000 C 
BRANCH   5   6
ATOM      6  C   UNL     1      70.229  54.498  55.728  1.00  0.00    -0.000 C 
BRANCH   6   7
ATOM      7  C   UNL     1      69.583  53.612  54.645  1.00  0.00    -0.000 C 
BRANCH   7   8
ATOM      8  C   UNL     1      70.519  53.222  53.486  1.00  0.00    -0.000 C 
BRANCH   8   9
ATOM      9  C   UNL     1      70.745  51.706  53.307  1.00  0.00    -0.000 C 
BRANCH   9  10
ATOM     10  C   UNL     1      69.791  51.014  52.316  1.00  0.00    -0.000 C 
BRANCH  10  11
ATOM     11  C   UNL     1      69.861  51.611  50.903  1.00  0.00    -0.003 C 
ATOM     12  C   UNL     1      68.624  51.240  50.089  1.00  0.00     0.004 C 
ENDBRANCH  10  11
ENDBRANCH   9  10
ENDBRANCH   8   9
ENDBRANCH   7   8
ENDBRANCH   6   7
ENDBRANCH   5   6
ENDBRANCH   4   5
ENDBRANCH   3   4
ENDBRANCH   2   3
ENDBRANCH   1   2
BRANCH   1  13
ATOM     13  C   UNL     1      69.751  49.405  56.543  1.00  0.00     0.000 C 
BRANCH  13  14
ATOM     14  C   UNL     1      68.565  50.220  56.001  1.00  0.00     0.000 C 
BRANCH  14  15
ATOM     15  C   UNL     1      67.912  51.141  57.054  1.00  0.00     0.000 C 
BRANCH  15  16
ATOM     16  C   UNL     1      67.572  50.390  58.351  1.00  0.00     0.000 C 
BRANCH  16  17
ATOM     17  C   UNL     1      66.250  49.626  58.215  1.00  0.00     0.000 C 
BRANCH  17  18
ATOM     18  C   UNL     1      66.499  48.124  58.023  1.00  0.00     0.000 C 
BRANCH  18  19
ATOM     19  C   UNL     1      65.264  47.269  58.348  1.00  0.00     0.000 C 
BRANCH  19  20
ATOM     20  C   UNL     1      65.612  45.849  58.851  1.00  0.00     0.006 C 
BRANCH  20  21
ATOM     21  C   UNL     1      64.940  44.734  58.032  1.00  0.00     0.053 C 
BRANCH  21  22
ATOM     22  C   UNL     1      65.795  44.263  56.893  1.00  0.00     0.041 C 
ATOM     23  O   UNL     1      66.317  43.117  56.916  1.00  0.00    -0.550 OA
ATOM     24  O   UNL     1      65.971  45.076  55.779  1.00  0.00    -0.550 OA
ENDBRANCH  21  22
ENDBRANCH  20  21
ENDBRANCH  19  20
ENDBRANCH  18  19
ENDBRANCH  17  18
ENDBRANCH  16  17
ENDBRANCH  15  16
ENDBRANCH  14  15
ENDBRANCH  13  14
ENDBRANCH   1  13
TORSDOF 20
ENDMDL
MODEL 7
REMARK VINA RESULT:    -3.326      5.048      9.050
REMARK INTER + INTRA:          -9.851
REMARK INTER:                  -7.004
REMARK INTRA:                  -2.847
REMARK UNBOUND:                -2.636
REMARK SMILES CCCCCCCCCCCCCCCCCCCCCC(=O)[O-]
REMARK SMILES IDX 12 1 11 2 10 3 9 4 8 5 7 6 6 7 5 8 4 9 3 10 2 11 1 12 13 13
REMARK SMILES IDX 14 14 15 15 16 16 17 17 18 18 19 19 20 20 21 21 22 22 23 23
REMARK SMILES IDX 24 24
REMARK H PARENT
REMARK Flexibility Score: inf
ROOT
ATOM      1  C   UNL     1      68.769  51.131  50.554  1.00  0.00     0.000 C 
ENDROOT
BRANCH   1   2
ATOM      2  C   UNL     1      68.879  52.137  49.397  1.00  0.00     0.000 C 
BRANCH   2   3
ATOM      3  C   UNL     1      67.776  53.204  49.435  1.00  0.00     0.000 C 
BRANCH   3   4
ATOM      4  C   UNL     1      68.320  54.575  49.010  1.00  0.00    -0.000 C 
BRANCH   4   5
ATOM      5  C   UNL     1      69.696  54.435  48.340  1.00  0.00    -0.000 C 
BRANCH   5   6
ATOM      6  C   UNL     1      69.690  54.908  46.871  1.00  0.00    -0.000 C 
BRANCH   6   7
ATOM      7  C   UNL     1      69.537  53.760  45.854  1.00  0.00    -0.000 C 
BRANCH   7   8
ATOM      8  C   UNL     1      69.664  54.183  44.378  1.00  0.00    -0.000 C 
BRANCH   8   9
ATOM      9  C   UNL     1      68.328  54.443  43.653  1.00  0.00    -0.000 C 
BRANCH   9  10
ATOM     10  C   UNL     1      67.084  53.849  44.338  1.00  0.00    -0.000 C 
BRANCH  10  11
ATOM     11  C   UNL     1      66.196  54.916  44.995  1.00  0.00    -0.003 C 
ATOM     12  C   UNL     1      65.519  54.369  46.249  1.00  0.00     0.004 C 
ENDBRANCH  10  11
ENDBRANCH   9  10
ENDBRANCH   8   9
ENDBRANCH   7   8
ENDBRANCH   6   7
ENDBRANCH   5   6
ENDBRANCH   4   5
ENDBRANCH   3   4
ENDBRANCH   2   3
ENDBRANCH   1   2
BRANCH   1  13
ATOM     13  C   UNL     1      69.746  51.438  51.702  1.00  0.00     0.000 C 
BRANCH  13  14
ATOM     14  C   UNL     1      71.041  52.117  51.225  1.00  0.00     0.000 C 
BRANCH  14  15
ATOM     15  C   UNL     1      71.155  53.598  51.646  1.00  0.00     0.000 C 
BRANCH  15  16
ATOM     16  C   UNL     1      69.935  54.069  52.453  1.00  0.00     0.000 C 
BRANCH  16  17
ATOM     17  C   UNL     1      70.368  54.801  53.730  1.00  0.00     0.000 C 
BRANCH  17  18
ATOM     18  C   UNL     1      69.536  54.344  54.935  1.00  0.00     0.000 C 
BRANCH  18  19
ATOM     19  C   UNL     1      69.548  52.818  55.123  1.00  0.00     0.000 C 
BRANCH  19  20
ATOM     20  C   UNL     1      70.941  52.253  55.487  1.00  0.00     0.006 C 
BRANCH  20  21
ATOM     21  C   UNL     1      71.032  50.725  55.343  1.00  0.00     0.053 C 
BRANCH  21  22
ATOM     22  C   UNL     1      70.525  50.003  56.556  1.00  0.00     0.041 C 
ATOM     23  O   UNL     1      69.591  49.163  56.456  1.00  0.00    -0.550 OA
ATOM     24  O   UNL     1      71.125  50.220  57.790  1.00  0.00    -0.550 OA
ENDBRANCH  21  22
ENDBRANCH  20  21
ENDBRANCH  19  20
ENDBRANCH  18  19
ENDBRANCH  17  18
ENDBRANCH  16  17
ENDBRANCH  15  16
ENDBRANCH  14  15
ENDBRANCH  13  14
ENDBRANCH   1  13
TORSDOF 20
ENDMDL
MODEL 8
REMARK VINA RESULT:    -3.306      3.357      7.570
REMARK INTER + INTRA:          -9.808
REMARK INTER:                  -6.968
REMARK INTRA:                  -2.840
REMARK UNBOUND:                -2.636
REMARK SMILES CCCCCCCCCCCCCCCCCCCCCC(=O)[O-]
REMARK SMILES IDX 12 1 11 2 10 3 9 4 8 5 7 6 6 7 5 8 4 9 3 10 2 11 1 12 13 13
REMARK SMILES IDX 14 14 15 15 16 16 17 17 18 18 19 19 20 20 21 21 22 22 23 23
REMARK SMILES IDX 24 24
REMARK H PARENT
REMARK Flexibility Score: inf
ROOT
ATOM      1  C   UNL     1      72.492  49.827  56.387  1.00  0.00     0.000 C 
ENDROOT
BRANCH   1   2
ATOM      2  C   UNL     1      71.438  48.828  56.889  1.00  0.00     0.000 C 
BRANCH   2   3
ATOM      3  C   UNL     1      71.286  48.846  58.416  1.00  0.00     0.000 C 
BRANCH   3   4
ATOM      4  C   UNL     1      69.884  49.313  58.827  1.00  0.00    -0.000 C 
BRANCH   4   5
ATOM      5  C   UNL     1      68.839  48.898  57.779  1.00  0.00    -0.000 C 
BRANCH   5   6
ATOM      6  C   UNL     1      67.565  49.768  57.836  1.00  0.00    -0.000 C 
BRANCH   6   7
ATOM      7  C   UNL     1      66.282  48.964  58.121  1.00  0.00    -0.000 C 
BRANCH   7   8
ATOM      8  C   UNL     1      66.491  47.447  58.284  1.00  0.00    -0.000 C 
BRANCH   8   9
ATOM      9  C   UNL     1      65.198  46.606  58.310  1.00  0.00    -0.000 C 
BRANCH   9  10
ATOM     10  C   UNL     1      65.406  45.090  58.486  1.00  0.00    -0.000 C 
BRANCH  10  11
ATOM     11  C   UNL     1      65.637  44.359  57.156  1.00  0.00    -0.003 C 
ATOM     12  C   UNL     1      65.234  42.891  57.259  1.00  0.00     0.004 C 
ENDBRANCH  10  11
ENDBRANCH   9  10
ENDBRANCH   8   9
ENDBRANCH   7   8
ENDBRANCH   6   7
ENDBRANCH   5   6
ENDBRANCH   4   5
ENDBRANCH   3   4
ENDBRANCH   2   3
ENDBRANCH   1   2
BRANCH   1  13
ATOM     13  C   UNL     1      73.006  50.758  57.499  1.00  0.00     0.000 C 
BRANCH  13  14
ATOM     14  C   UNL     1      72.594  52.225  57.293  1.00  0.00     0.000 C 
BRANCH  14  15
ATOM     15  C   UNL     1      71.505  52.707  58.276  1.00  0.00     0.000 C 
BRANCH  15  16
ATOM     16  C   UNL     1      70.103  52.686  57.647  1.00  0.00     0.000 C 
BRANCH  16  17
ATOM     17  C   UNL     1      70.178  52.894  56.130  1.00  0.00     0.000 C 
BRANCH  17  18
ATOM     18  C   UNL     1      69.191  51.974  55.399  1.00  0.00     0.000 C 
BRANCH  18  19
ATOM     19  C   UNL     1      69.867  51.114  54.319  1.00  0.00     0.000 C 
BRANCH  19  20
ATOM     20  C   UNL     1      70.902  51.890  53.472  1.00  0.00     0.006 C 
BRANCH  20  21
ATOM     21  C   UNL     1      70.938  51.445  52.000  1.00  0.00     0.053 C 
BRANCH  21  22
ATOM     22  C   UNL     1      69.591  51.518  51.346  1.00  0.00     0.041 C 
ATOM     23  O   UNL     1      69.251  52.541  50.694  1.00  0.00    -0.550 OA
ATOM     24  O   UNL     1      68.730  50.429  51.411  1.00  0.00    -0.550 OA
ENDBRANCH  21  22
ENDBRANCH  20  21
ENDBRANCH  19  20
ENDBRANCH  18  19
ENDBRANCH  17  18
ENDBRANCH  16  17
ENDBRANCH  15  16
ENDBRANCH  14  15
ENDBRANCH  13  14
ENDBRANCH   1  13
TORSDOF 20
ENDMDL
MODEL 9
REMARK VINA RESULT:    -3.260      4.368      7.854
REMARK INTER + INTRA:          -9.707
REMARK INTER:                  -6.055
REMARK INTRA:                  -3.653
REMARK UNBOUND:                -2.636
REMARK SMILES CCCCCCCCCCCCCCCCCCCCCC(=O)[O-]
REMARK SMILES IDX 12 1 11 2 10 3 9 4 8 5 7 6 6 7 5 8 4 9 3 10 2 11 1 12 13 13
REMARK SMILES IDX 14 14 15 15 16 16 17 17 18 18 19 19 20 20 21 21 22 22 23 23
REMARK SMILES IDX 24 24
REMARK H PARENT
REMARK Flexibility Score: inf
ROOT
ATOM      1  C   UNL     1      69.143  50.894  51.928  1.00  0.00     0.000 C 
ENDROOT
BRANCH   1   2
ATOM      2  C   UNL     1      70.537  51.007  52.566  1.00  0.00     0.000 C 
BRANCH   2   3
ATOM      3  C   UNL     1      70.477  51.261  54.078  1.00  0.00     0.000 C 
BRANCH   3   4
ATOM      4  C   UNL     1      69.071  50.987  54.629  1.00  0.00    -0.000 C 
BRANCH   4   5
ATOM      5  C   UNL     1      69.113  50.743  56.145  1.00  0.00    -0.000 C 
BRANCH   5   6
ATOM      6  C   UNL     1      69.082  49.243  56.505  1.00  0.00    -0.000 C 
BRANCH   6   7
ATOM      7  C   UNL     1      70.052  48.859  57.639  1.00  0.00    -0.000 C 
BRANCH   7   8
ATOM      8  C   UNL     1      71.454  48.426  57.171  1.00  0.00    -0.000 C 
BRANCH   8   9
ATOM      9  C   UNL     1      72.611  49.332  57.641  1.00  0.00    -0.000 C 
BRANCH   9  10
ATOM     10  C   UNL     1      73.097  50.365  56.607  1.00  0.00    -0.000 C 
BRANCH  10  11
ATOM     11  C   UNL     1      72.600  51.787  56.903  1.00  0.00    -0.003 C 
ATOM     12  C   UNL     1      72.097  51.905  58.340  1.00  0.00     0.004 C 
ENDBRANCH  10  11
ENDBRANCH   9  10
ENDBRANCH   8   9
ENDBRANCH   7   8
ENDBRANCH   6   7
ENDBRANCH   5   6
ENDBRANCH   4   5
ENDBRANCH   3   4
ENDBRANCH   2   3
ENDBRANCH   1   2
BRANCH   1  13
ATOM     13  C   UNL     1      69.058  51.592  50.561  1.00  0.00     0.000 C 
BRANCH  13  14
ATOM     14  C   UNL     1      70.390  52.223  50.123  1.00  0.00     0.000 C 
BRANCH  14  15
ATOM     15  C   UNL     1      70.355  53.765  50.062  1.00  0.00     0.000 C 
BRANCH  15  16
ATOM     16  C   UNL     1      69.511  54.373  51.193  1.00  0.00     0.000 C 
BRANCH  16  17
ATOM     17  C   UNL     1      70.385  54.725  52.403  1.00  0.00     0.000 C 
BRANCH  17  18
ATOM     18  C   UNL     1      69.537  54.856  53.676  1.00  0.00     0.000 C 
BRANCH  18  19
ATOM     19  C   UNL     1      70.376  54.774  54.961  1.00  0.00     0.000 C 
BRANCH  19  20
ATOM     20  C   UNL     1      69.540  54.458  56.223  1.00  0.00     0.006 C 
BRANCH  20  21
ATOM     21  C   UNL     1      68.025  54.608  56.001  1.00  0.00     0.053 C 
BRANCH  21  22
ATOM     22  C   UNL     1      67.221  53.763  56.944  1.00  0.00     0.041 C 
ATOM     23  O   UNL     1      67.631  53.544  58.115  1.00  0.00    -0.550 OA
ATOM     24  O   UNL     1      65.988  53.263  56.543  1.00  0.00    -0.550 OA
ENDBRANCH  21  22
ENDBRANCH  20  21
ENDBRANCH  19  20
ENDBRANCH  18  19
ENDBRANCH  17  18
ENDBRANCH  16  17
ENDBRANCH  15  16
ENDBRANCH  14  15
ENDBRANCH  13  14
ENDBRANCH   1  13
TORSDOF 20
ENDMDL
