MODEL 1
REMARK VINA RESULT:    -5.466      0.000      0.000
REMARK INTER + INTRA:          -9.296
REMARK INTER:                  -8.342
REMARK INTRA:                  -0.955
REMARK UNBOUND:                -0.955
REMARK SMILES CC(=O)CCC=C(C)CCC=C(C)CCC=C(C)C
REMARK SMILES IDX 10 1 11 2 12 3 13 4 14 5 15 6 16 7 18 8 17 9 19 10 9 11 7 12
REMARK SMILES IDX 6 13 8 14 5 15 4 16 2 17 3 18 1 19
REMARK H PARENT
REMARK Flexibility Score: inf
ROOT
ATOM      1  C   UNL     1      80.744  -8.584  20.000  1.00  0.00     0.032 C 
ENDROOT
BRANCH   1   2
ATOM      2  C   UNL     1      80.357  -8.902  18.575  1.00  0.00    -0.028 C 
ATOM      3  C   UNL     1      79.110  -9.233  18.167  1.00  0.00    -0.077 C 
ATOM      4  C   UNL     1      77.961  -9.375  19.136  1.00  0.00     0.039 C 
BRANCH   3   5
ATOM      5  C   UNL     1      78.859  -9.492  16.697  1.00  0.00     0.034 C 
BRANCH   5   6
ATOM      6  C   UNL     1      79.669  -8.544  15.804  1.00  0.00     0.032 C 
BRANCH   6   7
ATOM      7  C   UNL     1      78.803  -7.440  15.244  1.00  0.00    -0.028 C 
ATOM      8  C   UNL     1      78.041  -5.752  13.629  1.00  0.00     0.039 C 
ATOM      9  C   UNL     1      78.944  -6.896  14.014  1.00  0.00    -0.080 C 
ATOM     10  C   UNL     1      79.974  -7.393  13.030  1.00  0.00     0.039 C 
ENDBRANCH   6   7
ENDBRANCH   5   6
ENDBRANCH   3   5
ENDBRANCH   1   2
BRANCH   1  11
ATOM     11  C   UNL     1      81.897  -9.474  20.479  1.00  0.00     0.034 C 
BRANCH  11  12
ATOM     12  C   UNL     1      81.959  -9.546  21.991  1.00  0.00    -0.077 C 
ATOM     13  C   UNL     1      83.064  -9.094  22.629  1.00  0.00    -0.028 C 
ATOM     14  C   UNL     1      80.770 -10.095  22.741  1.00  0.00     0.039 C 
BRANCH  13  15
ATOM     15  C   UNL     1      83.264  -9.113  24.126  1.00  0.00     0.035 C 
BRANCH  15  16
ATOM     16  C   UNL     1      82.986  -7.740  24.746  1.00  0.00     0.079 C 
BRANCH  16  17
ATOM     17  C   UNL     1      82.160  -7.853  26.002  1.00  0.00     0.130 C 
ATOM     18  O   UNL     1      82.673  -7.615  27.084  1.00  0.00    -0.300 OA
ATOM     19  C   UNL     1      80.718  -8.257  25.948  1.00  0.00     0.087 C 
ENDBRANCH  16  17
ENDBRANCH  15  16
ENDBRANCH  13  15
ENDBRANCH  11  12
ENDBRANCH   1  11
TORSDOF 9
ENDMDL
MODEL 2
REMARK VINA RESULT:    -5.159      3.311      9.559
REMARK INTER + INTRA:          -8.828
REMARK INTER:                  -7.999
REMARK INTRA:                  -0.829
REMARK UNBOUND:                -0.955
REMARK SMILES CC(=O)CCC=C(C)CCC=C(C)CCC=C(C)C
REMARK SMILES IDX 10 1 11 2 12 3 13 4 14 5 15 6 16 7 18 8 17 9 19 10 9 11 7 12
REMARK SMILES IDX 6 13 8 14 5 15 4 16 2 17 3 18 1 19
REMARK H PARENT
REMARK Flexibility Score: inf
ROOT
ATOM      1  C   UNL     1      80.537  -9.645  18.904  1.00  0.00     0.032 C 
ENDROOT
BRANCH   1   2
ATOM      2  C   UNL     1      80.596  -9.417  20.396  1.00  0.00    -0.028 C 
ATOM      3  C   UNL     1      81.732  -9.398  21.131  1.00  0.00    -0.077 C 
ATOM      4  C   UNL     1      83.086  -9.670  20.521  1.00  0.00     0.039 C 
BRANCH   3   5
ATOM      5  C   UNL     1      81.645  -9.122  22.617  1.00  0.00     0.034 C 
BRANCH   5   6
ATOM      6  C   UNL     1      82.965  -8.571  23.173  1.00  0.00     0.032 C 
BRANCH   6   7
ATOM      7  C   UNL     1      83.508  -9.450  24.276  1.00  0.00    -0.028 C 
ATOM      8  C   UNL     1      84.335 -10.028  26.516  1.00  0.00     0.039 C 
ATOM      9  C   UNL     1      83.724  -9.047  25.548  1.00  0.00    -0.080 C 
ATOM     10  C   UNL     1      83.379  -7.655  26.019  1.00  0.00     0.039 C 
ENDBRANCH   6   7
ENDBRANCH   5   6
ENDBRANCH   3   5
ENDBRANCH   1   2
BRANCH   1  11
ATOM     11  C   UNL     1      79.266  -9.040  18.296  1.00  0.00     0.034 C 
BRANCH  11  12
ATOM     12  C   UNL     1      79.332  -8.999  16.783  1.00  0.00    -0.077 C 
ATOM     13  C   UNL     1      80.313  -8.284  16.184  1.00  0.00    -0.028 C 
ATOM     14  C   UNL     1      78.315  -9.784  15.991  1.00  0.00     0.039 C 
BRANCH  13  15
ATOM     15  C   UNL     1      80.492  -8.149  14.690  1.00  0.00     0.035 C 
BRANCH  15  16
ATOM     16  C   UNL     1      80.218  -6.717  14.220  1.00  0.00     0.079 C 
BRANCH  16  17
ATOM     17  C   UNL     1      78.803  -6.555  13.725  1.00  0.00     0.130 C 
ATOM     18  O   UNL     1      77.909  -6.321  14.523  1.00  0.00    -0.300 OA
ATOM     19  C   UNL     1      78.471  -6.679  12.269  1.00  0.00     0.087 C 
ENDBRANCH  16  17
ENDBRANCH  15  16
ENDBRANCH  13  15
ENDBRANCH  11  12
ENDBRANCH   1  11
TORSDOF 9
ENDMDL
MODEL 3
REMARK VINA RESULT:    -5.127      3.799      9.663
REMARK INTER + INTRA:          -8.779
REMARK INTER:                  -7.920
REMARK INTRA:                  -0.859
REMARK UNBOUND:                -0.955
REMARK SMILES CC(=O)CCC=C(C)CCC=C(C)CCC=C(C)C
REMARK SMILES IDX 10 1 11 2 12 3 13 4 14 5 15 6 16 7 18 8 17 9 19 10 9 11 7 12
REMARK SMILES IDX 6 13 8 14 5 15 4 16 2 17 3 18 1 19
REMARK H PARENT
REMARK Flexibility Score: inf
ROOT
ATOM      1  C   UNL     1      80.374  -8.943  18.500  1.00  0.00     0.032 C 
ENDROOT
BRANCH   1   2
ATOM      2  C   UNL     1      80.189  -9.298  19.956  1.00  0.00    -0.028 C 
ATOM      3  C   UNL     1      81.190  -9.627  20.806  1.00  0.00    -0.077 C 
ATOM      4  C   UNL     1      82.625  -9.730  20.350  1.00  0.00     0.039 C 
BRANCH   3   5
ATOM      5  C   UNL     1      80.861  -9.925  22.254  1.00  0.00     0.034 C 
BRANCH   5   6
ATOM      6  C   UNL     1      82.116  -9.919  23.135  1.00  0.00     0.032 C 
BRANCH   6   7
ATOM      7  C   UNL     1      82.206  -8.655  23.959  1.00  0.00    -0.028 C 
ATOM      8  C   UNL     1      83.056  -7.128  25.685  1.00  0.00     0.039 C 
ATOM      9  C   UNL     1      83.144  -8.413  24.901  1.00  0.00    -0.080 C 
ATOM     10  C   UNL     1      84.261  -9.385  25.191  1.00  0.00     0.039 C 
ENDBRANCH   6   7
ENDBRANCH   5   6
ENDBRANCH   3   5
ENDBRANCH   1   2
BRANCH   1  11
ATOM     11  C   UNL     1      79.136  -9.314  17.673  1.00  0.00     0.034 C 
BRANCH  11  12
ATOM     12  C   UNL     1      79.324  -8.988  16.205  1.00  0.00    -0.077 C 
ATOM     13  C   UNL     1      78.585  -9.646  15.283  1.00  0.00    -0.028 C 
ATOM     14  C   UNL     1      80.314  -7.915  15.822  1.00  0.00     0.039 C 
BRANCH  13  15
ATOM     15  C   UNL     1      78.676  -9.429  13.790  1.00  0.00     0.035 C 
BRANCH  15  16
ATOM     16  C   UNL     1      77.584  -8.474  13.296  1.00  0.00     0.079 C 
BRANCH  16  17
ATOM     17  C   UNL     1      78.151  -7.131  12.912  1.00  0.00     0.130 C 
ATOM     18  O   UNL     1      78.787  -7.020  11.876  1.00  0.00    -0.300 OA
ATOM     19  C   UNL     1      77.952  -5.928  13.782  1.00  0.00     0.087 C 
ENDBRANCH  16  17
ENDBRANCH  15  16
ENDBRANCH  13  15
ENDBRANCH  11  12
ENDBRANCH   1  11
TORSDOF 9
ENDMDL
MODEL 4
REMARK VINA RESULT:    -4.817      3.834      9.526
REMARK INTER + INTRA:          -8.305
REMARK INTER:                  -7.461
REMARK INTRA:                  -0.844
REMARK UNBOUND:                -0.955
REMARK SMILES CC(=O)CCC=C(C)CCC=C(C)CCC=C(C)C
REMARK SMILES IDX 10 1 11 2 12 3 13 4 14 5 15 6 16 7 18 8 17 9 19 10 9 11 7 12
REMARK SMILES IDX 6 13 8 14 5 15 4 16 2 17 3 18 1 19
REMARK H PARENT
REMARK Flexibility Score: inf
ROOT
ATOM      1  C   UNL     1      79.538  -8.589  17.045  1.00  0.00     0.032 C 
ENDROOT
BRANCH   1   2
ATOM      2  C   UNL     1      80.429  -8.996  18.196  1.00  0.00    -0.028 C 
ATOM      3  C   UNL     1      79.991  -9.498  19.374  1.00  0.00    -0.077 C 
ATOM      4  C   UNL     1      78.522  -9.652  19.682  1.00  0.00     0.039 C 
BRANCH   3   5
ATOM      5  C   UNL     1      81.002  -9.897  20.427  1.00  0.00     0.034 C 
BRANCH   5   6
ATOM      6  C   UNL     1      81.668  -8.674  21.071  1.00  0.00     0.032 C 
BRANCH   6   7
ATOM      7  C   UNL     1      82.703  -9.084  22.092  1.00  0.00    -0.028 C 
ATOM      8  C   UNL     1      83.639  -9.537  24.318  1.00  0.00     0.039 C 
ATOM      9  C   UNL     1      82.480  -9.181  23.422  1.00  0.00    -0.080 C 
ATOM     10  C   UNL     1      81.119  -8.939  24.028  1.00  0.00     0.039 C 
ENDBRANCH   6   7
ENDBRANCH   5   6
ENDBRANCH   3   5
ENDBRANCH   1   2
BRANCH   1  11
ATOM     11  C   UNL     1      78.897  -9.811  16.375  1.00  0.00     0.034 C 
BRANCH  11  12
ATOM     12  C   UNL     1      78.934  -9.706  14.865  1.00  0.00    -0.077 C 
ATOM     13  C   UNL     1      77.776  -9.535  14.186  1.00  0.00    -0.028 C 
ATOM     14  C   UNL     1      80.271  -9.767  14.166  1.00  0.00     0.039 C 
BRANCH  13  15
ATOM     15  C   UNL     1      77.666  -9.424  12.683  1.00  0.00     0.035 C 
BRANCH  15  16
ATOM     16  C   UNL     1      77.243  -8.015  12.255  1.00  0.00     0.079 C 
BRANCH  16  17
ATOM     17  C   UNL     1      78.277  -6.985  12.633  1.00  0.00     0.130 C 
ATOM     18  O   UNL     1      79.375  -7.009  12.100  1.00  0.00    -0.300 OA
ATOM     19  C   UNL     1      77.983  -5.930  13.657  1.00  0.00     0.087 C 
ENDBRANCH  16  17
ENDBRANCH  15  16
ENDBRANCH  13  15
ENDBRANCH  11  12
ENDBRANCH   1  11
TORSDOF 9
ENDMDL
MODEL 5
REMARK VINA RESULT:    -4.816      3.515      9.879
REMARK INTER + INTRA:          -8.305
REMARK INTER:                  -7.668
REMARK INTRA:                  -0.637
REMARK UNBOUND:                -0.955
REMARK SMILES CC(=O)CCC=C(C)CCC=C(C)CCC=C(C)C
REMARK SMILES IDX 10 1 11 2 12 3 13 4 14 5 15 6 16 7 18 8 17 9 19 10 9 11 7 12
REMARK SMILES IDX 6 13 8 14 5 15 4 16 2 17 3 18 1 19
REMARK H PARENT
REMARK Flexibility Score: inf
ROOT
ATOM      1  C   UNL     1      80.625  -9.467  20.459  1.00  0.00     0.032 C 
ENDROOT
BRANCH   1   2
ATOM      2  C   UNL     1      81.769  -8.988  21.321  1.00  0.00    -0.028 C 
ATOM      3  C   UNL     1      81.899  -9.240  22.644  1.00  0.00    -0.077 C 
ATOM      4  C   UNL     1      80.851  -9.998  23.422  1.00  0.00     0.039 C 
BRANCH   3   5
ATOM      5  C   UNL     1      83.120  -8.725  23.377  1.00  0.00     0.034 C 
BRANCH   5   6
ATOM      6  C   UNL     1      83.365  -9.490  24.684  1.00  0.00     0.032 C 
BRANCH   6   7
ATOM      7  C   UNL     1      84.001  -8.605  25.730  1.00  0.00    -0.028 C 
ATOM      8  C   UNL     1      84.437  -7.691  27.968  1.00  0.00     0.039 C 
ATOM      9  C   UNL     1      83.775  -8.695  27.059  1.00  0.00    -0.080 C 
ATOM     10  C   UNL     1      82.882  -9.758  27.651  1.00  0.00     0.039 C 
ENDBRANCH   6   7
ENDBRANCH   5   6
ENDBRANCH   3   5
ENDBRANCH   1   2
BRANCH   1  11
ATOM     11  C   UNL     1      80.987  -9.417  18.970  1.00  0.00     0.034 C 
BRANCH  11  12
ATOM     12  C   UNL     1      79.799  -9.024  18.116  1.00  0.00    -0.077 C 
ATOM     13  C   UNL     1      80.011  -8.382  16.944  1.00  0.00    -0.028 C 
ATOM     14  C   UNL     1      78.413  -9.389  18.590  1.00  0.00     0.039 C 
BRANCH  13  15
ATOM     15  C   UNL     1      78.922  -7.925  16.001  1.00  0.00     0.035 C 
BRANCH  15  16
ATOM     16  C   UNL     1      79.208  -8.363  14.561  1.00  0.00     0.079 C 
BRANCH  16  17
ATOM     17  C   UNL     1      79.491  -7.183  13.667  1.00  0.00     0.130 C 
ATOM     18  O   UNL     1      80.552  -7.124  13.066  1.00  0.00    -0.300 OA
ATOM     19  C   UNL     1      78.494  -6.076  13.504  1.00  0.00     0.087 C 
ENDBRANCH  16  17
ENDBRANCH  15  16
ENDBRANCH  13  15
ENDBRANCH  11  12
ENDBRANCH   1  11
TORSDOF 9
ENDMDL
MODEL 6
REMARK VINA RESULT:    -4.742      3.626     10.457
REMARK INTER + INTRA:          -8.192
REMARK INTER:                  -7.333
REMARK INTRA:                  -0.859
REMARK UNBOUND:                -0.955
REMARK SMILES CC(=O)CCC=C(C)CCC=C(C)CCC=C(C)C
REMARK SMILES IDX 10 1 11 2 12 3 13 4 14 5 15 6 16 7 18 8 17 9 19 10 9 11 7 12
REMARK SMILES IDX 6 13 8 14 5 15 4 16 2 17 3 18 1 19
REMARK H PARENT
REMARK Flexibility Score: inf
ROOT
ATOM      1  C   UNL     1      82.995  -8.729  23.010  1.00  0.00     0.032 C 
ENDROOT
BRANCH   1   2
ATOM      2  C   UNL     1      83.511  -9.318  24.302  1.00  0.00    -0.028 C 
ATOM      3  C   UNL     1      83.544  -8.669  25.489  1.00  0.00    -0.077 C 
ATOM      4  C   UNL     1      83.109  -7.231  25.628  1.00  0.00     0.039 C 
BRANCH   3   5
ATOM      5  C   UNL     1      84.056  -9.398  26.714  1.00  0.00     0.034 C 
BRANCH   5   6
ATOM      6  C   UNL     1      83.549  -8.756  28.012  1.00  0.00     0.032 C 
BRANCH   6   7
ATOM      7  C   UNL     1      84.613  -8.768  29.084  1.00  0.00    -0.028 C 
ATOM      8  C   UNL     1      86.527  -7.952  30.390  1.00  0.00     0.039 C 
ATOM      9  C   UNL     1      85.478  -7.758  29.326  1.00  0.00    -0.080 C 
ATOM     10  C   UNL     1      85.425  -6.456  28.563  1.00  0.00     0.039 C 
ENDBRANCH   6   7
ENDBRANCH   5   6
ENDBRANCH   3   5
ENDBRANCH   1   2
BRANCH   1  11
ATOM     11  C   UNL     1      81.695  -9.409  22.564  1.00  0.00     0.034 C 
BRANCH  11  12
ATOM     12  C   UNL     1      81.669  -9.642  21.067  1.00  0.00    -0.077 C 
ATOM     13  C   UNL     1      80.479  -9.671  20.424  1.00  0.00    -0.028 C 
ATOM     14  C   UNL     1      82.979  -9.806  20.336  1.00  0.00     0.039 C 
BRANCH  13  15
ATOM     15  C   UNL     1      80.306  -9.903  18.941  1.00  0.00     0.035 C 
BRANCH  15  16
ATOM     16  C   UNL     1      79.953  -8.604  18.209  1.00  0.00     0.079 C 
BRANCH  16  17
ATOM     17  C   UNL     1      79.512  -8.866  16.792  1.00  0.00     0.130 C 
ATOM     18  O   UNL     1      78.598  -9.648  16.580  1.00  0.00    -0.300 OA
ATOM     19  C   UNL     1      80.179  -8.187  15.633  1.00  0.00     0.087 C 
ENDBRANCH  16  17
ENDBRANCH  15  16
ENDBRANCH  13  15
ENDBRANCH  11  12
ENDBRANCH   1  11
TORSDOF 9
ENDMDL
MODEL 7
REMARK VINA RESULT:    -4.632      3.587     10.387
REMARK INTER + INTRA:          -8.024
REMARK INTER:                  -7.058
REMARK INTRA:                  -0.966
REMARK UNBOUND:                -0.955
REMARK SMILES CC(=O)CCC=C(C)CCC=C(C)CCC=C(C)C
REMARK SMILES IDX 10 1 11 2 12 3 13 4 14 5 15 6 16 7 18 8 17 9 19 10 9 11 7 12
REMARK SMILES IDX 6 13 8 14 5 15 4 16 2 17 3 18 1 19
REMARK H PARENT
REMARK Flexibility Score: inf
ROOT
ATOM      1  C   UNL     1      82.952  -7.957  24.643  1.00  0.00     0.032 C 
ENDROOT
BRANCH   1   2
ATOM      2  C   UNL     1      83.360  -8.133  26.087  1.00  0.00    -0.028 C 
ATOM      3  C   UNL     1      82.510  -8.412  27.102  1.00  0.00    -0.077 C 
ATOM      4  C   UNL     1      81.020  -8.522  26.892  1.00  0.00     0.039 C 
BRANCH   3   5
ATOM      5  C   UNL     1      83.065  -8.598  28.499  1.00  0.00     0.034 C 
BRANCH   5   6
ATOM      6  C   UNL     1      84.489  -9.168  28.476  1.00  0.00     0.032 C 
BRANCH   6   7
ATOM      7  C   UNL     1      85.322  -8.615  29.608  1.00  0.00    -0.028 C 
ATOM      8  C   UNL     1      86.726  -6.998  30.812  1.00  0.00     0.039 C 
ATOM      9  C   UNL     1      85.861  -7.375  29.638  1.00  0.00    -0.080 C 
ATOM     10  C   UNL     1      85.627  -6.372  28.534  1.00  0.00     0.039 C 
ENDBRANCH   6   7
ENDBRANCH   5   6
ENDBRANCH   3   5
ENDBRANCH   1   2
BRANCH   1  11
ATOM     11  C   UNL     1      83.369  -9.163  23.793  1.00  0.00     0.034 C 
BRANCH  11  12
ATOM     12  C   UNL     1      82.305  -9.531  22.780  1.00  0.00    -0.077 C 
ATOM     13  C   UNL     1      82.611  -9.510  21.462  1.00  0.00    -0.028 C 
ATOM     14  C   UNL     1      80.940  -9.940  23.279  1.00  0.00     0.039 C 
BRANCH  13  15
ATOM     15  C   UNL     1      81.647  -9.844  20.348  1.00  0.00     0.035 C 
BRANCH  15  16
ATOM     16  C   UNL     1      80.777  -8.638  19.979  1.00  0.00     0.079 C 
BRANCH  16  17
ATOM     17  C   UNL     1      79.733  -8.998  18.953  1.00  0.00     0.130 C 
ATOM     18  O   UNL     1      80.009  -8.939  17.766  1.00  0.00    -0.300 OA
ATOM     19  C   UNL     1      78.356  -9.424  19.364  1.00  0.00     0.087 C 
ENDBRANCH  16  17
ENDBRANCH  15  16
ENDBRANCH  13  15
ENDBRANCH  11  12
ENDBRANCH   1  11
TORSDOF 9
ENDMDL
MODEL 8
REMARK VINA RESULT:    -4.611      1.452      2.056
REMARK INTER + INTRA:          -7.992
REMARK INTER:                  -7.183
REMARK INTRA:                  -0.809
REMARK UNBOUND:                -0.955
REMARK SMILES CC(=O)CCC=C(C)CCC=C(C)CCC=C(C)C
REMARK SMILES IDX 10 1 11 2 12 3 13 4 14 5 15 6 16 7 18 8 17 9 19 10 9 11 7 12
REMARK SMILES IDX 6 13 8 14 5 15 4 16 2 17 3 18 1 19
REMARK H PARENT
REMARK Flexibility Score: inf
ROOT
ATOM      1  C   UNL     1      80.330  -8.925  19.472  1.00  0.00     0.032 C 
ENDROOT
BRANCH   1   2
ATOM      2  C   UNL     1      79.297  -9.495  18.530  1.00  0.00    -0.028 C 
ATOM      3  C   UNL     1      79.180  -9.172  17.221  1.00  0.00    -0.077 C 
ATOM      4  C   UNL     1      80.062  -8.135  16.571  1.00  0.00     0.039 C 
BRANCH   3   5
ATOM      5  C   UNL     1      78.116  -9.851  16.385  1.00  0.00     0.034 C 
BRANCH   5   6
ATOM      6  C   UNL     1      78.602 -10.123  14.956  1.00  0.00     0.032 C 
BRANCH   6   7
ATOM      7  C   UNL     1      77.751  -9.401  13.937  1.00  0.00    -0.028 C 
ATOM      8  C   UNL     1      77.251  -7.946  12.022  1.00  0.00     0.039 C 
ATOM      9  C   UNL     1      78.233  -8.661  12.914  1.00  0.00    -0.080 C 
ATOM     10  C   UNL     1      79.713  -8.527  12.647  1.00  0.00     0.039 C 
ENDBRANCH   6   7
ENDBRANCH   5   6
ENDBRANCH   3   5
ENDBRANCH   1   2
BRANCH   1  11
ATOM     11  C   UNL     1      81.085 -10.035  20.213  1.00  0.00     0.034 C 
BRANCH  11  12
ATOM     12  C   UNL     1      82.246  -9.485  21.016  1.00  0.00    -0.077 C 
ATOM     13  C   UNL     1      82.027  -9.042  22.276  1.00  0.00    -0.028 C 
ATOM     14  C   UNL     1      83.620  -9.476  20.391  1.00  0.00     0.039 C 
BRANCH  13  15
ATOM     15  C   UNL     1      83.088  -8.462  23.182  1.00  0.00     0.035 C 
BRANCH  15  16
ATOM     16  C   UNL     1      82.536  -8.185  24.584  1.00  0.00     0.079 C 
BRANCH  16  17
ATOM     17  C   UNL     1      83.566  -8.454  25.651  1.00  0.00     0.130 C 
ATOM     18  O   UNL     1      83.725  -7.646  26.553  1.00  0.00    -0.300 OA
ATOM     19  C   UNL     1      84.405  -9.696  25.625  1.00  0.00     0.087 C 
ENDBRANCH  16  17
ENDBRANCH  15  16
ENDBRANCH  13  15
ENDBRANCH  11  12
ENDBRANCH   1  11
TORSDOF 9
ENDMDL
MODEL 9
REMARK VINA RESULT:    -4.560      4.882     12.039
REMARK INTER + INTRA:          -7.913
REMARK INTER:                  -7.111
REMARK INTRA:                  -0.803
REMARK UNBOUND:                -0.955
REMARK SMILES CC(=O)CCC=C(C)CCC=C(C)CCC=C(C)C
REMARK SMILES IDX 10 1 11 2 12 3 13 4 14 5 15 6 16 7 18 8 17 9 19 10 9 11 7 12
REMARK SMILES IDX 6 13 8 14 5 15 4 16 2 17 3 18 1 19
REMARK H PARENT
REMARK Flexibility Score: inf
ROOT
ATOM      1  C   UNL     1      83.749  -7.147  27.161  1.00  0.00     0.032 C 
ENDROOT
BRANCH   1   2
ATOM      2  C   UNL     1      84.848  -7.761  27.996  1.00  0.00    -0.028 C 
ATOM      3  C   UNL     1      84.716  -8.149  29.285  1.00  0.00    -0.077 C 
ATOM      4  C   UNL     1      83.434  -7.947  30.055  1.00  0.00     0.039 C 
BRANCH   3   5
ATOM      5  C   UNL     1      85.897  -8.784  29.990  1.00  0.00     0.034 C 
BRANCH   5   6
ATOM      6  C   UNL     1      86.235  -8.060  31.299  1.00  0.00     0.032 C 
BRANCH   6   7
ATOM      7  C   UNL     1      87.622  -7.463  31.256  1.00  0.00    -0.028 C 
ATOM      8  C   UNL     1      89.334  -5.700  31.259  1.00  0.00     0.039 C 
ATOM      9  C   UNL     1      87.901  -6.147  31.394  1.00  0.00    -0.080 C 
ATOM     10  C   UNL     1      86.826  -5.123  31.669  1.00  0.00     0.039 C 
ENDBRANCH   6   7
ENDBRANCH   5   6
ENDBRANCH   3   5
ENDBRANCH   1   2
BRANCH   1  11
ATOM     11  C   UNL     1      82.731  -8.204  26.712  1.00  0.00     0.034 C 
BRANCH  11  12
ATOM     12  C   UNL     1      83.095  -8.797  25.367  1.00  0.00    -0.077 C 
ATOM     13  C   UNL     1      82.616  -8.221  24.240  1.00  0.00    -0.028 C 
ATOM     14  C   UNL     1      84.008  -9.998  25.327  1.00  0.00     0.039 C 
BRANCH  13  15
ATOM     15  C   UNL     1      82.891  -8.711  22.837  1.00  0.00     0.035 C 
BRANCH  15  16
ATOM     16  C   UNL     1      81.624  -9.268  22.180  1.00  0.00     0.079 C 
BRANCH  16  17
ATOM     17  C   UNL     1      81.731  -9.271  20.677  1.00  0.00     0.130 C 
ATOM     18  O   UNL     1      82.775  -9.620  20.148  1.00  0.00    -0.300 OA
ATOM     19  C   UNL     1      80.580  -8.847  19.816  1.00  0.00     0.087 C 
ENDBRANCH  16  17
ENDBRANCH  15  16
ENDBRANCH  13  15
ENDBRANCH  11  12
ENDBRANCH   1  11
TORSDOF 9
ENDMDL
