MODEL 1
REMARK VINA RESULT:    -4.550      0.000      0.000
REMARK INTER + INTRA:          -6.762
REMARK INTER:                  -6.146
REMARK INTRA:                  -0.617
REMARK UNBOUND:                -0.617
REMARK SMILES CCCCCCC=CC(=O)[O-]
REMARK SMILES IDX 5 1 6 2 7 3 8 4 9 5 10 6 11 7 4 8 3 9 2 10 1 11
REMARK H PARENT
REMARK Flexibility Score: inf
ROOT
ATOM      1  C   UNL     1      -3.267  29.723  29.273  1.00  0.00     0.004 C 
ENDROOT
BRANCH   1   2
ATOM      2  C   UNL     1      -3.140  29.497  30.788  1.00  0.00     0.027 C 
BRANCH   2   3
ATOM      3  C   UNL     1      -2.809  28.065  31.095  1.00  0.00    -0.025 C 
ATOM      4  C   UNL     1      -1.690  27.493  30.638  1.00  0.00     0.020 C 
BRANCH   4   5
ATOM      5  C   UNL     1      -1.347  26.096  30.942  1.00  0.00     0.064 C 
ATOM      6  O   UNL     1      -2.264  25.245  31.075  1.00  0.00    -0.545 OA
ATOM      7  O   UNL     1      -0.022  25.699  31.083  1.00  0.00    -0.545 OA
ENDBRANCH   4   5
ENDBRANCH   2   3
ENDBRANCH   1   2
BRANCH   1   8
ATOM      8  C   UNL     1      -4.460  28.971  28.661  1.00  0.00     0.000 C 
BRANCH   8   9
ATOM      9  C   UNL     1      -4.180  28.484  27.232  1.00  0.00    -0.000 C 
BRANCH   9  10
ATOM     10  C   UNL     1      -3.336  27.204  27.245  1.00  0.00    -0.003 C 
ATOM     11  C   UNL     1      -1.951  27.451  26.654  1.00  0.00     0.004 C 
ENDBRANCH   9  10
ENDBRANCH   8   9
ENDBRANCH   1   8
TORSDOF 6
ENDMDL
MODEL 2
REMARK VINA RESULT:    -4.383      0.725      1.213
REMARK INTER + INTRA:          -6.537
REMARK INTER:                  -5.946
REMARK INTRA:                  -0.591
REMARK UNBOUND:                -0.617
REMARK SMILES CCCCCCC=CC(=O)[O-]
REMARK SMILES IDX 5 1 6 2 7 3 8 4 9 5 10 6 11 7 4 8 3 9 2 10 1 11
REMARK H PARENT
REMARK Flexibility Score: inf
ROOT
ATOM      1  C   UNL     1      -3.815  29.383  28.825  1.00  0.00     0.004 C 
ENDROOT
BRANCH   1   2
ATOM      2  C   UNL     1      -4.060  28.894  30.260  1.00  0.00     0.027 C 
BRANCH   2   3
ATOM      3  C   UNL     1      -3.427  27.552  30.490  1.00  0.00    -0.025 C 
ATOM      4  C   UNL     1      -2.101  27.412  30.583  1.00  0.00     0.020 C 
BRANCH   4   5
ATOM      5  C   UNL     1      -1.468  26.106  30.820  1.00  0.00     0.064 C 
ATOM      6  O   UNL     1      -0.216  26.000  30.748  1.00  0.00    -0.545 OA
ATOM      7  O   UNL     1      -2.231  24.985  31.125  1.00  0.00    -0.545 OA
ENDBRANCH   4   5
ENDBRANCH   2   3
ENDBRANCH   1   2
BRANCH   1   8
ATOM      8  C   UNL     1      -4.618  28.587  27.783  1.00  0.00     0.000 C 
BRANCH   8   9
ATOM      9  C   UNL     1      -3.787  28.236  26.539  1.00  0.00    -0.000 C 
BRANCH   9  10
ATOM     10  C   UNL     1      -2.753  27.151  26.859  1.00  0.00    -0.003 C 
ATOM     11  C   UNL     1      -1.385  27.506  26.284  1.00  0.00     0.004 C 
ENDBRANCH   9  10
ENDBRANCH   8   9
ENDBRANCH   1   8
TORSDOF 6
ENDMDL
MODEL 3
REMARK VINA RESULT:    -4.125      2.392      3.880
REMARK INTER + INTRA:          -6.188
REMARK INTER:                  -5.561
REMARK INTRA:                  -0.627
REMARK UNBOUND:                -0.617
REMARK SMILES CCCCCCC=CC(=O)[O-]
REMARK SMILES IDX 5 1 6 2 7 3 8 4 9 5 10 6 11 7 4 8 3 9 2 10 1 11
REMARK H PARENT
REMARK Flexibility Score: inf
ROOT
ATOM      1  C   UNL     1      -3.585  29.115  30.309  1.00  0.00     0.004 C 
ENDROOT
BRANCH   1   2
ATOM      2  C   UNL     1      -4.365  29.343  29.005  1.00  0.00     0.027 C 
BRANCH   2   3
ATOM      3  C   UNL     1      -3.812  28.505  27.889  1.00  0.00    -0.025 C 
ATOM      4  C   UNL     1      -2.495  28.348  27.721  1.00  0.00     0.020 C 
BRANCH   4   5
ATOM      5  C   UNL     1      -1.939  27.519  26.641  1.00  0.00     0.064 C 
ATOM      6  O   UNL     1      -2.686  27.139  25.702  1.00  0.00    -0.545 OA
ATOM      7  O   UNL     1      -0.599  27.148  26.640  1.00  0.00    -0.545 OA
ENDBRANCH   4   5
ENDBRANCH   2   3
ENDBRANCH   1   2
BRANCH   1   8
ATOM      8  C   UNL     1      -4.127  27.929  31.123  1.00  0.00     0.000 C 
BRANCH   8   9
ATOM      9  C   UNL     1      -3.198  26.706  31.076  1.00  0.00    -0.000 C 
BRANCH   9  10
ATOM     10  C   UNL     1      -1.727  27.136  31.086  1.00  0.00    -0.003 C 
ATOM     11  C   UNL     1      -0.821  26.013  30.589  1.00  0.00     0.004 C 
ENDBRANCH   9  10
ENDBRANCH   8   9
ENDBRANCH   1   8
TORSDOF 6
ENDMDL
MODEL 4
REMARK VINA RESULT:    -3.838      2.717      4.302
REMARK INTER + INTRA:          -5.801
REMARK INTER:                  -5.197
REMARK INTRA:                  -0.605
REMARK UNBOUND:                -0.617
REMARK SMILES CCCCCCC=CC(=O)[O-]
REMARK SMILES IDX 5 1 6 2 7 3 8 4 9 5 10 6 11 7 4 8 3 9 2 10 1 11
REMARK H PARENT
REMARK Flexibility Score: inf
ROOT
ATOM      1  C   UNL     1      -2.789  26.404  30.252  1.00  0.00     0.004 C 
ENDROOT
BRANCH   1   2
ATOM      2  C   UNL     1      -3.926  26.382  29.219  1.00  0.00     0.027 C 
BRANCH   2   3
ATOM      3  C   UNL     1      -3.399  26.593  27.830  1.00  0.00    -0.025 C 
ATOM      4  C   UNL     1      -2.273  27.279  27.607  1.00  0.00     0.020 C 
BRANCH   4   5
ATOM      5  C   UNL     1      -1.738  27.482  26.252  1.00  0.00     0.064 C 
ATOM      6  O   UNL     1      -2.513  27.427  25.263  1.00  0.00    -0.545 OA
ATOM      7  O   UNL     1      -0.386  27.735  26.047  1.00  0.00    -0.545 OA
ENDBRANCH   4   5
ENDBRANCH   2   3
ENDBRANCH   1   2
BRANCH   1   8
ATOM      8  C   UNL     1      -2.770  27.697  31.084  1.00  0.00     0.000 C 
BRANCH   8   9
ATOM      9  C   UNL     1      -4.139  28.393  31.125  1.00  0.00    -0.000 C 
BRANCH   9  10
ATOM     10  C   UNL     1      -4.006  29.882  30.786  1.00  0.00    -0.003 C 
ATOM     11  C   UNL     1      -2.862  30.125  29.806  1.00  0.00     0.004 C 
ENDBRANCH   9  10
ENDBRANCH   8   9
ENDBRANCH   1   8
TORSDOF 6
ENDMDL
MODEL 5
REMARK VINA RESULT:    -3.149      2.281      3.955
REMARK INTER + INTRA:          -4.870
REMARK INTER:                  -4.120
REMARK INTRA:                  -0.751
REMARK UNBOUND:                -0.617
REMARK SMILES CCCCCCC=CC(=O)[O-]
REMARK SMILES IDX 5 1 6 2 7 3 8 4 9 5 10 6 11 7 4 8 3 9 2 10 1 11
REMARK H PARENT
REMARK Flexibility Score: inf
ROOT
ATOM      1  C   UNL     1      -4.302  29.226  28.529  1.00  0.00     0.004 C 
ENDROOT
BRANCH   1   2
ATOM      2  C   UNL     1      -4.567  28.302  27.331  1.00  0.00     0.027 C 
BRANCH   2   3
ATOM      3  C   UNL     1      -3.320  27.569  26.927  1.00  0.00    -0.025 C 
ATOM      4  C   UNL     1      -2.128  28.175  26.913  1.00  0.00     0.020 C 
BRANCH   4   5
ATOM      5  C   UNL     1      -0.897  27.466  26.532  1.00  0.00     0.064 C 
ATOM      6  O   UNL     1      -0.351  27.718  25.427  1.00  0.00    -0.545 OA
ATOM      7  O   UNL     1      -0.324  26.522  27.376  1.00  0.00    -0.545 OA
ENDBRANCH   4   5
ENDBRANCH   2   3
ENDBRANCH   1   2
BRANCH   1   8
ATOM      8  C   UNL     1      -4.133  28.452  29.847  1.00  0.00     0.000 C 
BRANCH   8   9
ATOM      9  C   UNL     1      -2.847  28.834  30.595  1.00  0.00    -0.000 C 
BRANCH   9  10
ATOM     10  C   UNL     1      -1.864  27.658  30.629  1.00  0.00    -0.003 C 
ATOM     11  C   UNL     1      -2.586  26.329  30.425  1.00  0.00     0.004 C 
ENDBRANCH   9  10
ENDBRANCH   8   9
ENDBRANCH   1   8
TORSDOF 6
ENDMDL
MODEL 6
REMARK VINA RESULT:    -2.601      0.951      2.817
REMARK INTER + INTRA:          -4.130
REMARK INTER:                  -3.538
REMARK INTRA:                  -0.592
REMARK UNBOUND:                -0.617
REMARK SMILES CCCCCCC=CC(=O)[O-]
REMARK SMILES IDX 5 1 6 2 7 3 8 4 9 5 10 6 11 7 4 8 3 9 2 10 1 11
REMARK H PARENT
REMARK Flexibility Score: inf
ROOT
ATOM      1  C   UNL     1      -3.482  28.503  27.334  1.00  0.00     0.004 C 
ENDROOT
BRANCH   1   2
ATOM      2  C   UNL     1      -3.178  26.999  27.247  1.00  0.00     0.027 C 
BRANCH   2   3
ATOM      3  C   UNL     1      -2.916  26.421  28.607  1.00  0.00    -0.025 C 
ATOM      4  C   UNL     1      -1.700  26.468  29.162  1.00  0.00     0.020 C 
BRANCH   4   5
ATOM      5  C   UNL     1      -1.431  25.917  30.499  1.00  0.00     0.064 C 
ATOM      6  O   UNL     1      -2.336  25.289  31.107  1.00  0.00    -0.545 OA
ATOM      7  O   UNL     1      -0.189  26.079  31.104  1.00  0.00    -0.545 OA
ENDBRANCH   4   5
ENDBRANCH   2   3
ENDBRANCH   1   2
BRANCH   1   8
ATOM      8  C   UNL     1      -4.416  28.851  28.504  1.00  0.00     0.000 C 
BRANCH   8   9
ATOM      9  C   UNL     1      -3.817  29.908  29.443  1.00  0.00    -0.000 C 
BRANCH   9  10
ATOM     10  C   UNL     1      -3.484  29.300  30.811  1.00  0.00    -0.003 C 
ATOM     11  C   UNL     1      -4.396  28.117  31.125  1.00  0.00     0.004 C 
ENDBRANCH   9  10
ENDBRANCH   8   9
ENDBRANCH   1   8
TORSDOF 6
ENDMDL
MODEL 7
REMARK VINA RESULT:    -2.126     22.442     23.504
REMARK INTER + INTRA:          -3.488
REMARK INTER:                  -3.064
REMARK INTRA:                  -0.424
REMARK UNBOUND:                -0.617
REMARK SMILES CCCCCCC=CC(=O)[O-]
REMARK SMILES IDX 5 1 6 2 7 3 8 4 9 5 10 6 11 7 4 8 3 9 2 10 1 11
REMARK H PARENT
REMARK Flexibility Score: inf
ROOT
ATOM      1  C   UNL     1      11.179  10.236  24.317  1.00  0.00     0.004 C 
ENDROOT
BRANCH   1   2
ATOM      2  C   UNL     1      10.700  10.118  25.772  1.00  0.00     0.027 C 
BRANCH   2   3
ATOM      3  C   UNL     1      11.862  10.065  26.722  1.00  0.00    -0.025 C 
ATOM      4  C   UNL     1      12.091  11.046  27.601  1.00  0.00     0.020 C 
BRANCH   4   5
ATOM      5  C   UNL     1      13.217  11.001  28.546  1.00  0.00     0.064 C 
ATOM      6  O   UNL     1      13.028  10.586  29.718  1.00  0.00    -0.545 OA
ATOM      7  O   UNL     1      14.490  11.410  28.163  1.00  0.00    -0.545 OA
ENDBRANCH   4   5
ENDBRANCH   2   3
ENDBRANCH   1   2
BRANCH   1   8
ATOM      8  C   UNL     1      12.665   9.875  24.152  1.00  0.00     0.000 C 
BRANCH   8   9
ATOM      9  C   UNL     1      13.203  10.215  22.754  1.00  0.00    -0.000 C 
BRANCH   9  10
ATOM     10  C   UNL     1      14.667  10.664  22.826  1.00  0.00    -0.003 C 
ATOM     11  C   UNL     1      15.115  10.856  24.272  1.00  0.00     0.004 C 
ENDBRANCH   9  10
ENDBRANCH   8   9
ENDBRANCH   1   8
TORSDOF 6
ENDMDL
