MODEL 1
REMARK VINA RESULT:    -3.161      0.000      0.000
REMARK INTER + INTRA:          -3.831
REMARK INTER:                  -3.716
REMARK INTRA:                  -0.116
REMARK UNBOUND:                -0.116
REMARK SMILES O=C([O-])CCC(=O)[O-]
REMARK SMILES IDX 4 1 2 2 1 3 3 4 5 5 6 6 7 7 8 8
REMARK H PARENT
REMARK Flexibility Score: inf
ROOT
ATOM      1  C   UNL     1     -15.415  -6.890 -30.933  1.00  0.00     0.059 C 
ENDROOT
BRANCH   1   2
ATOM      2  C   UNL     1     -14.288  -7.655 -30.316  1.00  0.00     0.042 C 
ATOM      3  O   UNL     1     -13.339  -7.046 -29.756  1.00  0.00    -0.550 OA
ATOM      4  O   UNL     1     -14.309  -9.045 -30.314  1.00  0.00    -0.550 OA
ENDBRANCH   1   2
BRANCH   1   5
ATOM      5  C   UNL     1     -15.210  -5.386 -30.739  1.00  0.00     0.059 C 
BRANCH   5   6
ATOM      6  C   UNL     1     -14.887  -4.730 -32.043  1.00  0.00     0.042 C 
ATOM      7  O   UNL     1     -13.691  -4.634 -32.426  1.00  0.00    -0.550 OA
ATOM      8  O   UNL     1     -15.903  -4.178 -32.815  1.00  0.00    -0.550 OA
ENDBRANCH   5   6
ENDBRANCH   1   5
TORSDOF 3
ENDMDL
MODEL 2
REMARK VINA RESULT:    -3.147      0.088      3.901
REMARK INTER + INTRA:          -3.815
REMARK INTER:                  -3.702
REMARK INTRA:                  -0.113
REMARK UNBOUND:                -0.116
REMARK SMILES O=C([O-])CCC(=O)[O-]
REMARK SMILES IDX 4 1 2 2 1 3 3 4 5 5 6 6 7 7 8 8
REMARK H PARENT
REMARK Flexibility Score: inf
ROOT
ATOM      1  C   UNL     1     -15.256  -5.350 -30.767  1.00  0.00     0.059 C 
ENDROOT
BRANCH   1   2
ATOM      2  C   UNL     1     -14.942  -4.715 -32.084  1.00  0.00     0.042 C 
ATOM      3  O   UNL     1     -15.871  -4.289 -32.820  1.00  0.00    -0.550 OA
ATOM      4  O   UNL     1     -13.620  -4.549 -32.479  1.00  0.00    -0.550 OA
ENDBRANCH   1   2
BRANCH   1   5
ATOM      5  C   UNL     1     -15.439  -6.860 -30.931  1.00  0.00     0.059 C 
BRANCH   5   6
ATOM      6  C   UNL     1     -14.303  -7.597 -30.296  1.00  0.00     0.042 C 
ATOM      7  O   UNL     1     -13.320  -6.964 -29.828  1.00  0.00    -0.550 OA
ATOM      8  O   UNL     1     -14.305  -8.986 -30.265  1.00  0.00    -0.550 OA
ENDBRANCH   5   6
ENDBRANCH   1   5
TORSDOF 3
ENDMDL
MODEL 3
REMARK VINA RESULT:    -3.089      2.505      5.269
REMARK INTER + INTRA:          -3.747
REMARK INTER:                  -3.702
REMARK INTRA:                  -0.045
REMARK UNBOUND:                -0.116
REMARK SMILES O=C([O-])CCC(=O)[O-]
REMARK SMILES IDX 4 1 2 2 1 3 3 4 5 5 6 6 7 7 8 8
REMARK H PARENT
REMARK Flexibility Score: inf
ROOT
ATOM      1  C   UNL     1     -14.638  -3.136 -33.614  1.00  0.00     0.059 C 
ENDROOT
BRANCH   1   2
ATOM      2  C   UNL     1     -15.089  -1.748 -33.936  1.00  0.00     0.042 C 
ATOM      3  O   UNL     1     -15.061  -1.331 -35.124  1.00  0.00    -0.550 OA
ATOM      4  O   UNL     1     -15.589  -0.927 -32.931  1.00  0.00    -0.550 OA
ENDBRANCH   1   2
BRANCH   1   5
ATOM      5  C   UNL     1     -15.732  -3.893 -32.857  1.00  0.00     0.059 C 
BRANCH   5   6
ATOM      6  C   UNL     1     -15.138  -5.005 -32.053  1.00  0.00     0.042 C 
ATOM      7  O   UNL     1     -13.915  -4.988 -31.754  1.00  0.00    -0.550 OA
ATOM      8  O   UNL     1     -15.925  -6.087 -31.674  1.00  0.00    -0.550 OA
ENDBRANCH   5   6
ENDBRANCH   1   5
TORSDOF 3
ENDMDL
MODEL 4
REMARK VINA RESULT:    -3.083     25.944     26.600
REMARK INTER + INTRA:          -3.739
REMARK INTER:                  -3.581
REMARK INTRA:                  -0.158
REMARK UNBOUND:                -0.116
REMARK SMILES O=C([O-])CCC(=O)[O-]
REMARK SMILES IDX 4 1 2 2 1 3 3 4 5 5 6 6 7 7 8 8
REMARK H PARENT
REMARK Flexibility Score: inf
ROOT
ATOM      1  C   UNL     1       1.807   7.815 -15.317  1.00  0.00     0.059 C 
ENDROOT
BRANCH   1   2
ATOM      2  C   UNL     1       1.036   7.324 -16.500  1.00  0.00     0.042 C 
ATOM      3  O   UNL     1       1.624   6.712 -17.431  1.00  0.00    -0.550 OA
ATOM      4  O   UNL     1      -0.342   7.498 -16.554  1.00  0.00    -0.550 OA
ENDBRANCH   1   2
BRANCH   1   5
ATOM      5  C   UNL     1       1.340   9.216 -14.917  1.00  0.00     0.059 C 
BRANCH   5   6
ATOM      6  C   UNL     1       1.725  10.214 -15.961  1.00  0.00     0.042 C 
ATOM      7  O   UNL     1       2.930  10.342 -16.301  1.00  0.00    -0.550 OA
ATOM      8  O   UNL     1       0.759  11.040 -16.524  1.00  0.00    -0.550 OA
ENDBRANCH   5   6
ENDBRANCH   1   5
TORSDOF 3
ENDMDL
MODEL 5
REMARK VINA RESULT:    -3.072      2.534      3.770
REMARK INTER + INTRA:          -3.727
REMARK INTER:                  -3.685
REMARK INTRA:                  -0.041
REMARK UNBOUND:                -0.116
REMARK SMILES O=C([O-])CCC(=O)[O-]
REMARK SMILES IDX 4 1 2 2 1 3 3 4 5 5 6 6 7 7 8 8
REMARK H PARENT
REMARK Flexibility Score: inf
ROOT
ATOM      1  C   UNL     1     -15.746  -3.827 -32.886  1.00  0.00     0.059 C 
ENDROOT
BRANCH   1   2
ATOM      2  C   UNL     1     -15.184  -4.969 -32.101  1.00  0.00     0.042 C 
ATOM      3  O   UNL     1     -15.926  -5.925 -31.752  1.00  0.00    -0.550 OA
ATOM      4  O   UNL     1     -13.829  -5.004 -31.796  1.00  0.00    -0.550 OA
ENDBRANCH   1   2
BRANCH   1   5
ATOM      5  C   UNL     1     -14.633  -3.099 -33.643  1.00  0.00     0.059 C 
BRANCH   5   6
ATOM      6  C   UNL     1     -15.041  -1.693 -33.947  1.00  0.00     0.042 C 
ATOM      7  O   UNL     1     -14.969  -1.253 -35.125  1.00  0.00    -0.550 OA
ATOM      8  O   UNL     1     -15.454  -0.851 -32.922  1.00  0.00    -0.550 OA
ENDBRANCH   5   6
ENDBRANCH   1   5
TORSDOF 3
ENDMDL
MODEL 6
REMARK VINA RESULT:    -3.069     25.988     26.784
REMARK INTER + INTRA:          -3.723
REMARK INTER:                  -3.554
REMARK INTRA:                  -0.169
REMARK UNBOUND:                -0.116
REMARK SMILES O=C([O-])CCC(=O)[O-]
REMARK SMILES IDX 4 1 2 2 1 3 3 4 5 5 6 6 7 7 8 8
REMARK H PARENT
REMARK Flexibility Score: inf
ROOT
ATOM      1  C   UNL     1       1.341   9.222 -14.885  1.00  0.00     0.059 C 
ENDROOT
BRANCH   1   2
ATOM      2  C   UNL     1       1.702  10.214 -15.943  1.00  0.00     0.042 C 
ATOM      3  O   UNL     1       0.831  11.002 -16.397  1.00  0.00    -0.550 OA
ATOM      4  O   UNL     1       3.014  10.304 -16.394  1.00  0.00    -0.550 OA
ENDBRANCH   1   2
BRANCH   1   5
ATOM      5  C   UNL     1       1.821   7.822 -15.277  1.00  0.00     0.059 C 
BRANCH   5   6
ATOM      6  C   UNL     1       1.131   7.362 -16.521  1.00  0.00     0.042 C 
ATOM      7  O   UNL     1       1.803   6.956 -17.505  1.00  0.00    -0.550 OA
ATOM      8  O   UNL     1      -0.254   7.428 -16.613  1.00  0.00    -0.550 OA
ENDBRANCH   5   6
ENDBRANCH   1   5
TORSDOF 3
ENDMDL
MODEL 7
REMARK VINA RESULT:    -2.998     26.375     27.013
REMARK INTER + INTRA:          -3.640
REMARK INTER:                  -3.481
REMARK INTRA:                  -0.159
REMARK UNBOUND:                -0.116
REMARK SMILES O=C([O-])CCC(=O)[O-]
REMARK SMILES IDX 4 1 2 2 1 3 3 4 5 5 6 6 7 7 8 8
REMARK H PARENT
REMARK Flexibility Score: inf
ROOT
ATOM      1  C   UNL     1       1.300   9.823 -15.704  1.00  0.00     0.059 C 
ENDROOT
BRANCH   1   2
ATOM      2  C   UNL     1       1.289   8.328 -15.731  1.00  0.00     0.042 C 
ATOM      3  O   UNL     1       1.951   7.674 -14.883  1.00  0.00    -0.550 OA
ATOM      4  O   UNL     1       0.507   7.655 -16.662  1.00  0.00    -0.550 OA
ENDBRANCH   1   2
BRANCH   1   5
ATOM      5  C   UNL     1       2.661  10.356 -16.159  1.00  0.00     0.059 C 
BRANCH   5   6
ATOM      6  C   UNL     1       2.824  10.184 -17.635  1.00  0.00     0.042 C 
ATOM      7  O   UNL     1       3.939   9.852 -18.115  1.00  0.00    -0.550 OA
ATOM      8  O   UNL     1       1.755  10.437 -18.487  1.00  0.00    -0.550 OA
ENDBRANCH   5   6
ENDBRANCH   1   5
TORSDOF 3
ENDMDL
MODEL 8
REMARK VINA RESULT:    -2.984      1.718      2.234
REMARK INTER + INTRA:          -3.623
REMARK INTER:                  -3.511
REMARK INTRA:                  -0.111
REMARK UNBOUND:                -0.116
REMARK SMILES O=C([O-])CCC(=O)[O-]
REMARK SMILES IDX 4 1 2 2 1 3 3 4 5 5 6 6 7 7 8 8
REMARK H PARENT
REMARK Flexibility Score: inf
ROOT
ATOM      1  C   UNL     1     -16.125  -5.433 -32.060  1.00  0.00     0.059 C 
ENDROOT
BRANCH   1   2
ATOM      2  C   UNL     1     -15.334  -6.019 -30.934  1.00  0.00     0.042 C 
ATOM      3  O   UNL     1     -14.569  -5.289 -30.250  1.00  0.00    -0.550 OA
ATOM      4  O   UNL     1     -15.480  -7.362 -30.606  1.00  0.00    -0.550 OA
ENDBRANCH   1   2
BRANCH   1   5
ATOM      5  C   UNL     1     -16.125  -3.904 -31.975  1.00  0.00     0.059 C 
BRANCH   5   6
ATOM      6  C   UNL     1     -15.341  -3.318 -33.106  1.00  0.00     0.042 C 
ATOM      7  O   UNL     1     -15.732  -2.262 -33.668  1.00  0.00    -0.550 OA
ATOM      8  O   UNL     1     -14.203  -3.966 -33.573  1.00  0.00    -0.550 OA
ENDBRANCH   5   6
ENDBRANCH   1   5
TORSDOF 3
ENDMDL
MODEL 9
REMARK VINA RESULT:    -2.938     26.155     26.983
REMARK INTER + INTRA:          -3.569
REMARK INTER:                  -3.399
REMARK INTRA:                  -0.170
REMARK UNBOUND:                -0.116
REMARK SMILES O=C([O-])CCC(=O)[O-]
REMARK SMILES IDX 4 1 2 2 1 3 3 4 5 5 6 6 7 7 8 8
REMARK H PARENT
REMARK Flexibility Score: inf
ROOT
ATOM      1  C   UNL     1       1.727  10.496 -16.056  1.00  0.00     0.059 C 
ENDROOT
BRANCH   1   2
ATOM      2  C   UNL     1       2.325  10.327 -17.416  1.00  0.00     0.042 C 
ATOM      3  O   UNL     1       3.543  10.034 -17.541  1.00  0.00    -0.550 OA
ATOM      4  O   UNL     1       1.525  10.442 -18.547  1.00  0.00    -0.550 OA
ENDBRANCH   1   2
BRANCH   1   5
ATOM      5  C   UNL     1       1.856   9.202 -15.249  1.00  0.00     0.059 C 
BRANCH   5   6
ATOM      6  C   UNL     1       1.060   8.108 -15.886  1.00  0.00     0.042 C 
ATOM      7  O   UNL     1      -0.197   8.112 -15.811  1.00  0.00    -0.550 OA
ATOM      8  O   UNL     1       1.708   7.055 -16.521  1.00  0.00    -0.550 OA
ENDBRANCH   5   6
ENDBRANCH   1   5
TORSDOF 3
ENDMDL
