MODEL 1
REMARK VINA RESULT:    -2.783      0.000      0.000
REMARK INTER + INTRA:          -3.576
REMARK INTER:                  -3.352
REMARK INTRA:                  -0.223
REMARK UNBOUND:                -0.223
REMARK SMILES OCC(O)CO
REMARK SMILES IDX 3 1 5 2 6 3 2 5 1 6 4 8
REMARK H PARENT 6 4 1 7 4 9
REMARK Flexibility Score: inf
ROOT
ATOM      1  C   UNL     1     145.728 144.665 126.068  1.00  0.00     0.165 C 
ENDROOT
BRANCH   1   2
ATOM      2  C   UNL     1     145.104 144.631 124.666  1.00  0.00     0.190 C 
BRANCH   2   3
ATOM      3  O   UNL     1     146.084 144.428 123.684  1.00  0.00    -0.394 OA
ATOM      4  H   UNL     1     145.675 144.680 122.815  1.00  0.00     0.210 HD
ENDBRANCH   2   3
ENDBRANCH   1   2
BRANCH   1   5
ATOM      5  C   UNL     1     147.125 145.306 126.036  1.00  0.00     0.190 C 
BRANCH   5   6
ATOM      6  O   UNL     1     147.064 146.583 125.458  1.00  0.00    -0.394 OA
ATOM      7  H   UNL     1     146.104 146.782 125.301  1.00  0.00     0.210 HD
ENDBRANCH   5   6
ENDBRANCH   1   5
BRANCH   1   8
ATOM      8  O   UNL     1     145.817 143.349 126.550  1.00  0.00    -0.388 OA
ATOM      9  H   UNL     1     145.922 142.757 125.760  1.00  0.00     0.211 HD
ENDBRANCH   1   8
TORSDOF 5
ENDMDL
MODEL 2
REMARK VINA RESULT:    -2.682      1.456      2.432
REMARK INTER + INTRA:          -3.454
REMARK INTER:                  -3.245
REMARK INTRA:                  -0.209
REMARK UNBOUND:                -0.223
REMARK SMILES OCC(O)CO
REMARK SMILES IDX 3 1 5 2 6 3 2 5 1 6 4 8
REMARK H PARENT 6 4 1 7 4 9
REMARK Flexibility Score: inf
ROOT
ATOM      1  C   UNL     1     146.088 145.769 126.759  1.00  0.00     0.165 C 
ENDROOT
BRANCH   1   2
ATOM      2  C   UNL     1     145.257 144.589 127.281  1.00  0.00     0.190 C 
BRANCH   2   3
ATOM      3  O   UNL     1     145.755 143.369 126.798  1.00  0.00    -0.394 OA
ATOM      4  H   UNL     1     145.370 143.242 125.893  1.00  0.00     0.210 HD
ENDBRANCH   2   3
ENDBRANCH   1   2
BRANCH   1   5
ATOM      5  C   UNL     1     147.125 145.300 125.725  1.00  0.00     0.190 C 
BRANCH   5   6
ATOM      6  O   UNL     1     146.487 144.870 124.552  1.00  0.00    -0.394 OA
ATOM      7  H   UNL     1     147.104 144.235 124.105  1.00  0.00     0.210 HD
ENDBRANCH   5   6
ENDBRANCH   1   5
BRANCH   1   8
ATOM      8  O   UNL     1     146.738 146.374 127.847  1.00  0.00    -0.388 OA
ATOM      9  H   UNL     1     147.551 145.836 128.035  1.00  0.00     0.211 HD
ENDBRANCH   1   8
TORSDOF 5
ENDMDL
MODEL 3
REMARK VINA RESULT:    -2.673     17.808     18.781
REMARK INTER + INTRA:          -3.443
REMARK INTER:                  -3.429
REMARK INTRA:                  -0.013
REMARK UNBOUND:                -0.223
REMARK SMILES OCC(O)CO
REMARK SMILES IDX 3 1 5 2 6 3 2 5 1 6 4 8
REMARK H PARENT 6 4 1 7 4 9
REMARK Flexibility Score: inf
ROOT
ATOM      1  C   UNL     1     146.388 129.357 135.045  1.00  0.00     0.165 C 
ENDROOT
BRANCH   1   2
ATOM      2  C   UNL     1     145.942 129.506 133.584  1.00  0.00     0.190 C 
BRANCH   2   3
ATOM      3  O   UNL     1     146.155 128.317 132.869  1.00  0.00    -0.394 OA
ATOM      4  H   UNL     1     147.079 128.020 133.077  1.00  0.00     0.210 HD
ENDBRANCH   2   3
ENDBRANCH   1   2
BRANCH   1   5
ATOM      5  C   UNL     1     147.125 128.025 135.266  1.00  0.00     0.190 C 
BRANCH   5   6
ATOM      6  O   UNL     1     147.067 127.652 136.616  1.00  0.00    -0.394 OA
ATOM      7  H   UNL     1     148.004 127.551 136.927  1.00  0.00     0.210 HD
ENDBRANCH   5   6
ENDBRANCH   1   5
BRANCH   1   8
ATOM      8  O   UNL     1     145.251 129.416 135.868  1.00  0.00    -0.388 OA
ATOM      9  H   UNL     1     144.637 130.085 135.467  1.00  0.00     0.211 HD
ENDBRANCH   1   8
TORSDOF 5
ENDMDL
MODEL 4
REMARK VINA RESULT:    -2.629     16.701     17.824
REMARK INTER + INTRA:          -3.391
REMARK INTER:                  -3.169
REMARK INTRA:                  -0.222
REMARK UNBOUND:                -0.223
REMARK SMILES OCC(O)CO
REMARK SMILES IDX 3 1 5 2 6 3 2 5 1 6 4 8
REMARK H PARENT 6 4 1 7 4 9
REMARK Flexibility Score: inf
ROOT
ATOM      1  C   UNL     1     146.450 129.394 133.676  1.00  0.00     0.165 C 
ENDROOT
BRANCH   1   2
ATOM      2  C   UNL     1     146.433 128.939 135.142  1.00  0.00     0.190 C 
BRANCH   2   3
ATOM      3  O   UNL     1     145.319 129.458 135.818  1.00  0.00    -0.394 OA
ATOM      4  H   UNL     1     144.555 128.860 135.610  1.00  0.00     0.210 HD
ENDBRANCH   2   3
ENDBRANCH   1   2
BRANCH   1   5
ATOM      5  C   UNL     1     145.437 130.525 133.437  1.00  0.00     0.190 C 
BRANCH   5   6
ATOM      6  O   UNL     1     144.179 129.994 133.114  1.00  0.00    -0.394 OA
ATOM      7  H   UNL     1     143.531 130.745 133.157  1.00  0.00     0.210 HD
ENDBRANCH   5   6
ENDBRANCH   1   5
BRANCH   1   8
ATOM      8  O   UNL     1     146.139 128.293 132.862  1.00  0.00    -0.388 OA
ATOM      9  H   UNL     1     146.084 127.499 133.456  1.00  0.00     0.211 HD
ENDBRANCH   1   8
TORSDOF 5
ENDMDL
MODEL 5
REMARK VINA RESULT:    -2.614     24.257     25.174
REMARK INTER + INTRA:          -3.372
REMARK INTER:                  -3.170
REMARK INTRA:                  -0.203
REMARK UNBOUND:                -0.223
REMARK SMILES OCC(O)CO
REMARK SMILES IDX 3 1 5 2 6 3 2 5 1 6 4 8
REMARK H PARENT 6 4 1 7 4 9
REMARK Flexibility Score: inf
ROOT
ATOM      1  C   UNL     1     128.717 131.571 136.506  1.00  0.00     0.165 C 
ENDROOT
BRANCH   1   2
ATOM      2  C   UNL     1     127.620 130.498 136.538  1.00  0.00     0.190 C 
BRANCH   2   3
ATOM      3  O   UNL     1     127.411 130.031 137.845  1.00  0.00    -0.394 OA
ATOM      4  H   UNL     1     128.190 129.459 138.071  1.00  0.00     0.210 HD
ENDBRANCH   2   3
ENDBRANCH   1   2
BRANCH   1   5
ATOM      5  C   UNL     1     130.070 130.965 136.099  1.00  0.00     0.190 C 
BRANCH   5   6
ATOM      6  O   UNL     1     130.328 129.802 136.839  1.00  0.00    -0.394 OA
ATOM      7  H   UNL     1     130.809 130.084 137.660  1.00  0.00     0.210 HD
ENDBRANCH   5   6
ENDBRANCH   1   5
BRANCH   1   8
ATOM      8  O   UNL     1     128.816 132.148 137.782  1.00  0.00    -0.388 OA
ATOM      9  H   UNL     1     128.116 132.850 137.838  1.00  0.00     0.211 HD
ENDBRANCH   1   8
TORSDOF 5
ENDMDL
MODEL 6
REMARK VINA RESULT:    -2.610     17.835     18.654
REMARK INTER + INTRA:          -3.368
REMARK INTER:                  -3.153
REMARK INTRA:                  -0.215
REMARK UNBOUND:                -0.223
REMARK SMILES OCC(O)CO
REMARK SMILES IDX 3 1 5 2 6 3 2 5 1 6 4 8
REMARK H PARENT 6 4 1 7 4 9
REMARK Flexibility Score: inf
ROOT
ATOM      1  C   UNL     1     146.413 129.223 133.942  1.00  0.00     0.165 C 
ENDROOT
BRANCH   1   2
ATOM      2  C   UNL     1     147.125 128.367 134.998  1.00  0.00     0.190 C 
BRANCH   2   3
ATOM      3  O   UNL     1     146.425 127.175 135.236  1.00  0.00    -0.394 OA
ATOM      4  H   UNL     1     146.783 126.797 136.081  1.00  0.00     0.210 HD
ENDBRANCH   2   3
ENDBRANCH   1   2
BRANCH   1   5
ATOM      5  C   UNL     1     145.179 129.922 134.537  1.00  0.00     0.190 C 
BRANCH   5   6
ATOM      6  O   UNL     1     144.987 129.526 135.868  1.00  0.00    -0.394 OA
ATOM      7  H   UNL     1     144.966 130.354 136.415  1.00  0.00     0.210 HD
ENDBRANCH   5   6
ENDBRANCH   1   5
BRANCH   1   8
ATOM      8  O   UNL     1     146.023 128.391 132.880  1.00  0.00    -0.388 OA
ATOM      9  H   UNL     1     146.788 127.786 132.690  1.00  0.00     0.211 HD
ENDBRANCH   1   8
TORSDOF 5
ENDMDL
MODEL 7
REMARK VINA RESULT:    -2.598      1.487      2.189
REMARK INTER + INTRA:          -3.353
REMARK INTER:                  -3.143
REMARK INTRA:                  -0.209
REMARK UNBOUND:                -0.223
REMARK SMILES OCC(O)CO
REMARK SMILES IDX 3 1 5 2 6 3 2 5 1 6 4 8
REMARK H PARENT 6 4 1 7 4 9
REMARK Flexibility Score: inf
ROOT
ATOM      1  C   UNL     1     145.843 144.828 126.547  1.00  0.00     0.165 C 
ENDROOT
BRANCH   1   2
ATOM      2  C   UNL     1     147.125 145.357 125.890  1.00  0.00     0.190 C 
BRANCH   2   3
ATOM      3  O   UNL     1     146.946 146.667 125.419  1.00  0.00    -0.394 OA
ATOM      4  H   UNL     1     147.691 146.848 124.789  1.00  0.00     0.210 HD
ENDBRANCH   2   3
ENDBRANCH   1   2
BRANCH   1   5
ATOM      5  C   UNL     1     145.604 145.497 127.911  1.00  0.00     0.190 C 
BRANCH   5   6
ATOM      6  O   UNL     1     146.624 146.419 128.189  1.00  0.00    -0.394 OA
ATOM      7  H   UNL     1     147.456 146.058 127.784  1.00  0.00     0.210 HD
ENDBRANCH   5   6
ENDBRANCH   1   5
BRANCH   1   8
ATOM      8  O   UNL     1     145.965 143.439 126.712  1.00  0.00    -0.388 OA
ATOM      9  H   UNL     1     146.310 143.075 125.855  1.00  0.00     0.211 HD
ENDBRANCH   1   8
TORSDOF 5
ENDMDL
MODEL 8
REMARK VINA RESULT:    -2.592     15.719     16.669
REMARK INTER + INTRA:          -3.346
REMARK INTER:                  -3.129
REMARK INTRA:                  -0.217
REMARK UNBOUND:                -0.223
REMARK SMILES OCC(O)CO
REMARK SMILES IDX 3 1 5 2 6 3 2 5 1 6 4 8
REMARK H PARENT 6 4 1 7 4 9
REMARK Flexibility Score: inf
ROOT
ATOM      1  C   UNL     1     146.050 130.687 132.956  1.00  0.00     0.165 C 
ENDROOT
BRANCH   1   2
ATOM      2  C   UNL     1     146.243 129.369 133.719  1.00  0.00     0.190 C 
BRANCH   2   3
ATOM      3  O   UNL     1     146.142 128.268 132.856  1.00  0.00    -0.394 OA
ATOM      4  H   UNL     1     146.630 128.509 132.027  1.00  0.00     0.210 HD
ENDBRANCH   2   3
ENDBRANCH   1   2
BRANCH   1   5
ATOM      5  C   UNL     1     144.564 130.935 132.650  1.00  0.00     0.190 C 
BRANCH   5   6
ATOM      6  O   UNL     1     144.149 130.148 131.565  1.00  0.00    -0.394 OA
ATOM      7  H   UNL     1     143.193 129.931 131.717  1.00  0.00     0.210 HD
ENDBRANCH   5   6
ENDBRANCH   1   5
BRANCH   1   8
ATOM      8  O   UNL     1     146.780 130.621 131.758  1.00  0.00    -0.388 OA
ATOM      9  H   UNL     1     146.307 131.194 131.099  1.00  0.00     0.211 HD
ENDBRANCH   1   8
TORSDOF 5
ENDMDL
MODEL 9
REMARK VINA RESULT:    -2.529      3.523      4.212
REMARK INTER + INTRA:          -3.270
REMARK INTER:                  -3.071
REMARK INTRA:                  -0.198
REMARK UNBOUND:                -0.223
REMARK SMILES OCC(O)CO
REMARK SMILES IDX 3 1 5 2 6 3 2 5 1 6 4 8
REMARK H PARENT 6 4 1 7 4 9
REMARK Flexibility Score: inf
ROOT
ATOM      1  C   UNL     1     144.652 142.503 122.102  1.00  0.00     0.165 C 
ENDROOT
BRANCH   1   2
ATOM      2  C   UNL     1     145.417 141.536 121.187  1.00  0.00     0.190 C 
BRANCH   2   3
ATOM      3  O   UNL     1     146.634 141.150 121.768  1.00  0.00    -0.394 OA
ATOM      4  H   UNL     1     147.354 141.536 121.206  1.00  0.00     0.210 HD
ENDBRANCH   2   3
ENDBRANCH   1   2
BRANCH   1   5
ATOM      5  C   UNL     1     145.214 143.930 121.989  1.00  0.00     0.190 C 
BRANCH   5   6
ATOM      6  O   UNL     1     146.353 144.073 122.796  1.00  0.00    -0.394 OA
ATOM      7  H   UNL     1     146.354 145.008 123.128  1.00  0.00     0.210 HD
ENDBRANCH   5   6
ENDBRANCH   1   5
BRANCH   1   8
ATOM      8  O   UNL     1     144.763 142.049 123.426  1.00  0.00    -0.388 OA
ATOM      9  H   UNL     1     144.703 142.848 124.012  1.00  0.00     0.211 HD
ENDBRANCH   1   8
TORSDOF 5
ENDMDL
