MODEL 1
REMARK VINA RESULT:    -3.455      0.000      0.000
REMARK INTER + INTRA:          -3.875
REMARK INTER:                  -3.859
REMARK INTRA:                  -0.016
REMARK UNBOUND:                -0.016
REMARK SMILES CCCC(=O)[O-]
REMARK SMILES IDX 3 1 4 2 5 3 6 4 2 5 1 6
REMARK H PARENT
REMARK Flexibility Score: inf
ROOT
ATOM      1  C   UNL     1     -21.375   0.530   8.897  1.00  0.00     0.052 C 
ENDROOT
BRANCH   1   2
ATOM      2  C   UNL     1     -22.030   1.577   9.741  1.00  0.00     0.041 C 
ATOM      3  O   UNL     1     -22.506   2.613   9.207  1.00  0.00    -0.550 OA
ATOM      4  O   UNL     1     -22.073   1.431  11.121  1.00  0.00    -0.550 OA
ENDBRANCH   1   2
BRANCH   1   5
ATOM      5  C   UNL     1     -21.133   1.057   7.480  1.00  0.00     0.003 C 
ATOM      6  C   UNL     1     -21.042  -0.087   6.474  1.00  0.00     0.004 C 
ENDBRANCH   1   5
TORSDOF 2
ENDMDL
MODEL 2
REMARK VINA RESULT:    -3.374      2.903      3.494
REMARK INTER + INTRA:          -3.785
REMARK INTER:                  -3.773
REMARK INTRA:                  -0.012
REMARK UNBOUND:                -0.016
REMARK SMILES CCCC(=O)[O-]
REMARK SMILES IDX 3 1 4 2 5 3 6 4 2 5 1 6
REMARK H PARENT
REMARK Flexibility Score: inf
ROOT
ATOM      1  C   UNL     1     -21.103  -0.635   8.681  1.00  0.00     0.052 C 
ENDROOT
BRANCH   1   2
ATOM      2  C   UNL     1     -20.616  -1.825   9.446  1.00  0.00     0.041 C 
ATOM      3  O   UNL     1     -20.606  -1.807  10.705  1.00  0.00    -0.550 OA
ATOM      4  O   UNL     1     -20.129  -2.935   8.768  1.00  0.00    -0.550 OA
ENDBRANCH   1   2
BRANCH   1   5
ATOM      5  C   UNL     1     -21.149  -0.944   7.182  1.00  0.00     0.003 C 
ATOM      6  C   UNL     1     -21.232   0.337   6.358  1.00  0.00     0.004 C 
ENDBRANCH   1   5
TORSDOF 2
ENDMDL
MODEL 3
REMARK VINA RESULT:    -3.330      2.713      3.766
REMARK INTER + INTRA:          -3.735
REMARK INTER:                  -3.725
REMARK INTRA:                  -0.010
REMARK UNBOUND:                -0.016
REMARK SMILES CCCC(=O)[O-]
REMARK SMILES IDX 3 1 4 2 5 3 6 4 2 5 1 6
REMARK H PARENT
REMARK Flexibility Score: inf
ROOT
ATOM      1  C   UNL     1     -21.143  -0.181   8.634  1.00  0.00     0.052 C 
ENDROOT
BRANCH   1   2
ATOM      2  C   UNL     1     -21.181  -0.550   7.185  1.00  0.00     0.041 C 
ATOM      3  O   UNL     1     -20.970  -1.740   6.830  1.00  0.00    -0.550 OA
ATOM      4  O   UNL     1     -21.402   0.428   6.224  1.00  0.00    -0.550 OA
ENDBRANCH   1   2
BRANCH   1   5
ATOM      5  C   UNL     1     -21.681   1.238   8.840  1.00  0.00     0.003 C 
ATOM      6  C   UNL     1     -22.058   1.478  10.299  1.00  0.00     0.004 C 
ENDBRANCH   1   5
TORSDOF 2
ENDMDL
MODEL 4
REMARK VINA RESULT:    -3.308      2.782      3.409
REMARK INTER + INTRA:          -3.711
REMARK INTER:                  -3.717
REMARK INTRA:                   0.006
REMARK UNBOUND:                -0.016
REMARK SMILES CCCC(=O)[O-]
REMARK SMILES IDX 3 1 4 2 5 3 6 4 2 5 1 6
REMARK H PARENT
REMARK Flexibility Score: inf
ROOT
ATOM      1  C   UNL     1     -21.384  -1.064   6.979  1.00  0.00     0.052 C 
ENDROOT
BRANCH   1   2
ATOM      2  C   UNL     1     -20.810  -1.634   8.237  1.00  0.00     0.041 C 
ATOM      3  O   UNL     1     -20.256  -2.765   8.225  1.00  0.00    -0.550 OA
ATOM      4  O   UNL     1     -20.930  -0.938   9.433  1.00  0.00    -0.550 OA
ENDBRANCH   1   2
BRANCH   1   5
ATOM      5  C   UNL     1     -20.584   0.163   6.533  1.00  0.00     0.003 C 
ATOM      6  C   UNL     1     -21.215   1.451   7.053  1.00  0.00     0.004 C 
ENDBRANCH   1   5
TORSDOF 2
ENDMDL
MODEL 5
REMARK VINA RESULT:    -3.271      2.454      3.262
REMARK INTER + INTRA:          -3.670
REMARK INTER:                  -3.657
REMARK INTRA:                  -0.013
REMARK UNBOUND:                -0.016
REMARK SMILES CCCC(=O)[O-]
REMARK SMILES IDX 3 1 4 2 5 3 6 4 2 5 1 6
REMARK H PARENT
REMARK Flexibility Score: inf
ROOT
ATOM      1  C   UNL     1     -21.268   0.173   8.715  1.00  0.00     0.052 C 
ENDROOT
BRANCH   1   2
ATOM      2  C   UNL     1     -21.070   0.786   7.365  1.00  0.00     0.041 C 
ATOM      3  O   UNL     1     -21.359   1.997   7.172  1.00  0.00    -0.550 OA
ATOM      4  O   UNL     1     -20.614   0.009   6.308  1.00  0.00    -0.550 OA
ENDBRANCH   1   2
BRANCH   1   5
ATOM      5  C   UNL     1     -20.911  -1.316   8.684  1.00  0.00     0.003 C 
ATOM      6  C   UNL     1     -20.513  -1.816  10.070  1.00  0.00     0.004 C 
ENDBRANCH   1   5
TORSDOF 2
ENDMDL
MODEL 6
REMARK VINA RESULT:    -3.144      2.161      3.409
REMARK INTER + INTRA:          -3.528
REMARK INTER:                  -3.515
REMARK INTRA:                  -0.012
REMARK UNBOUND:                -0.016
REMARK SMILES CCCC(=O)[O-]
REMARK SMILES IDX 3 1 4 2 5 3 6 4 2 5 1 6
REMARK H PARENT
REMARK Flexibility Score: inf
ROOT
ATOM      1  C   UNL     1     -21.349   0.369   8.931  1.00  0.00     0.052 C 
ENDROOT
BRANCH   1   2
ATOM      2  C   UNL     1     -21.147   0.606   7.468  1.00  0.00     0.041 C 
ATOM      3  O   UNL     1     -21.122   1.781   7.015  1.00  0.00    -0.550 OA
ATOM      4  O   UNL     1     -21.035  -0.470   6.598  1.00  0.00    -0.550 OA
ENDBRANCH   1   2
BRANCH   1   5
ATOM      5  C   UNL     1     -22.024   1.580   9.582  1.00  0.00     0.003 C 
ATOM      6  C   UNL     1     -22.036   1.452  11.103  1.00  0.00     0.004 C 
ENDBRANCH   1   5
TORSDOF 2
ENDMDL
MODEL 7
REMARK VINA RESULT:    -2.601     16.644     17.537
REMARK INTER + INTRA:          -2.921
REMARK INTER:                  -2.860
REMARK INTRA:                  -0.061
REMARK UNBOUND:                -0.016
REMARK SMILES CCCC(=O)[O-]
REMARK SMILES IDX 3 1 4 2 5 3 6 4 2 5 1 6
REMARK H PARENT
REMARK Flexibility Score: inf
ROOT
ATOM      1  C   UNL     1     -11.287   9.037  -3.288  1.00  0.00     0.052 C 
ENDROOT
BRANCH   1   2
ATOM      2  C   UNL     1     -12.497   8.912  -4.159  1.00  0.00     0.041 C 
ATOM      3  O   UNL     1     -12.928   9.912  -4.791  1.00  0.00    -0.550 OA
ATOM      4  O   UNL     1     -13.176   7.703  -4.234  1.00  0.00    -0.550 OA
ENDBRANCH   1   2
BRANCH   1   5
ATOM      5  C   UNL     1     -11.532  10.060  -2.175  1.00  0.00     0.003 C 
ATOM      6  C   UNL     1     -12.302   9.437  -1.014  1.00  0.00     0.004 C 
ENDBRANCH   1   5
TORSDOF 2
ENDMDL
MODEL 8
REMARK VINA RESULT:    -2.587     16.253     16.819
REMARK INTER + INTRA:          -2.906
REMARK INTER:                  -2.887
REMARK INTRA:                  -0.019
REMARK UNBOUND:                -0.016
REMARK SMILES CCCC(=O)[O-]
REMARK SMILES IDX 3 1 4 2 5 3 6 4 2 5 1 6
REMARK H PARENT
REMARK Flexibility Score: inf
ROOT
ATOM      1  C   UNL     1     -12.413   9.922  -3.096  1.00  0.00     0.052 C 
ENDROOT
BRANCH   1   2
ATOM      2  C   UNL     1     -12.251   9.802  -1.614  1.00  0.00     0.041 C 
ATOM      3  O   UNL     1     -11.173   9.368  -1.129  1.00  0.00    -0.550 OA
ATOM      4  O   UNL     1     -13.306  10.125  -0.771  1.00  0.00    -0.550 OA
ENDBRANCH   1   2
BRANCH   1   5
ATOM      5  C   UNL     1     -11.922   8.650  -3.793  1.00  0.00     0.003 C 
ATOM      6  C   UNL     1     -13.068   7.931  -4.500  1.00  0.00     0.004 C 
ENDBRANCH   1   5
TORSDOF 2
ENDMDL
MODEL 9
REMARK VINA RESULT:    -2.308     17.392     18.317
REMARK INTER + INTRA:          -2.595
REMARK INTER:                  -2.598
REMARK INTRA:                   0.003
REMARK UNBOUND:                -0.016
REMARK SMILES CCCC(=O)[O-]
REMARK SMILES IDX 3 1 4 2 5 3 6 4 2 5 1 6
REMARK H PARENT
REMARK Flexibility Score: inf
ROOT
ATOM      1  C   UNL     1     -28.500  -8.114  -4.009  1.00  0.00     0.052 C 
ENDROOT
BRANCH   1   2
ATOM      2  C   UNL     1     -27.956  -9.507  -3.959  1.00  0.00     0.041 C 
ATOM      3  O   UNL     1     -27.849 -10.105  -2.857  1.00  0.00    -0.550 OA
ATOM      4  O   UNL     1     -27.521 -10.125  -5.125  1.00  0.00    -0.550 OA
ENDBRANCH   1   2
BRANCH   1   5
ATOM      5  C   UNL     1     -29.652  -8.025  -5.014  1.00  0.00     0.003 C 
ATOM      6  C   UNL     1     -30.673  -9.134  -4.781  1.00  0.00     0.004 C 
ENDBRANCH   1   5
TORSDOF 2
ENDMDL
