MODEL 1
REMARK VINA RESULT:    -8.196      0.000      0.000
REMARK INTER + INTRA:          -9.942
REMARK INTER:                  -9.634
REMARK INTRA:                  -0.309
REMARK UNBOUND:                -0.309
REMARK SMILES O=c1cc(-c2ccc(O)c(O)c2)oc2cc(O)cc(O)c12
REMARK SMILES IDX 4 1 3 2 2 3 1 4 21 5 19 6 18 7 16 8 15 9 14 10 13 11 5 12
REMARK SMILES IDX 6 13 7 14 8 15 12 16 10 17 9 18 11 20 20 22 17 24
REMARK H PARENT 9 19 11 21 20 23 17 25
REMARK Flexibility Score: inf
ROOT
ATOM      1  C   UNL     1      37.657 -12.942   8.943  1.00  0.00     0.138 A 
ATOM      2  C   UNL     1      37.792 -11.616   9.378  1.00  0.00     0.100 A 
ATOM      3  C   UNL     1      38.859 -11.267  10.207  1.00  0.00     0.197 A 
ATOM      4  O   UNL     1      38.919 -10.084  10.632  1.00  0.00    -0.289 OA
ATOM      5  C   UNL     1      39.813 -12.246  10.575  1.00  0.00     0.107 A 
ATOM      6  C   UNL     1      40.964 -11.996  11.381  1.00  0.00     0.134 A 
ATOM      7  C   UNL     1      41.774 -13.067  11.777  1.00  0.00     0.093 A 
ATOM      8  C   UNL     1      41.511 -14.369  11.345  1.00  0.00     0.123 A 
ATOM      9  C   UNL     1      40.420 -14.616  10.513  1.00  0.00     0.094 A 
ATOM     10  C   UNL     1      39.573 -13.573  10.130  1.00  0.00     0.146 A 
ATOM     11  O   UNL     1      38.536 -13.853   9.348  1.00  0.00    -0.456 OA
ENDROOT
BRANCH   1  12
ATOM     12  C   UNL     1      36.542 -13.367   8.060  1.00  0.00     0.021 A 
ATOM     13  C   UNL     1      35.320 -12.671   8.025  1.00  0.00     0.016 A 
ATOM     14  C   UNL     1      34.293 -13.087   7.177  1.00  0.00     0.051 A 
ATOM     15  C   UNL     1      34.458 -14.198   6.344  1.00  0.00     0.157 A 
ATOM     16  C   UNL     1      36.712 -14.475   7.214  1.00  0.00     0.062 A 
ATOM     17  C   UNL     1      35.686 -14.900   6.361  1.00  0.00     0.158 A 
BRANCH  15  18
ATOM     18  O   UNL     1      33.390 -14.563   5.523  1.00  0.00    -0.504 OA
ATOM     19  H   UNL     1      32.818 -13.904   5.014  1.00  0.00     0.293 HD
ENDBRANCH  15  18
BRANCH  17  20
ATOM     20  O   UNL     1      35.928 -16.015   5.555  1.00  0.00    -0.504 OA
ATOM     21  H   UNL     1      35.227 -16.455   4.975  1.00  0.00     0.293 HD
ENDBRANCH  17  20
ENDBRANCH   1  12
BRANCH   6  22
ATOM     22  O   UNL     1      41.366 -10.723  11.796  1.00  0.00    -0.507 OA
ATOM     23  H   UNL     1      41.032  -9.856  11.403  1.00  0.00     0.293 HD
ENDBRANCH   6  22
BRANCH   8  24
ATOM     24  O   UNL     1      42.332 -15.427  11.731  1.00  0.00    -0.508 OA
ATOM     25  H   UNL     1      42.973 -15.865  11.080  1.00  0.00     0.293 HD
ENDBRANCH   8  24
TORSDOF 5
ENDMDL
MODEL 2
REMARK VINA RESULT:    -8.075      5.478     11.656
REMARK INTER + INTRA:          -9.800
REMARK INTER:                  -9.487
REMARK INTRA:                  -0.313
REMARK UNBOUND:                -0.309
REMARK SMILES O=c1cc(-c2ccc(O)c(O)c2)oc2cc(O)cc(O)c12
REMARK SMILES IDX 4 1 3 2 2 3 1 4 21 5 19 6 18 7 16 8 15 9 14 10 13 11 5 12
REMARK SMILES IDX 6 13 7 14 8 15 12 16 10 17 9 18 11 20 20 22 17 24
REMARK H PARENT 9 19 11 21 20 23 17 25
REMARK Flexibility Score: inf
ROOT
ATOM      1  C   UNL     1      32.095 -15.066   3.169  1.00  0.00     0.138 A 
ATOM      2  C   UNL     1      32.471 -15.362   1.851  1.00  0.00     0.100 A 
ATOM      3  C   UNL     1      31.489 -15.536   0.875  1.00  0.00     0.197 A 
ATOM      4  O   UNL     1      31.855 -15.862  -0.284  1.00  0.00    -0.289 OA
ATOM      5  C   UNL     1      30.124 -15.381   1.216  1.00  0.00     0.107 A 
ATOM      6  C   UNL     1      29.040 -15.494   0.295  1.00  0.00     0.134 A 
ATOM      7  C   UNL     1      27.724 -15.437   0.770  1.00  0.00     0.093 A 
ATOM      8  C   UNL     1      27.454 -15.209   2.121  1.00  0.00     0.123 A 
ATOM      9  C   UNL     1      28.506 -15.043   3.019  1.00  0.00     0.094 A 
ATOM     10  C   UNL     1      29.830 -15.131   2.582  1.00  0.00     0.146 A 
ATOM     11  O   UNL     1      30.804 -14.980   3.473  1.00  0.00    -0.456 OA
ENDROOT
BRANCH   1  12
ATOM     12  C   UNL     1      33.098 -14.870   4.246  1.00  0.00     0.021 A 
ATOM     13  C   UNL     1      34.418 -15.339   4.120  1.00  0.00     0.016 A 
ATOM     14  C   UNL     1      35.343 -15.131   5.144  1.00  0.00     0.051 A 
ATOM     15  C   UNL     1      34.978 -14.450   6.311  1.00  0.00     0.157 A 
ATOM     16  C   UNL     1      32.736 -14.175   5.411  1.00  0.00     0.062 A 
ATOM     17  C   UNL     1      33.657 -13.963   6.444  1.00  0.00     0.158 A 
BRANCH  15  18
ATOM     18  O   UNL     1      35.951 -14.279   7.298  1.00  0.00    -0.504 OA
ATOM     19  H   UNL     1      36.379 -13.392   7.521  1.00  0.00     0.293 HD
ENDBRANCH  15  18
BRANCH  17  20
ATOM     20  O   UNL     1      33.221 -13.270   7.576  1.00  0.00    -0.504 OA
ATOM     21  H   UNL     1      32.336 -13.437   8.034  1.00  0.00     0.293 HD
ENDBRANCH  17  20
ENDBRANCH   1  12
BRANCH   6  22
ATOM     22  O   UNL     1      29.199 -15.638  -1.086  1.00  0.00    -0.507 OA
ATOM     23  H   UNL     1      29.211 -16.519  -1.577  1.00  0.00     0.293 HD
ENDBRANCH   6  22
BRANCH   8  24
ATOM     24  O   UNL     1      26.140 -15.138   2.582  1.00  0.00    -0.508 OA
ATOM     25  H   UNL     1      25.692 -15.929   3.031  1.00  0.00     0.293 HD
ENDBRANCH   8  24
TORSDOF 5
ENDMDL
MODEL 3
REMARK VINA RESULT:    -7.668      5.539     11.611
REMARK INTER + INTRA:          -9.321
REMARK INTER:                  -9.032
REMARK INTRA:                  -0.289
REMARK UNBOUND:                -0.309
REMARK SMILES O=c1cc(-c2ccc(O)c(O)c2)oc2cc(O)cc(O)c12
REMARK SMILES IDX 4 1 3 2 2 3 1 4 21 5 19 6 18 7 16 8 15 9 14 10 13 11 5 12
REMARK SMILES IDX 6 13 7 14 8 15 12 16 10 17 9 18 11 20 20 22 17 24
REMARK H PARENT 9 19 11 21 20 23 17 25
REMARK Flexibility Score: inf
ROOT
ATOM      1  C   UNL     1      32.140 -14.718   3.005  1.00  0.00     0.138 A 
ATOM      2  C   UNL     1      32.501 -15.046   1.691  1.00  0.00     0.100 A 
ATOM      3  C   UNL     1      31.509 -15.349   0.757  1.00  0.00     0.197 A 
ATOM      4  O   UNL     1      31.867 -15.701  -0.396  1.00  0.00    -0.289 OA
ATOM      5  C   UNL     1      30.146 -15.291   1.136  1.00  0.00     0.107 A 
ATOM      6  C   UNL     1      29.049 -15.539   0.259  1.00  0.00     0.134 A 
ATOM      7  C   UNL     1      27.747 -15.567   0.774  1.00  0.00     0.093 A 
ATOM      8  C   UNL     1      27.498 -15.296   2.121  1.00  0.00     0.123 A 
ATOM      9  C   UNL     1      28.559 -14.999   2.975  1.00  0.00     0.094 A 
ATOM     10  C   UNL     1      29.872 -14.998   2.498  1.00  0.00     0.146 A 
ATOM     11  O   UNL     1      30.856 -14.724   3.348  1.00  0.00    -0.456 OA
ENDROOT
BRANCH   1  12
ATOM     12  C   UNL     1      33.154 -14.386   4.037  1.00  0.00     0.021 A 
ATOM     13  C   UNL     1      32.897 -14.561   5.409  1.00  0.00     0.016 A 
ATOM     14  C   UNL     1      33.873 -14.251   6.357  1.00  0.00     0.051 A 
ATOM     15  C   UNL     1      35.125 -13.768   5.963  1.00  0.00     0.157 A 
ATOM     16  C   UNL     1      34.416 -13.914   3.642  1.00  0.00     0.062 A 
ATOM     17  C   UNL     1      35.401 -13.599   4.587  1.00  0.00     0.158 A 
BRANCH  15  18
ATOM     18  O   UNL     1      36.055 -13.474   6.963  1.00  0.00    -0.504 OA
ATOM     19  H   UNL     1      35.812 -13.099   7.868  1.00  0.00     0.293 HD
ENDBRANCH  15  18
BRANCH  17  20
ATOM     20  O   UNL     1      36.629 -13.127   4.117  1.00  0.00    -0.504 OA
ATOM     21  H   UNL     1      37.266 -12.567   4.665  1.00  0.00     0.293 HD
ENDBRANCH  17  20
ENDBRANCH   1  12
BRANCH   6  22
ATOM     22  O   UNL     1      29.178 -15.738  -1.119  1.00  0.00    -0.507 OA
ATOM     23  H   UNL     1      28.662 -15.236  -1.825  1.00  0.00     0.293 HD
ENDBRANCH   6  22
BRANCH   8  24
ATOM     24  O   UNL     1      26.198 -15.311   2.623  1.00  0.00    -0.508 OA
ATOM     25  H   UNL     1      25.400 -15.110   2.031  1.00  0.00     0.293 HD
ENDBRANCH   8  24
TORSDOF 5
ENDMDL
MODEL 4
REMARK VINA RESULT:    -7.394      1.861      3.327
REMARK INTER + INTRA:          -8.999
REMARK INTER:                  -8.734
REMARK INTRA:                  -0.266
REMARK UNBOUND:                -0.309
REMARK SMILES O=c1cc(-c2ccc(O)c(O)c2)oc2cc(O)cc(O)c12
REMARK SMILES IDX 4 1 3 2 2 3 1 4 21 5 19 6 18 7 16 8 15 9 14 10 13 11 5 12
REMARK SMILES IDX 6 13 7 14 8 15 12 16 10 17 9 18 11 20 20 22 17 24
REMARK H PARENT 9 19 11 21 20 23 17 25
REMARK Flexibility Score: inf
ROOT
ATOM      1  C   UNL     1      36.601 -13.047   7.950  1.00  0.00     0.138 A 
ATOM      2  C   UNL     1      37.411 -13.941   8.662  1.00  0.00     0.100 A 
ATOM      3  C   UNL     1      38.468 -13.453   9.433  1.00  0.00     0.197 A 
ATOM      4  O   UNL     1      39.216 -14.284  10.010  1.00  0.00    -0.289 OA
ATOM      5  C   UNL     1      38.692 -12.057   9.514  1.00  0.00     0.107 A 
ATOM      6  C   UNL     1      39.711 -11.443  10.301  1.00  0.00     0.134 A 
ATOM      7  C   UNL     1      39.912 -10.060  10.211  1.00  0.00     0.093 A 
ATOM      8  C   UNL     1      39.091  -9.262   9.412  1.00  0.00     0.123 A 
ATOM      9  C   UNL     1      38.057  -9.846   8.681  1.00  0.00     0.094 A 
ATOM     10  C   UNL     1      37.855 -11.227   8.722  1.00  0.00     0.146 A 
ATOM     11  O   UNL     1      36.866 -11.745   8.000  1.00  0.00    -0.456 OA
ENDROOT
BRANCH   1  12
ATOM     12  C   UNL     1      35.464 -13.512   7.116  1.00  0.00     0.021 A 
ATOM     13  C   UNL     1      34.137 -13.148   7.406  1.00  0.00     0.016 A 
ATOM     14  C   UNL     1      33.088 -13.592   6.599  1.00  0.00     0.051 A 
ATOM     15  C   UNL     1      33.336 -14.401   5.485  1.00  0.00     0.157 A 
ATOM     16  C   UNL     1      35.714 -14.314   5.990  1.00  0.00     0.062 A 
ATOM     17  C   UNL     1      34.667 -14.764   5.175  1.00  0.00     0.158 A 
BRANCH  15  18
ATOM     18  O   UNL     1      32.242 -14.812   4.721  1.00  0.00    -0.504 OA
ATOM     19  H   UNL     1      31.290 -14.531   4.902  1.00  0.00     0.293 HD
ENDBRANCH  15  18
BRANCH  17  20
ATOM     20  O   UNL     1      34.994 -15.564   4.077  1.00  0.00    -0.504 OA
ATOM     21  H   UNL     1      34.592 -15.451   3.157  1.00  0.00     0.293 HD
ENDBRANCH  17  20
ENDBRANCH   1  12
BRANCH   6  22
ATOM     22  O   UNL     1      40.531 -12.136  11.196  1.00  0.00    -0.507 OA
ATOM     23  H   UNL     1      40.203 -12.653  11.997  1.00  0.00     0.293 HD
ENDBRANCH   6  22
BRANCH   8  24
ATOM     24  O   UNL     1      39.288  -7.885   9.341  1.00  0.00    -0.508 OA
ATOM     25  H   UNL     1      38.513  -7.244   9.212  1.00  0.00     0.293 HD
ENDBRANCH   8  24
TORSDOF 5
ENDMDL
MODEL 5
REMARK VINA RESULT:    -7.321      2.687      7.543
REMARK INTER + INTRA:          -8.913
REMARK INTER:                  -8.646
REMARK INTRA:                  -0.267
REMARK UNBOUND:                -0.309
REMARK SMILES O=c1cc(-c2ccc(O)c(O)c2)oc2cc(O)cc(O)c12
REMARK SMILES IDX 4 1 3 2 2 3 1 4 21 5 19 6 18 7 16 8 15 9 14 10 13 11 5 12
REMARK SMILES IDX 6 13 7 14 8 15 12 16 10 17 9 18 11 20 20 22 17 24
REMARK H PARENT 9 19 11 21 20 23 17 25
REMARK Flexibility Score: inf
ROOT
ATOM      1  C   UNL     1      38.076 -11.579   8.222  1.00  0.00     0.138 A 
ATOM      2  C   UNL     1      36.849 -12.121   8.628  1.00  0.00     0.100 A 
ATOM      3  C   UNL     1      35.852 -12.358   7.681  1.00  0.00     0.197 A 
ATOM      4  O   UNL     1      34.740 -12.786   8.085  1.00  0.00    -0.289 OA
ATOM      5  C   UNL     1      36.099 -12.080   6.315  1.00  0.00     0.107 A 
ATOM      6  C   UNL     1      35.172 -12.321   5.258  1.00  0.00     0.134 A 
ATOM      7  C   UNL     1      35.482 -11.897   3.959  1.00  0.00     0.093 A 
ATOM      8  C   UNL     1      36.711 -11.298   3.671  1.00  0.00     0.123 A 
ATOM      9  C   UNL     1      37.645 -11.108   4.687  1.00  0.00     0.094 A 
ATOM     10  C   UNL     1      37.350 -11.487   5.999  1.00  0.00     0.146 A 
ATOM     11  O   UNL     1      38.263 -11.276   6.941  1.00  0.00    -0.456 OA
ENDROOT
BRANCH   1  12
ATOM     12  C   UNL     1      39.171 -11.307   9.187  1.00  0.00     0.021 A 
ATOM     13  C   UNL     1      40.456 -11.855   9.020  1.00  0.00     0.016 A 
ATOM     14  C   UNL     1      41.470 -11.574   9.938  1.00  0.00     0.051 A 
ATOM     15  C   UNL     1      41.231 -10.739  11.035  1.00  0.00     0.157 A 
ATOM     16  C   UNL     1      38.936 -10.459  10.281  1.00  0.00     0.062 A 
ATOM     17  C   UNL     1      39.947 -10.172  11.207  1.00  0.00     0.158 A 
BRANCH  15  18
ATOM     18  O   UNL     1      42.287 -10.501  11.916  1.00  0.00    -0.504 OA
ATOM     19  H   UNL     1      43.231 -10.293  11.623  1.00  0.00     0.293 HD
ENDBRANCH  15  18
BRANCH  17  20
ATOM     20  O   UNL     1      39.634  -9.327  12.274  1.00  0.00    -0.504 OA
ATOM     21  H   UNL     1      38.778  -8.794  12.340  1.00  0.00     0.293 HD
ENDBRANCH  17  20
ENDBRANCH   1  12
BRANCH   6  22
ATOM     22  O   UNL     1      33.955 -12.988   5.421  1.00  0.00    -0.507 OA
ATOM     23  H   UNL     1      33.655 -13.783   4.879  1.00  0.00     0.293 HD
ENDBRANCH   6  22
BRANCH   8  24
ATOM     24  O   UNL     1      37.017 -10.893   2.373  1.00  0.00    -0.508 OA
ATOM     25  H   UNL     1      36.565 -11.309   1.567  1.00  0.00     0.293 HD
ENDBRANCH   8  24
TORSDOF 5
ENDMDL
MODEL 6
REMARK VINA RESULT:    -7.314      2.627      7.823
REMARK INTER + INTRA:          -8.905
REMARK INTER:                  -8.587
REMARK INTRA:                  -0.318
REMARK UNBOUND:                -0.309
REMARK SMILES O=c1cc(-c2ccc(O)c(O)c2)oc2cc(O)cc(O)c12
REMARK SMILES IDX 4 1 3 2 2 3 1 4 21 5 19 6 18 7 16 8 15 9 14 10 13 11 5 12
REMARK SMILES IDX 6 13 7 14 8 15 12 16 10 17 9 18 11 20 20 22 17 24
REMARK H PARENT 9 19 11 21 20 23 17 25
REMARK Flexibility Score: inf
ROOT
ATOM      1  C   UNL     1      36.854 -11.937   7.605  1.00  0.00     0.138 A 
ATOM      2  C   UNL     1      36.464 -13.281   7.698  1.00  0.00     0.100 A 
ATOM      3  C   UNL     1      35.756 -13.868   6.648  1.00  0.00     0.197 A 
ATOM      4  O   UNL     1      35.366 -15.056   6.786  1.00  0.00    -0.289 OA
ATOM      5  C   UNL     1      35.467 -13.112   5.486  1.00  0.00     0.107 A 
ATOM      6  C   UNL     1      34.789 -13.618   4.337  1.00  0.00     0.134 A 
ATOM      7  C   UNL     1      34.455 -12.745   3.294  1.00  0.00     0.093 A 
ATOM      8  C   UNL     1      34.829 -11.400   3.332  1.00  0.00     0.123 A 
ATOM      9  C   UNL     1      35.539 -10.909   4.425  1.00  0.00     0.094 A 
ATOM     10  C   UNL     1      35.856 -11.747   5.497  1.00  0.00     0.146 A 
ATOM     11  O   UNL     1      36.522 -11.235   6.527  1.00  0.00    -0.456 OA
ENDROOT
BRANCH   1  12
ATOM     12  C   UNL     1      37.609 -11.264   8.692  1.00  0.00     0.021 A 
ATOM     13  C   UNL     1      37.971 -11.942   9.870  1.00  0.00     0.016 A 
ATOM     14  C   UNL     1      38.690 -11.286  10.871  1.00  0.00     0.051 A 
ATOM     15  C   UNL     1      39.069  -9.948  10.721  1.00  0.00     0.157 A 
ATOM     16  C   UNL     1      38.001  -9.924   8.536  1.00  0.00     0.062 A 
ATOM     17  C   UNL     1      38.721  -9.258   9.536  1.00  0.00     0.158 A 
BRANCH  15  18
ATOM     18  O   UNL     1      39.784  -9.351  11.761  1.00  0.00    -0.504 OA
ATOM     19  H   UNL     1      40.714  -9.628  12.038  1.00  0.00     0.293 HD
ENDBRANCH  15  18
BRANCH  17  20
ATOM     20  O   UNL     1      39.068  -7.924   9.311  1.00  0.00    -0.504 OA
ATOM     21  H   UNL     1      38.812  -7.163   9.924  1.00  0.00     0.293 HD
ENDBRANCH  17  20
ENDBRANCH   1  12
BRANCH   6  22
ATOM     22  O   UNL     1      34.445 -14.961   4.161  1.00  0.00    -0.507 OA
ATOM     23  H   UNL     1      34.220 -15.387   3.275  1.00  0.00     0.293 HD
ENDBRANCH   6  22
BRANCH   8  24
ATOM     24  O   UNL     1      34.506 -10.542   2.282  1.00  0.00    -0.508 OA
ATOM     25  H   UNL     1      34.467 -10.869   1.323  1.00  0.00     0.293 HD
ENDBRANCH   8  24
TORSDOF 5
ENDMDL
MODEL 7
REMARK VINA RESULT:    -7.241      6.598     10.012
REMARK INTER + INTRA:          -8.820
REMARK INTER:                  -8.537
REMARK INTRA:                  -0.283
REMARK UNBOUND:                -0.309
REMARK SMILES O=c1cc(-c2ccc(O)c(O)c2)oc2cc(O)cc(O)c12
REMARK SMILES IDX 4 1 3 2 2 3 1 4 21 5 19 6 18 7 16 8 15 9 14 10 13 11 5 12
REMARK SMILES IDX 6 13 7 14 8 15 12 16 10 17 9 18 11 20 20 22 17 24
REMARK H PARENT 9 19 11 21 20 23 17 25
REMARK Flexibility Score: inf
ROOT
ATOM      1  C   UNL     1      31.462 -14.042   1.195  1.00  0.00     0.138 A 
ATOM      2  C   UNL     1      32.032 -12.894   0.628  1.00  0.00     0.100 A 
ATOM      3  C   UNL     1      33.220 -12.382   1.153  1.00  0.00     0.197 A 
ATOM      4  O   UNL     1      33.674 -11.316   0.664  1.00  0.00    -0.289 OA
ATOM      5  C   UNL     1      33.854 -13.044   2.232  1.00  0.00     0.107 A 
ATOM      6  C   UNL     1      35.088 -12.636   2.821  1.00  0.00     0.134 A 
ATOM      7  C   UNL     1      35.560 -13.300   3.960  1.00  0.00     0.093 A 
ATOM      8  C   UNL     1      34.875 -14.394   4.493  1.00  0.00     0.123 A 
ATOM      9  C   UNL     1      33.697 -14.834   3.893  1.00  0.00     0.094 A 
ATOM     10  C   UNL     1      33.182 -14.170   2.777  1.00  0.00     0.146 A 
ATOM     11  O   UNL     1      32.048 -14.612   2.242  1.00  0.00    -0.456 OA
ENDROOT
BRANCH   1  12
ATOM     12  C   UNL     1      30.201 -14.629   0.675  1.00  0.00     0.021 A 
ATOM     13  C   UNL     1      30.072 -15.033  -0.666  1.00  0.00     0.016 A 
ATOM     14  C   UNL     1      28.878 -15.592  -1.125  1.00  0.00     0.051 A 
ATOM     15  C   UNL     1      27.791 -15.766  -0.262  1.00  0.00     0.157 A 
ATOM     16  C   UNL     1      29.114 -14.816   1.544  1.00  0.00     0.062 A 
ATOM     17  C   UNL     1      27.912 -15.375   1.092  1.00  0.00     0.158 A 
BRANCH  15  18
ATOM     18  O   UNL     1      26.625 -16.328  -0.785  1.00  0.00    -0.504 OA
ATOM     19  H   UNL     1      25.693 -16.021  -0.547  1.00  0.00     0.293 HD
ENDBRANCH  15  18
BRANCH  17  20
ATOM     20  O   UNL     1      26.873 -15.522   2.014  1.00  0.00    -0.504 OA
ATOM     21  H   UNL     1      26.816 -15.014   2.886  1.00  0.00     0.293 HD
ENDBRANCH  17  20
ENDBRANCH   1  12
BRANCH   6  22
ATOM     22  O   UNL     1      35.894 -11.611   2.318  1.00  0.00    -0.507 OA
ATOM     23  H   UNL     1      35.739 -11.132   1.444  1.00  0.00     0.293 HD
ENDBRANCH   6  22
BRANCH   8  24
ATOM     24  O   UNL     1      35.360 -15.059   5.618  1.00  0.00    -0.508 OA
ATOM     25  H   UNL     1      35.946 -14.589   6.300  1.00  0.00     0.293 HD
ENDBRANCH   8  24
TORSDOF 5
ENDMDL
MODEL 8
REMARK VINA RESULT:    -7.143      3.081      4.228
REMARK INTER + INTRA:          -8.704
REMARK INTER:                  -8.389
REMARK INTRA:                  -0.315
REMARK UNBOUND:                -0.309
REMARK SMILES O=c1cc(-c2ccc(O)c(O)c2)oc2cc(O)cc(O)c12
REMARK SMILES IDX 4 1 3 2 2 3 1 4 21 5 19 6 18 7 16 8 15 9 14 10 13 11 5 12
REMARK SMILES IDX 6 13 7 14 8 15 12 16 10 17 9 18 11 20 20 22 17 24
REMARK H PARENT 9 19 11 21 20 23 17 25
REMARK Flexibility Score: inf
ROOT
ATOM      1  C   UNL     1      35.873 -12.990   6.502  1.00  0.00     0.138 A 
ATOM      2  C   UNL     1      35.644 -13.323   7.844  1.00  0.00     0.100 A 
ATOM      3  C   UNL     1      36.387 -12.698   8.847  1.00  0.00     0.197 A 
ATOM      4  O   UNL     1      36.204 -13.062  10.037  1.00  0.00    -0.289 OA
ATOM      5  C   UNL     1      37.342 -11.710   8.502  1.00  0.00     0.107 A 
ATOM      6  C   UNL     1      38.127 -10.978   9.442  1.00  0.00     0.134 A 
ATOM      7  C   UNL     1      39.123 -10.109   8.979  1.00  0.00     0.093 A 
ATOM      8  C   UNL     1      39.320  -9.901   7.612  1.00  0.00     0.123 A 
ATOM      9  C   UNL     1      38.522 -10.571   6.687  1.00  0.00     0.094 A 
ATOM     10  C   UNL     1      37.544 -11.471   7.117  1.00  0.00     0.146 A 
ATOM     11  O   UNL     1      36.813 -12.100   6.202  1.00  0.00    -0.456 OA
ENDROOT
BRANCH   1  12
ATOM     12  C   UNL     1      35.111 -13.624   5.396  1.00  0.00     0.021 A 
ATOM     13  C   UNL     1      33.913 -14.323   5.630  1.00  0.00     0.016 A 
ATOM     14  C   UNL     1      33.212 -14.900   4.570  1.00  0.00     0.051 A 
ATOM     15  C   UNL     1      33.682 -14.790   3.257  1.00  0.00     0.157 A 
ATOM     16  C   UNL     1      35.576 -13.503   4.076  1.00  0.00     0.062 A 
ATOM     17  C   UNL     1      34.879 -14.080   3.007  1.00  0.00     0.158 A 
BRANCH  15  18
ATOM     18  O   UNL     1      32.934 -15.393   2.244  1.00  0.00    -0.504 OA
ATOM     19  H   UNL     1      31.972 -15.164   2.039  1.00  0.00     0.293 HD
ENDBRANCH  15  18
BRANCH  17  20
ATOM     20  O   UNL     1      35.408 -13.924   1.724  1.00  0.00    -0.504 OA
ATOM     21  H   UNL     1      34.911 -13.495   0.956  1.00  0.00     0.293 HD
ENDBRANCH  17  20
ENDBRANCH   1  12
BRANCH   6  22
ATOM     22  O   UNL     1      37.954 -11.047  10.827  1.00  0.00    -0.507 OA
ATOM     23  H   UNL     1      38.688 -10.921  11.507  1.00  0.00     0.293 HD
ENDBRANCH   6  22
BRANCH   8  24
ATOM     24  O   UNL     1      40.304  -9.023   7.160  1.00  0.00    -0.508 OA
ATOM     25  H   UNL     1      40.664  -9.072   6.214  1.00  0.00     0.293 HD
ENDBRANCH   8  24
TORSDOF 5
ENDMDL
MODEL 9
REMARK VINA RESULT:    -7.124      7.098     10.161
REMARK INTER + INTRA:          -8.682
REMARK INTER:                  -8.416
REMARK INTRA:                  -0.265
REMARK UNBOUND:                -0.309
REMARK SMILES O=c1cc(-c2ccc(O)c(O)c2)oc2cc(O)cc(O)c12
REMARK SMILES IDX 4 1 3 2 2 3 1 4 21 5 19 6 18 7 16 8 15 9 14 10 13 11 5 12
REMARK SMILES IDX 6 13 7 14 8 15 12 16 10 17 9 18 11 20 20 22 17 24
REMARK H PARENT 9 19 11 21 20 23 17 25
REMARK Flexibility Score: inf
ROOT
ATOM      1  C   UNL     1      31.738 -14.379   1.575  1.00  0.00     0.138 A 
ATOM      2  C   UNL     1      32.391 -15.229   2.479  1.00  0.00     0.100 A 
ATOM      3  C   UNL     1      33.566 -14.803   3.101  1.00  0.00     0.197 A 
ATOM      4  O   UNL     1      34.163 -15.611   3.859  1.00  0.00    -0.289 OA
ATOM      5  C   UNL     1      34.069 -13.506   2.840  1.00  0.00     0.107 A 
ATOM      6  C   UNL     1      35.234 -12.950   3.448  1.00  0.00     0.134 A 
ATOM      7  C   UNL     1      35.703 -11.701   3.024  1.00  0.00     0.093 A 
ATOM      8  C   UNL     1      35.015 -10.961   2.060  1.00  0.00     0.123 A 
ATOM      9  C   UNL     1      33.847 -11.472   1.499  1.00  0.00     0.094 A 
ATOM     10  C   UNL     1      33.373 -12.731   1.875  1.00  0.00     0.146 A 
ATOM     11  O   UNL     1      32.262 -13.187   1.306  1.00  0.00    -0.456 OA
ENDROOT
BRANCH   1  12
ATOM     12  C   UNL     1      30.486 -14.781   0.886  1.00  0.00     0.021 A 
ATOM     13  C   UNL     1      30.442 -14.990  -0.504  1.00  0.00     0.016 A 
ATOM     14  C   UNL     1      29.253 -15.377  -1.124  1.00  0.00     0.051 A 
ATOM     15  C   UNL     1      28.086 -15.572  -0.377  1.00  0.00     0.157 A 
ATOM     16  C   UNL     1      29.318 -14.989   1.637  1.00  0.00     0.062 A 
ATOM     17  C   UNL     1      28.120 -15.377   1.023  1.00  0.00     0.158 A 
BRANCH  15  18
ATOM     18  O   UNL     1      26.931 -15.957  -1.060  1.00  0.00    -0.504 OA
ATOM     19  H   UNL     1      26.029 -15.520  -0.935  1.00  0.00     0.293 HD
ENDBRANCH  15  18
BRANCH  17  20
ATOM     20  O   UNL     1      26.999 -15.557   1.836  1.00  0.00    -0.504 OA
ATOM     21  H   UNL     1      26.717 -14.912   2.560  1.00  0.00     0.293 HD
ENDBRANCH  17  20
ENDBRANCH   1  12
BRANCH   6  22
ATOM     22  O   UNL     1      35.947 -13.567   4.480  1.00  0.00    -0.507 OA
ATOM     23  H   UNL     1      35.582 -13.756   5.401  1.00  0.00     0.293 HD
ENDBRANCH   6  22
BRANCH   8  24
ATOM     24  O   UNL     1      35.481  -9.711   1.655  1.00  0.00    -0.508 OA
ATOM     25  H   UNL     1      35.604  -9.483   0.675  1.00  0.00     0.293 HD
ENDBRANCH   8  24
TORSDOF 5
ENDMDL
