MODEL 1
REMARK VINA RESULT:    -4.919      0.000      0.000
REMARK INTER + INTRA:          -7.460
REMARK INTER:                  -7.220
REMARK INTRA:                  -0.241
REMARK UNBOUND:                -0.241
REMARK SMILES O=C([O-])CCCCCCCC(=O)[O-]
REMARK SMILES IDX 7 1 6 2 5 3 4 4 2 5 1 6 3 7 8 8 9 9 10 10 11 11 12 12 13 13
REMARK H PARENT
REMARK Flexibility Score: inf
ROOT
ATOM      1  C   UNL     1      37.656  67.604  24.408  1.00  0.00     0.000 C 
ENDROOT
BRANCH   1   2
ATOM      2  C   UNL     1      36.974  67.319  25.755  1.00  0.00     0.000 C 
BRANCH   2   3
ATOM      3  C   UNL     1      35.447  67.486  25.692  1.00  0.00     0.006 C 
BRANCH   3   4
ATOM      4  C   UNL     1      34.729  66.670  26.776  1.00  0.00     0.053 C 
BRANCH   4   5
ATOM      5  C   UNL     1      34.703  65.209  26.447  1.00  0.00     0.041 C 
ATOM      6  O   UNL     1      34.369  64.823  25.296  1.00  0.00    -0.550 OA
ATOM      7  O   UNL     1      35.077  64.272  27.403  1.00  0.00    -0.550 OA
ENDBRANCH   4   5
ENDBRANCH   3   4
ENDBRANCH   2   3
ENDBRANCH   1   2
BRANCH   1   8
ATOM      8  C   UNL     1      38.908  66.741  24.183  1.00  0.00     0.000 C 
BRANCH   8   9
ATOM      9  C   UNL     1      39.970  67.025  25.251  1.00  0.00     0.006 C 
BRANCH   9  10
ATOM     10  C   UNL     1      41.381  66.830  24.690  1.00  0.00     0.053 C 
BRANCH  10  11
ATOM     11  C   UNL     1      41.509  65.483  24.049  1.00  0.00     0.041 C 
ATOM     12  O   UNL     1      41.663  64.455  24.760  1.00  0.00    -0.550 OA
ATOM     13  O   UNL     1      41.407  65.357  22.670  1.00  0.00    -0.550 OA
ENDBRANCH  10  11
ENDBRANCH   9  10
ENDBRANCH   8   9
ENDBRANCH   1   8
TORSDOF 8
ENDMDL
MODEL 2
REMARK VINA RESULT:    -4.912      0.104      6.144
REMARK INTER + INTRA:          -7.450
REMARK INTER:                  -7.215
REMARK INTRA:                  -0.235
REMARK UNBOUND:                -0.241
REMARK SMILES O=C([O-])CCCCCCCC(=O)[O-]
REMARK SMILES IDX 7 1 6 2 5 3 4 4 2 5 1 6 3 7 8 8 9 9 10 10 11 11 12 12 13 13
REMARK H PARENT
REMARK Flexibility Score: inf
ROOT
ATOM      1  C   UNL     1      37.645  67.563  24.418  1.00  0.00     0.000 C 
ENDROOT
BRANCH   1   2
ATOM      2  C   UNL     1      38.943  66.774  24.184  1.00  0.00     0.000 C 
BRANCH   2   3
ATOM      3  C   UNL     1      39.994  67.026  25.277  1.00  0.00     0.006 C 
BRANCH   3   4
ATOM      4  C   UNL     1      41.422  66.760  24.781  1.00  0.00     0.053 C 
BRANCH   4   5
ATOM      5  C   UNL     1      41.539  65.426  24.110  1.00  0.00     0.041 C 
ATOM      6  O   UNL     1      41.715  64.385  24.796  1.00  0.00    -0.550 OA
ATOM      7  O   UNL     1      41.425  65.328  22.730  1.00  0.00    -0.550 OA
ENDBRANCH   4   5
ENDBRANCH   3   4
ENDBRANCH   2   3
ENDBRANCH   1   2
BRANCH   1   8
ATOM      8  C   UNL     1      36.998  67.249  25.776  1.00  0.00     0.000 C 
BRANCH   8   9
ATOM      9  C   UNL     1      35.504  67.594  25.764  1.00  0.00     0.006 C 
BRANCH   9  10
ATOM     10  C   UNL     1      34.745  66.790  26.824  1.00  0.00     0.053 C 
BRANCH  10  11
ATOM     11  C   UNL     1      34.710  65.340  26.457  1.00  0.00     0.041 C 
ATOM     12  O   UNL     1      34.369  64.987  25.297  1.00  0.00    -0.550 OA
ATOM     13  O   UNL     1      35.102  64.379  27.380  1.00  0.00    -0.550 OA
ENDBRANCH  10  11
ENDBRANCH   9  10
ENDBRANCH   8   9
ENDBRANCH   1   8
TORSDOF 8
ENDMDL
MODEL 3
REMARK VINA RESULT:    -4.892      1.532      6.305
REMARK INTER + INTRA:          -7.421
REMARK INTER:                  -7.118
REMARK INTRA:                  -0.303
REMARK UNBOUND:                -0.241
REMARK SMILES O=C([O-])CCCCCCCC(=O)[O-]
REMARK SMILES IDX 7 1 6 2 5 3 4 4 2 5 1 6 3 7 8 8 9 9 10 10 11 11 12 12 13 13
REMARK H PARENT
REMARK Flexibility Score: inf
ROOT
ATOM      1  C   UNL     1      38.379  67.126  24.541  1.00  0.00     0.000 C 
ENDROOT
BRANCH   1   2
ATOM      2  C   UNL     1      39.830  66.844  24.961  1.00  0.00     0.000 C 
BRANCH   2   3
ATOM      3  C   UNL     1      40.838  67.127  23.834  1.00  0.00     0.006 C 
BRANCH   3   4
ATOM      4  C   UNL     1      41.027  65.918  22.908  1.00  0.00     0.053 C 
BRANCH   4   5
ATOM      5  C   UNL     1      40.391  66.137  21.570  1.00  0.00     0.041 C 
ATOM      6  O   UNL     1      40.293  67.300  21.097  1.00  0.00    -0.550 OA
ATOM      7  O   UNL     1      39.933  65.054  20.830  1.00  0.00    -0.550 OA
ENDBRANCH   4   5
ENDBRANCH   3   4
ENDBRANCH   2   3
ENDBRANCH   1   2
BRANCH   1   8
ATOM      8  C   UNL     1      37.467  67.441  25.736  1.00  0.00     0.000 C 
BRANCH   8   9
ATOM      9  C   UNL     1      35.998  67.508  25.302  1.00  0.00     0.006 C 
BRANCH   9  10
ATOM     10  C   UNL     1      35.068  67.066  26.436  1.00  0.00     0.053 C 
BRANCH  10  11
ATOM     11  C   UNL     1      34.682  65.630  26.270  1.00  0.00     0.041 C 
ATOM     12  O   UNL     1      34.111  65.245  25.215  1.00  0.00    -0.550 OA
ATOM     13  O   UNL     1      34.997  64.706  27.258  1.00  0.00    -0.550 OA
ENDBRANCH  10  11
ENDBRANCH   9  10
ENDBRANCH   8   9
ENDBRANCH   1   8
TORSDOF 8
ENDMDL
MODEL 4
REMARK VINA RESULT:    -4.891      1.327      6.464
REMARK INTER + INTRA:          -7.419
REMARK INTER:                  -7.268
REMARK INTRA:                  -0.151
REMARK UNBOUND:                -0.241
REMARK SMILES O=C([O-])CCCCCCCC(=O)[O-]
REMARK SMILES IDX 7 1 6 2 5 3 4 4 2 5 1 6 3 7 8 8 9 9 10 10 11 11 12 12 13 13
REMARK H PARENT
REMARK Flexibility Score: inf
ROOT
ATOM      1  C   UNL     1      37.658  67.515  24.348  1.00  0.00     0.000 C 
ENDROOT
BRANCH   1   2
ATOM      2  C   UNL     1      38.975  66.742  24.180  1.00  0.00     0.000 C 
BRANCH   2   3
ATOM      3  C   UNL     1      39.978  67.029  25.309  1.00  0.00     0.006 C 
BRANCH   3   4
ATOM      4  C   UNL     1      41.431  66.828  24.857  1.00  0.00     0.053 C 
BRANCH   4   5
ATOM      5  C   UNL     1      41.828  67.813  23.801  1.00  0.00     0.041 C 
ATOM      6  O   UNL     1      42.504  68.831  24.104  1.00  0.00    -0.550 OA
ATOM      7  O   UNL     1      41.476  67.593  22.476  1.00  0.00    -0.550 OA
ENDBRANCH   4   5
ENDBRANCH   3   4
ENDBRANCH   2   3
ENDBRANCH   1   2
BRANCH   1   8
ATOM      8  C   UNL     1      37.065  67.377  25.758  1.00  0.00     0.000 C 
BRANCH   8   9
ATOM      9  C   UNL     1      35.554  67.636  25.747  1.00  0.00     0.006 C 
BRANCH   9  10
ATOM     10  C   UNL     1      34.847  66.814  26.828  1.00  0.00     0.053 C 
BRANCH  10  11
ATOM     11  C   UNL     1      34.710  65.387  26.397  1.00  0.00     0.041 C 
ATOM     12  O   UNL     1      34.343  65.112  25.224  1.00  0.00    -0.550 OA
ATOM     13  O   UNL     1      35.036  64.362  27.275  1.00  0.00    -0.550 OA
ENDBRANCH  10  11
ENDBRANCH   9  10
ENDBRANCH   8   9
ENDBRANCH   1   8
TORSDOF 8
ENDMDL
MODEL 5
REMARK VINA RESULT:    -4.864      1.526      1.992
REMARK INTER + INTRA:          -7.379
REMARK INTER:                  -7.092
REMARK INTRA:                  -0.287
REMARK UNBOUND:                -0.241
REMARK SMILES O=C([O-])CCCCCCCC(=O)[O-]
REMARK SMILES IDX 7 1 6 2 5 3 4 4 2 5 1 6 3 7 8 8 9 9 10 10 11 11 12 12 13 13
REMARK H PARENT
REMARK Flexibility Score: inf
ROOT
ATOM      1  C   UNL     1      38.304  67.078  24.555  1.00  0.00     0.000 C 
ENDROOT
BRANCH   1   2
ATOM      2  C   UNL     1      37.394  67.448  25.736  1.00  0.00     0.000 C 
BRANCH   2   3
ATOM      3  C   UNL     1      35.906  67.487  25.347  1.00  0.00     0.006 C 
BRANCH   3   4
ATOM      4  C   UNL     1      35.002  66.939  26.459  1.00  0.00     0.053 C 
BRANCH   4   5
ATOM      5  C   UNL     1      34.708  65.483  26.271  1.00  0.00     0.041 C 
ATOM      6  O   UNL     1      34.181  65.075  25.203  1.00  0.00    -0.550 OA
ATOM      7  O   UNL     1      35.041  64.571  27.264  1.00  0.00    -0.550 OA
ENDBRANCH   4   5
ENDBRANCH   3   4
ENDBRANCH   2   3
ENDBRANCH   1   2
BRANCH   1   8
ATOM      8  C   UNL     1      39.786  66.989  24.954  1.00  0.00     0.000 C 
BRANCH   8   9
ATOM      9  C   UNL     1      40.582  66.170  23.931  1.00  0.00     0.006 C 
BRANCH   9  10
ATOM     10  C   UNL     1      41.045  67.047  22.765  1.00  0.00     0.053 C 
BRANCH  10  11
ATOM     11  C   UNL     1      40.378  66.626  21.493  1.00  0.00     0.041 C 
ATOM     12  O   UNL     1      40.126  67.474  20.598  1.00  0.00    -0.550 OA
ATOM     13  O   UNL     1      40.080  65.287  21.276  1.00  0.00    -0.550 OA
ENDBRANCH  10  11
ENDBRANCH   9  10
ENDBRANCH   8   9
ENDBRANCH   1   8
TORSDOF 8
ENDMDL
MODEL 6
REMARK VINA RESULT:    -4.751      4.931      7.172
REMARK INTER + INTRA:          -7.214
REMARK INTER:                  -6.916
REMARK INTRA:                  -0.298
REMARK UNBOUND:                -0.241
REMARK SMILES O=C([O-])CCCCCCCC(=O)[O-]
REMARK SMILES IDX 7 1 6 2 5 3 4 4 2 5 1 6 3 7 8 8 9 9 10 10 11 11 12 12 13 13
REMARK H PARENT
REMARK Flexibility Score: inf
ROOT
ATOM      1  C   UNL     1      41.737  64.680  24.572  1.00  0.00     0.000 C 
ENDROOT
BRANCH   1   2
ATOM      2  C   UNL     1      42.150  63.804  25.764  1.00  0.00     0.000 C 
BRANCH   2   3
ATOM      3  C   UNL     1      42.625  62.405  25.335  1.00  0.00     0.006 C 
BRANCH   3   4
ATOM      4  C   UNL     1      43.631  61.805  26.327  1.00  0.00     0.053 C 
BRANCH   4   5
ATOM      5  C   UNL     1      45.045  61.998  25.873  1.00  0.00     0.041 C 
ATOM      6  O   UNL     1      45.460  61.426  24.830  1.00  0.00    -0.550 OA
ATOM      7  O   UNL     1      45.898  62.832  26.583  1.00  0.00    -0.550 OA
ENDBRANCH   4   5
ENDBRANCH   3   4
ENDBRANCH   2   3
ENDBRANCH   1   2
BRANCH   1   8
ATOM      8  C   UNL     1      41.029  65.973  25.004  1.00  0.00     0.000 C 
BRANCH   8   9
ATOM      9  C   UNL     1      40.907  66.951  23.828  1.00  0.00     0.006 C 
BRANCH   9  10
ATOM     10  C   UNL     1      40.000  66.383  22.733  1.00  0.00     0.053 C 
BRANCH  10  11
ATOM     11  C   UNL     1      40.598  66.621  21.381  1.00  0.00     0.041 C 
ATOM     12  O   UNL     1      41.642  66.009  21.033  1.00  0.00    -0.550 OA
ATOM     13  O   UNL     1      39.974  67.481  20.487  1.00  0.00    -0.550 OA
ENDBRANCH  10  11
ENDBRANCH   9  10
ENDBRANCH   8   9
ENDBRANCH   1   8
TORSDOF 8
ENDMDL
MODEL 7
REMARK VINA RESULT:    -4.712      3.978      8.069
REMARK INTER + INTRA:          -7.157
REMARK INTER:                  -6.910
REMARK INTRA:                  -0.248
REMARK UNBOUND:                -0.241
REMARK SMILES O=C([O-])CCCCCCCC(=O)[O-]
REMARK SMILES IDX 7 1 6 2 5 3 4 4 2 5 1 6 3 7 8 8 9 9 10 10 11 11 12 12 13 13
REMARK H PARENT
REMARK Flexibility Score: inf
ROOT
ATOM      1  C   UNL     1      42.083  63.503  25.793  1.00  0.00     0.000 C 
ENDROOT
BRANCH   1   2
ATOM      2  C   UNL     1      42.998  62.335  25.397  1.00  0.00     0.000 C 
BRANCH   2   3
ATOM      3  C   UNL     1      44.233  62.215  26.306  1.00  0.00     0.006 C 
BRANCH   3   4
ATOM      4  C   UNL     1      45.535  62.100  25.502  1.00  0.00     0.053 C 
BRANCH   4   5
ATOM      5  C   UNL     1      46.607  62.993  26.046  1.00  0.00     0.041 C 
ATOM      6  O   UNL     1      47.507  63.441  25.287  1.00  0.00    -0.550 OA
ATOM      7  O   UNL     1      46.597  63.357  27.387  1.00  0.00    -0.550 OA
ENDBRANCH   4   5
ENDBRANCH   3   4
ENDBRANCH   2   3
ENDBRANCH   1   2
BRANCH   1   8
ATOM      8  C   UNL     1      41.766  64.435  24.613  1.00  0.00     0.000 C 
BRANCH   8   9
ATOM      9  C   UNL     1      41.374  65.832  25.107  1.00  0.00     0.006 C 
BRANCH   9  10
ATOM     10  C   UNL     1      41.209  66.804  23.936  1.00  0.00     0.053 C 
BRANCH  10  11
ATOM     11  C   UNL     1      39.874  66.622  23.286  1.00  0.00     0.041 C 
ATOM     12  O   UNL     1      39.798  66.246  22.087  1.00  0.00    -0.550 OA
ATOM     13  O   UNL     1      38.711  66.819  24.020  1.00  0.00    -0.550 OA
ENDBRANCH  10  11
ENDBRANCH   9  10
ENDBRANCH   8   9
ENDBRANCH   1   8
TORSDOF 8
ENDMDL
MODEL 8
REMARK VINA RESULT:    -4.680      1.201      1.789
REMARK INTER + INTRA:          -7.109
REMARK INTER:                  -6.804
REMARK INTRA:                  -0.305
REMARK UNBOUND:                -0.241
REMARK SMILES O=C([O-])CCCCCCCC(=O)[O-]
REMARK SMILES IDX 7 1 6 2 5 3 4 4 2 5 1 6 3 7 8 8 9 9 10 10 11 11 12 12 13 13
REMARK H PARENT
REMARK Flexibility Score: inf
ROOT
ATOM      1  C   UNL     1      38.875  67.097  24.842  1.00  0.00     0.000 C 
ENDROOT
BRANCH   1   2
ATOM      2  C   UNL     1      37.395  67.475  24.675  1.00  0.00     0.000 C 
BRANCH   2   3
ATOM      3  C   UNL     1      36.629  67.473  26.009  1.00  0.00     0.006 C 
BRANCH   3   4
ATOM      4  C   UNL     1      35.127  67.226  25.815  1.00  0.00     0.053 C 
BRANCH   4   5
ATOM      5  C   UNL     1      34.747  65.815  26.146  1.00  0.00     0.041 C 
ATOM      6  O   UNL     1      35.032  65.330  27.273  1.00  0.00    -0.550 OA
ATOM      7  O   UNL     1      34.052  65.045  25.222  1.00  0.00    -0.550 OA
ENDBRANCH   4   5
ENDBRANCH   3   4
ENDBRANCH   2   3
ENDBRANCH   1   2
BRANCH   1   8
ATOM      8  C   UNL     1      39.547  66.730  23.510  1.00  0.00     0.000 C 
BRANCH   8   9
ATOM      9  C   UNL     1      41.057  66.540  23.691  1.00  0.00     0.006 C 
BRANCH   9  10
ATOM     10  C   UNL     1      41.450  65.069  23.533  1.00  0.00     0.053 C 
BRANCH  10  11
ATOM     11  C   UNL     1      41.769  64.465  24.864  1.00  0.00     0.041 C 
ATOM     12  O   UNL     1      42.231  63.296  24.936  1.00  0.00    -0.550 OA
ATOM     13  O   UNL     1      41.604  65.212  26.024  1.00  0.00    -0.550 OA
ENDBRANCH  10  11
ENDBRANCH   9  10
ENDBRANCH   8   9
ENDBRANCH   1   8
TORSDOF 8
ENDMDL
MODEL 9
REMARK VINA RESULT:    -4.678      4.461      6.539
REMARK INTER + INTRA:          -7.106
REMARK INTER:                  -6.823
REMARK INTRA:                  -0.284
REMARK UNBOUND:                -0.241
REMARK SMILES O=C([O-])CCCCCCCC(=O)[O-]
REMARK SMILES IDX 7 1 6 2 5 3 4 4 2 5 1 6 3 7 8 8 9 9 10 10 11 11 12 12 13 13
REMARK H PARENT
REMARK Flexibility Score: inf
ROOT
ATOM      1  C   UNL     1      42.147  63.626  25.763  1.00  0.00     0.000 C 
ENDROOT
BRANCH   1   2
ATOM      2  C   UNL     1      41.766  64.438  24.515  1.00  0.00     0.000 C 
BRANCH   2   3
ATOM      3  C   UNL     1      41.326  65.872  24.854  1.00  0.00     0.006 C 
BRANCH   3   4
ATOM      4  C   UNL     1      40.191  66.360  23.943  1.00  0.00     0.053 C 
BRANCH   4   5
ATOM      5  C   UNL     1      40.641  66.508  22.522  1.00  0.00     0.041 C 
ATOM      6  O   UNL     1      41.395  67.460  22.191  1.00  0.00    -0.550 OA
ATOM      7  O   UNL     1      40.252  65.577  21.568  1.00  0.00    -0.550 OA
ENDBRANCH   4   5
ENDBRANCH   3   4
ENDBRANCH   2   3
ENDBRANCH   1   2
BRANCH   1   8
ATOM      8  C   UNL     1      42.739  62.251  25.418  1.00  0.00     0.000 C 
BRANCH   8   9
ATOM      9  C   UNL     1      43.961  61.944  26.291  1.00  0.00     0.006 C 
BRANCH   9  10
ATOM     10  C   UNL     1      45.242  61.914  25.454  1.00  0.00     0.053 C 
BRANCH  10  11
ATOM     11  C   UNL     1      46.287  62.797  26.061  1.00  0.00     0.041 C 
ATOM     12  O   UNL     1      46.247  63.074  27.289  1.00  0.00    -0.550 OA
ATOM     13  O   UNL     1      47.334  63.272  25.282  1.00  0.00    -0.550 OA
ENDBRANCH  10  11
ENDBRANCH   9  10
ENDBRANCH   8   9
ENDBRANCH   1   8
TORSDOF 8
ENDMDL
