MODEL 1
REMARK VINA RESULT:    -3.524      0.000      0.000
REMARK INTER + INTRA:         -11.621
REMARK INTER:                  -8.056
REMARK INTRA:                  -3.565
REMARK UNBOUND:                -3.565
REMARK SMILES CCCCCCCCCCCCCCCCCCCCCCCC(=O)[O-]
REMARK SMILES IDX 13 1 14 2 15 3 16 4 17 5 18 6 19 7 20 8 21 9 22 10 23 11
REMARK SMILES IDX 24 12 25 13 26 14 12 15 11 16 10 17 9 18 8 19 7 20 6 21 5 22
REMARK SMILES IDX 4 23 3 24 2 25 1 26
REMARK H PARENT
REMARK Flexibility Score: inf
ROOT
ATOM      1  C   UNL     1       4.657  -0.242  -5.358  1.00  0.00     0.000 C 
ENDROOT
BRANCH   1   2
ATOM      2  C   UNL     1       4.775   1.245  -5.725  1.00  0.00     0.000 C 
BRANCH   2   3
ATOM      3  C   UNL     1       3.768   1.658  -6.817  1.00  0.00     0.000 C 
BRANCH   3   4
ATOM      4  C   UNL     1       4.377   2.635  -7.837  1.00  0.00     0.000 C 
BRANCH   4   5
ATOM      5  C   UNL     1       5.674   3.272  -7.305  1.00  0.00     0.000 C 
BRANCH   5   6
ATOM      6  C   UNL     1       6.254   4.333  -8.255  1.00  0.00     0.000 C 
BRANCH   6   7
ATOM      7  C   UNL     1       5.268   4.771  -9.361  1.00  0.00     0.000 C 
BRANCH   7   8
ATOM      8  C   UNL     1       4.975   6.281  -9.307  1.00  0.00     0.000 C 
BRANCH   8   9
ATOM      9  C   UNL     1       6.000   7.052  -8.445  1.00  0.00     0.000 C 
BRANCH   9  10
ATOM     10  C   UNL     1       5.593   8.511  -8.156  1.00  0.00     0.006 C 
BRANCH  10  11
ATOM     11  C   UNL     1       4.395   8.657  -7.206  1.00  0.00     0.053 C 
BRANCH  11  12
ATOM     12  C   UNL     1       4.816   8.660  -5.767  1.00  0.00     0.041 C 
ATOM     13  O   UNL     1       5.916   9.171  -5.427  1.00  0.00    -0.550 OA
ATOM     14  O   UNL     1       3.990   8.104  -4.802  1.00  0.00    -0.550 OA
ENDBRANCH  11  12
ENDBRANCH  10  11
ENDBRANCH   9  10
ENDBRANCH   8   9
ENDBRANCH   7   8
ENDBRANCH   6   7
ENDBRANCH   5   6
ENDBRANCH   4   5
ENDBRANCH   3   4
ENDBRANCH   2   3
ENDBRANCH   1   2
BRANCH   1  15
ATOM     15  C   UNL     1       5.999  -0.974  -5.530  1.00  0.00     0.000 C 
BRANCH  15  16
ATOM     16  C   UNL     1       7.039  -0.145  -6.299  1.00  0.00     0.000 C 
BRANCH  16  17
ATOM     17  C   UNL     1       8.015  -1.018  -7.101  1.00  0.00     0.000 C 
BRANCH  17  18
ATOM     18  C   UNL     1       8.044  -0.592  -8.574  1.00  0.00    -0.000 C 
BRANCH  18  19
ATOM     19  C   UNL     1       6.773   0.180  -8.955  1.00  0.00    -0.000 C 
BRANCH  19  20
ATOM     20  C   UNL     1       5.805  -0.666  -9.811  1.00  0.00    -0.000 C 
BRANCH  20  21
ATOM     21  C   UNL     1       4.886  -1.586  -8.984  1.00  0.00    -0.000 C 
BRANCH  21  22
ATOM     22  C   UNL     1       4.994  -3.084  -9.324  1.00  0.00    -0.000 C 
BRANCH  22  23
ATOM     23  C   UNL     1       6.092  -3.849  -8.559  1.00  0.00    -0.000 C 
BRANCH  23  24
ATOM     24  C   UNL     1       5.749  -4.205  -7.099  1.00  0.00    -0.000 C 
BRANCH  24  25
ATOM     25  C   UNL     1       6.920  -4.781  -6.282  1.00  0.00    -0.003 C 
ATOM     26  C   UNL     1       6.805  -4.487  -4.787  1.00  0.00     0.004 C 
ENDBRANCH  24  25
ENDBRANCH  23  24
ENDBRANCH  22  23
ENDBRANCH  21  22
ENDBRANCH  20  21
ENDBRANCH  19  20
ENDBRANCH  18  19
ENDBRANCH  17  18
ENDBRANCH  16  17
ENDBRANCH  15  16
ENDBRANCH   1  15
TORSDOF 22
ENDMDL
MODEL 2
REMARK VINA RESULT:    -3.349      4.014      8.670
REMARK INTER + INTRA:         -11.221
REMARK INTER:                  -7.438
REMARK INTRA:                  -3.782
REMARK UNBOUND:                -3.565
REMARK SMILES CCCCCCCCCCCCCCCCCCCCCCCC(=O)[O-]
REMARK SMILES IDX 13 1 14 2 15 3 16 4 17 5 18 6 19 7 20 8 21 9 22 10 23 11
REMARK SMILES IDX 24 12 25 13 26 14 12 15 11 16 10 17 9 18 8 19 7 20 6 21 5 22
REMARK SMILES IDX 4 23 3 24 2 25 1 26
REMARK H PARENT
REMARK Flexibility Score: inf
ROOT
ATOM      1  C   UNL     1       5.322   0.657  -5.139  1.00  0.00     0.000 C 
ENDROOT
BRANCH   1   2
ATOM      2  C   UNL     1       6.177  -0.571  -5.486  1.00  0.00     0.000 C 
BRANCH   2   3
ATOM      3  C   UNL     1       7.282  -0.240  -6.509  1.00  0.00     0.000 C 
BRANCH   3   4
ATOM      4  C   UNL     1       8.296  -1.386  -6.667  1.00  0.00     0.000 C 
BRANCH   4   5
ATOM      5  C   UNL     1       9.102  -1.251  -7.972  1.00  0.00     0.000 C 
BRANCH   5   6
ATOM      6  C   UNL     1       8.224  -1.343  -9.231  1.00  0.00     0.000 C 
BRANCH   6   7
ATOM      7  C   UNL     1       7.546  -2.721  -9.407  1.00  0.00     0.000 C 
BRANCH   7   8
ATOM      8  C   UNL     1       6.015  -2.600  -9.508  1.00  0.00     0.000 C 
BRANCH   8   9
ATOM      9  C   UNL     1       5.302  -2.984  -8.192  1.00  0.00     0.000 C 
BRANCH   9  10
ATOM     10  C   UNL     1       5.953  -4.173  -7.458  1.00  0.00     0.006 C 
BRANCH  10  11
ATOM     11  C   UNL     1       5.835  -4.113  -5.928  1.00  0.00     0.053 C 
BRANCH  11  12
ATOM     12  C   UNL     1       7.037  -4.696  -5.249  1.00  0.00     0.041 C 
ATOM     13  O   UNL     1       7.022  -4.922  -4.010  1.00  0.00    -0.550 OA
ATOM     14  O   UNL     1       8.173  -4.996  -5.987  1.00  0.00    -0.550 OA
ENDBRANCH  11  12
ENDBRANCH  10  11
ENDBRANCH   9  10
ENDBRANCH   8   9
ENDBRANCH   7   8
ENDBRANCH   6   7
ENDBRANCH   5   6
ENDBRANCH   4   5
ENDBRANCH   3   4
ENDBRANCH   2   3
ENDBRANCH   1   2
BRANCH   1  15
ATOM     15  C   UNL     1       4.135   0.810  -6.106  1.00  0.00     0.000 C 
BRANCH  15  16
ATOM     16  C   UNL     1       4.142   2.151  -6.855  1.00  0.00     0.000 C 
BRANCH  16  17
ATOM     17  C   UNL     1       4.068   1.979  -8.379  1.00  0.00     0.000 C 
BRANCH  17  18
ATOM     18  C   UNL     1       5.246   1.141  -8.890  1.00  0.00    -0.000 C 
BRANCH  18  19
ATOM     19  C   UNL     1       6.235   2.001  -9.690  1.00  0.00    -0.000 C 
BRANCH  19  20
ATOM     20  C   UNL     1       7.575   2.200  -8.949  1.00  0.00    -0.000 C 
BRANCH  20  21
ATOM     21  C   UNL     1       7.531   3.299  -7.870  1.00  0.00    -0.000 C 
BRANCH  21  22
ATOM     22  C   UNL     1       8.350   4.562  -8.199  1.00  0.00    -0.000 C 
BRANCH  22  23
ATOM     23  C   UNL     1       7.519   5.775  -8.661  1.00  0.00    -0.000 C 
BRANCH  23  24
ATOM     24  C   UNL     1       5.994   5.553  -8.693  1.00  0.00    -0.000 C 
BRANCH  24  25
ATOM     25  C   UNL     1       5.154   6.841  -8.745  1.00  0.00    -0.003 C 
ATOM     26  C   UNL     1       5.830   8.022  -8.049  1.00  0.00     0.004 C 
ENDBRANCH  24  25
ENDBRANCH  23  24
ENDBRANCH  22  23
ENDBRANCH  21  22
ENDBRANCH  20  21
ENDBRANCH  19  20
ENDBRANCH  18  19
ENDBRANCH  17  18
ENDBRANCH  16  17
ENDBRANCH  15  16
ENDBRANCH   1  15
TORSDOF 22
ENDMDL
MODEL 3
REMARK VINA RESULT:    -3.250      3.737      8.965
REMARK INTER + INTRA:         -10.995
REMARK INTER:                  -7.111
REMARK INTRA:                  -3.883
REMARK UNBOUND:                -3.565
REMARK SMILES CCCCCCCCCCCCCCCCCCCCCCCC(=O)[O-]
REMARK SMILES IDX 13 1 14 2 15 3 16 4 17 5 18 6 19 7 20 8 21 9 22 10 23 11
REMARK SMILES IDX 24 12 25 13 26 14 12 15 11 16 10 17 9 18 8 19 7 20 6 21 5 22
REMARK SMILES IDX 4 23 3 24 2 25 1 26
REMARK H PARENT
REMARK Flexibility Score: inf
ROOT
ATOM      1  C   UNL     1       7.007  -1.039  -6.169  1.00  0.00     0.000 C 
ENDROOT
BRANCH   1   2
ATOM      2  C   UNL     1       7.450   0.292  -6.795  1.00  0.00     0.000 C 
BRANCH   2   3
ATOM      3  C   UNL     1       7.861   0.133  -8.272  1.00  0.00     0.000 C 
BRANCH   3   4
ATOM      4  C   UNL     1       6.802   0.690  -9.238  1.00  0.00     0.000 C 
BRANCH   4   5
ATOM      5  C   UNL     1       6.119  -0.435 -10.038  1.00  0.00     0.000 C 
BRANCH   5   6
ATOM      6  C   UNL     1       5.035  -1.170  -9.231  1.00  0.00     0.000 C 
BRANCH   6   7
ATOM      7  C   UNL     1       5.329  -2.674  -9.034  1.00  0.00     0.000 C 
BRANCH   7   8
ATOM      8  C   UNL     1       6.636  -3.101  -9.726  1.00  0.00     0.000 C 
BRANCH   8   9
ATOM      9  C   UNL     1       7.688  -3.634  -8.727  1.00  0.00     0.000 C 
BRANCH   9  10
ATOM     10  C   UNL     1       7.289  -4.966  -8.060  1.00  0.00     0.006 C 
BRANCH  10  11
ATOM     11  C   UNL     1       7.759  -5.109  -6.605  1.00  0.00     0.053 C 
BRANCH  11  12
ATOM     12  C   UNL     1       6.725  -4.629  -5.631  1.00  0.00     0.041 C 
ATOM     13  O   UNL     1       7.064  -4.244  -4.480  1.00  0.00    -0.550 OA
ATOM     14  O   UNL     1       5.388  -4.600  -5.998  1.00  0.00    -0.550 OA
ENDBRANCH  11  12
ENDBRANCH  10  11
ENDBRANCH   9  10
ENDBRANCH   8   9
ENDBRANCH   7   8
ENDBRANCH   6   7
ENDBRANCH   5   6
ENDBRANCH   4   5
ENDBRANCH   3   4
ENDBRANCH   2   3
ENDBRANCH   1   2
BRANCH   1  15
ATOM     15  C   UNL     1       5.583  -0.945  -5.593  1.00  0.00     0.000 C 
BRANCH  15  16
ATOM     16  C   UNL     1       5.087   0.503  -5.457  1.00  0.00     0.000 C 
BRANCH  16  17
ATOM     17  C   UNL     1       3.824   0.775  -6.286  1.00  0.00     0.000 C 
BRANCH  17  18
ATOM     18  C   UNL     1       4.053   1.934  -7.264  1.00  0.00    -0.000 C 
BRANCH  18  19
ATOM     19  C   UNL     1       4.955   3.012  -6.647  1.00  0.00    -0.000 C 
BRANCH  19  20
ATOM     20  C   UNL     1       5.762   3.785  -7.712  1.00  0.00    -0.000 C 
BRANCH  20  21
ATOM     21  C   UNL     1       5.046   3.900  -9.072  1.00  0.00    -0.000 C 
BRANCH  21  22
ATOM     22  C   UNL     1       4.884   5.338  -9.599  1.00  0.00    -0.000 C 
BRANCH  22  23
ATOM     23  C   UNL     1       5.536   6.429  -8.727  1.00  0.00    -0.000 C 
BRANCH  23  24
ATOM     24  C   UNL     1       5.034   7.864  -8.987  1.00  0.00    -0.000 C 
BRANCH  24  25
ATOM     25  C   UNL     1       5.317   8.863  -7.851  1.00  0.00    -0.003 C 
ATOM     26  C   UNL     1       4.921   8.329  -6.475  1.00  0.00     0.004 C 
ENDBRANCH  24  25
ENDBRANCH  23  24
ENDBRANCH  22  23
ENDBRANCH  21  22
ENDBRANCH  20  21
ENDBRANCH  19  20
ENDBRANCH  18  19
ENDBRANCH  17  18
ENDBRANCH  16  17
ENDBRANCH  15  16
ENDBRANCH   1  15
TORSDOF 22
ENDMDL
MODEL 4
REMARK VINA RESULT:    -3.245      3.929      9.499
REMARK INTER + INTRA:         -10.985
REMARK INTER:                  -8.251
REMARK INTRA:                  -2.733
REMARK UNBOUND:                -3.565
REMARK SMILES CCCCCCCCCCCCCCCCCCCCCCCC(=O)[O-]
REMARK SMILES IDX 13 1 14 2 15 3 16 4 17 5 18 6 19 7 20 8 21 9 22 10 23 11
REMARK SMILES IDX 24 12 25 13 26 14 12 15 11 16 10 17 9 18 8 19 7 20 6 21 5 22
REMARK SMILES IDX 4 23 3 24 2 25 1 26
REMARK H PARENT
REMARK Flexibility Score: inf
ROOT
ATOM      1  C   UNL     1       5.322   1.131  -5.280  1.00  0.00     0.000 C 
ENDROOT
BRANCH   1   2
ATOM      2  C   UNL     1       5.651  -0.367  -5.191  1.00  0.00     0.000 C 
BRANCH   2   3
ATOM      3  C   UNL     1       5.616  -1.054  -6.570  1.00  0.00     0.000 C 
BRANCH   3   4
ATOM      4  C   UNL     1       6.779  -0.612  -7.475  1.00  0.00     0.000 C 
BRANCH   4   5
ATOM      5  C   UNL     1       6.408  -0.723  -8.966  1.00  0.00     0.000 C 
BRANCH   5   6
ATOM      6  C   UNL     1       4.891  -0.815  -9.200  1.00  0.00     0.000 C 
BRANCH   6   7
ATOM      7  C   UNL     1       4.453  -2.133  -9.878  1.00  0.00     0.000 C 
BRANCH   7   8
ATOM      8  C   UNL     1       5.514  -3.237  -9.730  1.00  0.00     0.000 C 
BRANCH   8   9
ATOM      9  C   UNL     1       5.192  -4.219  -8.582  1.00  0.00     0.000 C 
BRANCH   9  10
ATOM     10  C   UNL     1       6.374  -4.458  -7.621  1.00  0.00     0.006 C 
BRANCH  10  11
ATOM     11  C   UNL     1       5.972  -4.585  -6.144  1.00  0.00     0.053 C 
BRANCH  11  12
ATOM     12  C   UNL     1       7.135  -4.964  -5.277  1.00  0.00     0.041 C 
ATOM     13  O   UNL     1       7.070  -4.823  -4.027  1.00  0.00    -0.550 OA
ATOM     14  O   UNL     1       8.289  -5.479  -5.849  1.00  0.00    -0.550 OA
ENDBRANCH  11  12
ENDBRANCH  10  11
ENDBRANCH   9  10
ENDBRANCH   8   9
ENDBRANCH   7   8
ENDBRANCH   6   7
ENDBRANCH   5   6
ENDBRANCH   4   5
ENDBRANCH   3   4
ENDBRANCH   2   3
ENDBRANCH   1   2
BRANCH   1  15
ATOM     15  C   UNL     1       4.070   1.383  -6.138  1.00  0.00     0.000 C 
BRANCH  15  16
ATOM     16  C   UNL     1       4.328   2.346  -7.306  1.00  0.00     0.000 C 
BRANCH  16  17
ATOM     17  C   UNL     1       5.737   2.956  -7.269  1.00  0.00     0.000 C 
BRANCH  17  18
ATOM     18  C   UNL     1       6.212   3.319  -8.682  1.00  0.00    -0.000 C 
BRANCH  18  19
ATOM     19  C   UNL     1       5.299   4.374  -9.321  1.00  0.00    -0.000 C 
BRANCH  19  20
ATOM     20  C   UNL     1       5.482   5.771  -8.688  1.00  0.00    -0.000 C 
BRANCH  20  21
ATOM     21  C   UNL     1       5.012   6.928  -9.591  1.00  0.00    -0.000 C 
BRANCH  21  22
ATOM     22  C   UNL     1       5.419   8.333  -9.107  1.00  0.00    -0.000 C 
BRANCH  22  23
ATOM     23  C   UNL     1       4.379   9.043  -8.218  1.00  0.00    -0.000 C 
BRANCH  23  24
ATOM     24  C   UNL     1       4.892   9.482  -6.832  1.00  0.00    -0.000 C 
BRANCH  24  25
ATOM     25  C   UNL     1       3.945   9.164  -5.661  1.00  0.00    -0.003 C 
ATOM     26  C   UNL     1       4.493   8.086  -4.727  1.00  0.00     0.004 C 
ENDBRANCH  24  25
ENDBRANCH  23  24
ENDBRANCH  22  23
ENDBRANCH  21  22
ENDBRANCH  20  21
ENDBRANCH  19  20
ENDBRANCH  18  19
ENDBRANCH  17  18
ENDBRANCH  16  17
ENDBRANCH  15  16
ENDBRANCH   1  15
TORSDOF 22
ENDMDL
MODEL 5
REMARK VINA RESULT:    -3.225      3.735      9.080
REMARK INTER + INTRA:         -10.938
REMARK INTER:                  -7.770
REMARK INTRA:                  -3.168
REMARK UNBOUND:                -3.565
REMARK SMILES CCCCCCCCCCCCCCCCCCCCCCCC(=O)[O-]
REMARK SMILES IDX 13 1 14 2 15 3 16 4 17 5 18 6 19 7 20 8 21 9 22 10 23 11
REMARK SMILES IDX 24 12 25 13 26 14 12 15 11 16 10 17 9 18 8 19 7 20 6 21 5 22
REMARK SMILES IDX 4 23 3 24 2 25 1 26
REMARK H PARENT
REMARK Flexibility Score: inf
ROOT
ATOM      1  C   UNL     1       3.638   1.863  -6.781  1.00  0.00     0.000 C 
ENDROOT
BRANCH   1   2
ATOM      2  C   UNL     1       4.974   1.814  -6.025  1.00  0.00     0.000 C 
BRANCH   2   3
ATOM      3  C   UNL     1       5.131   0.519  -5.202  1.00  0.00     0.000 C 
BRANCH   3   4
ATOM      4  C   UNL     1       6.006  -0.526  -5.914  1.00  0.00     0.000 C 
BRANCH   4   5
ATOM      5  C   UNL     1       7.269   0.113  -6.520  1.00  0.00     0.000 C 
BRANCH   5   6
ATOM      6  C   UNL     1       7.907  -0.750  -7.621  1.00  0.00     0.000 C 
BRANCH   6   7
ATOM      7  C   UNL     1       6.930  -1.776  -8.241  1.00  0.00     0.000 C 
BRANCH   7   8
ATOM      8  C   UNL     1       7.629  -3.103  -8.582  1.00  0.00     0.000 C 
BRANCH   8   9
ATOM      9  C   UNL     1       7.024  -4.304  -7.820  1.00  0.00     0.000 C 
BRANCH   9  10
ATOM     10  C   UNL     1       5.636  -4.017  -7.213  1.00  0.00     0.006 C 
BRANCH  10  11
ATOM     11  C   UNL     1       5.525  -4.333  -5.714  1.00  0.00     0.053 C 
BRANCH  11  12
ATOM     12  C   UNL     1       6.855  -4.262  -5.026  1.00  0.00     0.041 C 
ATOM     13  O   UNL     1       7.455  -5.318  -4.690  1.00  0.00    -0.550 OA
ATOM     14  O   UNL     1       7.434  -3.030  -4.761  1.00  0.00    -0.550 OA
ENDBRANCH  11  12
ENDBRANCH  10  11
ENDBRANCH   9  10
ENDBRANCH   8   9
ENDBRANCH   7   8
ENDBRANCH   6   7
ENDBRANCH   5   6
ENDBRANCH   4   5
ENDBRANCH   3   4
ENDBRANCH   2   3
ENDBRANCH   1   2
BRANCH   1  15
ATOM     15  C   UNL     1       3.849   2.128  -8.282  1.00  0.00     0.000 C 
BRANCH  15  16
ATOM     16  C   UNL     1       4.425   0.915  -9.028  1.00  0.00     0.000 C 
BRANCH  16  17
ATOM     17  C   UNL     1       5.691   1.258  -9.826  1.00  0.00     0.000 C 
BRANCH  17  18
ATOM     18  C   UNL     1       6.018   2.752  -9.713  1.00  0.00    -0.000 C 
BRANCH  18  19
ATOM     19  C   UNL     1       7.230   2.989  -8.800  1.00  0.00    -0.000 C 
BRANCH  19  20
ATOM     20  C   UNL     1       7.276   4.430  -8.246  1.00  0.00    -0.000 C 
BRANCH  20  21
ATOM     21  C   UNL     1       5.886   5.043  -7.993  1.00  0.00    -0.000 C 
BRANCH  21  22
ATOM     22  C   UNL     1       5.585   6.320  -8.801  1.00  0.00    -0.000 C 
BRANCH  22  23
ATOM     23  C   UNL     1       6.169   7.619  -8.208  1.00  0.00    -0.000 C 
BRANCH  23  24
ATOM     24  C   UNL     1       5.341   8.252  -7.073  1.00  0.00    -0.000 C 
BRANCH  24  25
ATOM     25  C   UNL     1       4.108   9.047  -7.539  1.00  0.00    -0.003 C 
ATOM     26  C   UNL     1       3.325   9.665  -6.381  1.00  0.00     0.004 C 
ENDBRANCH  24  25
ENDBRANCH  23  24
ENDBRANCH  22  23
ENDBRANCH  21  22
ENDBRANCH  20  21
ENDBRANCH  19  20
ENDBRANCH  18  19
ENDBRANCH  17  18
ENDBRANCH  16  17
ENDBRANCH  15  16
ENDBRANCH   1  15
TORSDOF 22
ENDMDL
MODEL 6
REMARK VINA RESULT:    -3.212      4.038      8.497
REMARK INTER + INTRA:         -10.907
REMARK INTER:                  -7.190
REMARK INTRA:                  -3.718
REMARK UNBOUND:                -3.565
REMARK SMILES CCCCCCCCCCCCCCCCCCCCCCCC(=O)[O-]
REMARK SMILES IDX 13 1 14 2 15 3 16 4 17 5 18 6 19 7 20 8 21 9 22 10 23 11
REMARK SMILES IDX 24 12 25 13 26 14 12 15 11 16 10 17 9 18 8 19 7 20 6 21 5 22
REMARK SMILES IDX 4 23 3 24 2 25 1 26
REMARK H PARENT
REMARK Flexibility Score: inf
ROOT
ATOM      1  C   UNL     1       4.097   0.754  -6.402  1.00  0.00     0.000 C 
ENDROOT
BRANCH   1   2
ATOM      2  C   UNL     1       4.949   0.631  -5.129  1.00  0.00     0.000 C 
BRANCH   2   3
ATOM      3  C   UNL     1       6.141  -0.329  -5.316  1.00  0.00     0.000 C 
BRANCH   3   4
ATOM      4  C   UNL     1       7.140   0.174  -6.372  1.00  0.00     0.000 C 
BRANCH   4   5
ATOM      5  C   UNL     1       7.978  -0.980  -6.953  1.00  0.00     0.000 C 
BRANCH   5   6
ATOM      6  C   UNL     1       7.760  -1.177  -8.462  1.00  0.00     0.000 C 
BRANCH   6   7
ATOM      7  C   UNL     1       6.292  -0.977  -8.903  1.00  0.00     0.000 C 
BRANCH   7   8
ATOM      8  C   UNL     1       5.393  -2.144  -8.459  1.00  0.00     0.000 C 
BRANCH   8   9
ATOM      9  C   UNL     1       6.038  -3.523  -8.725  1.00  0.00     0.000 C 
BRANCH   9  10
ATOM     10  C   UNL     1       5.844  -4.530  -7.574  1.00  0.00     0.006 C 
BRANCH  10  11
ATOM     11  C   UNL     1       5.995  -3.924  -6.171  1.00  0.00     0.053 C 
BRANCH  11  12
ATOM     12  C   UNL     1       7.021  -4.650  -5.354  1.00  0.00     0.041 C 
ATOM     13  O   UNL     1       6.857  -4.802  -4.114  1.00  0.00    -0.550 OA
ATOM     14  O   UNL     1       8.156  -5.164  -5.963  1.00  0.00    -0.550 OA
ENDBRANCH  11  12
ENDBRANCH  10  11
ENDBRANCH   9  10
ENDBRANCH   8   9
ENDBRANCH   7   8
ENDBRANCH   6   7
ENDBRANCH   5   6
ENDBRANCH   4   5
ENDBRANCH   3   4
ENDBRANCH   2   3
ENDBRANCH   1   2
BRANCH   1  15
ATOM     15  C   UNL     1       3.796   2.225  -6.739  1.00  0.00     0.000 C 
BRANCH  15  16
ATOM     16  C   UNL     1       4.933   2.907  -7.514  1.00  0.00     0.000 C 
BRANCH  16  17
ATOM     17  C   UNL     1       5.142   2.301  -8.910  1.00  0.00     0.000 C 
BRANCH  17  18
ATOM     18  C   UNL     1       5.396   3.401  -9.948  1.00  0.00    -0.000 C 
BRANCH  18  19
ATOM     19  C   UNL     1       4.530   4.638  -9.671  1.00  0.00    -0.000 C 
BRANCH  19  20
ATOM     20  C   UNL     1       5.334   5.953  -9.771  1.00  0.00    -0.000 C 
BRANCH  20  21
ATOM     21  C   UNL     1       6.134   6.289  -8.498  1.00  0.00    -0.000 C 
BRANCH  21  22
ATOM     22  C   UNL     1       7.625   6.600  -8.733  1.00  0.00    -0.000 C 
BRANCH  22  23
ATOM     23  C   UNL     1       8.298   5.764  -9.839  1.00  0.00    -0.000 C 
BRANCH  23  24
ATOM     24  C   UNL     1       9.482   4.892  -9.374  1.00  0.00    -0.000 C 
BRANCH  24  25
ATOM     25  C   UNL     1       9.133   3.418  -9.105  1.00  0.00    -0.003 C 
ATOM     26  C   UNL     1       8.590   3.182  -7.696  1.00  0.00     0.004 C 
ENDBRANCH  24  25
ENDBRANCH  23  24
ENDBRANCH  22  23
ENDBRANCH  21  22
ENDBRANCH  20  21
ENDBRANCH  19  20
ENDBRANCH  18  19
ENDBRANCH  17  18
ENDBRANCH  16  17
ENDBRANCH  15  16
ENDBRANCH   1  15
TORSDOF 22
ENDMDL
MODEL 7
REMARK VINA RESULT:    -3.173      4.295      6.204
REMARK INTER + INTRA:         -10.820
REMARK INTER:                  -7.008
REMARK INTRA:                  -3.812
REMARK UNBOUND:                -3.565
REMARK SMILES CCCCCCCCCCCCCCCCCCCCCCCC(=O)[O-]
REMARK SMILES IDX 13 1 14 2 15 3 16 4 17 5 18 6 19 7 20 8 21 9 22 10 23 11
REMARK SMILES IDX 24 12 25 13 26 14 12 15 11 16 10 17 9 18 8 19 7 20 6 21 5 22
REMARK SMILES IDX 4 23 3 24 2 25 1 26
REMARK H PARENT
REMARK Flexibility Score: inf
ROOT
ATOM      1  C   UNL     1       5.192  -1.541  -5.636  1.00  0.00     0.000 C 
ENDROOT
BRANCH   1   2
ATOM      2  C   UNL     1       6.096  -0.358  -5.257  1.00  0.00     0.000 C 
BRANCH   2   3
ATOM      3  C   UNL     1       5.300   0.951  -5.085  1.00  0.00     0.000 C 
BRANCH   3   4
ATOM      4  C   UNL     1       4.103   1.041  -6.047  1.00  0.00     0.000 C 
BRANCH   4   5
ATOM      5  C   UNL     1       4.280   2.183  -7.064  1.00  0.00     0.000 C 
BRANCH   5   6
ATOM      6  C   UNL     1       4.027   1.739  -8.514  1.00  0.00     0.000 C 
BRANCH   6   7
ATOM      7  C   UNL     1       4.445   0.277  -8.791  1.00  0.00     0.000 C 
BRANCH   7   8
ATOM      8  C   UNL     1       5.733   0.196  -9.628  1.00  0.00     0.000 C 
BRANCH   8   9
ATOM      9  C   UNL     1       6.973  -0.155  -8.775  1.00  0.00     0.000 C 
BRANCH   9  10
ATOM     10  C   UNL     1       7.700   1.077  -8.202  1.00  0.00     0.006 C 
BRANCH  10  11
ATOM     11  C   UNL     1       8.909   0.742  -7.316  1.00  0.00     0.053 C 
BRANCH  11  12
ATOM     12  C   UNL     1       9.417  -0.647  -7.561  1.00  0.00     0.041 C 
ATOM     13  O   UNL     1       9.200  -1.562  -6.721  1.00  0.00    -0.550 OA
ATOM     14  O   UNL     1      10.123  -0.933  -8.720  1.00  0.00    -0.550 OA
ENDBRANCH  11  12
ENDBRANCH  10  11
ENDBRANCH   9  10
ENDBRANCH   8   9
ENDBRANCH   7   8
ENDBRANCH   6   7
ENDBRANCH   5   6
ENDBRANCH   4   5
ENDBRANCH   3   4
ENDBRANCH   2   3
ENDBRANCH   1   2
BRANCH   1  15
ATOM     15  C   UNL     1       6.003  -2.698  -6.246  1.00  0.00     0.000 C 
BRANCH  15  16
ATOM     16  C   UNL     1       5.623  -4.068  -5.664  1.00  0.00     0.000 C 
BRANCH  16  17
ATOM     17  C   UNL     1       6.804  -4.767  -4.975  1.00  0.00     0.000 C 
BRANCH  17  18
ATOM     18  C   UNL     1       7.763  -5.364  -6.012  1.00  0.00    -0.000 C 
BRANCH  18  19
ATOM     19  C   UNL     1       8.069  -6.836  -5.703  1.00  0.00    -0.000 C 
BRANCH  19  20
ATOM     20  C   UNL     1       8.720  -7.565  -6.899  1.00  0.00    -0.000 C 
BRANCH  20  21
ATOM     21  C   UNL     1       9.561  -6.644  -7.804  1.00  0.00    -0.000 C 
BRANCH  21  22
ATOM     22  C   UNL     1       9.293  -6.800  -9.313  1.00  0.00    -0.000 C 
BRANCH  22  23
ATOM     23  C   UNL     1       9.161  -5.477 -10.092  1.00  0.00    -0.000 C 
BRANCH  23  24
ATOM     24  C   UNL     1       8.793  -4.247  -9.238  1.00  0.00    -0.000 C 
BRANCH  24  25
ATOM     25  C   UNL     1       7.408  -3.646  -9.536  1.00  0.00    -0.003 C 
ATOM     26  C   UNL     1       6.271  -4.653  -9.364  1.00  0.00     0.004 C 
ENDBRANCH  24  25
ENDBRANCH  23  24
ENDBRANCH  22  23
ENDBRANCH  21  22
ENDBRANCH  20  21
ENDBRANCH  19  20
ENDBRANCH  18  19
ENDBRANCH  17  18
ENDBRANCH  16  17
ENDBRANCH  15  16
ENDBRANCH   1  15
TORSDOF 22
ENDMDL
MODEL 8
REMARK VINA RESULT:    -3.169      3.278      4.199
REMARK INTER + INTRA:         -10.810
REMARK INTER:                  -7.198
REMARK INTRA:                  -3.612
REMARK UNBOUND:                -3.565
REMARK SMILES CCCCCCCCCCCCCCCCCCCCCCCC(=O)[O-]
REMARK SMILES IDX 13 1 14 2 15 3 16 4 17 5 18 6 19 7 20 8 21 9 22 10 23 11
REMARK SMILES IDX 24 12 25 13 26 14 12 15 11 16 10 17 9 18 8 19 7 20 6 21 5 22
REMARK SMILES IDX 4 23 3 24 2 25 1 26
REMARK H PARENT
REMARK Flexibility Score: inf
ROOT
ATOM      1  C   UNL     1       4.605  -0.341  -5.231  1.00  0.00     0.000 C 
ENDROOT
BRANCH   1   2
ATOM      2  C   UNL     1       5.576   0.845  -5.118  1.00  0.00     0.000 C 
BRANCH   2   3
ATOM      3  C   UNL     1       5.294   1.931  -6.175  1.00  0.00     0.000 C 
BRANCH   3   4
ATOM      4  C   UNL     1       3.856   1.863  -6.718  1.00  0.00     0.000 C 
BRANCH   4   5
ATOM      5  C   UNL     1       3.795   2.247  -8.207  1.00  0.00     0.000 C 
BRANCH   5   6
ATOM      6  C   UNL     1       5.180   2.272  -8.876  1.00  0.00     0.000 C 
BRANCH   6   7
ATOM      7  C   UNL     1       5.547   3.648  -9.478  1.00  0.00     0.000 C 
BRANCH   7   8
ATOM      8  C   UNL     1       6.029   4.637  -8.403  1.00  0.00     0.000 C 
BRANCH   8   9
ATOM      9  C   UNL     1       7.567   4.646  -8.254  1.00  0.00     0.000 C 
BRANCH   9  10
ATOM     10  C   UNL     1       8.221   3.270  -8.487  1.00  0.00     0.006 C 
BRANCH  10  11
ATOM     11  C   UNL     1       8.714   2.580  -7.206  1.00  0.00     0.053 C 
BRANCH  11  12
ATOM     12  C   UNL     1       9.315   1.235  -7.489  1.00  0.00     0.041 C 
ATOM     13  O   UNL     1       9.739   0.516  -6.545  1.00  0.00    -0.550 OA
ATOM     14  O   UNL     1       9.399   0.774  -8.794  1.00  0.00    -0.550 OA
ENDBRANCH  11  12
ENDBRANCH  10  11
ENDBRANCH   9  10
ENDBRANCH   8   9
ENDBRANCH   7   8
ENDBRANCH   6   7
ENDBRANCH   5   6
ENDBRANCH   4   5
ENDBRANCH   3   4
ENDBRANCH   2   3
ENDBRANCH   1   2
BRANCH   1  15
ATOM     15  C   UNL     1       5.251  -1.531  -5.962  1.00  0.00     0.000 C 
BRANCH  15  16
ATOM     16  C   UNL     1       6.590  -1.172  -6.622  1.00  0.00     0.000 C 
BRANCH  16  17
ATOM     17  C   UNL     1       6.513  -1.174  -8.156  1.00  0.00     0.000 C 
BRANCH  17  18
ATOM     18  C   UNL     1       5.063  -1.337  -8.628  1.00  0.00    -0.000 C 
BRANCH  18  19
ATOM     19  C   UNL     1       4.936  -2.474  -9.652  1.00  0.00    -0.000 C 
BRANCH  19  20
ATOM     20  C   UNL     1       6.297  -3.128  -9.976  1.00  0.00    -0.000 C 
BRANCH  20  21
ATOM     21  C   UNL     1       6.314  -4.656  -9.778  1.00  0.00    -0.000 C 
BRANCH  21  22
ATOM     22  C   UNL     1       7.669  -5.235  -9.326  1.00  0.00    -0.000 C 
BRANCH  22  23
ATOM     23  C   UNL     1       8.301  -4.537  -8.105  1.00  0.00    -0.000 C 
BRANCH  23  24
ATOM     24  C   UNL     1       8.074  -5.243  -6.754  1.00  0.00    -0.000 C 
BRANCH  24  25
ATOM     25  C   UNL     1       6.739  -4.906  -6.065  1.00  0.00    -0.003 C 
ATOM     26  C   UNL     1       6.900  -4.589  -4.579  1.00  0.00     0.004 C 
ENDBRANCH  24  25
ENDBRANCH  23  24
ENDBRANCH  22  23
ENDBRANCH  21  22
ENDBRANCH  20  21
ENDBRANCH  19  20
ENDBRANCH  18  19
ENDBRANCH  17  18
ENDBRANCH  16  17
ENDBRANCH  15  16
ENDBRANCH   1  15
TORSDOF 22
ENDMDL
MODEL 9
REMARK VINA RESULT:    -3.152      1.921      4.056
REMARK INTER + INTRA:         -10.771
REMARK INTER:                  -6.954
REMARK INTRA:                  -3.817
REMARK UNBOUND:                -3.565
REMARK SMILES CCCCCCCCCCCCCCCCCCCCCCCC(=O)[O-]
REMARK SMILES IDX 13 1 14 2 15 3 16 4 17 5 18 6 19 7 20 8 21 9 22 10 23 11
REMARK SMILES IDX 24 12 25 13 26 14 12 15 11 16 10 17 9 18 8 19 7 20 6 21 5 22
REMARK SMILES IDX 4 23 3 24 2 25 1 26
REMARK H PARENT
REMARK Flexibility Score: inf
ROOT
ATOM      1  C   UNL     1       4.889  -0.520  -5.337  1.00  0.00     0.000 C 
ENDROOT
BRANCH   1   2
ATOM      2  C   UNL     1       5.479   0.859  -5.003  1.00  0.00     0.000 C 
BRANCH   2   3
ATOM      3  C   UNL     1       5.352   1.847  -6.180  1.00  0.00     0.000 C 
BRANCH   3   4
ATOM      4  C   UNL     1       3.940   1.853  -6.791  1.00  0.00     0.000 C 
BRANCH   4   5
ATOM      5  C   UNL     1       3.988   1.736  -8.325  1.00  0.00     0.000 C 
BRANCH   5   6
ATOM      6  C   UNL     1       5.165   0.881  -8.824  1.00  0.00     0.000 C 
BRANCH   6   7
ATOM      7  C   UNL     1       5.805   1.415 -10.125  1.00  0.00     0.000 C 
BRANCH   7   8
ATOM      8  C   UNL     1       6.218   2.892  -9.999  1.00  0.00     0.000 C 
BRANCH   8   9
ATOM      9  C   UNL     1       7.439   3.090  -9.073  1.00  0.00     0.000 C 
BRANCH   9  10
ATOM     10  C   UNL     1       7.335   4.332  -8.167  1.00  0.00     0.006 C 
BRANCH  10  11
ATOM     11  C   UNL     1       5.934   4.959  -8.111  1.00  0.00     0.053 C 
BRANCH  11  12
ATOM     12  C   UNL     1       5.964   6.429  -8.403  1.00  0.00     0.041 C 
ATOM     13  O   UNL     1       5.341   7.238  -7.665  1.00  0.00    -0.550 OA
ATOM     14  O   UNL     1       6.687   6.906  -9.486  1.00  0.00    -0.550 OA
ENDBRANCH  11  12
ENDBRANCH  10  11
ENDBRANCH   9  10
ENDBRANCH   8   9
ENDBRANCH   7   8
ENDBRANCH   6   7
ENDBRANCH   5   6
ENDBRANCH   4   5
ENDBRANCH   3   4
ENDBRANCH   2   3
ENDBRANCH   1   2
BRANCH   1  15
ATOM     15  C   UNL     1       5.995  -1.557  -5.604  1.00  0.00     0.000 C 
BRANCH  15  16
ATOM     16  C   UNL     1       5.812  -2.296  -6.938  1.00  0.00     0.000 C 
BRANCH  16  17
ATOM     17  C   UNL     1       5.691  -3.816  -6.759  1.00  0.00     0.000 C 
BRANCH  17  18
ATOM     18  C   UNL     1       6.283  -4.256  -5.415  1.00  0.00    -0.000 C 
BRANCH  18  19
ATOM     19  C   UNL     1       7.413  -5.277  -5.613  1.00  0.00    -0.000 C 
BRANCH  19  20
ATOM     20  C   UNL     1       7.811  -5.435  -7.097  1.00  0.00    -0.000 C 
BRANCH  20  21
ATOM     21  C   UNL     1       9.326  -5.322  -7.349  1.00  0.00    -0.000 C 
BRANCH  21  22
ATOM     22  C   UNL     1       9.719  -4.442  -8.551  1.00  0.00    -0.000 C 
BRANCH  22  23
ATOM     23  C   UNL     1       8.934  -3.121  -8.676  1.00  0.00    -0.000 C 
BRANCH  23  24
ATOM     24  C   UNL     1       9.751  -1.844  -8.395  1.00  0.00    -0.000 C 
BRANCH  24  25
ATOM     25  C   UNL     1       9.352  -1.091  -7.113  1.00  0.00    -0.003 C 
ATOM     26  C   UNL     1       8.640   0.231  -7.396  1.00  0.00     0.004 C 
ENDBRANCH  24  25
ENDBRANCH  23  24
ENDBRANCH  22  23
ENDBRANCH  21  22
ENDBRANCH  20  21
ENDBRANCH  19  20
ENDBRANCH  18  19
ENDBRANCH  17  18
ENDBRANCH  16  17
ENDBRANCH  15  16
ENDBRANCH   1  15
TORSDOF 22
ENDMDL
