MODEL 1
REMARK VINA RESULT:    -3.832      0.000      0.000
REMARK INTER + INTRA:          -5.200
REMARK INTER:                  -4.728
REMARK INTRA:                  -0.472
REMARK UNBOUND:                -0.472
REMARK SMILES C=CC[C@H](C)C(=O)CC
REMARK SMILES IDX 4 1 5 2 6 3 7 4 8 5 9 6 3 7 2 8 1 9
REMARK H PARENT
REMARK Flexibility Score: inf
ROOT
ATOM      1  C   UNL     1      55.521  18.701  -4.302  1.00  0.00     0.057 C 
ATOM      2  C   UNL     1      56.724  19.294  -5.048  1.00  0.00     0.016 C 
ENDROOT
BRANCH   1   3
ATOM      3  C   UNL     1      54.265  18.785  -5.148  1.00  0.00     0.135 C 
ATOM      4  O   UNL     1      53.741  19.871  -5.354  1.00  0.00    -0.299 OA
BRANCH   3   5
ATOM      5  C   UNL     1      53.648  17.549  -5.747  1.00  0.00     0.072 C 
ATOM      6  C   UNL     1      54.019  16.312  -4.937  1.00  0.00     0.012 C 
ENDBRANCH   3   5
ENDBRANCH   1   3
BRANCH   1   7
ATOM      7  C   UNL     1      55.316  19.330  -2.906  1.00  0.00     0.038 C 
BRANCH   7   8
ATOM      8  C   UNL     1      54.458  18.500  -1.984  1.00  0.00    -0.034 C 
ATOM      9  C   UNL     1      54.896  17.357  -1.449  1.00  0.00     0.004 C 
ENDBRANCH   7   8
ENDBRANCH   1   7
TORSDOF 4
ENDMDL
MODEL 2
REMARK VINA RESULT:    -3.718      2.264      3.471
REMARK INTER + INTRA:          -5.060
REMARK INTER:                  -4.766
REMARK INTRA:                  -0.293
REMARK UNBOUND:                -0.472
REMARK SMILES C=CC[C@H](C)C(=O)CC
REMARK SMILES IDX 4 1 5 2 6 3 7 4 8 5 9 6 3 7 2 8 1 9
REMARK H PARENT
REMARK Flexibility Score: inf
ROOT
ATOM      1  C   UNL     1      54.818  18.353  -2.978  1.00  0.00     0.057 C 
ATOM      2  C   UNL     1      55.245  19.287  -1.838  1.00  0.00     0.016 C 
ENDROOT
BRANCH   1   3
ATOM      3  C   UNL     1      54.925  16.901  -2.556  1.00  0.00     0.135 C 
ATOM      4  O   UNL     1      54.902  16.608  -1.368  1.00  0.00    -0.299 OA
BRANCH   3   5
ATOM      5  C   UNL     1      55.057  15.802  -3.577  1.00  0.00     0.072 C 
ATOM      6  C   UNL     1      55.564  14.519  -2.929  1.00  0.00     0.012 C 
ENDBRANCH   3   5
ENDBRANCH   1   3
BRANCH   1   7
ATOM      7  C   UNL     1      55.583  18.627  -4.291  1.00  0.00     0.038 C 
BRANCH   7   8
ATOM      8  C   UNL     1      54.776  19.377  -5.322  1.00  0.00    -0.034 C 
ATOM      9  C   UNL     1      53.440  19.364  -5.319  1.00  0.00     0.004 C 
ENDBRANCH   7   8
ENDBRANCH   1   7
TORSDOF 4
ENDMDL
MODEL 3
REMARK VINA RESULT:    -3.666      1.305      1.789
REMARK INTER + INTRA:          -4.995
REMARK INTER:                  -4.620
REMARK INTRA:                  -0.374
REMARK UNBOUND:                -0.472
REMARK SMILES C=CC[C@H](C)C(=O)CC
REMARK SMILES IDX 4 1 5 2 6 3 7 4 8 5 9 6 3 7 2 8 1 9
REMARK H PARENT
REMARK Flexibility Score: inf
ROOT
ATOM      1  C   UNL     1      55.517  18.534  -4.426  1.00  0.00     0.057 C 
ATOM      2  C   UNL     1      56.663  19.362  -5.023  1.00  0.00     0.016 C 
ENDROOT
BRANCH   1   3
ATOM      3  C   UNL     1      54.290  18.590  -5.313  1.00  0.00     0.135 C 
ATOM      4  O   UNL     1      53.911  17.582  -5.893  1.00  0.00    -0.299 OA
BRANCH   3   5
ATOM      5  C   UNL     1      53.518  19.871  -5.494  1.00  0.00     0.072 C 
ATOM      6  C   UNL     1      52.125  19.753  -4.885  1.00  0.00     0.012 C 
ENDBRANCH   3   5
ENDBRANCH   1   3
BRANCH   1   7
ATOM      7  C   UNL     1      55.191  18.932  -2.969  1.00  0.00     0.038 C 
BRANCH   7   8
ATOM      8  C   UNL     1      54.587  17.816  -2.153  1.00  0.00    -0.034 C 
ATOM      9  C   UNL     1      54.898  16.535  -2.371  1.00  0.00     0.004 C 
ENDBRANCH   7   8
ENDBRANCH   1   7
TORSDOF 4
ENDMDL
MODEL 4
REMARK VINA RESULT:    -3.628      1.790      2.735
REMARK INTER + INTRA:          -4.948
REMARK INTER:                  -4.669
REMARK INTRA:                  -0.280
REMARK UNBOUND:                -0.472
REMARK SMILES C=CC[C@H](C)C(=O)CC
REMARK SMILES IDX 4 1 5 2 6 3 7 4 8 5 9 6 3 7 2 8 1 9
REMARK H PARENT
REMARK Flexibility Score: inf
ROOT
ATOM      1  C   UNL     1      55.266  18.014  -3.109  1.00  0.00     0.057 C 
ATOM      2  C   UNL     1      54.813  19.043  -2.065  1.00  0.00     0.016 C 
ENDROOT
BRANCH   1   3
ATOM      3  C   UNL     1      55.321  18.634  -4.492  1.00  0.00     0.135 C 
ATOM      4  O   UNL     1      56.332  19.215  -4.859  1.00  0.00    -0.299 OA
BRANCH   3   5
ATOM      5  C   UNL     1      54.147  18.544  -5.431  1.00  0.00     0.072 C 
ATOM      6  C   UNL     1      53.384  19.864  -5.470  1.00  0.00     0.012 C 
ENDBRANCH   3   5
ENDBRANCH   1   3
BRANCH   1   7
ATOM      7  C   UNL     1      54.408  16.729  -3.091  1.00  0.00     0.038 C 
BRANCH   7   8
ATOM      8  C   UNL     1      55.157  15.491  -3.518  1.00  0.00    -0.034 C 
ATOM      9  C   UNL     1      55.545  14.562  -2.640  1.00  0.00     0.004 C 
ENDBRANCH   7   8
ENDBRANCH   1   7
TORSDOF 4
ENDMDL
MODEL 5
REMARK VINA RESULT:    -3.611      1.784      3.353
REMARK INTER + INTRA:          -4.928
REMARK INTER:                  -4.433
REMARK INTRA:                  -0.495
REMARK UNBOUND:                -0.472
REMARK SMILES C=CC[C@H](C)C(=O)CC
REMARK SMILES IDX 4 1 5 2 6 3 7 4 8 5 9 6 3 7 2 8 1 9
REMARK H PARENT
REMARK Flexibility Score: inf
ROOT
ATOM      1  C   UNL     1      54.356  18.608  -5.490  1.00  0.00     0.057 C 
ATOM      2  C   UNL     1      53.614  17.265  -5.483  1.00  0.00     0.016 C 
ENDROOT
BRANCH   1   3
ATOM      3  C   UNL     1      55.357  18.679  -4.354  1.00  0.00     0.135 C 
ATOM      4  O   UNL     1      56.425  19.252  -4.517  1.00  0.00    -0.299 OA
BRANCH   3   5
ATOM      5  C   UNL     1      55.058  18.058  -3.014  1.00  0.00     0.072 C 
ATOM      6  C   UNL     1      55.081  19.111  -1.912  1.00  0.00     0.012 C 
ENDBRANCH   3   5
ENDBRANCH   1   3
BRANCH   1   7
ATOM      7  C   UNL     1      53.398  19.819  -5.487  1.00  0.00     0.038 C 
BRANCH   7   8
ATOM      8  C   UNL     1      52.121  19.584  -4.719  1.00  0.00    -0.034 C 
ATOM      9  C   UNL     1      51.867  20.206  -3.565  1.00  0.00     0.004 C 
ENDBRANCH   7   8
ENDBRANCH   1   7
TORSDOF 4
ENDMDL
MODEL 6
REMARK VINA RESULT:    -3.577      1.133      3.095
REMARK INTER + INTRA:          -4.885
REMARK INTER:                  -4.520
REMARK INTRA:                  -0.365
REMARK UNBOUND:                -0.472
REMARK SMILES C=CC[C@H](C)C(=O)CC
REMARK SMILES IDX 4 1 5 2 6 3 7 4 8 5 9 6 3 7 2 8 1 9
REMARK H PARENT
REMARK Flexibility Score: inf
ROOT
ATOM      1  C   UNL     1      54.517  19.002  -4.702  1.00  0.00     0.057 C 
ATOM      2  C   UNL     1      56.050  19.062  -4.716  1.00  0.00     0.016 C 
ENDROOT
BRANCH   1   3
ATOM      3  C   UNL     1      53.986  19.043  -3.282  1.00  0.00     0.135 C 
ATOM      4  O   UNL     1      52.782  19.119  -3.083  1.00  0.00    -0.299 OA
BRANCH   3   5
ATOM      5  C   UNL     1      54.920  18.985  -2.102  1.00  0.00     0.072 C 
ATOM      6  C   UNL     1      54.865  17.615  -1.435  1.00  0.00     0.012 C 
ENDBRANCH   3   5
ENDBRANCH   1   3
BRANCH   1   7
ATOM      7  C   UNL     1      53.960  17.794  -5.488  1.00  0.00     0.038 C 
BRANCH   7   8
ATOM      8  C   UNL     1      54.178  16.468  -4.802  1.00  0.00    -0.034 C 
ATOM      9  C   UNL     1      53.461  15.385  -5.115  1.00  0.00     0.004 C 
ENDBRANCH   7   8
ENDBRANCH   1   7
TORSDOF 4
ENDMDL
MODEL 7
REMARK VINA RESULT:    -3.553      1.484      2.225
REMARK INTER + INTRA:          -4.856
REMARK INTER:                  -4.366
REMARK INTRA:                  -0.490
REMARK UNBOUND:                -0.472
REMARK SMILES C=CC[C@H](C)C(=O)CC
REMARK SMILES IDX 4 1 5 2 6 3 7 4 8 5 9 6 3 7 2 8 1 9
REMARK H PARENT
REMARK Flexibility Score: inf
ROOT
ATOM      1  C   UNL     1      54.639  18.430  -5.366  1.00  0.00     0.057 C 
ATOM      2  C   UNL     1      55.952  19.069  -4.895  1.00  0.00     0.016 C 
ENDROOT
BRANCH   1   3
ATOM      3  C   UNL     1      53.479  19.392  -5.198  1.00  0.00     0.135 C 
ATOM      4  O   UNL     1      53.500  20.476  -5.765  1.00  0.00    -0.299 OA
BRANCH   3   5
ATOM      5  C   UNL     1      52.290  19.035  -4.345  1.00  0.00     0.072 C 
ATOM      6  C   UNL     1      52.351  19.758  -3.004  1.00  0.00     0.012 C 
ENDBRANCH   3   5
ENDBRANCH   1   3
BRANCH   1   7
ATOM      7  C   UNL     1      54.360  17.071  -4.687  1.00  0.00     0.038 C 
BRANCH   7   8
ATOM      8  C   UNL     1      55.226  16.802  -3.481  1.00  0.00    -0.034 C 
ATOM      9  C   UNL     1      54.723  16.764  -2.245  1.00  0.00     0.004 C 
ENDBRANCH   7   8
ENDBRANCH   1   7
TORSDOF 4
ENDMDL
MODEL 8
REMARK VINA RESULT:    -3.525      1.766      3.245
REMARK INTER + INTRA:          -4.821
REMARK INTER:                  -4.337
REMARK INTRA:                  -0.483
REMARK UNBOUND:                -0.472
REMARK SMILES C=CC[C@H](C)C(=O)CC
REMARK SMILES IDX 4 1 5 2 6 3 7 4 8 5 9 6 3 7 2 8 1 9
REMARK H PARENT
REMARK Flexibility Score: inf
ROOT
ATOM      1  C   UNL     1      55.040  19.029  -4.429  1.00  0.00     0.057 C 
ATOM      2  C   UNL     1      56.428  19.207  -5.058  1.00  0.00     0.016 C 
ENDROOT
BRANCH   1   3
ATOM      3  C   UNL     1      54.962  17.730  -3.652  1.00  0.00     0.135 C 
ATOM      4  O   UNL     1      54.979  16.662  -4.247  1.00  0.00    -0.299 OA
BRANCH   3   5
ATOM      5  C   UNL     1      54.867  17.727  -2.148  1.00  0.00     0.072 C 
ATOM      6  C   UNL     1      55.105  19.125  -1.589  1.00  0.00     0.012 C 
ENDBRANCH   3   5
ENDBRANCH   1   3
BRANCH   1   7
ATOM      7  C   UNL     1      53.898  19.151  -5.461  1.00  0.00     0.038 C 
BRANCH   7   8
ATOM      8  C   UNL     1      52.519  19.136  -4.848  1.00  0.00    -0.034 C 
ATOM      9  C   UNL     1      52.111  20.089  -4.005  1.00  0.00     0.004 C 
ENDBRANCH   7   8
ENDBRANCH   1   7
TORSDOF 4
ENDMDL
MODEL 9
REMARK VINA RESULT:    -3.481      1.900      3.840
REMARK INTER + INTRA:          -4.766
REMARK INTER:                  -4.354
REMARK INTRA:                  -0.412
REMARK UNBOUND:                -0.472
REMARK SMILES C=CC[C@H](C)C(=O)CC
REMARK SMILES IDX 4 1 5 2 6 3 7 4 8 5 9 6 3 7 2 8 1 9
REMARK H PARENT
REMARK Flexibility Score: inf
ROOT
ATOM      1  C   UNL     1      54.816  16.846  -3.551  1.00  0.00     0.057 C 
ATOM      2  C   UNL     1      55.280  15.386  -3.479  1.00  0.00     0.016 C 
ENDROOT
BRANCH   1   3
ATOM      3  C   UNL     1      53.810  17.149  -2.457  1.00  0.00     0.135 C 
ATOM      4  O   UNL     1      52.674  16.702  -2.533  1.00  0.00    -0.299 OA
BRANCH   3   5
ATOM      5  C   UNL     1      54.186  17.992  -1.267  1.00  0.00     0.072 C 
ATOM      6  C   UNL     1      55.163  19.090  -1.670  1.00  0.00     0.012 C 
ENDBRANCH   3   5
ENDBRANCH   1   3
BRANCH   1   7
ATOM      7  C   UNL     1      54.279  17.234  -4.947  1.00  0.00     0.038 C 
BRANCH   7   8
ATOM      8  C   UNL     1      54.673  18.622  -5.387  1.00  0.00    -0.034 C 
ATOM      9  C   UNL     1      55.876  19.135  -5.115  1.00  0.00     0.004 C 
ENDBRANCH   7   8
ENDBRANCH   1   7
TORSDOF 4
ENDMDL
