MODEL 1
REMARK VINA RESULT:    -5.298      0.000      0.000
REMARK INTER + INTRA:          -7.062
REMARK INTER:                  -6.692
REMARK INTRA:                  -0.369
REMARK UNBOUND:                -0.369
REMARK SMILES Oc1cc(O)cc(CCc2ccccc2O)c1
REMARK SMILES IDX 9 1 10 2 12 3 13 4 11 5 14 6 15 7 16 8 8 10 7 11 6 12 17 13
REMARK SMILES IDX 4 14 2 15 3 16 5 17 1 19
REMARK H PARENT 16 9 5 18 1 20
REMARK Flexibility Score: inf
ROOT
ATOM      1  C   UNL     1      35.759  -6.109  52.409  1.00  0.00     0.044 C 
ENDROOT
BRANCH   1   2
ATOM      2  C   UNL     1      35.824  -5.129  51.256  1.00  0.00    -0.006 A 
ATOM      3  C   UNL     1      37.125  -3.469  50.037  1.00  0.00     0.001 A 
ATOM      4  C   UNL     1      36.089  -3.321  49.116  1.00  0.00     0.004 A 
ATOM      5  C   UNL     1      36.996  -4.367  51.097  1.00  0.00     0.007 A 
ATOM      6  C   UNL     1      34.923  -4.076  49.250  1.00  0.00     0.046 A 
ATOM      7  C   UNL     1      34.778  -4.986  50.305  1.00  0.00     0.118 A 
BRANCH   7   8
ATOM      8  O   UNL     1      33.593  -5.723  50.364  1.00  0.00    -0.508 OA
ATOM      9  H   UNL     1      33.030  -5.823  51.196  1.00  0.00     0.293 HD
ENDBRANCH   7   8
ENDBRANCH   1   2
BRANCH   1  10
ATOM     10  C   UNL     1      36.886  -7.150  52.343  1.00  0.00     0.040 C 
BRANCH  10  11
ATOM     11  C   UNL     1      36.545  -8.403  53.108  1.00  0.00    -0.040 A 
ATOM     12  C   UNL     1      35.903  -9.474  52.464  1.00  0.00     0.050 A 
ATOM     13  C   UNL     1      36.819  -8.489  54.482  1.00  0.00     0.050 A 
ATOM     14  C   UNL     1      35.543 -10.620  53.187  1.00  0.00     0.119 A 
ATOM     15  C   UNL     1      36.463  -9.636  55.205  1.00  0.00     0.119 A 
ATOM     16  C   UNL     1      35.827 -10.698  54.554  1.00  0.00     0.092 A 
BRANCH  14  17
ATOM     17  O   UNL     1      34.902 -11.684  52.555  1.00  0.00    -0.508 OA
ATOM     18  H   UNL     1      34.588 -12.496  53.074  1.00  0.00     0.293 HD
ENDBRANCH  14  17
BRANCH  15  19
ATOM     19  O   UNL     1      36.732  -9.729  56.568  1.00  0.00    -0.508 OA
ATOM     20  H   UNL     1      36.561 -10.583  57.084  1.00  0.00     0.293 HD
ENDBRANCH  15  19
ENDBRANCH  10  11
ENDBRANCH   1  10
TORSDOF 6
ENDMDL
MODEL 2
REMARK VINA RESULT:    -5.158      4.888      6.898
REMARK INTER + INTRA:          -6.884
REMARK INTER:                  -6.440
REMARK INTRA:                  -0.444
REMARK UNBOUND:                -0.369
REMARK SMILES Oc1cc(O)cc(CCc2ccccc2O)c1
REMARK SMILES IDX 9 1 10 2 12 3 13 4 11 5 14 6 15 7 16 8 8 10 7 11 6 12 17 13
REMARK SMILES IDX 4 14 2 15 3 16 5 17 1 19
REMARK H PARENT 16 9 5 18 1 20
REMARK Flexibility Score: inf
ROOT
ATOM      1  C   UNL     1      36.323  -2.988  55.801  1.00  0.00     0.044 C 
ENDROOT
BRANCH   1   2
ATOM      2  C   UNL     1      36.060  -3.139  57.285  1.00  0.00    -0.006 A 
ATOM      3  C   UNL     1      36.807  -4.029  59.426  1.00  0.00     0.001 A 
ATOM      4  C   UNL     1      35.717  -3.438  60.062  1.00  0.00     0.004 A 
ATOM      5  C   UNL     1      36.981  -3.880  58.049  1.00  0.00     0.007 A 
ATOM      6  C   UNL     1      34.799  -2.690  59.322  1.00  0.00     0.046 A 
ATOM      7  C   UNL     1      34.960  -2.525  57.941  1.00  0.00     0.118 A 
BRANCH   7   8
ATOM      8  O   UNL     1      34.015  -1.746  57.269  1.00  0.00    -0.508 OA
ATOM      9  H   UNL     1      33.299  -1.202  57.730  1.00  0.00     0.293 HD
ENDBRANCH   7   8
ENDBRANCH   1   2
BRANCH   1  10
ATOM     10  C   UNL     1      37.068  -4.199  55.222  1.00  0.00     0.040 C 
BRANCH  10  11
ATOM     11  C   UNL     1      36.434  -4.701  53.951  1.00  0.00    -0.040 A 
ATOM     12  C   UNL     1      35.756  -3.814  53.098  1.00  0.00     0.050 A 
ATOM     13  C   UNL     1      36.469  -6.069  53.636  1.00  0.00     0.050 A 
ATOM     14  C   UNL     1      35.125  -4.290  51.941  1.00  0.00     0.119 A 
ATOM     15  C   UNL     1      35.841  -6.545  52.477  1.00  0.00     0.119 A 
ATOM     16  C   UNL     1      35.172  -5.653  51.632  1.00  0.00     0.092 A 
BRANCH  14  17
ATOM     17  O   UNL     1      34.447  -3.416  51.093  1.00  0.00    -0.508 OA
ATOM     18  H   UNL     1      34.933  -2.891  50.376  1.00  0.00     0.293 HD
ENDBRANCH  14  17
BRANCH  15  19
ATOM     19  O   UNL     1      35.873  -7.900  52.158  1.00  0.00    -0.508 OA
ATOM     20  H   UNL     1      36.746  -8.382  51.980  1.00  0.00     0.293 HD
ENDBRANCH  15  19
ENDBRANCH  10  11
ENDBRANCH   1  10
TORSDOF 6
ENDMDL
MODEL 3
REMARK VINA RESULT:    -5.069      4.978      6.807
REMARK INTER + INTRA:          -6.772
REMARK INTER:                  -6.337
REMARK INTRA:                  -0.436
REMARK UNBOUND:                -0.369
REMARK SMILES Oc1cc(O)cc(CCc2ccccc2O)c1
REMARK SMILES IDX 9 1 10 2 12 3 13 4 11 5 14 6 15 7 16 8 8 10 7 11 6 12 17 13
REMARK SMILES IDX 4 14 2 15 3 16 5 17 1 19
REMARK H PARENT 16 9 5 18 1 20
REMARK Flexibility Score: inf
ROOT
ATOM      1  C   UNL     1      36.730  -3.263  55.967  1.00  0.00     0.044 C 
ENDROOT
BRANCH   1   2
ATOM      2  C   UNL     1      36.229  -3.160  57.393  1.00  0.00    -0.006 A 
ATOM      3  C   UNL     1      36.484  -3.842  59.717  1.00  0.00     0.001 A 
ATOM      4  C   UNL     1      35.433  -3.005  60.087  1.00  0.00     0.004 A 
ATOM      5  C   UNL     1      36.882  -3.918  58.382  1.00  0.00     0.007 A 
ATOM      6  C   UNL     1      34.780  -2.236  59.122  1.00  0.00     0.046 A 
ATOM      7  C   UNL     1      35.170  -2.296  57.778  1.00  0.00     0.118 A 
BRANCH   7   8
ATOM      8  O   UNL     1      34.486  -1.482  56.872  1.00  0.00    -0.508 OA
ATOM      9  H   UNL     1      33.656  -1.766  56.371  1.00  0.00     0.293 HD
ENDBRANCH   7   8
ENDBRANCH   1   2
BRANCH   1  10
ATOM     10  C   UNL     1      37.074  -4.708  55.581  1.00  0.00     0.040 C 
BRANCH  10  11
ATOM     11  C   UNL     1      36.479  -5.098  54.253  1.00  0.00    -0.040 A 
ATOM     12  C   UNL     1      36.693  -6.384  53.729  1.00  0.00     0.050 A 
ATOM     13  C   UNL     1      35.749  -4.161  53.503  1.00  0.00     0.050 A 
ATOM     14  C   UNL     1      36.179  -6.730  52.472  1.00  0.00     0.119 A 
ATOM     15  C   UNL     1      35.232  -4.507  52.247  1.00  0.00     0.119 A 
ATOM     16  C   UNL     1      35.448  -5.791  51.737  1.00  0.00     0.092 A 
BRANCH  14  17
ATOM     17  O   UNL     1      36.392  -8.002  51.944  1.00  0.00    -0.508 OA
ATOM     18  H   UNL     1      37.027  -8.657  52.385  1.00  0.00     0.293 HD
ENDBRANCH  14  17
BRANCH  15  19
ATOM     19  O   UNL     1      34.507  -3.584  51.499  1.00  0.00    -0.508 OA
ATOM     20  H   UNL     1      34.757  -2.602  51.482  1.00  0.00     0.293 HD
ENDBRANCH  15  19
ENDBRANCH  10  11
ENDBRANCH   1  10
TORSDOF 6
ENDMDL
MODEL 4
REMARK VINA RESULT:    -5.043      2.429      6.240
REMARK INTER + INTRA:          -6.739
REMARK INTER:                  -6.325
REMARK INTRA:                  -0.414
REMARK UNBOUND:                -0.369
REMARK SMILES Oc1cc(O)cc(CCc2ccccc2O)c1
REMARK SMILES IDX 9 1 10 2 12 3 13 4 11 5 14 6 15 7 16 8 8 10 7 11 6 12 17 13
REMARK SMILES IDX 4 14 2 15 3 16 5 17 1 19
REMARK H PARENT 16 9 5 18 1 20
REMARK Flexibility Score: inf
ROOT
ATOM      1  C   UNL     1      36.362  -8.079  52.369  1.00  0.00     0.044 C 
ENDROOT
BRANCH   1   2
ATOM      2  C   UNL     1      36.143  -9.505  52.832  1.00  0.00    -0.006 A 
ATOM      3  C   UNL     1      36.962 -11.394  54.133  1.00  0.00     0.001 A 
ATOM      4  C   UNL     1      35.820 -12.124  53.808  1.00  0.00     0.004 A 
ATOM      5  C   UNL     1      37.123 -10.094  53.652  1.00  0.00     0.007 A 
ATOM      6  C   UNL     1      34.832 -11.552  53.005  1.00  0.00     0.046 A 
ATOM      7  C   UNL     1      34.973 -10.247  52.518  1.00  0.00     0.118 A 
BRANCH   7   8
ATOM      8  O   UNL     1      33.935  -9.733  51.738  1.00  0.00    -0.508 OA
ATOM      9  H   UNL     1      33.820  -9.921  50.752  1.00  0.00     0.293 HD
ENDBRANCH   7   8
ENDBRANCH   1   2
BRANCH   1  10
ATOM     10  C   UNL     1      37.022  -7.217  53.454  1.00  0.00     0.040 C 
BRANCH  10  11
ATOM     11  C   UNL     1      36.505  -5.801  53.445  1.00  0.00    -0.040 A 
ATOM     12  C   UNL     1      35.702  -5.345  52.387  1.00  0.00     0.050 A 
ATOM     13  C   UNL     1      36.867  -4.910  54.470  1.00  0.00     0.050 A 
ATOM     14  C   UNL     1      35.261  -4.015  52.355  1.00  0.00     0.119 A 
ATOM     15  C   UNL     1      36.424  -3.581  54.440  1.00  0.00     0.119 A 
ATOM     16  C   UNL     1      35.621  -3.139  53.384  1.00  0.00     0.092 A 
BRANCH  14  17
ATOM     17  O   UNL     1      34.468  -3.556  51.306  1.00  0.00    -0.508 OA
ATOM     18  H   UNL     1      33.488  -3.804  51.235  1.00  0.00     0.293 HD
ENDBRANCH  14  17
BRANCH  15  19
ATOM     19  O   UNL     1      36.777  -2.692  55.452  1.00  0.00    -0.508 OA
ATOM     20  H   UNL     1      36.079  -2.260  56.046  1.00  0.00     0.293 HD
ENDBRANCH  15  19
ENDBRANCH  10  11
ENDBRANCH   1  10
TORSDOF 6
ENDMDL
MODEL 5
REMARK VINA RESULT:    -4.975      4.782      6.731
REMARK INTER + INTRA:          -6.653
REMARK INTER:                  -6.223
REMARK INTRA:                  -0.430
REMARK UNBOUND:                -0.369
REMARK SMILES Oc1cc(O)cc(CCc2ccccc2O)c1
REMARK SMILES IDX 9 1 10 2 12 3 13 4 11 5 14 6 15 7 16 8 8 10 7 11 6 12 17 13
REMARK SMILES IDX 4 14 2 15 3 16 5 17 1 19
REMARK H PARENT 16 9 5 18 1 20
REMARK Flexibility Score: inf
ROOT
ATOM      1  C   UNL     1      36.661  -3.163  55.703  1.00  0.00     0.044 C 
ENDROOT
BRANCH   1   2
ATOM      2  C   UNL     1      36.040  -2.675  56.996  1.00  0.00    -0.006 A 
ATOM      3  C   UNL     1      34.903  -0.876  58.182  1.00  0.00     0.001 A 
ATOM      4  C   UNL     1      34.804  -1.677  59.318  1.00  0.00     0.004 A 
ATOM      5  C   UNL     1      35.514  -1.370  57.028  1.00  0.00     0.007 A 
ATOM      6  C   UNL     1      35.309  -2.977  59.302  1.00  0.00     0.046 A 
ATOM      7  C   UNL     1      35.921  -3.492  58.151  1.00  0.00     0.118 A 
BRANCH   7   8
ATOM      8  O   UNL     1      36.384  -4.809  58.201  1.00  0.00    -0.508 OA
ATOM      9  H   UNL     1      37.308  -5.095  57.910  1.00  0.00     0.293 HD
ENDBRANCH   7   8
ENDBRANCH   1   2
BRANCH   1  10
ATOM     10  C   UNL     1      35.672  -3.104  54.531  1.00  0.00     0.040 C 
BRANCH  10  11
ATOM     11  C   UNL     1      35.753  -4.330  53.659  1.00  0.00    -0.040 A 
ATOM     12  C   UNL     1      36.370  -5.499  54.134  1.00  0.00     0.050 A 
ATOM     13  C   UNL     1      35.258  -4.297  52.345  1.00  0.00     0.050 A 
ATOM     14  C   UNL     1      36.488  -6.623  53.305  1.00  0.00     0.119 A 
ATOM     15  C   UNL     1      35.372  -5.422  51.517  1.00  0.00     0.119 A 
ATOM     16  C   UNL     1      35.986  -6.582  52.001  1.00  0.00     0.092 A 
BRANCH  14  17
ATOM     17  O   UNL     1      37.103  -7.784  53.768  1.00  0.00    -0.508 OA
ATOM     18  H   UNL     1      37.814  -7.755  54.490  1.00  0.00     0.293 HD
ENDBRANCH  14  17
BRANCH  15  19
ATOM     19  O   UNL     1      34.883  -5.396  50.213  1.00  0.00    -0.508 OA
ATOM     20  H   UNL     1      34.432  -6.205  49.801  1.00  0.00     0.293 HD
ENDBRANCH  15  19
ENDBRANCH  10  11
ENDBRANCH   1  10
TORSDOF 6
ENDMDL
MODEL 6
REMARK VINA RESULT:    -4.905      1.663      6.805
REMARK INTER + INTRA:          -6.565
REMARK INTER:                  -6.173
REMARK INTRA:                  -0.392
REMARK UNBOUND:                -0.369
REMARK SMILES Oc1cc(O)cc(CCc2ccccc2O)c1
REMARK SMILES IDX 9 1 10 2 12 3 13 4 11 5 14 6 15 7 16 8 8 10 7 11 6 12 17 13
REMARK SMILES IDX 4 14 2 15 3 16 5 17 1 19
REMARK H PARENT 16 9 5 18 1 20
REMARK Flexibility Score: inf
ROOT
ATOM      1  C   UNL     1      36.632  -7.380  52.083  1.00  0.00     0.044 C 
ENDROOT
BRANCH   1   2
ATOM      2  C   UNL     1      36.490  -8.366  53.224  1.00  0.00    -0.006 A 
ATOM      3  C   UNL     1      36.834  -8.839  55.589  1.00  0.00     0.001 A 
ATOM      4  C   UNL     1      36.225 -10.084  55.437  1.00  0.00     0.004 A 
ATOM      5  C   UNL     1      36.964  -7.985  54.493  1.00  0.00     0.007 A 
ATOM      6  C   UNL     1      35.739 -10.475  54.188  1.00  0.00     0.046 A 
ATOM      7  C   UNL     1      35.855  -9.628  53.079  1.00  0.00     0.118 A 
BRANCH   7   8
ATOM      8  O   UNL     1      35.327 -10.076  51.866  1.00  0.00    -0.508 OA
ATOM      9  H   UNL     1      35.364 -11.036  51.553  1.00  0.00     0.293 HD
ENDBRANCH   7   8
ENDBRANCH   1   2
BRANCH   1  10
ATOM     10  C   UNL     1      36.356  -5.937  52.531  1.00  0.00     0.040 C 
BRANCH  10  11
ATOM     11  C   UNL     1      35.994  -5.044  51.372  1.00  0.00    -0.040 A 
ATOM     12  C   UNL     1      34.874  -4.199  51.451  1.00  0.00     0.050 A 
ATOM     13  C   UNL     1      36.743  -5.087  50.185  1.00  0.00     0.050 A 
ATOM     14  C   UNL     1      34.510  -3.404  50.356  1.00  0.00     0.119 A 
ATOM     15  C   UNL     1      36.381  -4.290  49.091  1.00  0.00     0.119 A 
ATOM     16  C   UNL     1      35.266  -3.449  49.181  1.00  0.00     0.092 A 
BRANCH  14  17
ATOM     17  O   UNL     1      33.398  -2.567  50.426  1.00  0.00    -0.508 OA
ATOM     18  H   UNL     1      33.152  -1.949  49.662  1.00  0.00     0.293 HD
ENDBRANCH  14  17
BRANCH  15  19
ATOM     19  O   UNL     1      37.119  -4.327  47.911  1.00  0.00    -0.508 OA
ATOM     20  H   UNL     1      36.713  -4.656  47.042  1.00  0.00     0.293 HD
ENDBRANCH  15  19
ENDBRANCH  10  11
ENDBRANCH   1  10
TORSDOF 6
ENDMDL
MODEL 7
REMARK VINA RESULT:    -4.769      0.558      2.092
REMARK INTER + INTRA:          -6.392
REMARK INTER:                  -5.965
REMARK INTRA:                  -0.427
REMARK UNBOUND:                -0.369
REMARK SMILES Oc1cc(O)cc(CCc2ccccc2O)c1
REMARK SMILES IDX 9 1 10 2 12 3 13 4 11 5 14 6 15 7 16 8 8 10 7 11 6 12 17 13
REMARK SMILES IDX 4 14 2 15 3 16 5 17 1 19
REMARK H PARENT 16 9 5 18 1 20
REMARK Flexibility Score: inf
ROOT
ATOM      1  C   UNL     1      35.393  -5.829  52.763  1.00  0.00     0.044 C 
ENDROOT
BRANCH   1   2
ATOM      2  C   UNL     1      35.635  -5.000  51.519  1.00  0.00    -0.006 A 
ATOM      3  C   UNL     1      37.124  -3.507  50.298  1.00  0.00     0.001 A 
ATOM      4  C   UNL     1      36.227  -3.471  49.232  1.00  0.00     0.004 A 
ATOM      5  C   UNL     1      36.833  -4.267  51.433  1.00  0.00     0.007 A 
ATOM      6  C   UNL     1      35.039  -4.201  49.294  1.00  0.00     0.046 A 
ATOM      7  C   UNL     1      34.733  -4.973  50.422  1.00  0.00     0.118 A 
BRANCH   7   8
ATOM      8  O   UNL     1      33.536  -5.693  50.406  1.00  0.00    -0.508 OA
ATOM      9  H   UNL     1      32.931  -5.804  51.207  1.00  0.00     0.293 HD
ENDBRANCH   7   8
ENDBRANCH   1   2
BRANCH   1  10
ATOM     10  C   UNL     1      36.690  -6.450  53.301  1.00  0.00     0.040 C 
BRANCH  10  11
ATOM     11  C   UNL     1      36.485  -7.865  53.778  1.00  0.00    -0.040 A 
ATOM     12  C   UNL     1      36.871  -8.239  55.076  1.00  0.00     0.050 A 
ATOM     13  C   UNL     1      35.956  -8.834  52.910  1.00  0.00     0.050 A 
ATOM     14  C   UNL     1      36.725  -9.566  55.503  1.00  0.00     0.119 A 
ATOM     15  C   UNL     1      35.808 -10.161  53.337  1.00  0.00     0.119 A 
ATOM     16  C   UNL     1      36.191 -10.522  54.633  1.00  0.00     0.092 A 
BRANCH  14  17
ATOM     17  O   UNL     1      37.109  -9.944  56.788  1.00  0.00    -0.508 OA
ATOM     18  H   UNL     1      37.964  -9.599  57.207  1.00  0.00     0.293 HD
ENDBRANCH  14  17
BRANCH  15  19
ATOM     19  O   UNL     1      35.283 -11.127  52.482  1.00  0.00    -0.508 OA
ATOM     20  H   UNL     1      35.884 -11.742  51.946  1.00  0.00     0.293 HD
ENDBRANCH  15  19
ENDBRANCH  10  11
ENDBRANCH   1  10
TORSDOF 6
ENDMDL
