MODEL 1
REMARK VINA RESULT:    -4.032      0.000      0.000
REMARK INTER + INTRA:          -5.913
REMARK INTER:                  -5.446
REMARK INTRA:                  -0.467
REMARK UNBOUND:                -0.467
REMARK SMILES CCCCCCCC(=O)[O-]
REMARK SMILES IDX 5 1 6 2 7 3 8 4 9 5 10 6 4 7 3 8 2 9 1 10
REMARK H PARENT
REMARK Flexibility Score: inf
ROOT
ATOM      1  C   UNL     1      28.956  -6.722  29.228  1.00  0.00     0.000 C 
ENDROOT
BRANCH   1   2
ATOM      2  C   UNL     1      27.617  -6.206  29.785  1.00  0.00     0.006 C 
BRANCH   2   3
ATOM      3  C   UNL     1      27.758  -5.220  30.956  1.00  0.00     0.053 C 
BRANCH   3   4
ATOM      4  C   UNL     1      27.871  -3.802  30.486  1.00  0.00     0.041 C 
ATOM      5  O   UNL     1      26.848  -3.070  30.430  1.00  0.00    -0.550 OA
ATOM      6  O   UNL     1      29.099  -3.300  30.077  1.00  0.00    -0.550 OA
ENDBRANCH   3   4
ENDBRANCH   2   3
ENDBRANCH   1   2
BRANCH   1   7
ATOM      7  C   UNL     1      28.892  -8.198  28.796  1.00  0.00     0.000 C 
BRANCH   7   8
ATOM      8  C   UNL     1      28.291  -9.100  29.894  1.00  0.00    -0.000 C 
BRANCH   8   9
ATOM      9  C   UNL     1      29.228  -9.317  31.093  1.00  0.00    -0.003 C 
ATOM     10  C   UNL     1      28.624  -8.853  32.417  1.00  0.00     0.004 C 
ENDBRANCH   8   9
ENDBRANCH   7   8
ENDBRANCH   1   7
TORSDOF 6
ENDMDL
MODEL 2
REMARK VINA RESULT:    -4.029      7.358      9.191
REMARK INTER + INTRA:          -5.910
REMARK INTER:                  -5.744
REMARK INTRA:                  -0.166
REMARK UNBOUND:                -0.467
REMARK SMILES CCCCCCCC(=O)[O-]
REMARK SMILES IDX 5 1 6 2 7 3 8 4 9 5 10 6 4 7 3 8 2 9 1 10
REMARK H PARENT
REMARK Flexibility Score: inf
ROOT
ATOM      1  C   UNL     1      20.947  -0.790  27.670  1.00  0.00     0.000 C 
ENDROOT
BRANCH   1   2
ATOM      2  C   UNL     1      21.013  -1.973  28.653  1.00  0.00     0.006 C 
BRANCH   2   3
ATOM      3  C   UNL     1      21.405  -1.581  30.087  1.00  0.00     0.053 C 
BRANCH   3   4
ATOM      4  C   UNL     1      22.707  -2.195  30.501  1.00  0.00     0.041 C 
ATOM      5  O   UNL     1      22.743  -3.385  30.912  1.00  0.00    -0.550 OA
ATOM      6  O   UNL     1      23.874  -1.444  30.464  1.00  0.00    -0.550 OA
ENDBRANCH   3   4
ENDBRANCH   2   3
ENDBRANCH   1   2
BRANCH   1   7
ATOM      7  C   UNL     1      21.657  -1.083  26.336  1.00  0.00     0.000 C 
BRANCH   7   8
ATOM      8  C   UNL     1      22.431   0.143  25.807  1.00  0.00    -0.000 C 
BRANCH   8   9
ATOM      9  C   UNL     1      23.958  -0.010  25.894  1.00  0.00    -0.003 C 
ATOM     10  C   UNL     1      24.694   1.328  25.909  1.00  0.00     0.004 C 
ENDBRANCH   8   9
ENDBRANCH   7   8
ENDBRANCH   1   7
TORSDOF 6
ENDMDL
MODEL 3
REMARK VINA RESULT:    -3.899      9.415     12.766
REMARK INTER + INTRA:          -5.734
REMARK INTER:                  -5.544
REMARK INTRA:                  -0.190
REMARK UNBOUND:                -0.467
REMARK SMILES CCCCCCCC(=O)[O-]
REMARK SMILES IDX 5 1 6 2 7 3 8 4 9 5 10 6 4 7 3 8 2 9 1 10
REMARK H PARENT
REMARK Flexibility Score: inf
ROOT
ATOM      1  C   UNL     1      27.315   5.796  30.461  1.00  0.00     0.000 C 
ENDROOT
BRANCH   1   2
ATOM      2  C   UNL     1      27.810   4.345  30.608  1.00  0.00     0.006 C 
BRANCH   2   3
ATOM      3  C   UNL     1      27.690   3.504  29.326  1.00  0.00     0.053 C 
BRANCH   3   4
ATOM      4  C   UNL     1      27.737   2.035  29.613  1.00  0.00     0.041 C 
ATOM      5  O   UNL     1      26.898   1.259  29.083  1.00  0.00    -0.550 OA
ATOM      6  O   UNL     1      28.686   1.527  30.491  1.00  0.00    -0.550 OA
ENDBRANCH   3   4
ENDBRANCH   2   3
ENDBRANCH   1   2
BRANCH   1   7
ATOM      7  C   UNL     1      28.414   6.753  29.965  1.00  0.00     0.000 C 
BRANCH   7   8
ATOM      8  C   UNL     1      28.060   8.231  30.228  1.00  0.00    -0.000 C 
BRANCH   8   9
ATOM      9  C   UNL     1      26.553   8.482  30.400  1.00  0.00    -0.003 C 
ATOM     10  C   UNL     1      26.243   9.644  31.341  1.00  0.00     0.004 C 
ENDBRANCH   8   9
ENDBRANCH   7   8
ENDBRANCH   1   7
TORSDOF 6
ENDMDL
MODEL 4
REMARK VINA RESULT:    -3.872      4.511      6.998
REMARK INTER + INTRA:          -5.698
REMARK INTER:                  -5.083
REMARK INTRA:                  -0.615
REMARK UNBOUND:                -0.467
REMARK SMILES CCCCCCCC(=O)[O-]
REMARK SMILES IDX 5 1 6 2 7 3 8 4 9 5 10 6 4 7 3 8 2 9 1 10
REMARK H PARENT
REMARK Flexibility Score: inf
ROOT
ATOM      1  C   UNL     1      29.345   0.822  31.299  1.00  0.00     0.000 C 
ENDROOT
BRANCH   1   2
ATOM      2  C   UNL     1      29.535  -0.695  31.486  1.00  0.00     0.006 C 
BRANCH   2   3
ATOM      3  C   UNL     1      30.002  -1.433  30.221  1.00  0.00     0.053 C 
BRANCH   3   4
ATOM      4  C   UNL     1      29.502  -2.844  30.178  1.00  0.00     0.041 C 
ATOM      5  O   UNL     1      28.289  -3.093  30.408  1.00  0.00    -0.550 OA
ATOM      6  O   UNL     1      30.381  -3.887  29.917  1.00  0.00    -0.550 OA
ENDBRANCH   3   4
ENDBRANCH   2   3
ENDBRANCH   1   2
BRANCH   1   7
ATOM      7  C   UNL     1      27.948   1.186  30.767  1.00  0.00     0.000 C 
BRANCH   7   8
ATOM      8  C   UNL     1      26.863   0.207  31.262  1.00  0.00    -0.000 C 
BRANCH   8   9
ATOM      9  C   UNL     1      26.041  -0.424  30.127  1.00  0.00    -0.003 C 
ATOM     10  C   UNL     1      26.710  -0.297  28.760  1.00  0.00     0.004 C 
ENDBRANCH   8   9
ENDBRANCH   7   8
ENDBRANCH   1   7
TORSDOF 6
ENDMDL
MODEL 5
REMARK VINA RESULT:    -3.871      0.992      1.904
REMARK INTER + INTRA:          -5.696
REMARK INTER:                  -5.391
REMARK INTRA:                  -0.306
REMARK UNBOUND:                -0.467
REMARK SMILES CCCCCCCC(=O)[O-]
REMARK SMILES IDX 5 1 6 2 7 3 8 4 9 5 10 6 4 7 3 8 2 9 1 10
REMARK H PARENT
REMARK Flexibility Score: inf
ROOT
ATOM      1  C   UNL     1      29.142  -6.296  30.890  1.00  0.00     0.000 C 
ENDROOT
BRANCH   1   2
ATOM      2  C   UNL     1      28.010  -5.653  30.068  1.00  0.00     0.006 C 
BRANCH   2   3
ATOM      3  C   UNL     1      27.219  -4.571  30.820  1.00  0.00     0.053 C 
BRANCH   3   4
ATOM      4  C   UNL     1      27.642  -3.190  30.425  1.00  0.00     0.041 C 
ATOM      5  O   UNL     1      26.800  -2.254  30.394  1.00  0.00    -0.550 OA
ATOM      6  O   UNL     1      28.959  -2.943  30.060  1.00  0.00    -0.550 OA
ENDBRANCH   3   4
ENDBRANCH   2   3
ENDBRANCH   1   2
BRANCH   1   7
ATOM      7  C   UNL     1      28.772  -7.691  31.425  1.00  0.00     0.000 C 
BRANCH   7   8
ATOM      8  C   UNL     1      29.539  -8.815  30.697  1.00  0.00    -0.000 C 
BRANCH   8   9
ATOM      9  C   UNL     1      28.774  -9.408  29.503  1.00  0.00    -0.003 C 
ATOM     10  C   UNL     1      29.257  -8.873  28.157  1.00  0.00     0.004 C 
ENDBRANCH   8   9
ENDBRANCH   7   8
ENDBRANCH   1   7
TORSDOF 6
ENDMDL
MODEL 6
REMARK VINA RESULT:    -3.855      4.184      6.984
REMARK INTER + INTRA:          -5.674
REMARK INTER:                  -5.129
REMARK INTRA:                  -0.546
REMARK UNBOUND:                -0.467
REMARK SMILES CCCCCCCC(=O)[O-]
REMARK SMILES IDX 5 1 6 2 7 3 8 4 9 5 10 6 4 7 3 8 2 9 1 10
REMARK H PARENT
REMARK Flexibility Score: inf
ROOT
ATOM      1  C   UNL     1      26.902   0.409  29.347  1.00  0.00     0.000 C 
ENDROOT
BRANCH   1   2
ATOM      2  C   UNL     1      27.194  -1.091  29.159  1.00  0.00     0.006 C 
BRANCH   2   3
ATOM      3  C   UNL     1      26.895  -1.953  30.397  1.00  0.00     0.053 C 
BRANCH   3   4
ATOM      4  C   UNL     1      27.778  -3.160  30.466  1.00  0.00     0.041 C 
ATOM      5  O   UNL     1      28.988  -3.080  30.127  1.00  0.00    -0.550 OA
ATOM      6  O   UNL     1      27.257  -4.381  30.873  1.00  0.00    -0.550 OA
ENDBRANCH   3   4
ENDBRANCH   2   3
ENDBRANCH   1   2
BRANCH   1   7
ATOM      7  C   UNL     1      28.178   1.240  29.575  1.00  0.00     0.000 C 
BRANCH   7   8
ATOM      8  C   UNL     1      28.514   1.390  31.074  1.00  0.00    -0.000 C 
BRANCH   8   9
ATOM      9  C   UNL     1      29.634   0.451  31.549  1.00  0.00    -0.003 C 
ATOM     10  C   UNL     1      30.572   0.019  30.424  1.00  0.00     0.004 C 
ENDBRANCH   8   9
ENDBRANCH   7   8
ENDBRANCH   1   7
TORSDOF 6
ENDMDL
MODEL 7
REMARK VINA RESULT:    -3.849      1.530      2.418
REMARK INTER + INTRA:          -5.666
REMARK INTER:                  -5.277
REMARK INTRA:                  -0.389
REMARK UNBOUND:                -0.467
REMARK SMILES CCCCCCCC(=O)[O-]
REMARK SMILES IDX 5 1 6 2 7 3 8 4 9 5 10 6 4 7 3 8 2 9 1 10
REMARK H PARENT
REMARK Flexibility Score: inf
ROOT
ATOM      1  C   UNL     1      29.898  -5.887  30.761  1.00  0.00     0.000 C 
ENDROOT
BRANCH   1   2
ATOM      2  C   UNL     1      29.478  -4.917  29.642  1.00  0.00     0.006 C 
BRANCH   2   3
ATOM      3  C   UNL     1      29.645  -3.430  29.998  1.00  0.00     0.053 C 
BRANCH   3   4
ATOM      4  C   UNL     1      28.325  -2.751  30.200  1.00  0.00     0.041 C 
ATOM      5  O   UNL     1      28.227  -1.503  30.057  1.00  0.00    -0.550 OA
ATOM      6  O   UNL     1      27.212  -3.490  30.579  1.00  0.00    -0.550 OA
ENDBRANCH   3   4
ENDBRANCH   2   3
ENDBRANCH   1   2
BRANCH   1   7
ATOM      7  C   UNL     1      28.768  -6.847  31.173  1.00  0.00     0.000 C 
BRANCH   7   8
ATOM      8  C   UNL     1      28.030  -7.436  29.953  1.00  0.00    -0.000 C 
BRANCH   8   9
ATOM      9  C   UNL     1      28.555  -8.816  29.524  1.00  0.00    -0.003 C 
ATOM     10  C   UNL     1      29.247  -8.797  28.163  1.00  0.00     0.004 C 
ENDBRANCH   8   9
ENDBRANCH   7   8
ENDBRANCH   1   7
TORSDOF 6
ENDMDL
MODEL 8
REMARK VINA RESULT:    -3.845      1.401      1.754
REMARK INTER + INTRA:          -5.661
REMARK INTER:                  -5.375
REMARK INTRA:                  -0.286
REMARK UNBOUND:                -0.467
REMARK SMILES CCCCCCCC(=O)[O-]
REMARK SMILES IDX 5 1 6 2 7 3 8 4 9 5 10 6 4 7 3 8 2 9 1 10
REMARK H PARENT
REMARK Flexibility Score: inf
ROOT
ATOM      1  C   UNL     1      28.846  -6.471  29.354  1.00  0.00     0.000 C 
ENDROOT
BRANCH   1   2
ATOM      2  C   UNL     1      29.591  -5.543  30.332  1.00  0.00     0.006 C 
BRANCH   2   3
ATOM      3  C   UNL     1      30.023  -4.199  29.722  1.00  0.00     0.053 C 
BRANCH   3   4
ATOM      4  C   UNL     1      29.142  -3.073  30.166  1.00  0.00     0.041 C 
ATOM      5  O   UNL     1      27.897  -3.240  30.256  1.00  0.00    -0.550 OA
ATOM      6  O   UNL     1      29.691  -1.829  30.447  1.00  0.00    -0.550 OA
ENDBRANCH   3   4
ENDBRANCH   2   3
ENDBRANCH   1   2
BRANCH   1   7
ATOM      7  C   UNL     1      28.387  -7.784  30.013  1.00  0.00     0.000 C 
BRANCH   7   8
ATOM      8  C   UNL     1      28.711  -7.824  31.521  1.00  0.00    -0.000 C 
BRANCH   8   9
ATOM      9  C   UNL     1      29.116  -9.218  32.026  1.00  0.00    -0.003 C 
ATOM     10  C   UNL     1      29.869 -10.038  30.981  1.00  0.00     0.004 C 
ENDBRANCH   8   9
ENDBRANCH   7   8
ENDBRANCH   1   7
TORSDOF 6
ENDMDL
MODEL 9
REMARK VINA RESULT:    -3.780      3.099      5.066
REMARK INTER + INTRA:          -5.573
REMARK INTER:                  -5.279
REMARK INTRA:                  -0.295
REMARK UNBOUND:                -0.467
REMARK SMILES CCCCCCCC(=O)[O-]
REMARK SMILES IDX 5 1 6 2 7 3 8 4 9 5 10 6 4 7 3 8 2 9 1 10
REMARK H PARENT
REMARK Flexibility Score: inf
ROOT
ATOM      1  C   UNL     1      28.578  -6.471  31.023  1.00  0.00     0.000 C 
ENDROOT
BRANCH   1   2
ATOM      2  C   UNL     1      28.743  -7.925  31.500  1.00  0.00     0.006 C 
BRANCH   2   3
ATOM      3  C   UNL     1      29.557  -8.815  30.545  1.00  0.00     0.053 C 
BRANCH   3   4
ATOM      4  C   UNL     1      28.804  -9.123  29.288  1.00  0.00     0.041 C 
ATOM      5  O   UNL     1      27.823  -9.912  29.314  1.00  0.00    -0.550 OA
ATOM      6  O   UNL     1      29.206  -8.564  28.082  1.00  0.00    -0.550 OA
ENDBRANCH   3   4
ENDBRANCH   2   3
ENDBRANCH   1   2
BRANCH   1   7
ATOM      7  C   UNL     1      29.921  -5.794  30.697  1.00  0.00     0.000 C 
BRANCH   7   8
ATOM      8  C   UNL     1      29.745  -4.557  29.791  1.00  0.00    -0.000 C 
BRANCH   8   9
ATOM      9  C   UNL     1      28.616  -3.618  30.244  1.00  0.00    -0.003 C 
ATOM     10  C   UNL     1      28.797  -2.183  29.754  1.00  0.00     0.004 C 
ENDBRANCH   8   9
ENDBRANCH   7   8
ENDBRANCH   1   7
TORSDOF 6
ENDMDL
