MODEL 1
REMARK VINA RESULT:    -6.555      0.000      0.000
REMARK INTER + INTRA:         -11.067
REMARK INTER:                  -9.621
REMARK INTRA:                  -1.445
REMARK UNBOUND:                -1.445
REMARK SMILES O=c1c(O[C@@H]2O[C@H](CO)[C@H](O)[C@H](O)[C@H]2O)c(-c2ccc(O)c(O)c2)oc2cc(O)cc(O)c12
REMARK SMILES IDX 4 1 3 2 16 3 25 4 2 5 26 6 1 7 33 8 27 9 31 10 28 11 30 12
REMARK SMILES IDX 17 13 18 14 19 15 20 16 24 17 22 18 21 19 23 21 32 23 29 25
REMARK SMILES IDX 5 27 14 28 6 29 12 30 7 31 10 32 15 33 13 35 8 37 9 38 11 40
REMARK H PARENT 21 20 23 22 32 24 29 26 15 34 13 36 9 39 11 41
REMARK Flexibility Score: inf
ROOT
ATOM      1  O   UNL     1      -4.358   7.558  14.221  1.00  0.00    -0.454 OA
ENDROOT
BRANCH   1   2
ATOM      2  C   UNL     1      -5.250   8.229  13.375  1.00  0.00     0.214 A 
ATOM      3  C   UNL     1      -5.141   9.622  13.113  1.00  0.00     0.180 A 
ATOM      4  O   UNL     1      -6.179  10.255  12.538  1.00  0.00    -0.452 OA
ATOM      5  C   UNL     1      -6.237   7.502  12.691  1.00  0.00     0.239 A 
ATOM      6  C   UNL     1      -7.169   9.614  11.924  1.00  0.00     0.146 A 
ATOM      7  O   UNL     1      -6.296   6.243  12.852  1.00  0.00    -0.285 OA
ATOM      8  C   UNL     1      -7.140   8.204  11.845  1.00  0.00     0.111 A 
ATOM      9  C   UNL     1      -8.183  10.343  11.300  1.00  0.00     0.094 A 
ATOM     10  C   UNL     1      -7.949   7.593  10.832  1.00  0.00     0.134 A 
ATOM     11  C   UNL     1      -9.097   9.710  10.458  1.00  0.00     0.123 A 
ATOM     12  C   UNL     1      -8.931   8.341  10.153  1.00  0.00     0.093 A 
BRANCH   3  13
ATOM     13  C   UNL     1      -3.846  10.354  13.214  1.00  0.00     0.025 A 
ATOM     14  C   UNL     1      -3.508  10.933  14.464  1.00  0.00     0.016 A 
ATOM     15  C   UNL     1      -2.142  10.992  14.837  1.00  0.00     0.051 A 
ATOM     16  C   UNL     1      -1.150  10.434  13.990  1.00  0.00     0.157 A 
ATOM     17  C   UNL     1      -2.828  10.062  12.279  1.00  0.00     0.062 A 
ATOM     18  C   UNL     1      -1.485  10.028  12.679  1.00  0.00     0.158 A 
BRANCH  16  19
ATOM     19  O   UNL     1       0.132  10.226  14.524  1.00  0.00    -0.504 OA
ATOM     20  H   UNL     1       0.894  10.923  14.432  1.00  0.00     0.293 HD
ENDBRANCH  16  19
BRANCH  18  21
ATOM     21  O   UNL     1      -0.508   9.576  11.795  1.00  0.00    -0.504 OA
ATOM     22  H   UNL     1      -0.224  10.093  10.966  1.00  0.00     0.293 HD
ENDBRANCH  18  21
ENDBRANCH   3  13
BRANCH  10  23
ATOM     23  O   UNL     1      -7.633   6.338  10.286  1.00  0.00    -0.507 OA
ATOM     24  H   UNL     1      -8.103   5.991   9.451  1.00  0.00     0.293 HD
ENDBRANCH  10  23
BRANCH  11  25
ATOM     25  O   UNL     1     -10.125  10.433   9.875  1.00  0.00    -0.508 OA
ATOM     26  H   UNL     1      -9.955  11.326   9.423  1.00  0.00     0.293 HD
ENDBRANCH  11  25
ENDBRANCH   1   2
BRANCH   1  27
ATOM     27  C   UNL     1      -4.580   7.237  15.597  1.00  0.00     0.339 C 
ATOM     28  C   UNL     1      -5.928   7.959  16.056  1.00  0.00     0.214 C 
ATOM     29  O   UNL     1      -4.623   5.811  15.741  1.00  0.00    -0.332 OA
ATOM     30  C   UNL     1      -6.766   7.057  17.006  1.00  0.00     0.180 C 
ATOM     31  C   UNL     1      -4.927   5.299  17.052  1.00  0.00     0.179 C 
ATOM     32  C   UNL     1      -5.780   6.303  17.935  1.00  0.00     0.177 C 
BRANCH  28  33
ATOM     33  O   UNL     1      -5.653   9.216  16.616  1.00  0.00    -0.384 OA
ATOM     34  H   UNL     1      -4.684   9.247  16.906  1.00  0.00     0.211 HD
ENDBRANCH  28  33
BRANCH  30  35
ATOM     35  O   UNL     1      -7.443   6.155  16.164  1.00  0.00    -0.387 OA
ATOM     36  H   UNL     1      -6.752   5.530  15.828  1.00  0.00     0.211 HD
ENDBRANCH  30  35
BRANCH  31  37
ATOM     37  C   UNL     1      -5.605   3.912  16.786  1.00  0.00     0.191 C 
BRANCH  37  38
ATOM     38  O   UNL     1      -5.420   2.938  17.775  1.00  0.00    -0.394 OA
ATOM     39  H   UNL     1      -4.786   2.297  17.396  1.00  0.00     0.210 HD
ENDBRANCH  37  38
ENDBRANCH  31  37
BRANCH  32  40
ATOM     40  O   UNL     1      -6.398   5.664  19.049  1.00  0.00    -0.387 OA
ATOM     41  H   UNL     1      -7.119   5.070  18.712  1.00  0.00     0.211 HD
ENDBRANCH  32  40
ENDBRANCH   1  27
TORSDOF 12
ENDMDL
MODEL 2
REMARK VINA RESULT:    -6.541      2.191      6.737
REMARK INTER + INTRA:         -11.046
REMARK INTER:                  -9.683
REMARK INTRA:                  -1.363
REMARK UNBOUND:                -1.445
REMARK SMILES O=c1c(O[C@@H]2O[C@H](CO)[C@H](O)[C@H](O)[C@H]2O)c(-c2ccc(O)c(O)c2)oc2cc(O)cc(O)c12
REMARK SMILES IDX 4 1 3 2 16 3 25 4 2 5 26 6 1 7 33 8 27 9 31 10 28 11 30 12
REMARK SMILES IDX 17 13 18 14 19 15 20 16 24 17 22 18 21 19 23 21 32 23 29 25
REMARK SMILES IDX 5 27 14 28 6 29 12 30 7 31 10 32 15 33 13 35 8 37 9 38 11 40
REMARK H PARENT 21 20 23 22 32 24 29 26 15 34 13 36 9 39 11 41
REMARK Flexibility Score: inf
ROOT
ATOM      1  O   UNL     1      -6.462   6.843  14.111  1.00  0.00    -0.454 OA
ENDROOT
BRANCH   1   2
ATOM      2  C   UNL     1      -5.367   6.135  14.620  1.00  0.00     0.214 A 
ATOM      3  C   UNL     1      -4.028   6.572  14.426  1.00  0.00     0.180 A 
ATOM      4  O   UNL     1      -3.024   5.714  14.681  1.00  0.00    -0.452 OA
ATOM      5  C   UNL     1      -5.584   5.002  15.420  1.00  0.00     0.239 A 
ATOM      6  C   UNL     1      -3.185   4.600  15.387  1.00  0.00     0.146 A 
ATOM      7  O   UNL     1      -6.777   4.645  15.671  1.00  0.00    -0.285 OA
ATOM      8  C   UNL     1      -4.456   4.292  15.919  1.00  0.00     0.111 A 
ATOM      9  C   UNL     1      -2.082   3.787  15.659  1.00  0.00     0.094 A 
ATOM     10  C   UNL     1      -4.497   3.359  17.008  1.00  0.00     0.134 A 
ATOM     11  C   UNL     1      -2.177   2.749  16.584  1.00  0.00     0.123 A 
ATOM     12  C   UNL     1      -3.366   2.583  17.327  1.00  0.00     0.093 A 
BRANCH   3  13
ATOM     13  C   UNL     1      -3.681   8.004  14.198  1.00  0.00     0.025 A 
ATOM     14  C   UNL     1      -2.431   8.296  13.594  1.00  0.00     0.016 A 
ATOM     15  C   UNL     1      -2.334   9.429  12.749  1.00  0.00     0.051 A 
ATOM     16  C   UNL     1      -3.483  10.217  12.482  1.00  0.00     0.157 A 
ATOM     17  C   UNL     1      -4.727   8.953  14.137  1.00  0.00     0.062 A 
ATOM     18  C   UNL     1      -4.666  10.019  13.229  1.00  0.00     0.158 A 
BRANCH  16  19
ATOM     19  O   UNL     1      -3.428  11.124  11.412  1.00  0.00    -0.504 OA
ATOM     20  H   UNL     1      -2.555  11.613  11.139  1.00  0.00     0.293 HD
ENDBRANCH  16  19
BRANCH  18  21
ATOM     21  O   UNL     1      -5.772  10.849  13.058  1.00  0.00    -0.504 OA
ATOM     22  H   UNL     1      -6.709  10.499  12.877  1.00  0.00     0.293 HD
ENDBRANCH  18  21
ENDBRANCH   3  13
BRANCH  10  23
ATOM     23  O   UNL     1      -5.536   3.367  17.953  1.00  0.00    -0.507 OA
ATOM     24  H   UNL     1      -6.063   4.216  18.152  1.00  0.00     0.293 HD
ENDBRANCH  10  23
BRANCH  11  25
ATOM     25  O   UNL     1      -1.090   1.922  16.818  1.00  0.00    -0.508 OA
ATOM     26  H   UNL     1      -0.761   1.731  17.759  1.00  0.00     0.293 HD
ENDBRANCH  11  25
ENDBRANCH   1   2
BRANCH   1  27
ATOM     27  C   UNL     1      -7.207   6.513  12.934  1.00  0.00     0.339 C 
ATOM     28  C   UNL     1      -8.708   6.199  13.379  1.00  0.00     0.214 C 
ATOM     29  O   UNL     1      -7.107   7.596  12.001  1.00  0.00    -0.332 OA
ATOM     30  C   UNL     1      -9.737   6.760  12.356  1.00  0.00     0.180 C 
ATOM     31  C   UNL     1      -7.869   7.478  10.785  1.00  0.00     0.179 C 
ATOM     32  C   UNL     1      -9.151   6.556  10.936  1.00  0.00     0.177 C 
BRANCH  28  33
ATOM     33  O   UNL     1      -8.881   4.826  13.614  1.00  0.00    -0.384 OA
ATOM     34  H   UNL     1      -8.069   4.326  13.275  1.00  0.00     0.211 HD
ENDBRANCH  28  33
BRANCH  30  35
ATOM     35  O   UNL     1      -9.852   8.131  12.655  1.00  0.00    -0.387 OA
ATOM     36  H   UNL     1      -9.557   8.226  13.595  1.00  0.00     0.211 HD
ENDBRANCH  30  35
BRANCH  31  37
ATOM     37  C   UNL     1      -8.164   8.957  10.361  1.00  0.00     0.191 C 
BRANCH  37  38
ATOM     38  O   UNL     1      -8.025   9.924  11.365  1.00  0.00    -0.394 OA
ATOM     39  H   UNL     1      -8.667  10.626  11.142  1.00  0.00     0.210 HD
ENDBRANCH  37  38
ENDBRANCH  31  37
BRANCH  32  40
ATOM     40  O   UNL     1     -10.091   6.749   9.881  1.00  0.00    -0.387 OA
ATOM     41  H   UNL     1     -10.982   6.928  10.281  1.00  0.00     0.211 HD
ENDBRANCH  32  40
ENDBRANCH   1  27
TORSDOF 12
ENDMDL
MODEL 3
REMARK VINA RESULT:    -6.294      2.522      6.349
REMARK INTER + INTRA:         -10.683
REMARK INTER:                  -9.240
REMARK INTRA:                  -1.442
REMARK UNBOUND:                -1.445
REMARK SMILES O=c1c(O[C@@H]2O[C@H](CO)[C@H](O)[C@H](O)[C@H]2O)c(-c2ccc(O)c(O)c2)oc2cc(O)cc(O)c12
REMARK SMILES IDX 4 1 3 2 16 3 25 4 2 5 26 6 1 7 33 8 27 9 31 10 28 11 30 12
REMARK SMILES IDX 17 13 18 14 19 15 20 16 24 17 22 18 21 19 23 21 32 23 29 25
REMARK SMILES IDX 5 27 14 28 6 29 12 30 7 31 10 32 15 33 13 35 8 37 9 38 11 40
REMARK H PARENT 21 20 23 22 32 24 29 26 15 34 13 36 9 39 11 41
REMARK Flexibility Score: inf
ROOT
ATOM      1  O   UNL     1      -5.427   5.949  12.805  1.00  0.00    -0.454 OA
ENDROOT
BRANCH   1   2
ATOM      2  C   UNL     1      -4.549   5.481  13.791  1.00  0.00     0.214 A 
ATOM      3  C   UNL     1      -3.365   6.184  14.144  1.00  0.00     0.180 A 
ATOM      4  O   UNL     1      -2.430   5.552  14.876  1.00  0.00    -0.452 OA
ATOM      5  C   UNL     1      -4.877   4.329  14.522  1.00  0.00     0.239 A 
ATOM      6  C   UNL     1      -2.672   4.428  15.544  1.00  0.00     0.146 A 
ATOM      7  O   UNL     1      -5.972   3.734  14.274  1.00  0.00    -0.285 OA
ATOM      8  C   UNL     1      -3.966   3.866  15.513  1.00  0.00     0.111 A 
ATOM      9  C   UNL     1      -1.666   3.860  16.328  1.00  0.00     0.094 A 
ATOM     10  C   UNL     1      -4.301   2.945  16.560  1.00  0.00     0.134 A 
ATOM     11  C   UNL     1      -1.957   2.824  17.215  1.00  0.00     0.123 A 
ATOM     12  C   UNL     1      -3.297   2.418  17.396  1.00  0.00     0.093 A 
BRANCH   3  13
ATOM     13  C   UNL     1      -3.226   7.657  13.957  1.00  0.00     0.025 A 
ATOM     14  C   UNL     1      -2.738   8.124  12.709  1.00  0.00     0.016 A 
ATOM     15  C   UNL     1      -3.218   9.363  12.215  1.00  0.00     0.051 A 
ATOM     16  C   UNL     1      -4.201  10.084  12.939  1.00  0.00     0.157 A 
ATOM     17  C   UNL     1      -3.986   8.519  14.780  1.00  0.00     0.062 A 
ATOM     18  C   UNL     1      -4.537   9.697  14.255  1.00  0.00     0.158 A 
BRANCH  16  19
ATOM     19  O   UNL     1      -4.875  11.125  12.280  1.00  0.00    -0.504 OA
ATOM     20  H   UNL     1      -4.377  11.918  11.834  1.00  0.00     0.293 HD
ENDBRANCH  16  19
BRANCH  18  21
ATOM     21  O   UNL     1      -5.421  10.451  15.023  1.00  0.00    -0.504 OA
ATOM     22  H   UNL     1      -6.088  11.107  14.623  1.00  0.00     0.293 HD
ENDBRANCH  18  21
ENDBRANCH   3  13
BRANCH  10  23
ATOM     23  O   UNL     1      -5.628   2.739  16.971  1.00  0.00    -0.507 OA
ATOM     24  H   UNL     1      -6.095   3.395  17.596  1.00  0.00     0.293 HD
ENDBRANCH  10  23
BRANCH  11  25
ATOM     25  O   UNL     1      -0.946   2.239  17.959  1.00  0.00    -0.508 OA
ATOM     26  H   UNL     1      -0.425   2.766  18.653  1.00  0.00     0.293 HD
ENDBRANCH  11  25
ENDBRANCH   1   2
BRANCH   1  27
ATOM     27  C   UNL     1      -6.426   6.959  12.975  1.00  0.00     0.339 C 
ATOM     28  C   UNL     1      -7.602   6.662  11.937  1.00  0.00     0.214 C 
ATOM     29  O   UNL     1      -6.861   6.957  14.342  1.00  0.00    -0.332 OA
ATOM     30  C   UNL     1      -8.999   6.941  12.560  1.00  0.00     0.180 C 
ATOM     31  C   UNL     1      -7.934   7.855  14.682  1.00  0.00     0.179 C 
ATOM     32  C   UNL     1      -8.876   8.202  13.454  1.00  0.00     0.177 C 
BRANCH  28  33
ATOM     33  O   UNL     1      -7.398   7.368  10.740  1.00  0.00    -0.384 OA
ATOM     34  H   UNL     1      -6.694   8.079  10.889  1.00  0.00     0.211 HD
ENDBRANCH  28  33
BRANCH  30  35
ATOM     35  O   UNL     1      -9.295   5.806  13.339  1.00  0.00    -0.387 OA
ATOM     36  H   UNL     1      -8.921   5.992  14.237  1.00  0.00     0.211 HD
ENDBRANCH  30  35
BRANCH  31  37
ATOM     37  C   UNL     1      -8.652   7.169  15.894  1.00  0.00     0.191 C 
BRANCH  37  38
ATOM     38  O   UNL     1     -10.019   6.912  15.732  1.00  0.00    -0.394 OA
ATOM     39  H   UNL     1     -10.150   6.785  14.772  1.00  0.00     0.210 HD
ENDBRANCH  37  38
ENDBRANCH  31  37
BRANCH  32  40
ATOM     40  O   UNL     1     -10.125   8.756  13.861  1.00  0.00    -0.387 OA
ATOM     41  H   UNL     1      -9.949   9.500  14.494  1.00  0.00     0.211 HD
ENDBRANCH  32  40
ENDBRANCH   1  27
TORSDOF 12
ENDMDL
MODEL 4
REMARK VINA RESULT:    -6.266      1.721      5.884
REMARK INTER + INTRA:         -10.642
REMARK INTER:                  -9.520
REMARK INTRA:                  -1.123
REMARK UNBOUND:                -1.445
REMARK SMILES O=c1c(O[C@@H]2O[C@H](CO)[C@H](O)[C@H](O)[C@H]2O)c(-c2ccc(O)c(O)c2)oc2cc(O)cc(O)c12
REMARK SMILES IDX 4 1 3 2 16 3 25 4 2 5 26 6 1 7 33 8 27 9 31 10 28 11 30 12
REMARK SMILES IDX 17 13 18 14 19 15 20 16 24 17 22 18 21 19 23 21 32 23 29 25
REMARK SMILES IDX 5 27 14 28 6 29 12 30 7 31 10 32 15 33 13 35 8 37 9 38 11 40
REMARK H PARENT 21 20 23 22 32 24 29 26 15 34 13 36 9 39 11 41
REMARK Flexibility Score: inf
ROOT
ATOM      1  O   UNL     1      -6.368   6.738  13.487  1.00  0.00    -0.454 OA
ENDROOT
BRANCH   1   2
ATOM      2  C   UNL     1      -5.362   7.537  12.929  1.00  0.00     0.214 A 
ATOM      3  C   UNL     1      -5.109   7.567  11.530  1.00  0.00     0.180 A 
ATOM      4  O   UNL     1      -3.963   8.117  11.092  1.00  0.00    -0.452 OA
ATOM      5  C   UNL     1      -4.627   8.404  13.753  1.00  0.00     0.239 A 
ATOM      6  C   UNL     1      -3.201   8.901  11.847  1.00  0.00     0.146 A 
ATOM      7  O   UNL     1      -4.896   8.448  14.994  1.00  0.00    -0.285 OA
ATOM      8  C   UNL     1      -3.603   9.199  13.167  1.00  0.00     0.111 A 
ATOM      9  C   UNL     1      -2.053   9.483  11.303  1.00  0.00     0.094 A 
ATOM     10  C   UNL     1      -3.021  10.358  13.780  1.00  0.00     0.134 A 
ATOM     11  C   UNL     1      -1.371  10.484  11.991  1.00  0.00     0.123 A 
ATOM     12  C   UNL     1      -1.902  10.987  13.199  1.00  0.00     0.093 A 
BRANCH   3  13
ATOM     13  C   UNL     1      -6.161   7.248  10.523  1.00  0.00     0.025 A 
ATOM     14  C   UNL     1      -6.433   5.881  10.259  1.00  0.00     0.016 A 
ATOM     15  C   UNL     1      -7.758   5.505   9.925  1.00  0.00     0.051 A 
ATOM     16  C   UNL     1      -8.790   6.479   9.909  1.00  0.00     0.157 A 
ATOM     17  C   UNL     1      -7.138   8.226  10.230  1.00  0.00     0.062 A 
ATOM     18  C   UNL     1      -8.469   7.852   9.995  1.00  0.00     0.158 A 
BRANCH  16  19
ATOM     19  O   UNL     1     -10.120   6.031   9.889  1.00  0.00    -0.504 OA
ATOM     20  H   UNL     1     -10.448   5.284   9.250  1.00  0.00     0.293 HD
ENDBRANCH  16  19
BRANCH  18  21
ATOM     21  O   UNL     1      -9.453   8.830   9.875  1.00  0.00    -0.504 OA
ATOM     22  H   UNL     1      -9.655   9.313   9.003  1.00  0.00     0.293 HD
ENDBRANCH  18  21
ENDBRANCH   3  13
BRANCH  10  23
ATOM     23  O   UNL     1      -3.676  11.067  14.799  1.00  0.00    -0.507 OA
ATOM     24  H   UNL     1      -4.108  11.972  14.620  1.00  0.00     0.293 HD
ENDBRANCH  10  23
BRANCH  11  25
ATOM     25  O   UNL     1      -0.211  11.027  11.463  1.00  0.00    -0.508 OA
ATOM     26  H   UNL     1      -0.239  11.752  10.753  1.00  0.00     0.293 HD
ENDBRANCH  11  25
ENDBRANCH   1   2
BRANCH   1  27
ATOM     27  C   UNL     1      -6.171   5.609  14.344  1.00  0.00     0.339 C 
ATOM     28  C   UNL     1      -4.734   4.993  14.017  1.00  0.00     0.214 C 
ATOM     29  O   UNL     1      -6.311   6.030  15.708  1.00  0.00    -0.332 OA
ATOM     30  C   UNL     1      -4.008   4.520  15.309  1.00  0.00     0.180 C 
ATOM     31  C   UNL     1      -6.058   5.040  16.722  1.00  0.00     0.179 C 
ATOM     32  C   UNL     1      -5.071   3.893  16.247  1.00  0.00     0.177 C 
BRANCH  28  33
ATOM     33  O   UNL     1      -4.837   3.975  13.056  1.00  0.00    -0.384 OA
ATOM     34  H   UNL     1      -5.615   4.175  12.441  1.00  0.00     0.211 HD
ENDBRANCH  28  33
BRANCH  30  35
ATOM     35  O   UNL     1      -3.464   5.685  15.881  1.00  0.00    -0.387 OA
ATOM     36  H   UNL     1      -2.485   5.615  15.755  1.00  0.00     0.211 HD
ENDBRANCH  30  35
BRANCH  31  37
ATOM     37  C   UNL     1      -5.570   5.863  17.962  1.00  0.00     0.191 C 
BRANCH  37  38
ATOM     38  O   UNL     1      -6.475   5.967  19.026  1.00  0.00    -0.394 OA
ATOM     39  H   UNL     1      -7.078   6.697  18.785  1.00  0.00     0.210 HD
ENDBRANCH  37  38
ENDBRANCH  31  37
BRANCH  32  40
ATOM     40  O   UNL     1      -4.526   3.154  17.337  1.00  0.00    -0.387 OA
ATOM     41  H   UNL     1      -4.666   3.672  18.172  1.00  0.00     0.211 HD
ENDBRANCH  32  40
ENDBRANCH   1  27
TORSDOF 12
ENDMDL
MODEL 5
REMARK VINA RESULT:    -6.135     11.687     16.792
REMARK INTER + INTRA:         -10.450
REMARK INTER:                  -8.739
REMARK INTRA:                  -1.711
REMARK UNBOUND:                -1.445
REMARK SMILES O=c1c(O[C@@H]2O[C@H](CO)[C@H](O)[C@H](O)[C@H]2O)c(-c2ccc(O)c(O)c2)oc2cc(O)cc(O)c12
REMARK SMILES IDX 4 1 3 2 16 3 25 4 2 5 26 6 1 7 33 8 27 9 31 10 28 11 30 12
REMARK SMILES IDX 17 13 18 14 19 15 20 16 24 17 22 18 21 19 23 21 32 23 29 25
REMARK SMILES IDX 5 27 14 28 6 29 12 30 7 31 10 32 15 33 13 35 8 37 9 38 11 40
REMARK H PARENT 21 20 23 22 32 24 29 26 15 34 13 36 9 39 11 41
REMARK Flexibility Score: inf
ROOT
ATOM      1  O   UNL     1      -7.365  -7.182  20.577  1.00  0.00    -0.454 OA
ENDROOT
BRANCH   1   2
ATOM      2  C   UNL     1      -7.969  -5.923  20.466  1.00  0.00     0.214 A 
ATOM      3  C   UNL     1      -9.230  -5.635  21.055  1.00  0.00     0.180 A 
ATOM      4  O   UNL     1      -9.882  -4.522  20.676  1.00  0.00    -0.452 OA
ATOM      5  C   UNL     1      -7.282  -4.879  19.828  1.00  0.00     0.239 A 
ATOM      6  C   UNL     1      -9.294  -3.525  20.022  1.00  0.00     0.146 A 
ATOM      7  O   UNL     1      -6.118  -5.099  19.367  1.00  0.00    -0.285 OA
ATOM      8  C   UNL     1      -7.917  -3.610  19.718  1.00  0.00     0.111 A 
ATOM      9  C   UNL     1     -10.023  -2.375  19.712  1.00  0.00     0.094 A 
ATOM     10  C   UNL     1      -7.238  -2.382  19.426  1.00  0.00     0.134 A 
ATOM     11  C   UNL     1      -9.379  -1.233  19.240  1.00  0.00     0.123 A 
ATOM     12  C   UNL     1      -7.969  -1.203  19.176  1.00  0.00     0.093 A 
BRANCH   3  13
ATOM     13  C   UNL     1      -9.741  -6.371  22.248  1.00  0.00     0.025 A 
ATOM     14  C   UNL     1     -10.060  -7.744  22.093  1.00  0.00     0.016 A 
ATOM     15  C   UNL     1      -9.860  -8.615  23.192  1.00  0.00     0.051 A 
ATOM     16  C   UNL     1      -9.303  -8.119  24.399  1.00  0.00     0.157 A 
ATOM     17  C   UNL     1      -9.454  -5.858  23.534  1.00  0.00     0.062 A 
ATOM     18  C   UNL     1      -9.162  -6.727  24.595  1.00  0.00     0.158 A 
BRANCH  16  19
ATOM     19  O   UNL     1      -8.829  -9.049  25.338  1.00  0.00    -0.504 OA
ATOM     20  H   UNL     1      -8.689 -10.051  25.110  1.00  0.00     0.293 HD
ENDBRANCH  16  19
BRANCH  18  21
ATOM     21  O   UNL     1      -8.718  -6.213  25.810  1.00  0.00    -0.504 OA
ATOM     22  H   UNL     1      -7.770  -5.877  25.960  1.00  0.00     0.293 HD
ENDBRANCH  18  21
ENDBRANCH   3  13
BRANCH  10  23
ATOM     23  O   UNL     1      -5.859  -2.228  19.638  1.00  0.00    -0.507 OA
ATOM     24  H   UNL     1      -5.425  -2.503  20.518  1.00  0.00     0.293 HD
ENDBRANCH  10  23
BRANCH  11  25
ATOM     25  O   UNL     1     -10.114  -0.109  18.896  1.00  0.00    -0.508 OA
ATOM     26  H   UNL     1      -9.698   0.659  18.380  1.00  0.00     0.293 HD
ENDBRANCH  11  25
ENDBRANCH   1   2
BRANCH   1  27
ATOM     27  C   UNL     1      -6.398  -7.570  21.558  1.00  0.00     0.339 C 
ATOM     28  C   UNL     1      -5.003  -7.783  20.811  1.00  0.00     0.214 C 
ATOM     29  O   UNL     1      -6.347  -6.569  22.583  1.00  0.00    -0.332 OA
ATOM     30  C   UNL     1      -3.812  -7.258  21.664  1.00  0.00     0.180 C 
ATOM     31  C   UNL     1      -5.361  -6.748  23.616  1.00  0.00     0.179 C 
ATOM     32  C   UNL     1      -4.107  -7.598  23.147  1.00  0.00     0.177 C 
BRANCH  28  33
ATOM     33  O   UNL     1      -4.841  -9.124  20.432  1.00  0.00    -0.384 OA
ATOM     34  H   UNL     1      -4.785  -9.700  21.261  1.00  0.00     0.211 HD
ENDBRANCH  28  33
BRANCH  30  35
ATOM     35  O   UNL     1      -3.796  -5.865  21.466  1.00  0.00    -0.387 OA
ATOM     36  H   UNL     1      -3.869  -5.731  20.488  1.00  0.00     0.211 HD
ENDBRANCH  30  35
BRANCH  31  37
ATOM     37  C   UNL     1      -5.031  -5.295  24.101  1.00  0.00     0.191 C 
BRANCH  37  38
ATOM     38  O   UNL     1      -5.255  -4.271  23.172  1.00  0.00    -0.394 OA
ATOM     39  H   UNL     1      -5.078  -3.439  23.652  1.00  0.00     0.210 HD
ENDBRANCH  37  38
ENDBRANCH  31  37
BRANCH  32  40
ATOM     40  O   UNL     1      -2.987  -7.447  24.016  1.00  0.00    -0.387 OA
ATOM     41  H   UNL     1      -3.223  -6.794  24.725  1.00  0.00     0.211 HD
ENDBRANCH  32  40
ENDBRANCH   1  27
TORSDOF 12
ENDMDL
MODEL 6
REMARK VINA RESULT:    -6.094      2.113      6.079
REMARK INTER + INTRA:         -10.389
REMARK INTER:                  -9.187
REMARK INTRA:                  -1.202
REMARK UNBOUND:                -1.445
REMARK SMILES O=c1c(O[C@@H]2O[C@H](CO)[C@H](O)[C@H](O)[C@H]2O)c(-c2ccc(O)c(O)c2)oc2cc(O)cc(O)c12
REMARK SMILES IDX 4 1 3 2 16 3 25 4 2 5 26 6 1 7 33 8 27 9 31 10 28 11 30 12
REMARK SMILES IDX 17 13 18 14 19 15 20 16 24 17 22 18 21 19 23 21 32 23 29 25
REMARK SMILES IDX 5 27 14 28 6 29 12 30 7 31 10 32 15 33 13 35 8 37 9 38 11 40
REMARK H PARENT 21 20 23 22 32 24 29 26 15 34 13 36 9 39 11 41
REMARK Flexibility Score: inf
ROOT
ATOM      1  O   UNL     1      -5.835   8.023  13.578  1.00  0.00    -0.454 OA
ENDROOT
BRANCH   1   2
ATOM      2  C   UNL     1      -4.884   7.163  14.140  1.00  0.00     0.214 A 
ATOM      3  C   UNL     1      -3.486   7.386  13.999  1.00  0.00     0.180 A 
ATOM      4  O   UNL     1      -2.638   6.389  14.305  1.00  0.00    -0.452 OA
ATOM      5  C   UNL     1      -5.305   6.091  14.941  1.00  0.00     0.239 A 
ATOM      6  C   UNL     1      -2.998   5.324  15.014  1.00  0.00     0.146 A 
ATOM      7  O   UNL     1      -6.548   5.926  15.144  1.00  0.00    -0.285 OA
ATOM      8  C   UNL     1      -4.321   5.224  15.495  1.00  0.00     0.111 A 
ATOM      9  C   UNL     1      -2.045   4.356  15.340  1.00  0.00     0.094 A 
ATOM     10  C   UNL     1      -4.550   4.326  16.589  1.00  0.00     0.134 A 
ATOM     11  C   UNL     1      -2.336   3.359  16.270  1.00  0.00     0.123 A 
ATOM     12  C   UNL     1      -3.566   3.391  16.964  1.00  0.00     0.093 A 
BRANCH   3  13
ATOM     13  C   UNL     1      -2.914   8.745  13.772  1.00  0.00     0.025 A 
ATOM     14  C   UNL     1      -1.571   8.973  14.169  1.00  0.00     0.016 A 
ATOM     15  C   UNL     1      -0.786   9.878  13.412  1.00  0.00     0.051 A 
ATOM     16  C   UNL     1      -1.328  10.495  12.256  1.00  0.00     0.157 A 
ATOM     17  C   UNL     1      -3.507   9.575  12.794  1.00  0.00     0.062 A 
ATOM     18  C   UNL     1      -2.711  10.397  11.984  1.00  0.00     0.158 A 
BRANCH  16  19
ATOM     19  O   UNL     1      -0.443  11.124  11.366  1.00  0.00    -0.504 OA
ATOM     20  H   UNL     1       0.431  11.586  11.681  1.00  0.00     0.293 HD
ENDBRANCH  16  19
BRANCH  18  21
ATOM     21  O   UNL     1      -3.284  11.082  10.915  1.00  0.00    -0.504 OA
ATOM     22  H   UNL     1      -2.808  11.232  10.029  1.00  0.00     0.293 HD
ENDBRANCH  18  21
ENDBRANCH   3  13
BRANCH  10  23
ATOM     23  O   UNL     1      -5.613   4.508  17.489  1.00  0.00    -0.507 OA
ATOM     24  H   UNL     1      -5.446   4.795  18.452  1.00  0.00     0.293 HD
ENDBRANCH  10  23
BRANCH  11  25
ATOM     25  O   UNL     1      -1.400   2.379  16.558  1.00  0.00    -0.508 OA
ATOM     26  H   UNL     1      -0.996   2.287  17.485  1.00  0.00     0.293 HD
ENDBRANCH  11  25
ENDBRANCH   1   2
BRANCH   1  27
ATOM     27  C   UNL     1      -6.666   7.739  12.449  1.00  0.00     0.339 C 
ATOM     28  C   UNL     1      -6.027   6.498  11.672  1.00  0.00     0.214 C 
ATOM     29  O   UNL     1      -8.004   7.495  12.904  1.00  0.00    -0.332 OA
ATOM     30  C   UNL     1      -7.122   5.529  11.143  1.00  0.00     0.180 C 
ATOM     31  C   UNL     1      -8.967   7.104  11.909  1.00  0.00     0.179 C 
ATOM     32  C   UNL     1      -8.317   6.387  10.653  1.00  0.00     0.177 C 
BRANCH  28  33
ATOM     33  O   UNL     1      -5.164   6.939  10.656  1.00  0.00    -0.384 OA
ATOM     34  H   UNL     1      -5.100   7.948  10.688  1.00  0.00     0.211 HD
ENDBRANCH  28  33
BRANCH  30  35
ATOM     35  O   UNL     1      -7.495   4.744  12.250  1.00  0.00    -0.387 OA
ATOM     36  H   UNL     1      -7.318   5.304  13.048  1.00  0.00     0.211 HD
ENDBRANCH  30  35
BRANCH  31  37
ATOM     37  C   UNL     1     -10.015   6.243  12.693  1.00  0.00     0.191 C 
BRANCH  37  38
ATOM     38  O   UNL     1      -9.560   5.647  13.876  1.00  0.00    -0.394 OA
ATOM     39  H   UNL     1     -10.300   5.093  14.192  1.00  0.00     0.210 HD
ENDBRANCH  37  38
ENDBRANCH  31  37
BRANCH  32  40
ATOM     40  O   UNL     1      -9.273   5.670   9.875  1.00  0.00    -0.387 OA
ATOM     41  H   UNL     1      -9.246   4.715  10.144  1.00  0.00     0.211 HD
ENDBRANCH  32  40
ENDBRANCH   1  27
TORSDOF 12
ENDMDL
MODEL 7
REMARK VINA RESULT:    -6.023      2.430      5.780
REMARK INTER + INTRA:         -10.286
REMARK INTER:                 -10.191
REMARK INTRA:                  -0.095
REMARK UNBOUND:                -1.445
REMARK SMILES O=c1c(O[C@@H]2O[C@H](CO)[C@H](O)[C@H](O)[C@H]2O)c(-c2ccc(O)c(O)c2)oc2cc(O)cc(O)c12
REMARK SMILES IDX 4 1 3 2 16 3 25 4 2 5 26 6 1 7 33 8 27 9 31 10 28 11 30 12
REMARK SMILES IDX 17 13 18 14 19 15 20 16 24 17 22 18 21 19 23 21 32 23 29 25
REMARK SMILES IDX 5 27 14 28 6 29 12 30 7 31 10 32 15 33 13 35 8 37 9 38 11 40
REMARK H PARENT 21 20 23 22 32 24 29 26 15 34 13 36 9 39 11 41
REMARK Flexibility Score: inf
ROOT
ATOM      1  O   UNL     1      -5.286   6.649  15.982  1.00  0.00    -0.454 OA
ENDROOT
BRANCH   1   2
ATOM      2  C   UNL     1      -4.338   7.189  15.104  1.00  0.00     0.214 A 
ATOM      3  C   UNL     1      -3.057   6.600  14.919  1.00  0.00     0.180 A 
ATOM      4  O   UNL     1      -2.101   7.312  14.297  1.00  0.00    -0.452 OA
ATOM      5  C   UNL     1      -4.677   8.297  14.312  1.00  0.00     0.239 A 
ATOM      6  C   UNL     1      -2.360   8.400  13.579  1.00  0.00     0.146 A 
ATOM      7  O   UNL     1      -5.846   8.785  14.406  1.00  0.00    -0.285 OA
ATOM      8  C   UNL     1      -3.695   8.835  13.433  1.00  0.00     0.111 A 
ATOM      9  C   UNL     1      -1.320   9.055  12.915  1.00  0.00     0.094 A 
ATOM     10  C   UNL     1      -3.979   9.709  12.332  1.00  0.00     0.134 A 
ATOM     11  C   UNL     1      -1.593  10.048  11.975  1.00  0.00     0.123 A 
ATOM     12  C   UNL     1      -2.931  10.321  11.618  1.00  0.00     0.093 A 
BRANCH   3  13
ATOM     13  C   UNL     1      -2.804   5.149  15.155  1.00  0.00     0.025 A 
ATOM     14  C   UNL     1      -1.495   4.757  15.533  1.00  0.00     0.016 A 
ATOM     15  C   UNL     1      -1.344   3.650  16.405  1.00  0.00     0.051 A 
ATOM     16  C   UNL     1      -2.489   2.989  16.919  1.00  0.00     0.157 A 
ATOM     17  C   UNL     1      -3.902   4.310  15.456  1.00  0.00     0.062 A 
ATOM     18  C   UNL     1      -3.768   3.276  16.392  1.00  0.00     0.158 A 
BRANCH  16  19
ATOM     19  O   UNL     1      -2.316   2.119  18.008  1.00  0.00    -0.504 OA
ATOM     20  H   UNL     1      -2.749   2.292  18.934  1.00  0.00     0.293 HD
ENDBRANCH  16  19
BRANCH  18  21
ATOM     21  O   UNL     1      -4.892   2.565  16.806  1.00  0.00    -0.504 OA
ATOM     22  H   UNL     1      -4.974   1.555  16.726  1.00  0.00     0.293 HD
ENDBRANCH  18  21
ENDBRANCH   3  13
BRANCH  10  23
ATOM     23  O   UNL     1      -5.255   9.782  11.752  1.00  0.00    -0.507 OA
ATOM     24  H   UNL     1      -5.553  10.605  11.230  1.00  0.00     0.293 HD
ENDBRANCH  10  23
BRANCH  11  25
ATOM     25  O   UNL     1      -0.555  10.721  11.351  1.00  0.00    -0.508 OA
ATOM     26  H   UNL     1       0.415  10.472  11.518  1.00  0.00     0.293 HD
ENDBRANCH  11  25
ENDBRANCH   1   2
BRANCH   1  27
ATOM     27  C   UNL     1      -6.502   5.993  15.610  1.00  0.00     0.339 C 
ATOM     28  C   UNL     1      -7.713   6.967  15.975  1.00  0.00     0.214 C 
ATOM     29  O   UNL     1      -6.443   5.657  14.218  1.00  0.00    -0.332 OA
ATOM     30  C   UNL     1      -8.827   6.925  14.889  1.00  0.00     0.180 C 
ATOM     31  C   UNL     1      -7.621   5.064  13.643  1.00  0.00     0.179 C 
ATOM     32  C   UNL     1      -8.957   5.460  14.401  1.00  0.00     0.177 C 
BRANCH  28  33
ATOM     33  O   UNL     1      -8.206   6.689  17.259  1.00  0.00    -0.384 OA
ATOM     34  H   UNL     1      -8.763   5.844  17.226  1.00  0.00     0.211 HD
ENDBRANCH  28  33
BRANCH  30  35
ATOM     35  O   UNL     1      -8.367   7.757  13.850  1.00  0.00    -0.387 OA
ATOM     36  H   UNL     1      -8.531   8.684  14.156  1.00  0.00     0.211 HD
ENDBRANCH  30  35
BRANCH  31  37
ATOM     37  C   UNL     1      -7.572   5.474  12.132  1.00  0.00     0.191 C 
BRANCH  37  38
ATOM     38  O   UNL     1      -8.783   5.898  11.570  1.00  0.00    -0.394 OA
ATOM     39  H   UNL     1      -9.008   6.730  12.032  1.00  0.00     0.210 HD
ENDBRANCH  37  38
ENDBRANCH  31  37
BRANCH  32  40
ATOM     40  O   UNL     1     -10.125   5.203  13.624  1.00  0.00    -0.387 OA
ATOM     41  H   UNL     1      -9.877   4.609  12.869  1.00  0.00     0.211 HD
ENDBRANCH  32  40
ENDBRANCH   1  27
TORSDOF 12
ENDMDL
MODEL 8
REMARK VINA RESULT:    -5.982      1.633      6.480
REMARK INTER + INTRA:         -10.225
REMARK INTER:                  -8.925
REMARK INTRA:                  -1.300
REMARK UNBOUND:                -1.445
REMARK SMILES O=c1c(O[C@@H]2O[C@H](CO)[C@H](O)[C@H](O)[C@H]2O)c(-c2ccc(O)c(O)c2)oc2cc(O)cc(O)c12
REMARK SMILES IDX 4 1 3 2 16 3 25 4 2 5 26 6 1 7 33 8 27 9 31 10 28 11 30 12
REMARK SMILES IDX 17 13 18 14 19 15 20 16 24 17 22 18 21 19 23 21 32 23 29 25
REMARK SMILES IDX 5 27 14 28 6 29 12 30 7 31 10 32 15 33 13 35 8 37 9 38 11 40
REMARK H PARENT 21 20 23 22 32 24 29 26 15 34 13 36 9 39 11 41
REMARK Flexibility Score: inf
ROOT
ATOM      1  O   UNL     1      -7.199   8.753  13.976  1.00  0.00    -0.454 OA
ENDROOT
BRANCH   1   2
ATOM      2  C   UNL     1      -5.813   8.718  13.777  1.00  0.00     0.214 A 
ATOM      3  C   UNL     1      -4.973   7.803  14.469  1.00  0.00     0.180 A 
ATOM      4  O   UNL     1      -3.644   8.008  14.455  1.00  0.00    -0.452 OA
ATOM      5  C   UNL     1      -5.230   9.548  12.806  1.00  0.00     0.239 A 
ATOM      6  C   UNL     1      -3.045   8.825  13.593  1.00  0.00     0.146 A 
ATOM      7  O   UNL     1      -5.979  10.314  12.122  1.00  0.00    -0.285 OA
ATOM      8  C   UNL     1      -3.819   9.503  12.627  1.00  0.00     0.111 A 
ATOM      9  C   UNL     1      -1.654   8.942  13.604  1.00  0.00     0.094 A 
ATOM     10  C   UNL     1      -3.128  10.003  11.474  1.00  0.00     0.134 A 
ATOM     11  C   UNL     1      -0.990   9.602  12.571  1.00  0.00     0.123 A 
ATOM     12  C   UNL     1      -1.721  10.064  11.455  1.00  0.00     0.093 A 
BRANCH   3  13
ATOM     13  C   UNL     1      -5.473   6.498  14.990  1.00  0.00     0.025 A 
ATOM     14  C   UNL     1      -4.988   5.312  14.381  1.00  0.00     0.016 A 
ATOM     15  C   UNL     1      -4.831   4.154  15.182  1.00  0.00     0.051 A 
ATOM     16  C   UNL     1      -5.108   4.210  16.573  1.00  0.00     0.157 A 
ATOM     17  C   UNL     1      -5.999   6.449  16.300  1.00  0.00     0.062 A 
ATOM     18  C   UNL     1      -5.756   5.338  17.121  1.00  0.00     0.158 A 
BRANCH  16  19
ATOM     19  O   UNL     1      -4.646   3.158  17.380  1.00  0.00    -0.504 OA
ATOM     20  H   UNL     1      -3.921   2.487  17.063  1.00  0.00     0.293 HD
ENDBRANCH  16  19
BRANCH  18  21
ATOM     21  O   UNL     1      -6.133   5.371  18.461  1.00  0.00    -0.504 OA
ATOM     22  H   UNL     1      -6.269   4.534  19.023  1.00  0.00     0.293 HD
ENDBRANCH  18  21
ENDBRANCH   3  13
BRANCH  10  23
ATOM     23  O   UNL     1      -3.778  10.193  10.244  1.00  0.00    -0.507 OA
ATOM     24  H   UNL     1      -4.397   9.482   9.858  1.00  0.00     0.293 HD
ENDBRANCH  10  23
BRANCH  11  25
ATOM     25  O   UNL     1       0.387   9.750  12.609  1.00  0.00    -0.508 OA
ATOM     26  H   UNL     1       0.930   9.887  11.762  1.00  0.00     0.293 HD
ENDBRANCH  11  25
ENDBRANCH   1   2
BRANCH   1  27
ATOM     27  C   UNL     1      -8.180   8.056  13.202  1.00  0.00     0.339 C 
ATOM     28  C   UNL     1      -8.819   9.097  12.173  1.00  0.00     0.214 C 
ATOM     29  O   UNL     1      -7.557   6.935  12.562  1.00  0.00    -0.332 OA
ATOM     30  C   UNL     1      -9.079   8.443  10.786  1.00  0.00     0.180 C 
ATOM     31  C   UNL     1      -8.376   6.162  11.666  1.00  0.00     0.179 C 
ATOM     32  C   UNL     1      -9.569   6.993  11.030  1.00  0.00     0.177 C 
BRANCH  28  33
ATOM     33  O   UNL     1      -9.974   9.685  12.713  1.00  0.00    -0.384 OA
ATOM     34  H   UNL     1      -9.782  10.653  12.935  1.00  0.00     0.211 HD
ENDBRANCH  28  33
BRANCH  30  35
ATOM     35  O   UNL     1      -7.832   8.443  10.133  1.00  0.00    -0.387 OA
ATOM     36  H   UNL     1      -7.297   7.736  10.574  1.00  0.00     0.211 HD
ENDBRANCH  30  35
BRANCH  31  37
ATOM     37  C   UNL     1      -7.367   5.557  10.632  1.00  0.00     0.191 C 
BRANCH  37  38
ATOM     38  O   UNL     1      -7.792   4.404   9.960  1.00  0.00    -0.394 OA
ATOM     39  H   UNL     1      -7.244   3.677  10.316  1.00  0.00     0.210 HD
ENDBRANCH  37  38
ENDBRANCH  31  37
BRANCH  32  40
ATOM     40  O   UNL     1     -10.125   6.360   9.880  1.00  0.00    -0.387 OA
ATOM     41  H   UNL     1      -9.688   6.735   9.071  1.00  0.00     0.211 HD
ENDBRANCH  32  40
ENDBRANCH   1  27
TORSDOF 12
ENDMDL
MODEL 9
REMARK VINA RESULT:    -5.950      1.707      6.151
REMARK INTER + INTRA:         -10.178
REMARK INTER:                  -8.496
REMARK INTRA:                  -1.682
REMARK UNBOUND:                -1.445
REMARK SMILES O=c1c(O[C@@H]2O[C@H](CO)[C@H](O)[C@H](O)[C@H]2O)c(-c2ccc(O)c(O)c2)oc2cc(O)cc(O)c12
REMARK SMILES IDX 4 1 3 2 16 3 25 4 2 5 26 6 1 7 33 8 27 9 31 10 28 11 30 12
REMARK SMILES IDX 17 13 18 14 19 15 20 16 24 17 22 18 21 19 23 21 32 23 29 25
REMARK SMILES IDX 5 27 14 28 6 29 12 30 7 31 10 32 15 33 13 35 8 37 9 38 11 40
REMARK H PARENT 21 20 23 22 32 24 29 26 15 34 13 36 9 39 11 41
REMARK Flexibility Score: inf
ROOT
ATOM      1  O   UNL     1      -6.048   9.222  13.716  1.00  0.00    -0.454 OA
ENDROOT
BRANCH   1   2
ATOM      2  C   UNL     1      -5.696   7.942  14.160  1.00  0.00     0.214 A 
ATOM      3  C   UNL     1      -4.814   7.103  13.425  1.00  0.00     0.180 A 
ATOM      4  O   UNL     1      -4.743   5.799  13.747  1.00  0.00    -0.452 OA
ATOM      5  C   UNL     1      -6.151   7.490  15.409  1.00  0.00     0.239 A 
ATOM      6  C   UNL     1      -5.208   5.309  14.892  1.00  0.00     0.146 A 
ATOM      7  O   UNL     1      -6.875   8.261  16.114  1.00  0.00    -0.285 OA
ATOM      8  C   UNL     1      -5.789   6.182  15.837  1.00  0.00     0.111 A 
ATOM      9  C   UNL     1      -5.047   3.952  15.179  1.00  0.00     0.094 A 
ATOM     10  C   UNL     1      -5.868   5.717  17.191  1.00  0.00     0.134 A 
ATOM     11  C   UNL     1      -5.311   3.462  16.457  1.00  0.00     0.123 A 
ATOM     12  C   UNL     1      -5.642   4.360  17.494  1.00  0.00     0.093 A 
BRANCH   3  13
ATOM     13  C   UNL     1      -3.787   7.648  12.492  1.00  0.00     0.025 A 
ATOM     14  C   UNL     1      -4.002   7.483  11.100  1.00  0.00     0.016 A 
ATOM     15  C   UNL     1      -3.537   8.489  10.217  1.00  0.00     0.051 A 
ATOM     16  C   UNL     1      -2.918   9.656  10.734  1.00  0.00     0.157 A 
ATOM     17  C   UNL     1      -2.930   8.674  12.952  1.00  0.00     0.062 A 
ATOM     18  C   UNL     1      -2.552   9.720  12.097  1.00  0.00     0.158 A 
BRANCH  16  19
ATOM     19  O   UNL     1      -2.761  10.756   9.875  1.00  0.00    -0.504 OA
ATOM     20  H   UNL     1      -3.546  11.150   9.324  1.00  0.00     0.293 HD
ENDBRANCH  16  19
BRANCH  18  21
ATOM     21  O   UNL     1      -1.849  10.810  12.603  1.00  0.00    -0.504 OA
ATOM     22  H   UNL     1      -0.976  11.145  12.203  1.00  0.00     0.293 HD
ENDBRANCH  18  21
ENDBRANCH   3  13
BRANCH  10  23
ATOM     23  O   UNL     1      -5.899   6.604  18.279  1.00  0.00    -0.507 OA
ATOM     24  H   UNL     1      -6.315   7.530  18.195  1.00  0.00     0.293 HD
ENDBRANCH  10  23
BRANCH  11  25
ATOM     25  O   UNL     1      -5.188   2.107  16.724  1.00  0.00    -0.508 OA
ATOM     26  H   UNL     1      -5.258   1.413  15.987  1.00  0.00     0.293 HD
ENDBRANCH  11  25
ENDBRANCH   1   2
BRANCH   1  27
ATOM     27  C   UNL     1      -7.176   9.550  12.898  1.00  0.00     0.339 C 
ATOM     28  C   UNL     1      -6.655   9.736  11.400  1.00  0.00     0.214 C 
ATOM     29  O   UNL     1      -8.164   8.519  13.032  1.00  0.00    -0.332 OA
ATOM     30  C   UNL     1      -7.660   9.148  10.368  1.00  0.00     0.180 C 
ATOM     31  C   UNL     1      -9.339   8.636  12.210  1.00  0.00     0.179 C 
ATOM     32  C   UNL     1      -9.093   9.456  10.875  1.00  0.00     0.177 C 
BRANCH  28  33
ATOM     33  O   UNL     1      -6.348  11.081  11.143  1.00  0.00    -0.384 OA
ATOM     34  H   UNL     1      -5.533  11.345  11.681  1.00  0.00     0.211 HD
ENDBRANCH  28  33
BRANCH  30  35
ATOM     35  O   UNL     1      -7.423   7.761  10.363  1.00  0.00    -0.387 OA
ATOM     36  H   UNL     1      -7.213   7.528   9.423  1.00  0.00     0.211 HD
ENDBRANCH  30  35
BRANCH  31  37
ATOM     37  C   UNL     1      -9.821   7.161  12.000  1.00  0.00     0.191 C 
BRANCH  37  38
ATOM     38  O   UNL     1      -8.846   6.167  12.159  1.00  0.00    -0.394 OA
ATOM     39  H   UNL     1      -8.976   5.552  11.411  1.00  0.00     0.210 HD
ENDBRANCH  37  38
ENDBRANCH  31  37
BRANCH  32  40
ATOM     40  O   UNL     1     -10.115   9.244   9.905  1.00  0.00    -0.387 OA
ATOM     41  H   UNL     1     -10.222   8.267   9.767  1.00  0.00     0.211 HD
ENDBRANCH  32  40
ENDBRANCH   1  27
TORSDOF 12
ENDMDL
