MODEL 1
REMARK VINA RESULT:    -3.973      0.000      0.000
REMARK INTER + INTRA:          -4.089
REMARK INTER:                  -4.089
REMARK INTRA:                   0.000
REMARK UNBOUND:                 0.000
REMARK SMILES Nc1ncnc2nc[nH]c12
REMARK SMILES IDX 8 1 7 2 6 3 5 4 4 5 3 6 2 7 10 8 9 9 1 11
REMARK H PARENT 9 10 1 12 1 13
REMARK Flexibility Score: inf
ROOT
ATOM      1  C   UNL     1       8.971  20.897  16.139  1.00  0.00     0.199 A 
ATOM      2  N   UNL     1       9.288  22.158  16.545  1.00  0.00    -0.217 NA
ATOM      3  C   UNL     1      10.631  22.113  16.590  1.00  0.00     0.182 A 
ATOM      4  N   UNL     1      11.461  23.124  16.941  1.00  0.00    -0.215 NA
ATOM      5  C   UNL     1      12.808  22.887  16.927  1.00  0.00     0.226 A 
ATOM      6  N   UNL     1      13.294  21.657  16.565  1.00  0.00    -0.217 NA
ATOM      7  C   UNL     1      12.458  20.636  16.211  1.00  0.00     0.152 A 
ATOM      8  C   UNL     1      11.090  20.893  16.232  1.00  0.00     0.127 A 
ATOM      9  N   UNL     1      10.051  20.100  15.940  1.00  0.00    -0.340 N 
ATOM     10  H   UNL     1      10.058  19.103  15.630  1.00  0.00     0.168 HD
ENDROOT
BRANCH   7  11
ATOM     11  N   UNL     1      12.988  19.363  15.840  1.00  0.00    -0.382 N 
ATOM     12  H   UNL     1      12.495  18.780  15.127  1.00  0.00     0.158 HD
ATOM     13  H   UNL     1      13.866  18.993  16.266  1.00  0.00     0.158 HD
ENDBRANCH   7  11
TORSDOF 1
ENDMDL
MODEL 2
REMARK VINA RESULT:    -3.824      2.534      2.718
REMARK INTER + INTRA:          -3.936
REMARK INTER:                  -3.936
REMARK INTRA:                   0.000
REMARK UNBOUND:                 0.000
REMARK SMILES Nc1ncnc2nc[nH]c12
REMARK SMILES IDX 8 1 7 2 6 3 5 4 4 5 3 6 2 7 10 8 9 9 1 11
REMARK H PARENT 9 10 1 12 1 13
REMARK Flexibility Score: inf
ROOT
ATOM      1  C   UNL     1      11.110  22.087  12.206  1.00  0.00     0.199 A 
ATOM      2  N   UNL     1      10.568  23.052  12.999  1.00  0.00    -0.217 NA
ATOM      3  C   UNL     1      10.759  22.549  14.230  1.00  0.00     0.182 A 
ATOM      4  N   UNL     1      10.397  23.125  15.402  1.00  0.00    -0.215 NA
ATOM      5  C   UNL     1      10.678  22.457  16.562  1.00  0.00     0.226 A 
ATOM      6  N   UNL     1      11.309  21.240  16.530  1.00  0.00    -0.217 NA
ATOM      7  C   UNL     1      11.675  20.658  15.348  1.00  0.00     0.152 A 
ATOM      8  C   UNL     1      11.381  21.350  14.176  1.00  0.00     0.127 A 
ATOM      9  N   UNL     1      11.616  21.034  12.897  1.00  0.00    -0.340 N 
ATOM     10  H   UNL     1      12.078  20.181  12.509  1.00  0.00     0.168 HD
ENDROOT
BRANCH   7  11
ATOM     11  N   UNL     1      12.331  19.390  15.339  1.00  0.00    -0.382 N 
ATOM     12  H   UNL     1      11.961  18.607  15.923  1.00  0.00     0.158 HD
ATOM     13  H   UNL     1      13.180  19.221  14.757  1.00  0.00     0.158 HD
ENDBRANCH   7  11
TORSDOF 1
ENDMDL
MODEL 3
REMARK VINA RESULT:    -3.671      1.943      2.322
REMARK INTER + INTRA:          -3.778
REMARK INTER:                  -3.778
REMARK INTRA:                   0.000
REMARK UNBOUND:                 0.000
REMARK SMILES Nc1ncnc2nc[nH]c12
REMARK SMILES IDX 8 1 7 2 6 3 5 4 4 5 3 6 2 7 10 8 9 9 1 11
REMARK H PARENT 9 10 1 12 1 13
REMARK Flexibility Score: inf
ROOT
ATOM      1  C   UNL     1      10.334  22.201  17.664  1.00  0.00     0.199 A 
ATOM      2  N   UNL     1       9.990  23.121  16.722  1.00  0.00    -0.217 NA
ATOM      3  C   UNL     1      10.452  22.559  15.592  1.00  0.00     0.182 A 
ATOM      4  N   UNL     1      10.367  23.072  14.341  1.00  0.00    -0.215 NA
ATOM      5  C   UNL     1      10.899  22.348  13.310  1.00  0.00     0.226 A 
ATOM      6  N   UNL     1      11.498  21.137  13.546  1.00  0.00    -0.217 NA
ATOM      7  C   UNL     1      11.585  20.618  14.807  1.00  0.00     0.152 A 
ATOM      8  C   UNL     1      11.039  21.368  15.846  1.00  0.00     0.127 A 
ATOM      9  N   UNL     1      10.977  21.118  17.160  1.00  0.00    -0.340 N 
ATOM     10  H   UNL     1      11.334  20.288  17.684  1.00  0.00     0.168 HD
ENDROOT
BRANCH   7  11
ATOM     11  N   UNL     1      12.214  19.356  15.028  1.00  0.00    -0.382 N 
ATOM     12  H   UNL     1      11.942  18.774  15.851  1.00  0.00     0.158 HD
ATOM     13  H   UNL     1      12.949  18.994  14.382  1.00  0.00     0.158 HD
ENDBRANCH   7  11
TORSDOF 1
ENDMDL
MODEL 4
REMARK VINA RESULT:    -3.549      1.424      3.261
REMARK INTER + INTRA:          -3.653
REMARK INTER:                  -3.653
REMARK INTRA:                   0.000
REMARK UNBOUND:                 0.000
REMARK SMILES Nc1ncnc2nc[nH]c12
REMARK SMILES IDX 8 1 7 2 6 3 5 4 4 5 3 6 2 7 10 8 9 9 1 11
REMARK H PARENT 9 10 1 12 1 13
REMARK Flexibility Score: inf
ROOT
ATOM      1  C   UNL     1      14.883  22.120  17.404  1.00  0.00     0.199 A 
ATOM      2  N   UNL     1      13.970  23.125  17.300  1.00  0.00    -0.217 NA
ATOM      3  C   UNL     1      12.952  22.520  16.666  1.00  0.00     0.182 A 
ATOM      4  N   UNL     1      11.772  23.084  16.312  1.00  0.00    -0.215 NA
ATOM      5  C   UNL     1      10.851  22.303  15.670  1.00  0.00     0.226 A 
ATOM      6  N   UNL     1      11.123  20.986  15.397  1.00  0.00    -0.217 NA
ATOM      7  C   UNL     1      12.313  20.417  15.753  1.00  0.00     0.152 A 
ATOM      8  C   UNL     1      13.240  21.224  16.406  1.00  0.00     0.127 A 
ATOM      9  N   UNL     1      14.466  20.946  16.866  1.00  0.00    -0.340 N 
ATOM     10  H   UNL     1      14.988  20.042  16.827  1.00  0.00     0.168 HD
ENDROOT
BRANCH   7  11
ATOM     11  N   UNL     1      12.574  19.044  15.458  1.00  0.00    -0.382 N 
ATOM     12  H   UNL     1      13.196  18.485  16.083  1.00  0.00     0.158 HD
ATOM     13  H   UNL     1      12.156  18.578  14.623  1.00  0.00     0.158 HD
ENDBRANCH   7  11
TORSDOF 1
ENDMDL
MODEL 5
REMARK VINA RESULT:    -3.114      3.623      3.875
REMARK INTER + INTRA:          -3.205
REMARK INTER:                  -3.205
REMARK INTRA:                   0.000
REMARK UNBOUND:                 0.000
REMARK SMILES Nc1ncnc2nc[nH]c12
REMARK SMILES IDX 8 1 7 2 6 3 5 4 4 5 3 6 2 7 10 8 9 9 1 11
REMARK H PARENT 9 10 1 12 1 13
REMARK Flexibility Score: inf
ROOT
ATOM      1  C   UNL     1      11.451  20.551  15.378  1.00  0.00     0.199 A 
ATOM      2  N   UNL     1      10.951  21.807  15.219  1.00  0.00    -0.217 NA
ATOM      3  C   UNL     1      11.086  22.002  13.896  1.00  0.00     0.182 A 
ATOM      4  N   UNL     1      10.734  23.112  13.204  1.00  0.00    -0.215 NA
ATOM      5  C   UNL     1      10.949  23.125  11.854  1.00  0.00     0.226 A 
ATOM      6  N   UNL     1      11.505  22.039  11.227  1.00  0.00    -0.217 NA
ATOM      7  C   UNL     1      11.860  20.919  11.924  1.00  0.00     0.152 A 
ATOM      8  C   UNL     1      11.636  20.921  13.298  1.00  0.00     0.127 A 
ATOM      9  N   UNL     1      11.878  19.983  14.221  1.00  0.00    -0.340 N 
ATOM     10  H   UNL     1      12.295  19.034  14.094  1.00  0.00     0.168 HD
ENDROOT
BRANCH   7  11
ATOM     11  N   UNL     1      12.438  19.801  11.250  1.00  0.00    -0.382 N 
ATOM     12  H   UNL     1      12.299  18.836  11.624  1.00  0.00     0.158 HD
ATOM     13  H   UNL     1      13.005  19.922  10.381  1.00  0.00     0.158 HD
ENDBRANCH   7  11
TORSDOF 1
ENDMDL
MODEL 6
REMARK VINA RESULT:    -3.018      1.966      3.197
REMARK INTER + INTRA:          -3.106
REMARK INTER:                  -3.106
REMARK INTRA:                   0.000
REMARK UNBOUND:                 0.000
REMARK SMILES Nc1ncnc2nc[nH]c12
REMARK SMILES IDX 8 1 7 2 6 3 5 4 4 5 3 6 2 7 10 8 9 9 1 11
REMARK H PARENT 9 10 1 12 1 13
REMARK Flexibility Score: inf
ROOT
ATOM      1  C   UNL     1      10.380  22.973  13.536  1.00  0.00     0.199 A 
ATOM      2  N   UNL     1      11.486  22.203  13.728  1.00  0.00    -0.217 NA
ATOM      3  C   UNL     1      11.383  21.876  15.027  1.00  0.00     0.182 A 
ATOM      4  N   UNL     1      12.243  21.106  15.737  1.00  0.00    -0.215 NA
ATOM      5  C   UNL     1      11.968  20.882  17.058  1.00  0.00     0.226 A 
ATOM      6  N   UNL     1      10.850  21.425  17.638  1.00  0.00    -0.217 NA
ATOM      7  C   UNL     1       9.982  22.201  16.924  1.00  0.00     0.152 A 
ATOM      8  C   UNL     1      10.276  22.420  15.580  1.00  0.00     0.127 A 
ATOM      9  N   UNL     1       9.620  23.125  14.650  1.00  0.00    -0.340 N 
ATOM     10  H   UNL     1       8.733  23.666  14.746  1.00  0.00     0.168 HD
ENDROOT
BRANCH   7  11
ATOM     11  N   UNL     1       8.825  22.756  17.550  1.00  0.00    -0.382 N 
ATOM     12  H   UNL     1       8.564  23.752  17.376  1.00  0.00     0.158 HD
ATOM     13  H   UNL     1       8.223  22.186  18.185  1.00  0.00     0.158 HD
ENDBRANCH   7  11
TORSDOF 1
ENDMDL
MODEL 7
REMARK VINA RESULT:    -2.955      1.397      3.198
REMARK INTER + INTRA:          -3.042
REMARK INTER:                  -3.042
REMARK INTRA:                   0.000
REMARK UNBOUND:                 0.000
REMARK SMILES Nc1ncnc2nc[nH]c12
REMARK SMILES IDX 8 1 7 2 6 3 5 4 4 5 3 6 2 7 10 8 9 9 1 11
REMARK H PARENT 9 10 1 12 1 13
REMARK Flexibility Score: inf
ROOT
ATOM      1  C   UNL     1      13.415  20.976  17.418  1.00  0.00     0.199 A 
ATOM      2  N   UNL     1      13.524  21.976  16.500  1.00  0.00    -0.217 NA
ATOM      3  C   UNL     1      12.245  22.172  16.139  1.00  0.00     0.182 A 
ATOM      4  N   UNL     1      11.790  23.072  15.235  1.00  0.00    -0.215 NA
ATOM      5  C   UNL     1      10.444  23.125  14.999  1.00  0.00     0.226 A 
ATOM      6  N   UNL     1       9.587  22.286  15.664  1.00  0.00    -0.217 NA
ATOM      7  C   UNL     1      10.044  21.377  16.576  1.00  0.00     0.152 A 
ATOM      8  C   UNL     1      11.417  21.335  16.805  1.00  0.00     0.127 A 
ATOM      9  N   UNL     1      12.140  20.563  17.626  1.00  0.00    -0.340 N 
ATOM     10  H   UNL     1      11.810  19.817  18.278  1.00  0.00     0.168 HD
ENDROOT
BRANCH   7  11
ATOM     11  N   UNL     1       9.133  20.513  17.256  1.00  0.00    -0.382 N 
ATOM     12  H   UNL     1       8.577  19.813  16.718  1.00  0.00     0.158 HD
ATOM     13  H   UNL     1       9.005  20.563  18.291  1.00  0.00     0.158 HD
ENDBRANCH   7  11
TORSDOF 1
ENDMDL
