MODEL 1
REMARK VINA RESULT:    -4.328      0.000      0.000
REMARK INTER + INTRA:         -10.635
REMARK INTER:                  -8.376
REMARK INTRA:                  -2.259
REMARK UNBOUND:                -2.259
REMARK SMILES CCCCCCCCCCCCCCCCCC(=O)[O-]
REMARK SMILES IDX 10 1 11 2 12 3 13 4 14 5 15 6 16 7 17 8 18 9 19 10 20 11
REMARK SMILES IDX 9 12 8 13 7 14 6 15 5 16 4 17 3 18 2 19 1 20
REMARK H PARENT
REMARK Flexibility Score: inf
ROOT
ATOM      1  C   UNL     1     -20.281 -13.670 -17.151  1.00  0.00     0.000 C 
ENDROOT
BRANCH   1   2
ATOM      2  C   UNL     1     -18.988 -14.094 -17.871  1.00  0.00     0.000 C 
BRANCH   2   3
ATOM      3  C   UNL     1     -19.004 -13.759 -19.371  1.00  0.00     0.000 C 
BRANCH   3   4
ATOM      4  C   UNL     1     -19.790 -12.472 -19.682  1.00  0.00     0.000 C 
BRANCH   4   5
ATOM      5  C   UNL     1     -20.861 -12.690 -20.764  1.00  0.00     0.000 C 
BRANCH   5   6
ATOM      6  C   UNL     1     -22.278 -12.786 -20.174  1.00  0.00     0.000 C 
BRANCH   6   7
ATOM      7  C   UNL     1     -22.968 -14.116 -20.515  1.00  0.00     0.006 C 
BRANCH   7   8
ATOM      8  C   UNL     1     -21.966 -15.231 -20.842  1.00  0.00     0.053 C 
BRANCH   8   9
ATOM      9  C   UNL     1     -22.510 -16.125 -21.911  1.00  0.00     0.041 C 
ATOM     10  O   UNL     1     -23.317 -17.046 -21.618  1.00  0.00    -0.550 OA
ATOM     11  O   UNL     1     -22.088 -15.971 -23.228  1.00  0.00    -0.550 OA
ENDBRANCH   8   9
ENDBRANCH   7   8
ENDBRANCH   6   7
ENDBRANCH   5   6
ENDBRANCH   4   5
ENDBRANCH   3   4
ENDBRANCH   2   3
ENDBRANCH   1   2
BRANCH   1  12
ATOM     12  C   UNL     1     -21.294 -14.828 -17.035  1.00  0.00     0.000 C 
BRANCH  12  13
ATOM     13  C   UNL     1     -22.747 -14.364 -16.835  1.00  0.00    -0.000 C 
BRANCH  13  14
ATOM     14  C   UNL     1     -22.864 -12.854 -16.568  1.00  0.00    -0.000 C 
BRANCH  14  15
ATOM     15  C   UNL     1     -23.441 -12.550 -15.169  1.00  0.00    -0.000 C 
BRANCH  15  16
ATOM     16  C   UNL     1     -23.700 -13.811 -14.324  1.00  0.00    -0.000 C 
BRANCH  16  17
ATOM     17  C   UNL     1     -25.180 -13.976 -13.939  1.00  0.00    -0.000 C 
BRANCH  17  18
ATOM     18  C   UNL     1     -25.585 -15.447 -13.764  1.00  0.00    -0.000 C 
BRANCH  18  19
ATOM     19  C   UNL     1     -24.831 -16.384 -14.719  1.00  0.00    -0.003 C 
ATOM     20  C   UNL     1     -25.487 -17.761 -14.770  1.00  0.00     0.004 C 
ENDBRANCH  18  19
ENDBRANCH  17  18
ENDBRANCH  16  17
ENDBRANCH  15  16
ENDBRANCH  14  15
ENDBRANCH  13  14
ENDBRANCH  12  13
ENDBRANCH   1  12
TORSDOF 16
ENDMDL
MODEL 2
REMARK VINA RESULT:    -4.225      2.986      6.051
REMARK INTER + INTRA:         -10.437
REMARK INTER:                  -8.004
REMARK INTRA:                  -2.433
REMARK UNBOUND:                -2.259
REMARK SMILES CCCCCCCCCCCCCCCCCC(=O)[O-]
REMARK SMILES IDX 10 1 11 2 12 3 13 4 14 5 15 6 16 7 17 8 18 9 19 10 20 11
REMARK SMILES IDX 9 12 8 13 7 14 6 15 5 16 4 17 3 18 2 19 1 20
REMARK H PARENT
REMARK Flexibility Score: inf
ROOT
ATOM      1  C   UNL     1     -21.837 -12.557 -19.772  1.00  0.00     0.000 C 
ENDROOT
BRANCH   1   2
ATOM      2  C   UNL     1     -23.017 -12.761 -18.804  1.00  0.00     0.000 C 
BRANCH   2   3
ATOM      3  C   UNL     1     -22.566 -13.192 -17.399  1.00  0.00     0.000 C 
BRANCH   3   4
ATOM      4  C   UNL     1     -23.041 -12.223 -16.301  1.00  0.00     0.000 C 
BRANCH   4   5
ATOM      5  C   UNL     1     -23.096 -12.893 -14.918  1.00  0.00     0.000 C 
BRANCH   5   6
ATOM      6  C   UNL     1     -24.441 -12.661 -14.207  1.00  0.00     0.000 C 
BRANCH   6   7
ATOM      7  C   UNL     1     -25.231 -13.963 -14.006  1.00  0.00     0.006 C 
BRANCH   7   8
ATOM      8  C   UNL     1     -24.435 -15.205 -14.428  1.00  0.00     0.053 C 
BRANCH   8   9
ATOM      9  C   UNL     1     -25.036 -16.438 -13.831  1.00  0.00     0.041 C 
ATOM     10  O   UNL     1     -25.739 -16.360 -12.789  1.00  0.00    -0.550 OA
ATOM     11  O   UNL     1     -24.782 -17.682 -14.399  1.00  0.00    -0.550 OA
ENDBRANCH   8   9
ENDBRANCH   7   8
ENDBRANCH   6   7
ENDBRANCH   5   6
ENDBRANCH   4   5
ENDBRANCH   3   4
ENDBRANCH   2   3
ENDBRANCH   1   2
BRANCH   1  12
ATOM     12  C   UNL     1     -20.529 -12.204 -19.034  1.00  0.00     0.000 C 
BRANCH  12  13
ATOM     13  C   UNL     1     -19.384 -13.201 -19.289  1.00  0.00    -0.000 C 
BRANCH  13  14
ATOM     14  C   UNL     1     -18.724 -13.700 -17.993  1.00  0.00    -0.000 C 
BRANCH  14  15
ATOM     15  C   UNL     1     -19.297 -15.055 -17.528  1.00  0.00    -0.000 C 
BRANCH  15  16
ATOM     16  C   UNL     1     -19.683 -15.990 -18.689  1.00  0.00    -0.000 C 
BRANCH  16  17
ATOM     17  C   UNL     1     -21.062 -16.642 -18.495  1.00  0.00    -0.000 C 
BRANCH  17  18
ATOM     18  C   UNL     1     -22.059 -16.258 -19.599  1.00  0.00    -0.000 C 
BRANCH  18  19
ATOM     19  C   UNL     1     -23.518 -16.498 -19.185  1.00  0.00    -0.003 C 
ATOM     20  C   UNL     1     -23.612 -16.915 -17.720  1.00  0.00     0.004 C 
ENDBRANCH  18  19
ENDBRANCH  17  18
ENDBRANCH  16  17
ENDBRANCH  15  16
ENDBRANCH  14  15
ENDBRANCH  13  14
ENDBRANCH  12  13
ENDBRANCH   1  12
TORSDOF 16
ENDMDL
MODEL 3
REMARK VINA RESULT:    -4.213      3.074      6.455
REMARK INTER + INTRA:         -10.413
REMARK INTER:                  -8.038
REMARK INTRA:                  -2.375
REMARK UNBOUND:                -2.259
REMARK SMILES CCCCCCCCCCCCCCCCCC(=O)[O-]
REMARK SMILES IDX 10 1 11 2 12 3 13 4 14 5 15 6 16 7 17 8 18 9 19 10 20 11
REMARK SMILES IDX 9 12 8 13 7 14 6 15 5 16 4 17 3 18 2 19 1 20
REMARK H PARENT
REMARK Flexibility Score: inf
ROOT
ATOM      1  C   UNL     1     -22.867 -15.071 -19.224  1.00  0.00     0.000 C 
ENDROOT
BRANCH   1   2
ATOM      2  C   UNL     1     -22.977 -14.360 -17.862  1.00  0.00     0.000 C 
BRANCH   2   3
ATOM      3  C   UNL     1     -22.989 -12.829 -17.988  1.00  0.00     0.000 C 
BRANCH   3   4
ATOM      4  C   UNL     1     -22.814 -12.120 -16.633  1.00  0.00     0.000 C 
BRANCH   4   5
ATOM      5  C   UNL     1     -22.930 -13.094 -15.448  1.00  0.00     0.000 C 
BRANCH   5   6
ATOM      6  C   UNL     1     -23.989 -12.647 -14.425  1.00  0.00     0.000 C 
BRANCH   6   7
ATOM      7  C   UNL     1     -24.967 -13.775 -14.062  1.00  0.00     0.006 C 
BRANCH   7   8
ATOM      8  C   UNL     1     -24.522 -15.138 -14.609  1.00  0.00     0.053 C 
BRANCH   8   9
ATOM      9  C   UNL     1     -25.029 -16.242 -13.736  1.00  0.00     0.041 C 
ATOM     10  O   UNL     1     -24.411 -17.338 -13.678  1.00  0.00    -0.550 OA
ATOM     11  O   UNL     1     -26.211 -16.078 -13.021  1.00  0.00    -0.550 OA
ENDBRANCH   8   9
ENDBRANCH   7   8
ENDBRANCH   6   7
ENDBRANCH   5   6
ENDBRANCH   4   5
ENDBRANCH   3   4
ENDBRANCH   2   3
ENDBRANCH   1   2
BRANCH   1  12
ATOM     12  C   UNL     1     -22.661 -14.078 -20.387  1.00  0.00     0.000 C 
BRANCH  12  13
ATOM     13  C   UNL     1     -21.290 -14.203 -21.074  1.00  0.00    -0.000 C 
BRANCH  13  14
ATOM     14  C   UNL     1     -20.637 -12.842 -21.365  1.00  0.00    -0.000 C 
BRANCH  14  15
ATOM     15  C   UNL     1     -19.408 -12.578 -20.470  1.00  0.00    -0.000 C 
BRANCH  15  16
ATOM     16  C   UNL     1     -19.745 -12.499 -18.971  1.00  0.00    -0.000 C 
BRANCH  16  17
ATOM     17  C   UNL     1     -18.855 -13.413 -18.112  1.00  0.00    -0.000 C 
BRANCH  17  18
ATOM     18  C   UNL     1     -19.647 -14.541 -17.431  1.00  0.00    -0.000 C 
BRANCH  18  19
ATOM     19  C   UNL     1     -19.014 -15.922 -17.654  1.00  0.00    -0.003 C 
ATOM     20  C   UNL     1     -19.567 -16.584 -18.913  1.00  0.00     0.004 C 
ENDBRANCH  18  19
ENDBRANCH  17  18
ENDBRANCH  16  17
ENDBRANCH  15  16
ENDBRANCH  14  15
ENDBRANCH  13  14
ENDBRANCH  12  13
ENDBRANCH   1  12
TORSDOF 16
ENDMDL
MODEL 4
REMARK VINA RESULT:    -4.207      2.276      2.821
REMARK INTER + INTRA:         -10.401
REMARK INTER:                  -8.067
REMARK INTRA:                  -2.335
REMARK UNBOUND:                -2.259
REMARK SMILES CCCCCCCCCCCCCCCCCC(=O)[O-]
REMARK SMILES IDX 10 1 11 2 12 3 13 4 14 5 15 6 16 7 17 8 18 9 19 10 20 11
REMARK SMILES IDX 9 12 8 13 7 14 6 15 5 16 4 17 3 18 2 19 1 20
REMARK H PARENT
REMARK Flexibility Score: inf
ROOT
ATOM      1  C   UNL     1     -20.469 -15.877 -17.345  1.00  0.00     0.000 C 
ENDROOT
BRANCH   1   2
ATOM      2  C   UNL     1     -19.156 -15.184 -17.754  1.00  0.00     0.000 C 
BRANCH   2   3
ATOM      3  C   UNL     1     -19.247 -13.651 -17.691  1.00  0.00     0.000 C 
BRANCH   3   4
ATOM      4  C   UNL     1     -19.071 -12.989 -19.070  1.00  0.00     0.000 C 
BRANCH   4   5
ATOM      5  C   UNL     1     -20.126 -11.902 -19.333  1.00  0.00     0.000 C 
BRANCH   5   6
ATOM      6  C   UNL     1     -20.917 -12.156 -20.628  1.00  0.00     0.000 C 
BRANCH   6   7
ATOM      7  C   UNL     1     -20.370 -13.349 -21.427  1.00  0.00     0.006 C 
BRANCH   7   8
ATOM      8  C   UNL     1     -19.911 -12.951 -22.836  1.00  0.00     0.053 C 
BRANCH   8   9
ATOM      9  C   UNL     1     -18.497 -13.383 -23.067  1.00  0.00     0.041 C 
ATOM     10  O   UNL     1     -18.215 -14.137 -24.035  1.00  0.00    -0.550 OA
ATOM     11  O   UNL     1     -17.496 -12.992 -22.184  1.00  0.00    -0.550 OA
ENDBRANCH   8   9
ENDBRANCH   7   8
ENDBRANCH   6   7
ENDBRANCH   5   6
ENDBRANCH   4   5
ENDBRANCH   3   4
ENDBRANCH   2   3
ENDBRANCH   1   2
BRANCH   1  12
ATOM     12  C   UNL     1     -21.627 -15.555 -18.314  1.00  0.00     0.000 C 
BRANCH  12  13
ATOM     13  C   UNL     1     -22.850 -14.920 -17.628  1.00  0.00    -0.000 C 
BRANCH  13  14
ATOM     14  C   UNL     1     -23.012 -13.426 -17.954  1.00  0.00    -0.000 C 
BRANCH  14  15
ATOM     15  C   UNL     1     -22.678 -12.524 -16.748  1.00  0.00    -0.000 C 
BRANCH  15  16
ATOM     16  C   UNL     1     -22.856 -13.224 -15.389  1.00  0.00    -0.000 C 
BRANCH  16  17
ATOM     17  C   UNL     1     -23.938 -12.565 -14.517  1.00  0.00    -0.000 C 
BRANCH  17  18
ATOM     18  C   UNL     1     -25.034 -13.553 -14.086  1.00  0.00    -0.000 C 
BRANCH  18  19
ATOM     19  C   UNL     1     -24.653 -15.014 -14.366  1.00  0.00    -0.003 C 
ATOM     20  C   UNL     1     -25.496 -15.972 -13.530  1.00  0.00     0.004 C 
ENDBRANCH  18  19
ENDBRANCH  17  18
ENDBRANCH  16  17
ENDBRANCH  15  16
ENDBRANCH  14  15
ENDBRANCH  13  14
ENDBRANCH  12  13
ENDBRANCH   1  12
TORSDOF 16
ENDMDL
MODEL 5
REMARK VINA RESULT:    -4.206      2.858      5.756
REMARK INTER + INTRA:         -10.399
REMARK INTER:                  -7.301
REMARK INTRA:                  -3.098
REMARK UNBOUND:                -2.259
REMARK SMILES CCCCCCCCCCCCCCCCCC(=O)[O-]
REMARK SMILES IDX 10 1 11 2 12 3 13 4 14 5 15 6 16 7 17 8 18 9 19 10 20 11
REMARK SMILES IDX 9 12 8 13 7 14 6 15 5 16 4 17 3 18 2 19 1 20
REMARK H PARENT
REMARK Flexibility Score: inf
ROOT
ATOM      1  C   UNL     1     -19.779 -13.617 -17.732  1.00  0.00     0.000 C 
ENDROOT
BRANCH   1   2
ATOM      2  C   UNL     1     -20.156 -12.663 -18.881  1.00  0.00     0.000 C 
BRANCH   2   3
ATOM      3  C   UNL     1     -21.495 -11.946 -18.645  1.00  0.00     0.000 C 
BRANCH   3   4
ATOM      4  C   UNL     1     -22.544 -12.856 -17.980  1.00  0.00     0.000 C 
BRANCH   4   5
ATOM      5  C   UNL     1     -22.978 -12.333 -16.601  1.00  0.00     0.000 C 
BRANCH   5   6
ATOM      6  C   UNL     1     -22.691 -13.341 -15.475  1.00  0.00     0.000 C 
BRANCH   6   7
ATOM      7  C   UNL     1     -23.975 -13.908 -14.852  1.00  0.00     0.006 C 
BRANCH   7   8
ATOM      8  C   UNL     1     -23.772 -15.308 -14.258  1.00  0.00     0.053 C 
BRANCH   8   9
ATOM      9  C   UNL     1     -25.061 -16.068 -14.258  1.00  0.00     0.041 C 
ATOM     10  O   UNL     1     -25.193 -17.093 -14.977  1.00  0.00    -0.550 OA
ATOM     11  O   UNL     1     -26.135 -15.618 -13.497  1.00  0.00    -0.550 OA
ENDBRANCH   8   9
ENDBRANCH   7   8
ENDBRANCH   6   7
ENDBRANCH   5   6
ENDBRANCH   4   5
ENDBRANCH   3   4
ENDBRANCH   2   3
ENDBRANCH   1   2
BRANCH   1  12
ATOM     12  C   UNL     1     -18.954 -14.825 -18.222  1.00  0.00     0.000 C 
BRANCH  12  13
ATOM     13  C   UNL     1     -19.432 -16.174 -17.655  1.00  0.00    -0.000 C 
BRANCH  13  14
ATOM     14  C   UNL     1     -20.777 -16.071 -16.916  1.00  0.00    -0.000 C 
BRANCH  14  15
ATOM     15  C   UNL     1     -21.801 -17.111 -17.418  1.00  0.00    -0.000 C 
BRANCH  15  16
ATOM     16  C   UNL     1     -23.171 -16.503 -17.770  1.00  0.00    -0.000 C 
BRANCH  16  17
ATOM     17  C   UNL     1     -23.302 -16.155 -19.262  1.00  0.00    -0.000 C 
BRANCH  17  18
ATOM     18  C   UNL     1     -22.258 -16.874 -20.131  1.00  0.00    -0.000 C 
BRANCH  18  19
ATOM     19  C   UNL     1     -21.363 -15.896 -20.907  1.00  0.00    -0.003 C 
ATOM     20  C   UNL     1     -22.123 -14.622 -21.265  1.00  0.00     0.004 C 
ENDBRANCH  18  19
ENDBRANCH  17  18
ENDBRANCH  16  17
ENDBRANCH  15  16
ENDBRANCH  14  15
ENDBRANCH  13  14
ENDBRANCH  12  13
ENDBRANCH   1  12
TORSDOF 16
ENDMDL
MODEL 6
REMARK VINA RESULT:    -4.122      2.341      3.614
REMARK INTER + INTRA:         -10.236
REMARK INTER:                  -7.959
REMARK INTRA:                  -2.277
REMARK UNBOUND:                -2.259
REMARK SMILES CCCCCCCCCCCCCCCCCC(=O)[O-]
REMARK SMILES IDX 10 1 11 2 12 3 13 4 14 5 15 6 16 7 17 8 18 9 19 10 20 11
REMARK SMILES IDX 9 12 8 13 7 14 6 15 5 16 4 17 3 18 2 19 1 20
REMARK H PARENT
REMARK Flexibility Score: inf
ROOT
ATOM      1  C   UNL     1     -21.538 -14.236 -20.649  1.00  0.00     0.000 C 
ENDROOT
BRANCH   1   2
ATOM      2  C   UNL     1     -20.595 -13.168 -21.232  1.00  0.00     0.000 C 
BRANCH   2   3
ATOM      3  C   UNL     1     -19.580 -12.644 -20.203  1.00  0.00     0.000 C 
BRANCH   3   4
ATOM      4  C   UNL     1     -18.794 -13.777 -19.516  1.00  0.00     0.000 C 
BRANCH   4   5
ATOM      5  C   UNL     1     -18.862 -13.685 -17.983  1.00  0.00     0.000 C 
BRANCH   5   6
ATOM      6  C   UNL     1     -19.623 -14.868 -17.359  1.00  0.00     0.000 C 
BRANCH   6   7
ATOM      7  C   UNL     1     -19.656 -16.097 -18.281  1.00  0.00     0.006 C 
BRANCH   7   8
ATOM      8  C   UNL     1     -20.955 -16.901 -18.140  1.00  0.00     0.053 C 
BRANCH   8   9
ATOM      9  C   UNL     1     -21.222 -17.215 -16.702  1.00  0.00     0.041 C 
ATOM     10  O   UNL     1     -22.200 -16.687 -16.109  1.00  0.00    -0.550 OA
ATOM     11  O   UNL     1     -20.364 -18.056 -16.001  1.00  0.00    -0.550 OA
ENDBRANCH   8   9
ENDBRANCH   7   8
ENDBRANCH   6   7
ENDBRANCH   5   6
ENDBRANCH   4   5
ENDBRANCH   3   4
ENDBRANCH   2   3
ENDBRANCH   1   2
BRANCH   1  12
ATOM     12  C   UNL     1     -22.918 -13.657 -20.273  1.00  0.00     0.000 C 
BRANCH  12  13
ATOM     13  C   UNL     1     -22.891 -12.745 -19.034  1.00  0.00    -0.000 C 
BRANCH  13  14
ATOM     14  C   UNL     1     -22.887 -13.529 -17.711  1.00  0.00    -0.000 C 
BRANCH  14  15
ATOM     15  C   UNL     1     -22.489 -12.647 -16.509  1.00  0.00    -0.000 C 
BRANCH  15  16
ATOM     16  C   UNL     1     -22.849 -13.266 -15.146  1.00  0.00    -0.000 C 
BRANCH  16  17
ATOM     17  C   UNL     1     -24.018 -12.544 -14.455  1.00  0.00    -0.000 C 
BRANCH  17  18
ATOM     18  C   UNL     1     -25.141 -13.504 -14.033  1.00  0.00    -0.000 C 
BRANCH  18  19
ATOM     19  C   UNL     1     -24.813 -14.970 -14.352  1.00  0.00    -0.003 C 
ATOM     20  C   UNL     1     -25.646 -15.919 -13.495  1.00  0.00     0.004 C 
ENDBRANCH  18  19
ENDBRANCH  17  18
ENDBRANCH  16  17
ENDBRANCH  15  16
ENDBRANCH  14  15
ENDBRANCH  13  14
ENDBRANCH  12  13
ENDBRANCH   1  12
TORSDOF 16
ENDMDL
MODEL 7
REMARK VINA RESULT:    -4.085      2.278      4.441
REMARK INTER + INTRA:         -10.165
REMARK INTER:                  -7.769
REMARK INTRA:                  -2.396
REMARK UNBOUND:                -2.259
REMARK SMILES CCCCCCCCCCCCCCCCCC(=O)[O-]
REMARK SMILES IDX 10 1 11 2 12 3 13 4 14 5 15 6 16 7 17 8 18 9 19 10 20 11
REMARK SMILES IDX 9 12 8 13 7 14 6 15 5 16 4 17 3 18 2 19 1 20
REMARK H PARENT
REMARK Flexibility Score: inf
ROOT
ATOM      1  C   UNL     1     -22.799 -13.090 -19.237  1.00  0.00     0.000 C 
ENDROOT
BRANCH   1   2
ATOM      2  C   UNL     1     -21.750 -13.108 -20.364  1.00  0.00     0.000 C 
BRANCH   2   3
ATOM      3  C   UNL     1     -20.833 -11.875 -20.343  1.00  0.00     0.000 C 
BRANCH   3   4
ATOM      4  C   UNL     1     -19.568 -12.062 -21.201  1.00  0.00     0.000 C 
BRANCH   4   5
ATOM      5  C   UNL     1     -19.322 -13.537 -21.561  1.00  0.00     0.000 C 
BRANCH   5   6
ATOM      6  C   UNL     1     -18.895 -13.718 -23.028  1.00  0.00     0.000 C 
BRANCH   6   7
ATOM      7  C   UNL     1     -20.090 -13.695 -23.994  1.00  0.00     0.006 C 
BRANCH   7   8
ATOM      8  C   UNL     1     -19.746 -14.287 -25.367  1.00  0.00     0.053 C 
BRANCH   8   9
ATOM      9  C   UNL     1     -20.463 -15.585 -25.571  1.00  0.00     0.041 C 
ATOM     10  O   UNL     1     -20.938 -15.876 -26.700  1.00  0.00    -0.550 OA
ATOM     11  O   UNL     1     -20.649 -16.454 -24.501  1.00  0.00    -0.550 OA
ENDBRANCH   8   9
ENDBRANCH   7   8
ENDBRANCH   6   7
ENDBRANCH   5   6
ENDBRANCH   4   5
ENDBRANCH   3   4
ENDBRANCH   2   3
ENDBRANCH   1   2
BRANCH   1  12
ATOM     12  C   UNL     1     -22.424 -12.113 -18.103  1.00  0.00     0.000 C 
BRANCH  12  13
ATOM     13  C   UNL     1     -23.001 -12.504 -16.731  1.00  0.00    -0.000 C 
BRANCH  13  14
ATOM     14  C   UNL     1     -22.178 -13.593 -16.022  1.00  0.00    -0.000 C 
BRANCH  14  15
ATOM     15  C   UNL     1     -22.920 -14.945 -15.967  1.00  0.00    -0.000 C 
BRANCH  15  16
ATOM     16  C   UNL     1     -22.479 -15.933 -17.062  1.00  0.00    -0.000 C 
BRANCH  16  17
ATOM     17  C   UNL     1     -20.975 -16.251 -17.006  1.00  0.00    -0.000 C 
BRANCH  17  18
ATOM     18  C   UNL     1     -20.200 -15.660 -18.193  1.00  0.00    -0.000 C 
BRANCH  18  19
ATOM     19  C   UNL     1     -18.843 -15.073 -17.776  1.00  0.00    -0.003 C 
ATOM     20  C   UNL     1     -18.893 -13.548 -17.734  1.00  0.00     0.004 C 
ENDBRANCH  18  19
ENDBRANCH  17  18
ENDBRANCH  16  17
ENDBRANCH  15  16
ENDBRANCH  14  15
ENDBRANCH  13  14
ENDBRANCH  12  13
ENDBRANCH   1  12
TORSDOF 16
ENDMDL
MODEL 8
REMARK VINA RESULT:    -4.060      2.718      5.993
REMARK INTER + INTRA:         -10.117
REMARK INTER:                  -7.603
REMARK INTRA:                  -2.514
REMARK UNBOUND:                -2.259
REMARK SMILES CCCCCCCCCCCCCCCCCC(=O)[O-]
REMARK SMILES IDX 10 1 11 2 12 3 13 4 14 5 15 6 16 7 17 8 18 9 19 10 20 11
REMARK SMILES IDX 9 12 8 13 7 14 6 15 5 16 4 17 3 18 2 19 1 20
REMARK H PARENT
REMARK Flexibility Score: inf
ROOT
ATOM      1  C   UNL     1     -22.117 -11.999 -17.591  1.00  0.00     0.000 C 
ENDROOT
BRANCH   1   2
ATOM      2  C   UNL     1     -23.294 -12.214 -16.622  1.00  0.00     0.000 C 
BRANCH   2   3
ATOM      3  C   UNL     1     -22.912 -13.067 -15.402  1.00  0.00     0.000 C 
BRANCH   3   4
ATOM      4  C   UNL     1     -24.029 -13.120 -14.343  1.00  0.00     0.000 C 
BRANCH   4   5
ATOM      5  C   UNL     1     -24.435 -14.563 -13.998  1.00  0.00     0.000 C 
BRANCH   5   6
ATOM      6  C   UNL     1     -23.796 -15.593 -14.944  1.00  0.00     0.000 C 
BRANCH   6   7
ATOM      7  C   UNL     1     -24.666 -16.847 -15.122  1.00  0.00     0.006 C 
BRANCH   7   8
ATOM      8  C   UNL     1     -23.871 -18.041 -15.667  1.00  0.00     0.053 C 
BRANCH   8   9
ATOM      9  C   UNL     1     -22.678 -18.312 -14.806  1.00  0.00     0.041 C 
ATOM     10  O   UNL     1     -22.820 -18.507 -13.570  1.00  0.00    -0.550 OA
ATOM     11  O   UNL     1     -21.402 -18.303 -15.360  1.00  0.00    -0.550 OA
ENDBRANCH   8   9
ENDBRANCH   7   8
ENDBRANCH   6   7
ENDBRANCH   5   6
ENDBRANCH   4   5
ENDBRANCH   3   4
ENDBRANCH   2   3
ENDBRANCH   1   2
BRANCH   1  12
ATOM     12  C   UNL     1     -22.504 -12.290 -19.056  1.00  0.00     0.000 C 
BRANCH  12  13
ATOM     13  C   UNL     1     -21.297 -12.427 -20.001  1.00  0.00    -0.000 C 
BRANCH  13  14
ATOM     14  C   UNL     1     -19.950 -12.212 -19.291  1.00  0.00    -0.000 C 
BRANCH  14  15
ATOM     15  C   UNL     1     -19.140 -13.519 -19.163  1.00  0.00    -0.000 C 
BRANCH  15  16
ATOM     16  C   UNL     1     -19.077 -14.065 -17.726  1.00  0.00    -0.000 C 
BRANCH  16  17
ATOM     17  C   UNL     1     -19.647 -15.488 -17.605  1.00  0.00    -0.000 C 
BRANCH  17  18
ATOM     18  C   UNL     1     -21.183 -15.508 -17.549  1.00  0.00    -0.000 C 
BRANCH  18  19
ATOM     19  C   UNL     1     -21.817 -15.872 -18.899  1.00  0.00    -0.003 C 
ATOM     20  C   UNL     1     -23.296 -16.210 -18.739  1.00  0.00     0.004 C 
ENDBRANCH  18  19
ENDBRANCH  17  18
ENDBRANCH  16  17
ENDBRANCH  15  16
ENDBRANCH  14  15
ENDBRANCH  13  14
ENDBRANCH  12  13
ENDBRANCH   1  12
TORSDOF 16
ENDMDL
MODEL 9
REMARK VINA RESULT:    -4.045      2.815      4.871
REMARK INTER + INTRA:         -10.088
REMARK INTER:                  -7.352
REMARK INTRA:                  -2.736
REMARK UNBOUND:                -2.259
REMARK SMILES CCCCCCCCCCCCCCCCCC(=O)[O-]
REMARK SMILES IDX 10 1 11 2 12 3 13 4 14 5 15 6 16 7 17 8 18 9 19 10 20 11
REMARK SMILES IDX 9 12 8 13 7 14 6 15 5 16 4 17 3 18 2 19 1 20
REMARK H PARENT
REMARK Flexibility Score: inf
ROOT
ATOM      1  C   UNL     1     -22.615 -12.987 -19.946  1.00  0.00     0.000 C 
ENDROOT
BRANCH   1   2
ATOM      2  C   UNL     1     -22.799 -14.395 -20.542  1.00  0.00     0.000 C 
BRANCH   2   3
ATOM      3  C   UNL     1     -21.605 -14.839 -21.401  1.00  0.00     0.000 C 
BRANCH   3   4
ATOM      4  C   UNL     1     -20.873 -16.060 -20.814  1.00  0.00     0.000 C 
BRANCH   4   5
ATOM      5  C   UNL     1     -19.507 -16.295 -21.478  1.00  0.00     0.000 C 
BRANCH   5   6
ATOM      6  C   UNL     1     -18.711 -14.991 -21.657  1.00  0.00     0.000 C 
BRANCH   6   7
ATOM      7  C   UNL     1     -17.194 -15.208 -21.540  1.00  0.00     0.006 C 
BRANCH   7   8
ATOM      8  C   UNL     1     -16.615 -14.623 -20.245  1.00  0.00     0.053 C 
BRANCH   8   9
ATOM      9  C   UNL     1     -16.408 -15.704 -19.230  1.00  0.00     0.041 C 
ATOM     10  O   UNL     1     -15.286 -16.265 -19.123  1.00  0.00    -0.550 OA
ATOM     11  O   UNL     1     -17.468 -16.123 -18.434  1.00  0.00    -0.550 OA
ENDBRANCH   8   9
ENDBRANCH   7   8
ENDBRANCH   6   7
ENDBRANCH   5   6
ENDBRANCH   4   5
ENDBRANCH   3   4
ENDBRANCH   2   3
ENDBRANCH   1   2
BRANCH   1  12
ATOM     12  C   UNL     1     -21.282 -12.339 -20.375  1.00  0.00     0.000 C 
BRANCH  12  13
ATOM     13  C   UNL     1     -20.351 -11.997 -19.198  1.00  0.00    -0.000 C 
BRANCH  13  14
ATOM     14  C   UNL     1     -19.482 -13.186 -18.754  1.00  0.00    -0.000 C 
BRANCH  14  15
ATOM     15  C   UNL     1     -19.878 -13.713 -17.359  1.00  0.00    -0.000 C 
BRANCH  15  16
ATOM     16  C   UNL     1     -20.746 -14.983 -17.406  1.00  0.00    -0.000 C 
BRANCH  16  17
ATOM     17  C   UNL     1     -22.118 -14.791 -16.738  1.00  0.00    -0.000 C 
BRANCH  17  18
ATOM     18  C   UNL     1     -22.237 -13.445 -16.006  1.00  0.00    -0.000 C 
BRANCH  18  19
ATOM     19  C   UNL     1     -23.487 -13.366 -15.117  1.00  0.00    -0.003 C 
ATOM     20  C   UNL     1     -23.673 -14.651 -14.315  1.00  0.00     0.004 C 
ENDBRANCH  18  19
ENDBRANCH  17  18
ENDBRANCH  16  17
ENDBRANCH  15  16
ENDBRANCH  14  15
ENDBRANCH  13  14
ENDBRANCH  12  13
ENDBRANCH   1  12
TORSDOF 16
ENDMDL
