MODEL 1
REMARK VINA RESULT:    45.417      0.000      0.000
REMARK INTER + INTRA:          74.477
REMARK INTER:                  74.622
REMARK INTRA:                  -0.145
REMARK UNBOUND:                -0.145
REMARK SMILES C[C@@H]1O[C@@H](OC[C@@H]2O[C@H](Oc3c(-c4ccc(O)c(O)c4)oc4cc(O)cc(O)c4c3=O)[C@@H](O)[C@H](O)[C@H]2O)[C@H](O)[C@H](O)[C@H]1O
REMARK SMILES IDX 7 1 36 2 34 3 32 4 9 5 8 6 6 7 5 8 4 9 1 10 2 11 42 12 3 13
REMARK SMILES IDX 40 14 38 15 43 16 41 18 39 20 37 22 35 24 10 26 11 27 12 28
REMARK SMILES IDX 30 29 21 30 29 31 31 32 22 33 27 34 23 35 26 36 24 37 13 38
REMARK SMILES IDX 20 39 14 40 18 41 15 42 16 43 19 44 17 46 28 48 25 50 33 52
REMARK H PARENT 43 17 41 19 39 21 37 23 35 25 19 45 17 47 28 49 25 51 33 53
REMARK Flexibility Score: inf
ROOT
ATOM      1  C   UNL     1     136.292 130.527 126.334  1.00  0.00     0.180 C 
ATOM      2  C   UNL     1     137.558 131.400 126.538  1.00  0.00     0.177 C 
ATOM      3  C   UNL     1     138.782 130.535 126.928  1.00  0.00     0.180 C 
ATOM      4  C   UNL     1     138.707 129.147 126.265  1.00  0.00     0.214 C 
ATOM      5  C   UNL     1     137.347 128.451 126.585  1.00  0.00     0.339 C 
ATOM      6  O   UNL     1     136.377 129.345 127.108  1.00  0.00    -0.332 OA
ENDROOT
BRANCH   1   7
ATOM      7  C   UNL     1     135.021 131.281 126.750  1.00  0.00     0.198 C 
BRANCH   7   8
ATOM      8  O   UNL     1     133.924 130.387 126.778  1.00  0.00    -0.347 OA
BRANCH   8   9
ATOM      9  C   UNL     1     132.823 130.846 126.009  1.00  0.00     0.281 C 
ATOM     10  C   UNL     1     131.956 133.743 124.897  1.00  0.00     0.041 C 
ATOM     11  C   UNL     1     131.337 132.683 125.817  1.00  0.00     0.150 C 
ATOM     12  C   UNL     1     130.416 131.698 125.038  1.00  0.00     0.174 C 
ATOM     13  O   UNL     1     132.355 132.050 126.592  1.00  0.00    -0.344 OA
ATOM     14  C   UNL     1     130.301 130.383 125.829  1.00  0.00     0.179 C 
ATOM     15  C   UNL     1     131.707 129.771 126.059  1.00  0.00     0.202 C 
BRANCH  12  16
ATOM     16  O   UNL     1     129.145 132.275 124.876  1.00  0.00    -0.388 OA
ATOM     17  H   UNL     1     129.123 132.692 123.972  1.00  0.00     0.211 HD
ENDBRANCH  12  16
BRANCH  14  18
ATOM     18  O   UNL     1     129.472 129.464 125.154  1.00  0.00    -0.387 OA
ATOM     19  H   UNL     1     128.591 129.479 125.612  1.00  0.00     0.211 HD
ENDBRANCH  14  18
BRANCH  15  20
ATOM     20  O   UNL     1     131.987 128.745 125.136  1.00  0.00    -0.385 OA
ATOM     21  H   UNL     1     131.497 128.954 124.296  1.00  0.00     0.211 HD
ENDBRANCH  15  20
ENDBRANCH   8   9
ENDBRANCH   7   8
ENDBRANCH   1   7
BRANCH   2  22
ATOM     22  O   UNL     1     137.824 132.105 125.349  1.00  0.00    -0.387 OA
ATOM     23  H   UNL     1     138.754 132.447 125.413  1.00  0.00     0.211 HD
ENDBRANCH   2  22
BRANCH   3  24
ATOM     24  O   UNL     1     138.815 130.394 128.324  1.00  0.00    -0.387 OA
ATOM     25  H   UNL     1     138.769 129.421 128.524  1.00  0.00     0.211 HD
ENDBRANCH   3  24
BRANCH   5  26
ATOM     26  O   UNL     1     137.545 127.370 127.508  1.00  0.00    -0.454 OA
BRANCH  26  27
ATOM     27  C   UNL     1     137.676 127.541 128.898  1.00  0.00     0.214 A 
ATOM     28  C   UNL     1     136.535 127.608 129.723  1.00  0.00     0.180 A 
ATOM     29  C   UNL     1     138.942 127.647 129.495  1.00  0.00     0.239 A 
ATOM     30  O   UNL     1     136.676 127.655 131.044  1.00  0.00    -0.452 OA
ATOM     31  C   UNL     1     139.051 127.692 130.899  1.00  0.00     0.111 A 
ATOM     32  O   UNL     1     139.967 127.725 128.765  1.00  0.00    -0.285 OA
ATOM     33  C   UNL     1     137.855 127.687 131.652  1.00  0.00     0.146 A 
ATOM     34  C   UNL     1     140.293 127.738 131.576  1.00  0.00     0.134 A 
ATOM     35  C   UNL     1     137.901 127.734 133.048  1.00  0.00     0.094 A 
ATOM     36  C   UNL     1     140.318 127.793 132.977  1.00  0.00     0.093 A 
ATOM     37  C   UNL     1     139.133 127.793 133.712  1.00  0.00     0.123 A 
BRANCH  28  38
ATOM     38  C   UNL     1     135.166 127.614 129.169  1.00  0.00     0.025 A 
ATOM     39  C   UNL     1     134.828 126.703 128.158  1.00  0.00     0.062 A 
ATOM     40  C   UNL     1     134.177 128.470 129.679  1.00  0.00     0.016 A 
ATOM     41  C   UNL     1     133.529 126.655 127.644  1.00  0.00     0.158 A 
ATOM     42  C   UNL     1     132.876 128.426 129.171  1.00  0.00     0.051 A 
ATOM     43  C   UNL     1     132.546 127.519 128.155  1.00  0.00     0.157 A 
BRANCH  41  44
ATOM     44  O   UNL     1     133.237 125.740 126.629  1.00  0.00    -0.504 OA
ATOM     45  H   UNL     1     133.146 124.748 126.809  1.00  0.00     0.293 HD
ENDBRANCH  41  44
BRANCH  43  46
ATOM     46  O   UNL     1     131.247 127.470 127.652  1.00  0.00    -0.504 OA
ATOM     47  H   UNL     1     130.536 128.124 127.960  1.00  0.00     0.293 HD
ENDBRANCH  43  46
ENDBRANCH  28  38
BRANCH  34  48
ATOM     48  O   UNL     1     141.496 127.724 130.869  1.00  0.00    -0.507 OA
ATOM     49  H   UNL     1     141.777 126.929 130.307  1.00  0.00     0.293 HD
ENDBRANCH  34  48
BRANCH  37  50
ATOM     50  O   UNL     1     139.189 127.859 135.105  1.00  0.00    -0.508 OA
ATOM     51  H   UNL     1     138.449 127.480 135.686  1.00  0.00     0.293 HD
ENDBRANCH  37  50
ENDBRANCH  26  27
ENDBRANCH   5  26
BRANCH   4  52
ATOM     52  O   UNL     1     138.857 129.293 124.875  1.00  0.00    -0.384 OA
ATOM     53  H   UNL     1     137.951 129.238 124.480  1.00  0.00     0.211 HD
ENDBRANCH   4  52
TORSDOF 16
ENDMDL
MODEL 2
REMARK VINA RESULT:    46.746      1.216      4.781
REMARK INTER + INTRA:          76.661
REMARK INTER:                  77.963
REMARK INTRA:                  -1.303
REMARK UNBOUND:                -0.145
REMARK SMILES C[C@@H]1O[C@@H](OC[C@@H]2O[C@H](Oc3c(-c4ccc(O)c(O)c4)oc4cc(O)cc(O)c4c3=O)[C@@H](O)[C@H](O)[C@H]2O)[C@H](O)[C@H](O)[C@H]1O
REMARK SMILES IDX 7 1 36 2 34 3 32 4 9 5 8 6 6 7 5 8 4 9 1 10 2 11 42 12 3 13
REMARK SMILES IDX 40 14 38 15 43 16 41 18 39 20 37 22 35 24 10 26 11 27 12 28
REMARK SMILES IDX 30 29 21 30 29 31 31 32 22 33 27 34 23 35 26 36 24 37 13 38
REMARK SMILES IDX 20 39 14 40 18 41 15 42 16 43 19 44 17 46 28 48 25 50 33 52
REMARK H PARENT 43 17 41 19 39 21 37 23 35 25 19 45 17 47 28 49 25 51 33 53
REMARK Flexibility Score: inf
ROOT
ATOM      1  C   UNL     1     136.542 130.621 125.727  1.00  0.00     0.180 C 
ATOM      2  C   UNL     1     137.796 131.459 126.092  1.00  0.00     0.177 C 
ATOM      3  C   UNL     1     138.879 130.585 126.773  1.00  0.00     0.180 C 
ATOM      4  C   UNL     1     138.849 129.148 126.224  1.00  0.00     0.214 C 
ATOM      5  C   UNL     1     137.417 128.537 126.340  1.00  0.00     0.339 C 
ATOM      6  O   UNL     1     136.419 129.512 126.598  1.00  0.00    -0.332 OA
ENDROOT
BRANCH   1   7
ATOM      7  C   UNL     1     135.261 131.459 125.835  1.00  0.00     0.198 C 
BRANCH   7   8
ATOM      8  O   UNL     1     134.202 130.651 126.314  1.00  0.00    -0.347 OA
BRANCH   8   9
ATOM      9  C   UNL     1     132.952 130.977 125.724  1.00  0.00     0.281 C 
ATOM     10  C   UNL     1     131.567 133.759 124.877  1.00  0.00     0.041 C 
ATOM     11  C   UNL     1     131.227 132.600 125.821  1.00  0.00     0.150 C 
ATOM     12  C   UNL     1     130.343 131.521 125.130  1.00  0.00     0.174 C 
ATOM     13  O   UNL     1     132.418 132.090 126.421  1.00  0.00    -0.344 OA
ATOM     14  C   UNL     1     130.513 130.181 125.867  1.00  0.00     0.179 C 
ATOM     15  C   UNL     1     132.005 129.759 125.875  1.00  0.00     0.202 C 
BRANCH  12  16
ATOM     16  O   UNL     1     128.997 131.924 125.169  1.00  0.00    -0.388 OA
ATOM     17  H   UNL     1     128.939 132.702 125.788  1.00  0.00     0.211 HD
ENDBRANCH  12  16
BRANCH  14  18
ATOM     18  O   UNL     1     129.725 129.178 125.269  1.00  0.00    -0.387 OA
ATOM     19  H   UNL     1     129.449 129.520 124.378  1.00  0.00     0.211 HD
ENDBRANCH  14  18
BRANCH  15  20
ATOM     20  O   UNL     1     132.284 128.807 124.877  1.00  0.00    -0.385 OA
ATOM     21  H   UNL     1     133.059 128.265 125.186  1.00  0.00     0.211 HD
ENDBRANCH  15  20
ENDBRANCH   8   9
ENDBRANCH   7   8
ENDBRANCH   1   7
BRANCH   2  22
ATOM     22  O   UNL     1     138.313 132.043 124.920  1.00  0.00    -0.387 OA
ATOM     23  H   UNL     1     138.581 132.970 125.149  1.00  0.00     0.211 HD
ENDBRANCH   2  22
BRANCH   3  24
ATOM     24  O   UNL     1     138.648 130.571 128.158  1.00  0.00    -0.387 OA
ATOM     25  H   UNL     1     139.450 130.964 128.595  1.00  0.00     0.211 HD
ENDBRANCH   3  24
BRANCH   5  26
ATOM     26  O   UNL     1     137.383 127.537 127.369  1.00  0.00    -0.454 OA
BRANCH  26  27
ATOM     27  C   UNL     1     136.397 127.477 128.370  1.00  0.00     0.214 A 
ATOM     28  C   UNL     1     136.731 127.712 129.719  1.00  0.00     0.180 A 
ATOM     29  C   UNL     1     135.063 127.184 128.050  1.00  0.00     0.239 A 
ATOM     30  O   UNL     1     135.771 127.764 130.638  1.00  0.00    -0.452 OA
ATOM     31  C   UNL     1     134.073 127.253 129.051  1.00  0.00     0.111 A 
ATOM     32  O   UNL     1     134.767 126.839 126.874  1.00  0.00    -0.285 OA
ATOM     33  C   UNL     1     134.488 127.562 130.366  1.00  0.00     0.146 A 
ATOM     34  C   UNL     1     132.699 127.031 128.795  1.00  0.00     0.134 A 
ATOM     35  C   UNL     1     133.551 127.640 131.400  1.00  0.00     0.094 A 
ATOM     36  C   UNL     1     131.776 127.106 129.848  1.00  0.00     0.093 A 
ATOM     37  C   UNL     1     132.195 127.406 131.143  1.00  0.00     0.123 A 
BRANCH  28  38
ATOM     38  C   UNL     1     138.125 127.919 130.158  1.00  0.00     0.025 A 
ATOM     39  C   UNL     1     138.375 128.480 131.418  1.00  0.00     0.062 A 
ATOM     40  C   UNL     1     139.208 127.506 129.364  1.00  0.00     0.016 A 
ATOM     41  C   UNL     1     139.684 128.647 131.880  1.00  0.00     0.158 A 
ATOM     42  C   UNL     1     140.519 127.669 129.820  1.00  0.00     0.051 A 
ATOM     43  C   UNL     1     140.762 128.237 131.078  1.00  0.00     0.157 A 
BRANCH  41  44
ATOM     44  O   UNL     1     139.890 129.220 133.138  1.00  0.00    -0.504 OA
ATOM     45  H   UNL     1     140.090 130.206 133.253  1.00  0.00     0.293 HD
ENDBRANCH  41  44
BRANCH  43  46
ATOM     46  O   UNL     1     142.069 128.394 131.536  1.00  0.00    -0.504 OA
ATOM     47  H   UNL     1     142.773 128.860 130.975  1.00  0.00     0.293 HD
ENDBRANCH  43  46
ENDBRANCH  28  38
BRANCH  34  48
ATOM     48  O   UNL     1     132.247 126.744 127.506  1.00  0.00    -0.507 OA
ATOM     49  H   UNL     1     132.487 127.327 126.712  1.00  0.00     0.293 HD
ENDBRANCH  34  48
BRANCH  37  50
ATOM     50  O   UNL     1     131.254 127.464 132.173  1.00  0.00    -0.508 OA
ATOM     51  H   UNL     1     130.926 126.627 132.642  1.00  0.00     0.293 HD
ENDBRANCH  37  50
ENDBRANCH  26  27
ENDBRANCH   5  26
BRANCH   4  52
ATOM     52  O   UNL     1     139.259 129.161 124.879  1.00  0.00    -0.384 OA
ATOM     53  H   UNL     1     140.225 128.942 124.870  1.00  0.00     0.211 HD
ENDBRANCH   4  52
TORSDOF 16
ENDMDL
MODEL 3
REMARK VINA RESULT:    47.369      2.024      5.489
REMARK INTER + INTRA:          77.684
REMARK INTER:                  73.654
REMARK INTRA:                   4.031
REMARK UNBOUND:                -0.145
REMARK SMILES C[C@@H]1O[C@@H](OC[C@@H]2O[C@H](Oc3c(-c4ccc(O)c(O)c4)oc4cc(O)cc(O)c4c3=O)[C@@H](O)[C@H](O)[C@H]2O)[C@H](O)[C@H](O)[C@H]1O
REMARK SMILES IDX 7 1 36 2 34 3 32 4 9 5 8 6 6 7 5 8 4 9 1 10 2 11 42 12 3 13
REMARK SMILES IDX 40 14 38 15 43 16 41 18 39 20 37 22 35 24 10 26 11 27 12 28
REMARK SMILES IDX 30 29 21 30 29 31 31 32 22 33 27 34 23 35 26 36 24 37 13 38
REMARK SMILES IDX 20 39 14 40 18 41 15 42 16 43 19 44 17 46 28 48 25 50 33 52
REMARK H PARENT 43 17 41 19 39 21 37 23 35 25 19 45 17 47 28 49 25 51 33 53
REMARK Flexibility Score: inf
ROOT
ATOM      1  C   UNL     1     134.541 127.981 129.763  1.00  0.00     0.180 C 
ATOM      2  C   UNL     1     135.242 127.332 128.540  1.00  0.00     0.177 C 
ATOM      3  C   UNL     1     136.640 126.783 128.919  1.00  0.00     0.180 C 
ATOM      4  C   UNL     1     136.657 126.282 130.374  1.00  0.00     0.214 C 
ATOM      5  C   UNL     1     136.159 127.394 131.351  1.00  0.00     0.339 C 
ATOM      6  O   UNL     1     135.501 128.460 130.685  1.00  0.00    -0.332 OA
ENDROOT
BRANCH   1   7
ATOM      7  C   UNL     1     133.656 129.161 129.337  1.00  0.00     0.198 C 
BRANCH   7   8
ATOM      8  O   UNL     1     134.178 129.746 128.158  1.00  0.00    -0.347 OA
BRANCH   8   9
ATOM      9  C   UNL     1     133.202 129.886 127.137  1.00  0.00     0.281 C 
ATOM     10  C   UNL     1     132.670 132.119 124.876  1.00  0.00     0.041 C 
ATOM     11  C   UNL     1     131.881 131.527 126.051  1.00  0.00     0.150 C 
ATOM     12  C   UNL     1     130.982 130.335 125.610  1.00  0.00     0.174 C 
ATOM     13  O   UNL     1     132.761 131.233 127.136  1.00  0.00    -0.344 OA
ATOM     14  C   UNL     1     130.688 129.447 126.831  1.00  0.00     0.179 C 
ATOM     15  C   UNL     1     132.013 128.945 127.462  1.00  0.00     0.202 C 
BRANCH  12  16
ATOM     16  O   UNL     1     129.781 130.828 125.073  1.00  0.00    -0.388 OA
ATOM     17  H   UNL     1     130.004 131.280 124.214  1.00  0.00     0.211 HD
ENDBRANCH  12  16
BRANCH  14  18
ATOM     18  O   UNL     1     129.874 128.354 126.471  1.00  0.00    -0.387 OA
ATOM     19  H   UNL     1     128.969 128.533 126.840  1.00  0.00     0.211 HD
ENDBRANCH  14  18
BRANCH  15  20
ATOM     20  O   UNL     1     132.317 127.630 127.059  1.00  0.00    -0.385 OA
ATOM     21  H   UNL     1     133.308 127.554 127.007  1.00  0.00     0.211 HD
ENDBRANCH  15  20
ENDBRANCH   8   9
ENDBRANCH   7   8
ENDBRANCH   1   7
BRANCH   2  22
ATOM     22  O   UNL     1     134.432 126.292 128.047  1.00  0.00    -0.387 OA
ATOM     23  H   UNL     1     133.490 126.539 128.237  1.00  0.00     0.211 HD
ENDBRANCH   2  22
BRANCH   3  24
ATOM     24  O   UNL     1     137.590 127.804 128.755  1.00  0.00    -0.387 OA
ATOM     25  H   UNL     1     137.562 128.367 129.573  1.00  0.00     0.211 HD
ENDBRANCH   3  24
BRANCH   5  26
ATOM     26  O   UNL     1     137.256 127.914 132.116  1.00  0.00    -0.454 OA
BRANCH  26  27
ATOM     27  C   UNL     1     138.572 128.013 131.631  1.00  0.00     0.214 A 
ATOM     28  C   UNL     1     139.651 127.498 132.378  1.00  0.00     0.180 A 
ATOM     29  C   UNL     1     138.841 128.622 130.396  1.00  0.00     0.239 A 
ATOM     30  O   UNL     1     140.874 127.496 131.857  1.00  0.00    -0.452 OA
ATOM     31  C   UNL     1     140.150 128.596 129.875  1.00  0.00     0.111 A 
ATOM     32  O   UNL     1     137.911 129.206 129.776  1.00  0.00    -0.285 OA
ATOM     33  C   UNL     1     141.160 128.000 130.662  1.00  0.00     0.146 A 
ATOM     34  C   UNL     1     140.488 129.135 128.610  1.00  0.00     0.134 A 
ATOM     35  C   UNL     1     142.478 127.949 130.198  1.00  0.00     0.094 A 
ATOM     36  C   UNL     1     141.818 129.081 128.166  1.00  0.00     0.093 A 
ATOM     37  C   UNL     1     142.809 128.496 128.953  1.00  0.00     0.123 A 
BRANCH  28  38
ATOM     38  C   UNL     1     139.472 126.940 133.733  1.00  0.00     0.025 A 
ATOM     39  C   UNL     1     138.996 125.630 133.881  1.00  0.00     0.062 A 
ATOM     40  C   UNL     1     139.829 127.673 134.876  1.00  0.00     0.016 A 
ATOM     41  C   UNL     1     138.857 125.058 135.149  1.00  0.00     0.158 A 
ATOM     42  C   UNL     1     139.695 127.107 136.147  1.00  0.00     0.051 A 
ATOM     43  C   UNL     1     139.212 125.800 136.289  1.00  0.00     0.157 A 
BRANCH  41  44
ATOM     44  O   UNL     1     138.369 123.753 135.254  1.00  0.00    -0.504 OA
ATOM     45  H   UNL     1     137.573 123.433 134.717  1.00  0.00     0.293 HD
ENDBRANCH  41  44
BRANCH  43  46
ATOM     46  O   UNL     1     139.083 125.233 137.555  1.00  0.00    -0.504 OA
ATOM     47  H   UNL     1     139.778 125.388 138.277  1.00  0.00     0.293 HD
ENDBRANCH  43  46
ENDBRANCH  28  38
BRANCH  34  48
ATOM     48  O   UNL     1     139.516 129.715 127.794  1.00  0.00    -0.507 OA
ATOM     49  H   UNL     1     138.526 129.587 127.969  1.00  0.00     0.293 HD
ENDBRANCH  34  48
BRANCH  37  50
ATOM     50  O   UNL     1     144.125 128.466 128.489  1.00  0.00    -0.508 OA
ATOM     51  H   UNL     1     144.799 127.796 128.842  1.00  0.00     0.293 HD
ENDBRANCH  37  50
ENDBRANCH  26  27
ENDBRANCH   5  26
BRANCH   4  52
ATOM     52  O   UNL     1     135.837 125.146 130.479  1.00  0.00    -0.384 OA
ATOM     53  H   UNL     1     135.905 124.661 129.617  1.00  0.00     0.211 HD
ENDBRANCH   4  52
TORSDOF 16
ENDMDL
MODEL 4
REMARK VINA RESULT:    48.311      1.687      2.663
REMARK INTER + INTRA:          79.232
REMARK INTER:                  80.167
REMARK INTRA:                  -0.935
REMARK UNBOUND:                -0.145
REMARK SMILES C[C@@H]1O[C@@H](OC[C@@H]2O[C@H](Oc3c(-c4ccc(O)c(O)c4)oc4cc(O)cc(O)c4c3=O)[C@@H](O)[C@H](O)[C@H]2O)[C@H](O)[C@H](O)[C@H]1O
REMARK SMILES IDX 7 1 36 2 34 3 32 4 9 5 8 6 6 7 5 8 4 9 1 10 2 11 42 12 3 13
REMARK SMILES IDX 40 14 38 15 43 16 41 18 39 20 37 22 35 24 10 26 11 27 12 28
REMARK SMILES IDX 30 29 21 30 29 31 31 32 22 33 27 34 23 35 26 36 24 37 13 38
REMARK SMILES IDX 20 39 14 40 18 41 15 42 16 43 19 44 17 46 28 48 25 50 33 52
REMARK H PARENT 43 17 41 19 39 21 37 23 35 25 19 45 17 47 28 49 25 51 33 53
REMARK Flexibility Score: inf
ROOT
ATOM      1  C   UNL     1     135.793 129.606 127.075  1.00  0.00     0.180 C 
ATOM      2  C   UNL     1     136.910 130.422 126.371  1.00  0.00     0.177 C 
ATOM      3  C   UNL     1     138.274 129.693 126.449  1.00  0.00     0.180 C 
ATOM      4  C   UNL     1     138.083 128.166 126.424  1.00  0.00     0.214 C 
ATOM      5  C   UNL     1     137.089 127.712 127.539  1.00  0.00     0.339 C 
ATOM      6  O   UNL     1     136.345 128.788 128.088  1.00  0.00    -0.332 OA
ENDROOT
BRANCH   1   7
ATOM      7  C   UNL     1     134.750 130.530 127.719  1.00  0.00     0.198 C 
BRANCH   7   8
ATOM      8  O   UNL     1     133.957 131.129 126.711  1.00  0.00    -0.347 OA
BRANCH   8   9
ATOM      9  C   UNL     1     132.638 130.608 126.669  1.00  0.00     0.281 C 
ATOM     10  C   UNL     1     131.347 127.784 127.526  1.00  0.00     0.041 C 
ATOM     11  C   UNL     1     131.453 128.602 126.233  1.00  0.00     0.150 C 
ATOM     12  C   UNL     1     130.217 129.523 126.019  1.00  0.00     0.174 C 
ATOM     13  O   UNL     1     132.709 129.279 126.182  1.00  0.00    -0.344 OA
ATOM     14  C   UNL     1     130.609 130.686 125.092  1.00  0.00     0.179 C 
ATOM     15  C   UNL     1     131.798 131.478 125.698  1.00  0.00     0.202 C 
BRANCH  12  16
ATOM     16  O   UNL     1     129.173 128.779 125.443  1.00  0.00    -0.388 OA
ATOM     17  H   UNL     1     128.608 129.415 124.924  1.00  0.00     0.211 HD
ENDBRANCH  12  16
BRANCH  14  18
ATOM     18  O   UNL     1     129.512 131.544 124.875  1.00  0.00    -0.387 OA
ATOM     19  H   UNL     1     129.497 132.191 125.629  1.00  0.00     0.211 HD
ENDBRANCH  14  18
BRANCH  15  20
ATOM     20  O   UNL     1     131.367 132.648 126.352  1.00  0.00    -0.385 OA
ATOM     21  H   UNL     1     130.372 132.652 126.336  1.00  0.00     0.211 HD
ENDBRANCH  15  20
ENDBRANCH   8   9
ENDBRANCH   7   8
ENDBRANCH   1   7
BRANCH   2  22
ATOM     22  O   UNL     1     136.548 130.628 125.026  1.00  0.00    -0.387 OA
ATOM     23  H   UNL     1     135.911 131.388 125.007  1.00  0.00     0.211 HD
ENDBRANCH   2  22
BRANCH   3  24
ATOM     24  O   UNL     1     138.926 130.072 127.633  1.00  0.00    -0.387 OA
ATOM     25  H   UNL     1     139.250 131.003 127.507  1.00  0.00     0.211 HD
ENDBRANCH   3  24
BRANCH   5  26
ATOM     26  O   UNL     1     137.794 127.035 128.590  1.00  0.00    -0.454 OA
BRANCH  26  27
ATOM     27  C   UNL     1     138.436 127.694 129.653  1.00  0.00     0.214 A 
ATOM     28  C   UNL     1     137.704 128.112 130.783  1.00  0.00     0.180 A 
ATOM     29  C   UNL     1     139.816 127.947 129.616  1.00  0.00     0.239 A 
ATOM     30  O   UNL     1     138.341 128.631 131.828  1.00  0.00    -0.452 OA
ATOM     31  C   UNL     1     140.456 128.495 130.746  1.00  0.00     0.111 A 
ATOM     32  O   UNL     1     140.464 127.703 128.562  1.00  0.00    -0.285 OA
ATOM     33  C   UNL     1     139.654 128.824 131.862  1.00  0.00     0.146 A 
ATOM     34  C   UNL     1     141.852 128.723 130.807  1.00  0.00     0.134 A 
ATOM     35  C   UNL     1     140.234 129.373 133.009  1.00  0.00     0.094 A 
ATOM     36  C   UNL     1     142.413 129.283 131.964  1.00  0.00     0.093 A 
ATOM     37  C   UNL     1     141.612 129.610 133.058  1.00  0.00     0.123 A 
BRANCH  28  38
ATOM     38  C   UNL     1     136.235 127.984 130.857  1.00  0.00     0.025 A 
ATOM     39  C   UNL     1     135.445 129.140 130.925  1.00  0.00     0.062 A 
ATOM     40  C   UNL     1     135.609 126.728 130.795  1.00  0.00     0.016 A 
ATOM     41  C   UNL     1     134.050 129.053 130.951  1.00  0.00     0.158 A 
ATOM     42  C   UNL     1     134.215 126.634 130.820  1.00  0.00     0.051 A 
ATOM     43  C   UNL     1     133.431 127.792 130.895  1.00  0.00     0.157 A 
BRANCH  41  44
ATOM     44  O   UNL     1     133.300 130.229 131.031  1.00  0.00    -0.504 OA
ATOM     45  H   UNL     1     133.637 131.107 130.657  1.00  0.00     0.293 HD
ENDBRANCH  41  44
BRANCH  43  46
ATOM     46  O   UNL     1     132.041 127.699 130.914  1.00  0.00    -0.504 OA
ATOM     47  H   UNL     1     131.455 128.485 130.657  1.00  0.00     0.293 HD
ENDBRANCH  43  46
ENDBRANCH  28  38
BRANCH  34  48
ATOM     48  O   UNL     1     142.681 128.393 129.734  1.00  0.00    -0.507 OA
ATOM     49  H   UNL     1     142.964 129.082 129.046  1.00  0.00     0.293 HD
ENDBRANCH  34  48
BRANCH  37  50
ATOM     50  O   UNL     1     142.198 130.175 134.192  1.00  0.00    -0.508 OA
ATOM     51  H   UNL     1     142.939 129.704 134.700  1.00  0.00     0.293 HD
ENDBRANCH  37  50
ENDBRANCH  26  27
ENDBRANCH   5  26
BRANCH   4  52
ATOM     52  O   UNL     1     137.597 127.785 125.161  1.00  0.00    -0.384 OA
ATOM     53  H   UNL     1     136.795 128.339 124.981  1.00  0.00     0.211 HD
ENDBRANCH   4  52
TORSDOF 16
ENDMDL
