MODEL 1
REMARK VINA RESULT:    -3.414      0.000      0.000
REMARK INTER + INTRA:          -4.238
REMARK INTER:                  -4.012
REMARK INTRA:                  -0.226
REMARK UNBOUND:                -0.226
REMARK SMILES [NH3+][C@@H](CO)C(=O)[O-]
REMARK SMILES IDX 3 1 2 2 1 3 5 7 6 8 7 9 4 10
REMARK H PARENT 1 4 1 5 1 6 4 11
REMARK Flexibility Score: inf
ROOT
ATOM      1  C   UNL     1     -31.516  53.828 -50.085  1.00  0.00     0.227 C 
ENDROOT
BRANCH   1   2
ATOM      2  C   UNL     1     -32.193  52.706 -50.892  1.00  0.00     0.253 C 
BRANCH   2   3
ATOM      3  N   UNL     1     -32.183  51.440 -50.150  1.00  0.00    -0.348 N 
ATOM      4  H   UNL     1     -31.214  51.232 -49.814  1.00  0.00     0.345 HD
ATOM      5  H   UNL     1     -32.807  51.513 -49.314  1.00  0.00     0.345 HD
ATOM      6  H   UNL     1     -32.511  50.652 -50.755  1.00  0.00     0.345 HD
ENDBRANCH   2   3
BRANCH   2   7
ATOM      7  C   UNL     1     -31.500  52.539 -52.218  1.00  0.00     0.102 C 
ATOM      8  O   UNL     1     -31.599  51.455 -52.851  1.00  0.00    -0.544 OA
ATOM      9  O   UNL     1     -30.759  53.583 -52.759  1.00  0.00    -0.544 OA
ENDBRANCH   2   7
ENDBRANCH   1   2
BRANCH   1  10
ATOM     10  O   UNL     1     -31.912  55.088 -50.555  1.00  0.00    -0.390 OA
ATOM     11  H   UNL     1     -32.830  54.981 -50.918  1.00  0.00     0.210 HD
ENDBRANCH   1  10
TORSDOF 4
ENDMDL
MODEL 2
REMARK VINA RESULT:    -3.407      1.913      2.471
REMARK INTER + INTRA:          -4.231
REMARK INTER:                  -4.216
REMARK INTRA:                  -0.015
REMARK UNBOUND:                -0.226
REMARK SMILES [NH3+][C@@H](CO)C(=O)[O-]
REMARK SMILES IDX 3 1 2 2 1 3 5 7 6 8 7 9 4 10
REMARK H PARENT 1 4 1 5 1 6 4 11
REMARK Flexibility Score: inf
ROOT
ATOM      1  C   UNL     1     -32.006  52.874 -51.263  1.00  0.00     0.227 C 
ENDROOT
BRANCH   1   2
ATOM      2  C   UNL     1     -32.780  51.572 -50.991  1.00  0.00     0.253 C 
BRANCH   2   3
ATOM      3  N   UNL     1     -31.865  50.472 -50.658  1.00  0.00    -0.348 N 
ATOM      4  H   UNL     1     -32.249  49.568 -51.018  1.00  0.00     0.345 HD
ATOM      5  H   UNL     1     -30.937  50.634 -51.112  1.00  0.00     0.345 HD
ATOM      6  H   UNL     1     -31.734  50.400 -49.622  1.00  0.00     0.345 HD
ENDBRANCH   2   3
BRANCH   2   7
ATOM      7  C   UNL     1     -33.614  51.210 -52.191  1.00  0.00     0.102 C 
ATOM      8  O   UNL     1     -33.230  51.530 -53.347  1.00  0.00    -0.544 OA
ATOM      9  O   UNL     1     -34.804  50.509 -52.033  1.00  0.00    -0.544 OA
ENDBRANCH   2   7
ENDBRANCH   1   2
BRANCH   1  10
ATOM     10  O   UNL     1     -32.305  53.842 -50.295  1.00  0.00    -0.390 OA
ATOM     11  H   UNL     1     -31.907  53.523 -49.442  1.00  0.00     0.210 HD
ENDBRANCH   1  10
TORSDOF 4
ENDMDL
MODEL 3
REMARK VINA RESULT:    -3.397     15.264     16.135
REMARK INTER + INTRA:          -4.219
REMARK INTER:                  -4.210
REMARK INTRA:                  -0.009
REMARK UNBOUND:                -0.226
REMARK SMILES [NH3+][C@@H](CO)C(=O)[O-]
REMARK SMILES IDX 3 1 2 2 1 3 5 7 6 8 7 9 4 10
REMARK H PARENT 1 4 1 5 1 6 4 11
REMARK Flexibility Score: inf
ROOT
ATOM      1  C   UNL     1     -40.893  41.546 -50.272  1.00  0.00     0.227 C 
ENDROOT
BRANCH   1   2
ATOM      2  C   UNL     1     -41.409  40.342 -49.464  1.00  0.00     0.253 C 
BRANCH   2   3
ATOM      3  N   UNL     1     -40.634  40.161 -48.230  1.00  0.00    -0.348 N 
ATOM      4  H   UNL     1     -40.200  39.210 -48.218  1.00  0.00     0.345 HD
ATOM      5  H   UNL     1     -39.865  40.869 -48.188  1.00  0.00     0.345 HD
ATOM      6  H   UNL     1     -41.246  40.268 -47.388  1.00  0.00     0.345 HD
ENDBRANCH   2   3
BRANCH   2   7
ATOM      7  C   UNL     1     -41.346  39.095 -50.306  1.00  0.00     0.102 C 
ATOM      8  O   UNL     1     -40.555  39.031 -51.283  1.00  0.00    -0.544 OA
ATOM      9  O   UNL     1     -42.150  38.003 -50.002  1.00  0.00    -0.544 OA
ENDBRANCH   2   7
ENDBRANCH   1   2
BRANCH   1  10
ATOM     10  O   UNL     1     -41.396  42.747 -49.752  1.00  0.00    -0.390 OA
ATOM     11  H   UNL     1     -41.550  43.350 -50.526  1.00  0.00     0.210 HD
ENDBRANCH   1  10
TORSDOF 4
ENDMDL
MODEL 4
REMARK VINA RESULT:    -3.318     15.233     15.678
REMARK INTER + INTRA:          -4.126
REMARK INTER:                  -3.903
REMARK INTRA:                  -0.223
REMARK UNBOUND:                -0.226
REMARK SMILES [NH3+][C@@H](CO)C(=O)[O-]
REMARK SMILES IDX 3 1 2 2 1 3 5 7 6 8 7 9 4 10
REMARK H PARENT 1 4 1 5 1 6 4 11
REMARK Flexibility Score: inf
ROOT
ATOM      1  C   UNL     1     -41.062  40.577 -49.065  1.00  0.00     0.227 C 
ENDROOT
BRANCH   1   2
ATOM      2  C   UNL     1     -40.907  41.450 -50.322  1.00  0.00     0.253 C 
BRANCH   2   3
ATOM      3  N   UNL     1     -41.409  42.810 -50.087  1.00  0.00    -0.348 N 
ATOM      4  H   UNL     1     -42.401  42.771 -49.759  1.00  0.00     0.345 HD
ATOM      5  H   UNL     1     -40.839  43.275 -49.344  1.00  0.00     0.345 HD
ATOM      6  H   UNL     1     -41.361  43.380 -50.964  1.00  0.00     0.345 HD
ENDBRANCH   2   3
BRANCH   2   7
ATOM      7  C   UNL     1     -41.636  40.818 -51.478  1.00  0.00     0.102 C 
ATOM      8  O   UNL     1     -42.515  41.468 -52.102  1.00  0.00    -0.544 OA
ATOM      9  O   UNL     1     -41.333  39.520 -51.873  1.00  0.00    -0.544 OA
ENDBRANCH   2   7
ENDBRANCH   1   2
BRANCH   1  10
ATOM     10  O   UNL     1     -40.346  39.379 -49.200  1.00  0.00    -0.390 OA
ATOM     11  H   UNL     1     -39.863  39.238 -48.344  1.00  0.00     0.210 HD
ENDBRANCH   1  10
TORSDOF 4
ENDMDL
MODEL 5
REMARK VINA RESULT:    -3.300      2.161      2.503
REMARK INTER + INTRA:          -4.105
REMARK INTER:                  -3.747
REMARK INTRA:                  -0.358
REMARK UNBOUND:                -0.226
REMARK SMILES [NH3+][C@@H](CO)C(=O)[O-]
REMARK SMILES IDX 3 1 2 2 1 3 5 7 6 8 7 9 4 10
REMARK H PARENT 1 4 1 5 1 6 4 11
REMARK Flexibility Score: inf
ROOT
ATOM      1  C   UNL     1     -31.497  53.720 -51.413  1.00  0.00     0.227 C 
ENDROOT
BRANCH   1   2
ATOM      2  C   UNL     1     -31.616  52.223 -51.748  1.00  0.00     0.253 C 
BRANCH   2   3
ATOM      3  N   UNL     1     -31.771  52.015 -53.193  1.00  0.00    -0.348 N 
ATOM      4  H   UNL     1     -31.235  52.744 -53.718  1.00  0.00     0.345 HD
ATOM      5  H   UNL     1     -31.391  51.078 -53.460  1.00  0.00     0.345 HD
ATOM      6  H   UNL     1     -32.779  52.068 -53.470  1.00  0.00     0.345 HD
ENDBRANCH   2   3
BRANCH   2   7
ATOM      7  C   UNL     1     -32.781  51.623 -51.007  1.00  0.00     0.102 C 
ATOM      8  O   UNL     1     -33.913  51.559 -51.555  1.00  0.00    -0.544 OA
ATOM      9  O   UNL     1     -32.612  51.124 -49.721  1.00  0.00    -0.544 OA
ENDBRANCH   2   7
ENDBRANCH   1   2
BRANCH   1  10
ATOM     10  O   UNL     1     -32.235  54.034 -50.263  1.00  0.00    -0.390 OA
ATOM     11  H   UNL     1     -32.766  54.845 -50.478  1.00  0.00     0.210 HD
ENDBRANCH   1  10
TORSDOF 4
ENDMDL
MODEL 6
REMARK VINA RESULT:    -3.291      1.899      2.550
REMARK INTER + INTRA:          -4.095
REMARK INTER:                  -3.881
REMARK INTRA:                  -0.214
REMARK UNBOUND:                -0.226
REMARK SMILES [NH3+][C@@H](CO)C(=O)[O-]
REMARK SMILES IDX 3 1 2 2 1 3 5 7 6 8 7 9 4 10
REMARK H PARENT 1 4 1 5 1 6 4 11
REMARK Flexibility Score: inf
ROOT
ATOM      1  C   UNL     1     -32.507  52.497 -50.699  1.00  0.00     0.227 C 
ENDROOT
BRANCH   1   2
ATOM      2  C   UNL     1     -31.416  53.566 -50.884  1.00  0.00     0.253 C 
BRANCH   2   3
ATOM      3  N   UNL     1     -31.928  54.905 -50.568  1.00  0.00    -0.348 N 
ATOM      4  H   UNL     1     -32.085  55.444 -51.450  1.00  0.00     0.345 HD
ATOM      5  H   UNL     1     -32.843  54.826 -50.068  1.00  0.00     0.345 HD
ATOM      6  H   UNL     1     -31.252  55.428 -49.964  1.00  0.00     0.345 HD
ENDBRANCH   2   3
BRANCH   2   7
ATOM      7  C   UNL     1     -30.896  53.528 -52.297  1.00  0.00     0.102 C 
ATOM      8  O   UNL     1     -30.109  54.423 -52.705  1.00  0.00    -0.544 OA
ATOM      9  O   UNL     1     -31.269  52.500 -53.154  1.00  0.00    -0.544 OA
ENDBRANCH   2   7
ENDBRANCH   1   2
BRANCH   1  10
ATOM     10  O   UNL     1     -31.936  51.242 -50.445  1.00  0.00    -0.390 OA
ATOM     11  H   UNL     1     -31.922  51.130 -49.458  1.00  0.00     0.210 HD
ENDBRANCH   1  10
TORSDOF 4
ENDMDL
MODEL 7
REMARK VINA RESULT:    -3.281      2.228      2.837
REMARK INTER + INTRA:          -4.082
REMARK INTER:                  -3.712
REMARK INTRA:                  -0.371
REMARK UNBOUND:                -0.226
REMARK SMILES [NH3+][C@@H](CO)C(=O)[O-]
REMARK SMILES IDX 3 1 2 2 1 3 5 7 6 8 7 9 4 10
REMARK H PARENT 1 4 1 5 1 6 4 11
REMARK Flexibility Score: inf
ROOT
ATOM      1  C   UNL     1     -32.788  51.181 -50.513  1.00  0.00     0.227 C 
ENDROOT
BRANCH   1   2
ATOM      2  C   UNL     1     -33.175  51.861 -51.839  1.00  0.00     0.253 C 
BRANCH   2   3
ATOM      3  N   UNL     1     -34.317  51.184 -52.467  1.00  0.00    -0.348 N 
ATOM      4  H   UNL     1     -35.025  51.890 -52.773  1.00  0.00     0.345 HD
ATOM      5  H   UNL     1     -33.996  50.658 -53.312  1.00  0.00     0.345 HD
ATOM      6  H   UNL     1     -34.767  50.517 -51.798  1.00  0.00     0.345 HD
ENDBRANCH   2   3
BRANCH   2   7
ATOM      7  C   UNL     1     -31.996  51.870 -52.774  1.00  0.00     0.102 C 
ATOM      8  O   UNL     1     -31.149  52.800 -52.715  1.00  0.00    -0.544 OA
ATOM      9  O   UNL     1     -31.826  50.845 -53.697  1.00  0.00    -0.544 OA
ENDBRANCH   2   7
ENDBRANCH   1   2
BRANCH   1  10
ATOM     10  O   UNL     1     -31.663  50.362 -50.684  1.00  0.00    -0.390 OA
ATOM     11  H   UNL     1     -31.686  50.040 -51.623  1.00  0.00     0.210 HD
ENDBRANCH   1  10
TORSDOF 4
ENDMDL
MODEL 8
REMARK VINA RESULT:    -3.248      2.856      3.644
REMARK INTER + INTRA:          -4.044
REMARK INTER:                  -3.643
REMARK INTRA:                  -0.400
REMARK UNBOUND:                -0.226
REMARK SMILES [NH3+][C@@H](CO)C(=O)[O-]
REMARK SMILES IDX 3 1 2 2 1 3 5 7 6 8 7 9 4 10
REMARK H PARENT 1 4 1 5 1 6 4 11
REMARK Flexibility Score: inf
ROOT
ATOM      1  C   UNL     1     -34.319  50.358 -53.113  1.00  0.00     0.227 C 
ENDROOT
BRANCH   1   2
ATOM      2  C   UNL     1     -32.814  50.339 -52.793  1.00  0.00     0.253 C 
BRANCH   2   3
ATOM      3  N   UNL     1     -32.349  48.975 -52.515  1.00  0.00    -0.348 N 
ATOM      4  H   UNL     1     -31.385  49.002 -52.111  1.00  0.00     0.345 HD
ATOM      5  H   UNL     1     -32.981  48.520 -51.817  1.00  0.00     0.345 HD
ATOM      6  H   UNL     1     -32.336  48.402 -53.391  1.00  0.00     0.345 HD
ENDBRANCH   2   3
BRANCH   2   7
ATOM      7  C   UNL     1     -32.528  51.236 -51.618  1.00  0.00     0.102 C 
ATOM      8  O   UNL     1     -32.387  50.745 -50.467  1.00  0.00    -0.544 OA
ATOM      9  O   UNL     1     -32.405  52.609 -51.797  1.00  0.00    -0.544 OA
ENDBRANCH   2   7
ENDBRANCH   1   2
BRANCH   1  10
ATOM     10  O   UNL     1     -35.021  51.109 -52.159  1.00  0.00    -0.390 OA
ATOM     11  H   UNL     1     -34.486  51.929 -51.992  1.00  0.00     0.210 HD
ENDBRANCH   1  10
TORSDOF 4
ENDMDL
MODEL 9
REMARK VINA RESULT:    -3.195      2.980      3.855
REMARK INTER + INTRA:          -3.981
REMARK INTER:                  -3.590
REMARK INTRA:                  -0.391
REMARK UNBOUND:                -0.226
REMARK SMILES [NH3+][C@@H](CO)C(=O)[O-]
REMARK SMILES IDX 3 1 2 2 1 3 5 7 6 8 7 9 4 10
REMARK H PARENT 1 4 1 5 1 6 4 11
REMARK Flexibility Score: inf
ROOT
ATOM      1  C   UNL     1     -31.889  50.455 -53.500  1.00  0.00     0.227 C 
ENDROOT
BRANCH   1   2
ATOM      2  C   UNL     1     -32.380  51.711 -52.758  1.00  0.00     0.253 C 
BRANCH   2   3
ATOM      3  N   UNL     1     -31.260  52.428 -52.135  1.00  0.00    -0.348 N 
ATOM      4  H   UNL     1     -30.508  52.598 -52.841  1.00  0.00     0.345 HD
ATOM      5  H   UNL     1     -31.588  53.356 -51.779  1.00  0.00     0.345 HD
ATOM      6  H   UNL     1     -30.863  51.876 -51.339  1.00  0.00     0.345 HD
ENDBRANCH   2   3
BRANCH   2   7
ATOM      7  C   UNL     1     -33.397  51.327 -51.717  1.00  0.00     0.102 C 
ATOM      8  O   UNL     1     -34.594  51.123 -52.048  1.00  0.00    -0.544 OA
ATOM      9  O   UNL     1     -33.019  51.181 -50.388  1.00  0.00    -0.544 OA
ENDBRANCH   2   7
ENDBRANCH   1   2
BRANCH   1  10
ATOM     10  O   UNL     1     -32.326  49.291 -52.852  1.00  0.00    -0.390 OA
ATOM     11  H   UNL     1     -31.512  48.762 -52.640  1.00  0.00     0.210 HD
ENDBRANCH   1  10
TORSDOF 4
ENDMDL
