MODEL 1
REMARK VINA RESULT:    -7.031      0.000      0.000
REMARK INTER + INTRA:          -7.535
REMARK INTER:                  -7.442
REMARK INTRA:                  -0.094
REMARK UNBOUND:                -0.094
REMARK SMILES C=C(C)[C@H]1CC=C(C)C(=O)C1
REMARK SMILES IDX 8 1 7 2 6 3 5 4 4 5 11 6 9 7 10 8 2 9 1 10 3 11
REMARK H PARENT
REMARK Flexibility Score: inf
ROOT
ATOM      1  C   UNL     1     107.600  52.011  61.128  1.00  0.00     0.048 C 
ATOM      2  C   UNL     1     108.026  50.955  62.111  1.00  0.00    -0.012 C 
ATOM      3  C   UNL     1     107.166  50.511  63.042  1.00  0.00    -0.019 C 
ATOM      4  C   UNL     1     107.572  49.515  64.096  1.00  0.00     0.036 C 
ATOM      5  C   UNL     1     108.672  48.569  63.574  1.00  0.00     0.025 C 
ATOM      6  C   UNL     1     109.869  49.382  63.047  1.00  0.00     0.089 C 
ATOM      7  C   UNL     1     109.411  50.423  62.063  1.00  0.00     0.158 C 
ATOM      8  O   UNL     1     110.233  50.875  61.219  1.00  0.00    -0.295 OA
ENDROOT
BRANCH   5   9
ATOM      9  C   UNL     1     109.099  47.564  64.636  1.00  0.00    -0.077 C 
ATOM     10  C   UNL     1     109.192  47.911  65.931  1.00  0.00     0.008 C 
ATOM     11  C   UNL     1     109.428  46.147  64.245  1.00  0.00     0.039 C 
ENDBRANCH   5   9
TORSDOF 1
ENDMDL
MODEL 2
REMARK VINA RESULT:    -6.939      1.601      4.234
REMARK INTER + INTRA:          -7.439
REMARK INTER:                  -7.350
REMARK INTRA:                  -0.089
REMARK UNBOUND:                -0.094
REMARK SMILES C=C(C)[C@H]1CC=C(C)C(=O)C1
REMARK SMILES IDX 8 1 7 2 6 3 5 4 4 5 11 6 9 7 10 8 2 9 1 10 3 11
REMARK H PARENT
REMARK Flexibility Score: inf
ROOT
ATOM      1  C   UNL     1     109.354  46.375  64.890  1.00  0.00     0.048 C 
ATOM      2  C   UNL     1     108.980  47.670  64.222  1.00  0.00    -0.012 C 
ATOM      3  C   UNL     1     108.214  48.567  64.867  1.00  0.00    -0.019 C 
ATOM      4  C   UNL     1     107.749  49.840  64.211  1.00  0.00     0.036 C 
ATOM      5  C   UNL     1     108.768  50.333  63.165  1.00  0.00     0.025 C 
ATOM      6  C   UNL     1     109.063  49.221  62.140  1.00  0.00     0.089 C 
ATOM      7  C   UNL     1     109.440  47.943  62.837  1.00  0.00     0.158 C 
ATOM      8  O   UNL     1     110.117  47.081  62.215  1.00  0.00    -0.295 OA
ENDROOT
BRANCH   5   9
ATOM      9  C   UNL     1     108.303  51.614  62.486  1.00  0.00    -0.077 C 
ATOM     10  C   UNL     1     108.585  52.823  63.003  1.00  0.00     0.008 C 
ATOM     11  C   UNL     1     107.506  51.546  61.209  1.00  0.00     0.039 C 
ENDBRANCH   5   9
TORSDOF 1
ENDMDL
MODEL 3
REMARK VINA RESULT:    -6.615      1.988      4.672
REMARK INTER + INTRA:          -7.096
REMARK INTER:                  -7.002
REMARK INTRA:                  -0.093
REMARK UNBOUND:                -0.094
REMARK SMILES C=C(C)[C@H]1CC=C(C)C(=O)C1
REMARK SMILES IDX 8 1 7 2 6 3 5 4 4 5 11 6 9 7 10 8 2 9 1 10 3 11
REMARK H PARENT
REMARK Flexibility Score: inf
ROOT
ATOM      1  C   UNL     1     109.415  45.719  64.268  1.00  0.00     0.048 C 
ATOM      2  C   UNL     1     109.340  47.066  63.603  1.00  0.00    -0.012 C 
ATOM      3  C   UNL     1     109.485  47.172  62.271  1.00  0.00    -0.019 C 
ATOM      4  C   UNL     1     109.497  48.505  61.572  1.00  0.00     0.036 C 
ATOM      5  C   UNL     1     108.628  49.535  62.319  1.00  0.00     0.025 C 
ATOM      6  C   UNL     1     109.073  49.643  63.790  1.00  0.00     0.089 C 
ATOM      7  C   UNL     1     109.131  48.282  64.428  1.00  0.00     0.158 C 
ATOM      8  O   UNL     1     109.043  48.188  65.683  1.00  0.00    -0.295 OA
ENDROOT
BRANCH   5   9
ATOM      9  C   UNL     1     108.642  50.891  61.627  1.00  0.00    -0.077 C 
ATOM     10  C   UNL     1     109.797  51.508  61.320  1.00  0.00     0.008 C 
ATOM     11  C   UNL     1     107.346  51.571  61.270  1.00  0.00     0.039 C 
ENDBRANCH   5   9
TORSDOF 1
ENDMDL
MODEL 4
REMARK VINA RESULT:    -6.605      1.368      2.026
REMARK INTER + INTRA:          -7.085
REMARK INTER:                  -6.995
REMARK INTRA:                  -0.090
REMARK UNBOUND:                -0.094
REMARK SMILES C=C(C)[C@H]1CC=C(C)C(=O)C1
REMARK SMILES IDX 8 1 7 2 6 3 5 4 4 5 11 6 9 7 10 8 2 9 1 10 3 11
REMARK H PARENT
REMARK Flexibility Score: inf
ROOT
ATOM      1  C   UNL     1     108.316  52.184  61.158  1.00  0.00     0.048 C 
ATOM      2  C   UNL     1     108.542  50.929  61.956  1.00  0.00    -0.012 C 
ATOM      3  C   UNL     1     109.763  50.367  62.002  1.00  0.00    -0.019 C 
ATOM      4  C   UNL     1     110.019  49.069  62.721  1.00  0.00     0.036 C 
ATOM      5  C   UNL     1     109.066  48.899  63.920  1.00  0.00     0.025 C 
ATOM      6  C   UNL     1     107.602  49.033  63.462  1.00  0.00     0.089 C 
ATOM      7  C   UNL     1     107.406  50.299  62.674  1.00  0.00     0.158 C 
ATOM      8  O   UNL     1     106.251  50.799  62.592  1.00  0.00    -0.295 OA
ENDROOT
BRANCH   5   9
ATOM      9  C   UNL     1     109.309  47.584  64.648  1.00  0.00    -0.077 C 
ATOM     10  C   UNL     1     109.400  47.532  65.989  1.00  0.00     0.008 C 
ATOM     11  C   UNL     1     109.455  46.303  63.867  1.00  0.00     0.039 C 
ENDBRANCH   5   9
TORSDOF 1
ENDMDL
MODEL 5
REMARK VINA RESULT:    -6.546      1.992      4.641
REMARK INTER + INTRA:          -7.023
REMARK INTER:                  -6.933
REMARK INTRA:                  -0.090
REMARK UNBOUND:                -0.094
REMARK SMILES C=C(C)[C@H]1CC=C(C)C(=O)C1
REMARK SMILES IDX 8 1 7 2 6 3 5 4 4 5 11 6 9 7 10 8 2 9 1 10 3 11
REMARK H PARENT
REMARK Flexibility Score: inf
ROOT
ATOM      1  C   UNL     1     109.489  45.795  64.214  1.00  0.00     0.048 C 
ATOM      2  C   UNL     1     109.337  47.151  63.581  1.00  0.00    -0.012 C 
ATOM      3  C   UNL     1     109.464  47.294  62.251  1.00  0.00    -0.019 C 
ATOM      4  C   UNL     1     109.400  48.641  61.582  1.00  0.00     0.036 C 
ATOM      5  C   UNL     1     108.484  49.607  62.360  1.00  0.00     0.025 C 
ATOM      6  C   UNL     1     108.935  49.705  63.829  1.00  0.00     0.089 C 
ATOM      7  C   UNL     1     109.071  48.335  64.435  1.00  0.00     0.158 C 
ATOM      8  O   UNL     1     109.000  48.208  65.688  1.00  0.00    -0.295 OA
ENDROOT
BRANCH   5   9
ATOM      9  C   UNL     1     108.420  50.977  61.698  1.00  0.00    -0.077 C 
ATOM     10  C   UNL     1     107.247  51.597  61.485  1.00  0.00     0.008 C 
ATOM     11  C   UNL     1     109.688  51.667  61.267  1.00  0.00     0.039 C 
ENDBRANCH   5   9
TORSDOF 1
ENDMDL
MODEL 6
REMARK VINA RESULT:    -5.328     17.230     17.771
REMARK INTER + INTRA:          -5.733
REMARK INTER:                  -5.635
REMARK INTRA:                  -0.098
REMARK UNBOUND:                -0.094
REMARK SMILES C=C(C)[C@H]1CC=C(C)C(=O)C1
REMARK SMILES IDX 8 1 7 2 6 3 5 4 4 5 11 6 9 7 10 8 2 9 1 10 3 11
REMARK H PARENT
REMARK Flexibility Score: inf
ROOT
ATOM      1  C   UNL     1      99.567  33.956  61.883  1.00  0.00     0.048 C 
ATOM      2  C   UNL     1     100.878  33.621  61.227  1.00  0.00    -0.012 C 
ATOM      3  C   UNL     1     100.992  33.650  59.888  1.00  0.00    -0.019 C 
ATOM      4  C   UNL     1     102.260  33.245  59.184  1.00  0.00     0.036 C 
ATOM      5  C   UNL     1     103.498  33.544  60.052  1.00  0.00     0.025 C 
ATOM      6  C   UNL     1     103.358  32.875  61.432  1.00  0.00     0.089 C 
ATOM      7  C   UNL     1     102.041  33.234  62.064  1.00  0.00     0.158 C 
ATOM      8  O   UNL     1     101.921  33.161  63.317  1.00  0.00    -0.295 OA
ENDROOT
BRANCH   5   9
ATOM      9  C   UNL     1     104.786  33.128  59.354  1.00  0.00    -0.077 C 
ATOM     10  C   UNL     1     105.935  32.977  60.037  1.00  0.00     0.008 C 
ATOM     11  C   UNL     1     104.794  32.877  57.868  1.00  0.00     0.039 C 
ENDBRANCH   5   9
TORSDOF 1
ENDMDL
MODEL 7
REMARK VINA RESULT:    -5.285      1.880      2.496
REMARK INTER + INTRA:          -5.687
REMARK INTER:                  -5.591
REMARK INTRA:                  -0.096
REMARK UNBOUND:                -0.094
REMARK SMILES C=C(C)[C@H]1CC=C(C)C(=O)C1
REMARK SMILES IDX 8 1 7 2 6 3 5 4 4 5 11 6 9 7 10 8 2 9 1 10 3 11
REMARK H PARENT
REMARK Flexibility Score: inf
ROOT
ATOM      1  C   UNL     1     108.701  53.125  63.729  1.00  0.00     0.048 C 
ATOM      2  C   UNL     1     108.938  51.716  63.257  1.00  0.00    -0.012 C 
ATOM      3  C   UNL     1     108.822  50.687  64.114  1.00  0.00    -0.019 C 
ATOM      4  C   UNL     1     109.127  49.270  63.708  1.00  0.00     0.036 C 
ATOM      5  C   UNL     1     108.829  49.042  62.214  1.00  0.00     0.025 C 
ATOM      6  C   UNL     1     109.587  50.071  61.355  1.00  0.00     0.089 C 
ATOM      7  C   UNL     1     109.325  51.469  61.846  1.00  0.00     0.158 C 
ATOM      8  O   UNL     1     109.480  52.438  61.054  1.00  0.00    -0.295 OA
ENDROOT
BRANCH   5   9
ATOM      9  C   UNL     1     109.145  47.614  61.789  1.00  0.00    -0.077 C 
ATOM     10  C   UNL     1     108.951  47.200  60.525  1.00  0.00     0.008 C 
ATOM     11  C   UNL     1     109.688  46.630  62.793  1.00  0.00     0.039 C 
ENDBRANCH   5   9
TORSDOF 1
ENDMDL
MODEL 8
REMARK VINA RESULT:    -4.947     17.361     17.861
REMARK INTER + INTRA:          -5.330
REMARK INTER:                  -5.234
REMARK INTRA:                  -0.096
REMARK UNBOUND:                -0.094
REMARK SMILES C=C(C)[C@H]1CC=C(C)C(=O)C1
REMARK SMILES IDX 8 1 7 2 6 3 5 4 4 5 11 6 9 7 10 8 2 9 1 10 3 11
REMARK H PARENT
REMARK Flexibility Score: inf
ROOT
ATOM      1  C   UNL     1     103.692  32.875  59.638  1.00  0.00     0.048 C 
ATOM      2  C   UNL     1     102.587  33.160  60.618  1.00  0.00    -0.012 C 
ATOM      3  C   UNL     1     102.804  33.035  61.938  1.00  0.00    -0.019 C 
ATOM      4  C   UNL     1     101.707  33.231  62.950  1.00  0.00     0.036 C 
ATOM      5  C   UNL     1     100.665  34.251  62.452  1.00  0.00     0.025 C 
ATOM      6  C   UNL     1     100.119  33.829  61.076  1.00  0.00     0.089 C 
ATOM      7  C   UNL     1     101.247  33.557  60.118  1.00  0.00     0.158 C 
ATOM      8  O   UNL     1     101.030  33.629  58.878  1.00  0.00    -0.295 OA
ENDROOT
BRANCH   5   9
ATOM      9  C   UNL     1      99.544  34.450  63.464  1.00  0.00    -0.077 C 
ATOM     10  C   UNL     1      99.416  33.646  64.534  1.00  0.00     0.008 C 
ATOM     11  C   UNL     1      98.548  35.565  63.279  1.00  0.00     0.039 C 
ENDBRANCH   5   9
TORSDOF 1
ENDMDL
MODEL 9
REMARK VINA RESULT:    -4.536      2.378      4.689
REMARK INTER + INTRA:          -4.895
REMARK INTER:                  -4.804
REMARK INTRA:                  -0.091
REMARK UNBOUND:                -0.094
REMARK SMILES C=C(C)[C@H]1CC=C(C)C(=O)C1
REMARK SMILES IDX 8 1 7 2 6 3 5 4 4 5 11 6 9 7 10 8 2 9 1 10 3 11
REMARK H PARENT
REMARK Flexibility Score: inf
ROOT
ATOM      1  C   UNL     1     109.461  47.090  66.369  1.00  0.00     0.048 C 
ATOM      2  C   UNL     1     109.182  47.612  64.986  1.00  0.00    -0.012 C 
ATOM      3  C   UNL     1     109.911  47.185  63.941  1.00  0.00    -0.019 C 
ATOM      4  C   UNL     1     109.721  47.738  62.554  1.00  0.00     0.036 C 
ATOM      5  C   UNL     1     108.262  48.177  62.323  1.00  0.00     0.025 C 
ATOM      6  C   UNL     1     107.826  49.173  63.414  1.00  0.00     0.089 C 
ATOM      7  C   UNL     1     108.112  48.621  64.783  1.00  0.00     0.158 C 
ATOM      8  O   UNL     1     107.460  49.057  65.770  1.00  0.00    -0.295 OA
ENDROOT
BRANCH   5   9
ATOM      9  C   UNL     1     108.061  48.749  60.927  1.00  0.00    -0.077 C 
ATOM     10  C   UNL     1     108.058  47.957  59.840  1.00  0.00     0.008 C 
ATOM     11  C   UNL     1     107.860  50.230  60.738  1.00  0.00     0.039 C 
ENDBRANCH   5   9
TORSDOF 1
ENDMDL
