MODEL 1
REMARK VINA RESULT:    -3.416      0.000      0.000
REMARK INTER + INTRA:          -5.352
REMARK INTER:                  -5.213
REMARK INTRA:                  -0.139
REMARK UNBOUND:                -0.139
REMARK SMILES CC1=CCC[C@@H](C)C(=O)C[C@@H](C(C)C)C(=O)C1
REMARK SMILES IDX 8 1 9 2 6 3 7 4 5 5 4 6 3 7 2 8 1 9 10 11 11 12 15 13 16 14
REMARK SMILES IDX 17 15 12 17 13 18 14 19
REMARK H PARENT
REMARK Flexibility Score: 70.00
ROOT
ATOM      1  C   UNL     1      22.612  29.782  31.411  1.00  0.00     0.136 C 
ATOM      2  O   UNL     1      22.753  28.966  32.312  1.00  0.00    -0.299 OA
ENDROOT
BRANCH   1   3
ATOM      3  C   UNL     1      23.053  29.436  29.997  1.00  0.00     0.053 C 
ATOM      4  C   UNL     1      22.426  28.123  29.499  1.00  0.00     0.016 C 
BRANCH   3   5
ATOM      5  C   UNL     1      24.592  29.404  29.857  1.00  0.00     0.015 C 
BRANCH   5   6
ATOM      6  C   UNL     1      25.355  30.070  31.029  1.00  0.00     0.028 C 
BRANCH   6   7
ATOM      7  C   UNL     1      26.090  31.304  30.560  1.00  0.00    -0.028 C 
ATOM      8  C   UNL     1      25.619  32.574  30.626  1.00  0.00    -0.070 CG0
ATOM      9  C   UNL     1      26.432  33.664  29.976  1.00  0.00     0.039 C 
ATOM     10  G   UNL     1      24.319  32.952  31.321  1.00  0.00     0.000 G0
ENDBRANCH   6   7
ENDBRANCH   5   6
ENDBRANCH   3   5
ENDBRANCH   1   3
BRANCH   1  11
ATOM     11  C   UNL     1      22.031  31.137  31.746  1.00  0.00     0.087 C 
BRANCH  11  12
ATOM     12  C   UNL     1      21.913  32.061  30.504  1.00  0.00     0.066 C 
BRANCH  12  13
ATOM     13  C   UNL     1      23.083  33.035  30.412  1.00  0.00     0.140 C 
ATOM     14  O   UNL     1      23.030  33.940  29.593  1.00  0.00    -0.299 OA
BRANCH  13  15
ATOM     15  C   UNL     1      24.312  32.973  31.300  1.00  0.00     0.106 CG0
ATOM     16  G   UNL     1      25.607  32.565  30.613  1.00  0.00     0.000 G0
ENDBRANCH  13  15
ENDBRANCH  12  13
BRANCH  12  17
ATOM     17  C   UNL     1      20.547  32.809  30.397  1.00  0.00    -0.006 C 
ATOM     18  C   UNL     1      20.106  33.521  31.689  1.00  0.00     0.008 C 
ATOM     19  C   UNL     1      19.426  31.875  29.912  1.00  0.00     0.008 C 
ENDBRANCH  12  17
ENDBRANCH  11  12
ENDBRANCH   1  11
TORSDOF 1
ENDMDL
MODEL 2
REMARK VINA RESULT:    -3.331      2.882      5.263
REMARK INTER + INTRA:          -5.223
REMARK INTER:                  -5.157
REMARK INTRA:                  -0.066
REMARK UNBOUND:                -0.139
REMARK SMILES CC1=CCC[C@@H](C)C(=O)C[C@@H](C(C)C)C(=O)C1
REMARK SMILES IDX 8 1 9 2 6 3 7 4 5 5 4 6 3 7 2 8 1 9 10 11 11 12 15 13 16 14
REMARK SMILES IDX 17 15 12 17 13 18 14 19
REMARK H PARENT
REMARK Flexibility Score: 70.00
ROOT
ATOM      1  C   UNL     1      19.449  32.758  29.763  1.00  0.00     0.136 C 
ATOM      2  O   UNL     1      19.327  33.708  29.002  1.00  0.00    -0.299 OA
ENDROOT
BRANCH   1   3
ATOM      3  C   UNL     1      20.480  32.808  30.880  1.00  0.00     0.053 C 
ATOM      4  C   UNL     1      20.391  34.108  31.695  1.00  0.00     0.016 C 
BRANCH   3   5
ATOM      5  C   UNL     1      21.917  32.578  30.358  1.00  0.00     0.015 C 
BRANCH   5   6
ATOM      6  C   UNL     1      22.668  31.409  31.043  1.00  0.00     0.028 C 
BRANCH   6   7
ATOM      7  C   UNL     1      22.412  30.107  30.319  1.00  0.00    -0.028 C 
ATOM      8  C   UNL     1      21.420  29.228  30.604  1.00  0.00    -0.070 CG0
ATOM      9  C   UNL     1      21.408  27.913  29.868  1.00  0.00     0.039 C 
ATOM     10  G   UNL     1      20.323  29.503  31.624  1.00  0.00     0.000 G0
ENDBRANCH   6   7
ENDBRANCH   5   6
ENDBRANCH   3   5
ENDBRANCH   1   3
BRANCH   1  11
ATOM     11  C   UNL     1      18.584  31.538  29.542  1.00  0.00     0.087 C 
BRANCH  11  12
ATOM     12  C   UNL     1      18.142  30.869  30.871  1.00  0.00     0.066 C 
BRANCH  12  13
ATOM     13  C   UNL     1      18.896  29.569  31.128  1.00  0.00     0.140 C 
ATOM     14  O   UNL     1      18.336  28.509  30.892  1.00  0.00    -0.299 OA
BRANCH  13  15
ATOM     15  C   UNL     1      20.324  29.502  31.638  1.00  0.00     0.106 CG0
ATOM     16  G   UNL     1      21.391  29.227  30.588  1.00  0.00     0.000 G0
ENDBRANCH  13  15
ENDBRANCH  12  13
BRANCH  12  17
ATOM     17  C   UNL     1      16.599  30.659  30.993  1.00  0.00    -0.006 C 
ATOM     18  C   UNL     1      15.814  30.930  29.698  1.00  0.00     0.008 C 
ATOM     19  C   UNL     1      16.004  31.488  32.143  1.00  0.00     0.008 C 
ENDBRANCH  12  17
ENDBRANCH  11  12
ENDBRANCH   1  11
TORSDOF 1
ENDMDL
MODEL 3
REMARK VINA RESULT:    -3.270      2.858      4.594
REMARK INTER + INTRA:          -5.130
REMARK INTER:                  -4.709
REMARK INTRA:                  -0.421
REMARK UNBOUND:                -0.139
REMARK SMILES CC1=CCC[C@@H](C)C(=O)C[C@@H](C(C)C)C(=O)C1
REMARK SMILES IDX 8 1 9 2 6 3 7 4 5 5 4 6 3 7 2 8 1 9 10 11 11 12 15 13 16 14
REMARK SMILES IDX 17 15 12 17 13 18 14 19
REMARK H PARENT
REMARK Flexibility Score: 70.00
ROOT
ATOM      1  C   UNL     1      21.963  33.016  30.479  1.00  0.00     0.136 C 
ATOM      2  O   UNL     1      22.948  33.333  29.827  1.00  0.00    -0.299 OA
ENDROOT
BRANCH   1   3
ATOM      3  C   UNL     1      22.091  32.751  31.971  1.00  0.00     0.053 C 
ATOM      4  C   UNL     1      22.515  34.008  32.749  1.00  0.00     0.016 C 
BRANCH   3   5
ATOM      5  C   UNL     1      23.037  31.566  32.274  1.00  0.00     0.015 C 
BRANCH   5   6
ATOM      6  C   UNL     1      22.321  30.204  32.446  1.00  0.00     0.028 C 
BRANCH   6   7
ATOM      7  C   UNL     1      22.557  29.317  31.245  1.00  0.00    -0.028 C 
ATOM      8  C   UNL     1      21.593  28.822  30.429  1.00  0.00    -0.070 CG0
ATOM      9  C   UNL     1      22.006  27.837  29.366  1.00  0.00     0.039 C 
ATOM     10  G   UNL     1      20.125  29.211  30.534  1.00  0.00     0.000 G0
ENDBRANCH   6   7
ENDBRANCH   5   6
ENDBRANCH   3   5
ENDBRANCH   1   3
BRANCH   1  11
ATOM     11  C   UNL     1      20.640  32.859  29.762  1.00  0.00     0.087 C 
BRANCH  11  12
ATOM     12  C   UNL     1      19.690  31.858  30.472  1.00  0.00     0.066 C 
BRANCH  12  13
ATOM     13  C   UNL     1      19.723  30.483  29.812  1.00  0.00     0.140 C 
ATOM     14  O   UNL     1      19.441  30.394  28.627  1.00  0.00    -0.299 OA
BRANCH  13  15
ATOM     15  C   UNL     1      20.115  29.205  30.531  1.00  0.00     0.106 CG0
ATOM     16  G   UNL     1      21.580  28.806  30.423  1.00  0.00     0.000 G0
ENDBRANCH  13  15
ENDBRANCH  12  13
BRANCH  12  17
ATOM     17  C   UNL     1      18.224  32.374  30.625  1.00  0.00    -0.006 C 
ATOM     18  C   UNL     1      17.708  33.194  29.429  1.00  0.00     0.008 C 
ATOM     19  C   UNL     1      18.039  33.177  31.923  1.00  0.00     0.008 C 
ENDBRANCH  12  17
ENDBRANCH  11  12
ENDBRANCH   1  11
TORSDOF 1
ENDMDL
MODEL 4
REMARK VINA RESULT:    -3.217      2.001      3.799
REMARK INTER + INTRA:          -5.048
REMARK INTER:                  -4.586
REMARK INTRA:                  -0.463
REMARK UNBOUND:                -0.139
REMARK SMILES CC1=CCC[C@@H](C)C(=O)C[C@@H](C(C)C)C(=O)C1
REMARK SMILES IDX 8 1 9 2 6 3 7 4 5 5 4 6 3 7 2 8 1 9 10 11 11 12 15 13 16 14
REMARK SMILES IDX 17 15 12 17 13 18 14 19
REMARK H PARENT
REMARK Flexibility Score: 70.00
ROOT
ATOM      1  C   UNL     1      23.259  33.047  30.449  1.00  0.00     0.136 C 
ATOM      2  O   UNL     1      24.030  33.458  29.592  1.00  0.00    -0.299 OA
ENDROOT
BRANCH   1   3
ATOM      3  C   UNL     1      23.759  32.792  31.862  1.00  0.00     0.053 C 
ATOM      4  C   UNL     1      23.908  34.093  32.668  1.00  0.00     0.016 C 
BRANCH   3   5
ATOM      5  C   UNL     1      25.073  31.977  31.878  1.00  0.00     0.015 C 
BRANCH   5   6
ATOM      6  C   UNL     1      24.877  30.451  32.058  1.00  0.00     0.028 C 
BRANCH   6   7
ATOM      7  C   UNL     1      24.855  29.751  30.719  1.00  0.00    -0.028 C 
ATOM      8  C   UNL     1      23.780  29.135  30.169  1.00  0.00    -0.070 CG0
ATOM      9  C   UNL     1      23.985  28.364  28.890  1.00  0.00     0.039 C 
ATOM     10  G   UNL     1      22.384  29.184  30.775  1.00  0.00     0.000 G0
ENDBRANCH   6   7
ENDBRANCH   5   6
ENDBRANCH   3   5
ENDBRANCH   1   3
BRANCH   1  11
ATOM     11  C   UNL     1      21.825  32.768  30.058  1.00  0.00     0.087 C 
BRANCH  11  12
ATOM     12  C   UNL     1      21.204  31.595  30.864  1.00  0.00     0.066 C 
BRANCH  12  13
ATOM     13  C   UNL     1      21.459  30.250  30.191  1.00  0.00     0.140 C 
ATOM     14  O   UNL     1      20.925  30.021  29.117  1.00  0.00    -0.299 OA
BRANCH  13  15
ATOM     15  C   UNL     1      22.364  29.174  30.761  1.00  0.00     0.106 CG0
ATOM     16  G   UNL     1      23.775  29.125  30.193  1.00  0.00     0.000 G0
ENDBRANCH  13  15
ENDBRANCH  12  13
BRANCH  12  17
ATOM     17  C   UNL     1      19.688  31.783  31.191  1.00  0.00    -0.006 C 
ATOM     18  C   UNL     1      18.966  32.809  30.301  1.00  0.00     0.008 C 
ATOM     19  C   UNL     1      19.468  32.135  32.672  1.00  0.00     0.008 C 
ENDBRANCH  12  17
ENDBRANCH  11  12
ENDBRANCH   1  11
TORSDOF 1
ENDMDL
MODEL 5
REMARK VINA RESULT:    -3.156      2.386      3.165
REMARK INTER + INTRA:          -4.955
REMARK INTER:                  -5.192
REMARK INTRA:                   0.237
REMARK UNBOUND:                -0.139
REMARK SMILES CC1=CCC[C@@H](C)C(=O)C[C@@H](C(C)C)C(=O)C1
REMARK SMILES IDX 8 1 9 2 6 3 7 4 5 5 4 6 3 7 2 8 1 9 10 11 11 12 15 13 16 14
REMARK SMILES IDX 17 15 12 17 13 18 14 19
REMARK H PARENT
REMARK Flexibility Score: 70.00
ROOT
ATOM      1  C   UNL     1      21.872  29.360  29.678  1.00  0.00     0.136 C 
ATOM      2  O   UNL     1      21.973  28.684  28.663  1.00  0.00    -0.299 OA
ENDROOT
BRANCH   1   3
ATOM      3  C   UNL     1      23.121  29.884  30.370  1.00  0.00     0.053 C 
ATOM      4  C   UNL     1      24.399  29.206  29.850  1.00  0.00     0.016 C 
BRANCH   3   5
ATOM      5  C   UNL     1      23.023  29.777  31.910  1.00  0.00     0.015 C 
BRANCH   5   6
ATOM      6  C   UNL     1      23.272  31.109  32.660  1.00  0.00     0.028 C 
BRANCH   6   7
ATOM      7  C   UNL     1      23.274  32.275  31.699  1.00  0.00    -0.028 C 
ATOM      8  C   UNL     1      22.196  33.031  31.375  1.00  0.00    -0.070 CG0
ATOM      9  C   UNL     1      22.358  34.062  30.287  1.00  0.00     0.039 C 
ATOM     10  G   UNL     1      20.840  32.892  32.051  1.00  0.00     0.000 G0
ENDBRANCH   6   7
ENDBRANCH   5   6
ENDBRANCH   3   5
ENDBRANCH   1   3
BRANCH   1  11
ATOM     11  C   UNL     1      20.491  29.625  30.236  1.00  0.00     0.087 C 
BRANCH  11  12
ATOM     12  C   UNL     1      20.085  31.120  30.143  1.00  0.00     0.066 C 
BRANCH  12  13
ATOM     13  C   UNL     1      19.940  31.753  31.523  1.00  0.00     0.140 C 
ATOM     14  O   UNL     1      19.080  31.325  32.277  1.00  0.00    -0.299 OA
BRANCH  13  15
ATOM     15  C   UNL     1      20.821  32.876  32.039  1.00  0.00     0.106 CG0
ATOM     16  G   UNL     1      22.177  33.020  31.362  1.00  0.00     0.000 G0
ENDBRANCH  13  15
ENDBRANCH  12  13
BRANCH  12  17
ATOM     17  C   UNL     1      18.818  31.380  29.268  1.00  0.00    -0.006 C 
ATOM     18  C   UNL     1      18.363  32.849  29.225  1.00  0.00     0.008 C 
ATOM     19  C   UNL     1      17.642  30.485  29.695  1.00  0.00     0.008 C 
ENDBRANCH  12  17
ENDBRANCH  11  12
ENDBRANCH   1  11
TORSDOF 1
ENDMDL
MODEL 6
REMARK VINA RESULT:    -2.992      1.942      2.802
REMARK INTER + INTRA:          -4.705
REMARK INTER:                  -5.077
REMARK INTRA:                   0.372
REMARK UNBOUND:                -0.139
REMARK SMILES CC1=CCC[C@@H](C)C(=O)C[C@@H](C(C)C)C(=O)C1
REMARK SMILES IDX 8 1 9 2 6 3 7 4 5 5 4 6 3 7 2 8 1 9 10 11 11 12 15 13 16 14
REMARK SMILES IDX 17 15 12 17 13 18 14 19
REMARK H PARENT
REMARK Flexibility Score: 70.00
ROOT
ATOM      1  C   UNL     1      23.286  28.183  29.358  1.00  0.00     0.136 C 
ATOM      2  O   UNL     1      23.106  27.250  28.588  1.00  0.00    -0.299 OA
ENDROOT
BRANCH   1   3
ATOM      3  C   UNL     1      24.490  29.095  29.177  1.00  0.00     0.053 C 
ATOM      4  C   UNL     1      25.362  28.674  27.983  1.00  0.00     0.016 C 
BRANCH   3   5
ATOM      5  C   UNL     1      25.334  29.211  30.468  1.00  0.00     0.015 C 
BRANCH   5   6
ATOM      6  C   UNL     1      26.046  30.574  30.647  1.00  0.00     0.028 C 
BRANCH   6   7
ATOM      7  C   UNL     1      25.158  31.709  30.190  1.00  0.00    -0.028 C 
ATOM      8  C   UNL     1      24.008  32.101  30.794  1.00  0.00    -0.070 CG0
ATOM      9  C   UNL     1      23.178  33.159  30.113  1.00  0.00     0.039 C 
ATOM     10  G   UNL     1      23.519  31.531  32.117  1.00  0.00     0.000 G0
ENDBRANCH   6   7
ENDBRANCH   5   6
ENDBRANCH   3   5
ENDBRANCH   1   3
BRANCH   1  11
ATOM     11  C   UNL     1      22.314  28.378  30.500  1.00  0.00     0.087 C 
BRANCH  11  12
ATOM     12  C   UNL     1      21.933  29.867  30.713  1.00  0.00     0.066 C 
BRANCH  12  13
ATOM     13  C   UNL     1      22.482  30.409  32.029  1.00  0.00     0.140 C 
ATOM     14  O   UNL     1      22.101  29.906  33.075  1.00  0.00    -0.299 OA
BRANCH  13  15
ATOM     15  C   UNL     1      23.504  31.526  32.127  1.00  0.00     0.106 CG0
ATOM     16  G   UNL     1      23.994  32.095  30.803  1.00  0.00     0.000 G0
ENDBRANCH  13  15
ENDBRANCH  12  13
BRANCH  12  17
ATOM     17  C   UNL     1      20.404  30.156  30.580  1.00  0.00    -0.006 C 
ATOM     18  C   UNL     1      19.503  28.923  30.775  1.00  0.00     0.008 C 
ATOM     19  C   UNL     1      20.070  30.835  29.242  1.00  0.00     0.008 C 
ENDBRANCH  12  17
ENDBRANCH  11  12
ENDBRANCH   1  11
TORSDOF 1
ENDMDL
MODEL 7
REMARK VINA RESULT:    -2.960      1.870      3.504
REMARK INTER + INTRA:          -4.657
REMARK INTER:                  -4.660
REMARK INTRA:                   0.003
REMARK UNBOUND:                -0.139
REMARK SMILES CC1=CCC[C@@H](C)C(=O)C[C@@H](C(C)C)C(=O)C1
REMARK SMILES IDX 8 1 9 2 6 3 7 4 5 5 4 6 3 7 2 8 1 9 10 11 11 12 15 13 16 14
REMARK SMILES IDX 17 15 12 17 13 18 14 19
REMARK H PARENT
REMARK Flexibility Score: 70.00
ROOT
ATOM      1  C   UNL     1      25.474  29.792  29.628  1.00  0.00     0.136 C 
ATOM      2  O   UNL     1      25.728  29.258  28.557  1.00  0.00    -0.299 OA
ENDROOT
BRANCH   1   3
ATOM      3  C   UNL     1      26.287  30.990  30.092  1.00  0.00     0.053 C 
ATOM      4  C   UNL     1      27.652  31.072  29.389  1.00  0.00     0.016 C 
BRANCH   3   5
ATOM      5  C   UNL     1      26.452  31.024  31.630  1.00  0.00     0.015 C 
BRANCH   5   6
ATOM      6  C   UNL     1      25.913  32.310  32.303  1.00  0.00     0.028 C 
BRANCH   6   7
ATOM      7  C   UNL     1      25.148  33.156  31.311  1.00  0.00    -0.028 C 
ATOM      8  C   UNL     1      23.806  33.124  31.118  1.00  0.00    -0.070 CG0
ATOM      9  C   UNL     1      23.236  33.935  29.982  1.00  0.00     0.039 C 
ATOM     10  G   UNL     1      22.852  32.316  31.986  1.00  0.00     0.000 G0
ENDBRANCH   6   7
ENDBRANCH   5   6
ENDBRANCH   3   5
ENDBRANCH   1   3
BRANCH   1  11
ATOM     11  C   UNL     1      24.369  29.210  30.482  1.00  0.00     0.087 C 
BRANCH  11  12
ATOM     12  C   UNL     1      23.094  30.096  30.494  1.00  0.00     0.066 C 
BRANCH  12  13
ATOM     13  C   UNL     1      22.915  30.811  31.830  1.00  0.00     0.140 C 
ATOM     14  O   UNL     1      22.842  30.141  32.848  1.00  0.00    -0.299 OA
BRANCH  13  15
ATOM     15  C   UNL     1      22.850  32.319  31.983  1.00  0.00     0.106 CG0
ATOM     16  G   UNL     1      23.799  33.118  31.101  1.00  0.00     0.000 G0
ENDBRANCH  13  15
ENDBRANCH  12  13
BRANCH  12  17
ATOM     17  C   UNL     1      21.792  29.339  30.082  1.00  0.00    -0.006 C 
ATOM     18  C   UNL     1      22.011  28.193  29.079  1.00  0.00     0.008 C 
ATOM     19  C   UNL     1      20.723  30.304  29.541  1.00  0.00     0.008 C 
ENDBRANCH  12  17
ENDBRANCH  11  12
ENDBRANCH   1  11
TORSDOF 1
ENDMDL
MODEL 8
REMARK VINA RESULT:    -2.944      3.209      4.441
REMARK INTER + INTRA:          -4.632
REMARK INTER:                  -4.923
REMARK INTRA:                   0.292
REMARK UNBOUND:                -0.139
REMARK SMILES CC1=CCC[C@@H](C)C(=O)C[C@@H](C(C)C)C(=O)C1
REMARK SMILES IDX 8 1 9 2 6 3 7 4 5 5 4 6 3 7 2 8 1 9 10 11 11 12 15 13 16 14
REMARK SMILES IDX 17 15 12 17 13 18 14 19
REMARK H PARENT
REMARK Flexibility Score: 70.00
ROOT
ATOM      1  C   UNL     1      18.534  29.528  30.582  1.00  0.00     0.136 C 
ATOM      2  O   UNL     1      17.531  28.838  30.465  1.00  0.00    -0.299 OA
ENDROOT
BRANCH   1   3
ATOM      3  C   UNL     1      19.456  29.333  31.776  1.00  0.00     0.053 C 
ATOM      4  C   UNL     1      18.990  30.131  33.005  1.00  0.00     0.016 C 
BRANCH   3   5
ATOM      5  C   UNL     1      20.930  29.651  31.434  1.00  0.00     0.015 C 
BRANCH   5   6
ATOM      6  C   UNL     1      21.510  30.876  32.184  1.00  0.00     0.028 C 
BRANCH   6   7
ATOM      7  C   UNL     1      21.981  31.930  31.209  1.00  0.00    -0.028 C 
ATOM      8  C   UNL     1      21.211  32.911  30.676  1.00  0.00    -0.070 CG0
ATOM      9  C   UNL     1      21.818  33.784  29.608  1.00  0.00     0.039 C 
ATOM     10  G   UNL     1      19.773  33.173  31.101  1.00  0.00     0.000 G0
ENDBRANCH   6   7
ENDBRANCH   5   6
ENDBRANCH   3   5
ENDBRANCH   1   3
BRANCH   1  11
ATOM     11  C   UNL     1      18.807  30.592  29.542  1.00  0.00     0.087 C 
BRANCH  11  12
ATOM     12  C   UNL     1      17.895  31.837  29.707  1.00  0.00     0.066 C 
BRANCH  12  13
ATOM     13  C   UNL     1      18.705  33.093  30.013  1.00  0.00     0.140 C 
ATOM     14  O   UNL     1      18.485  34.105  29.365  1.00  0.00    -0.299 OA
BRANCH  13  15
ATOM     15  C   UNL     1      19.759  33.180  31.101  1.00  0.00     0.106 CG0
ATOM     16  G   UNL     1      21.191  32.916  30.660  1.00  0.00     0.000 G0
ENDBRANCH  13  15
ENDBRANCH  12  13
BRANCH  12  17
ATOM     17  C   UNL     1      16.740  31.645  30.741  1.00  0.00    -0.006 C 
ATOM     18  C   UNL     1      15.357  31.400  30.114  1.00  0.00     0.008 C 
ATOM     19  C   UNL     1      16.662  32.823  31.726  1.00  0.00     0.008 C 
ENDBRANCH  12  17
ENDBRANCH  11  12
ENDBRANCH   1  11
TORSDOF 1
ENDMDL
MODEL 9
REMARK VINA RESULT:    -2.622      2.043      4.460
REMARK INTER + INTRA:          -4.141
REMARK INTER:                  -4.205
REMARK INTRA:                   0.064
REMARK UNBOUND:                -0.139
REMARK SMILES CC1=CCC[C@@H](C)C(=O)C[C@@H](C(C)C)C(=O)C1
REMARK SMILES IDX 8 1 9 2 6 3 7 4 5 5 4 6 3 7 2 8 1 9 10 11 11 12 15 13 16 14
REMARK SMILES IDX 17 15 12 17 13 18 14 19
REMARK H PARENT
REMARK Flexibility Score: 70.00
ROOT
ATOM      1  C   UNL     1      23.322  29.794  30.798  1.00  0.00     0.136 C 
ATOM      2  O   UNL     1      24.429  29.309  30.986  1.00  0.00    -0.299 OA
ENDROOT
BRANCH   1   3
ATOM      3  C   UNL     1      22.088  28.906  30.829  1.00  0.00     0.053 C 
ATOM      4  C   UNL     1      21.763  28.315  29.447  1.00  0.00     0.016 C 
BRANCH   3   5
ATOM      5  C   UNL     1      20.860  29.635  31.423  1.00  0.00     0.015 C 
BRANCH   5   6
ATOM      6  C   UNL     1      19.896  30.230  30.366  1.00  0.00     0.028 C 
BRANCH   6   7
ATOM      7  C   UNL     1      19.086  31.361  30.955  1.00  0.00    -0.028 C 
ATOM      8  C   UNL     1      19.542  32.615  31.195  1.00  0.00    -0.070 CG0
ATOM      9  C   UNL     1      18.631  33.572  31.921  1.00  0.00     0.039 C 
ATOM     10  G   UNL     1      20.920  33.103  30.770  1.00  0.00     0.000 G0
ENDBRANCH   6   7
ENDBRANCH   5   6
ENDBRANCH   3   5
ENDBRANCH   1   3
BRANCH   1  11
ATOM     11  C   UNL     1      23.222  31.273  30.499  1.00  0.00     0.087 C 
BRANCH  11  12
ATOM     12  C   UNL     1      23.215  32.143  31.785  1.00  0.00     0.066 C 
BRANCH  12  13
ATOM     13  C   UNL     1      22.004  33.069  31.834  1.00  0.00     0.140 C 
ATOM     14  O   UNL     1      21.901  33.851  32.766  1.00  0.00    -0.299 OA
BRANCH  13  15
ATOM     15  C   UNL     1      20.918  33.105  30.774  1.00  0.00     0.106 CG0
ATOM     16  G   UNL     1      19.543  32.625  31.216  1.00  0.00     0.000 G0
ENDBRANCH  13  15
ENDBRANCH  12  13
BRANCH  12  17
ATOM     17  C   UNL     1      24.539  32.935  32.023  1.00  0.00    -0.006 C 
ATOM     18  C   UNL     1      25.102  33.627  30.769  1.00  0.00     0.008 C 
ATOM     19  C   UNL     1      25.624  32.048  32.656  1.00  0.00     0.008 C 
ENDBRANCH  12  17
ENDBRANCH  11  12
ENDBRANCH   1  11
TORSDOF 1
ENDMDL
