MODEL 1
REMARK VINA RESULT:    -7.701      0.000      0.000
REMARK INTER + INTRA:         -12.113
REMARK INTER:                 -10.852
REMARK INTRA:                  -1.262
REMARK UNBOUND:                -1.262
REMARK SMILES C=C(CC[C@H](C(=O)[O-])[C@@H]1[C@@H](O)C[C@@]2(C)C3=C(CC[C@@]12C)[C@@]1(C)CC[C@H](O)C(C)(C)[C@H]1CC3)C(C)C
REMARK SMILES IDX 4 1 5 2 6 3 7 4 8 5 9 6 10 7 19 8 12 9 13 10 18 11 20 12
REMARK SMILES IDX 14 13 15 14 17 15 16 16 32 17 21 18 31 19 30 20 23 21 22 22
REMARK SMILES IDX 27 23 24 24 25 25 28 26 29 27 11 28 26 30 3 32 2 33 1 34
REMARK SMILES IDX 33 35 34 36 35 37
REMARK H PARENT 11 29 26 31
REMARK Flexibility Score: inf
ROOT
ATOM      1  C   UNL     1      17.426  21.019  11.113  1.00  0.00     0.014 C 
ENDROOT
BRANCH   1   2
ATOM      2  C   UNL     1      17.148  19.797  10.193  1.00  0.00     0.042 C 
BRANCH   2   3
ATOM      3  C   UNL     1      16.105  20.072   9.128  1.00  0.00     0.045 C 
ATOM      4  O   UNL     1      16.405  20.094   7.906  1.00  0.00    -0.550 OA
ATOM      5  O   UNL     1      14.783  20.285   9.498  1.00  0.00    -0.550 OA
ENDBRANCH   2   3
BRANCH   2   6
ATOM      6  C   UNL     1      16.914  18.471  11.009  1.00  0.00     0.033 C 
ATOM      7  C   UNL     1      16.417  18.713  12.429  1.00  0.00     0.119 C 
ATOM      8  C   UNL     1      18.039  17.384  11.172  1.00  0.00    -0.017 C 
ATOM      9  C   UNL     1      16.356  17.321  13.025  1.00  0.00     0.043 C 
ATOM     10  C   UNL     1      17.581  16.540  12.466  1.00  0.00    -0.003 C 
ATOM     11  C   UNL     1      18.116  16.487   9.903  1.00  0.00     0.012 C 
ATOM     12  C   UNL     1      19.431  18.058  11.355  1.00  0.00     0.013 C 
ATOM     13  C   UNL     1      18.658  16.463  13.585  1.00  0.00     0.017 C 
ATOM     14  C   UNL     1      17.180  15.068  12.163  1.00  0.00    -0.064 C 
ATOM     15  C   UNL     1      18.710  15.128  10.243  1.00  0.00     0.032 C 
ATOM     16  C   UNL     1      17.746  14.372  11.137  1.00  0.00    -0.064 C 
ATOM     17  C   UNL     1      16.244  14.365  13.116  1.00  0.00     0.032 C 
ATOM     18  C   UNL     1      17.525  12.844  10.903  1.00  0.00    -0.008 C 
ATOM     19  C   UNL     1      16.632  12.911  13.304  1.00  0.00     0.009 C 
ATOM     20  C   UNL     1      16.529  12.170  11.951  1.00  0.00     0.007 C 
ATOM     21  C   UNL     1      18.935  12.193  10.999  1.00  0.00     0.014 C 
ATOM     22  C   UNL     1      16.942  12.696   9.471  1.00  0.00     0.016 C 
ATOM     23  C   UNL     1      16.629  10.576  12.102  1.00  0.00    -0.006 C 
ATOM     24  C   UNL     1      18.931  10.670  10.978  1.00  0.00     0.033 C 
ATOM     25  C   UNL     1      18.113  10.112  12.145  1.00  0.00     0.120 C 
ATOM     26  C   UNL     1      15.862   9.848  10.952  1.00  0.00     0.014 C 
ATOM     27  C   UNL     1      15.950  10.083  13.415  1.00  0.00     0.014 C 
BRANCH   7  28
ATOM     28  O   UNL     1      15.151  19.319  12.425  1.00  0.00    -0.393 OA
ATOM     29  H   UNL     1      14.896  19.443  13.378  1.00  0.00     0.210 HD
ENDBRANCH   7  28
BRANCH  25  30
ATOM     30  O   UNL     1      18.187   8.707  12.132  1.00  0.00    -0.393 OA
ATOM     31  H   UNL     1      17.678   8.393  11.341  1.00  0.00     0.210 HD
ENDBRANCH  25  30
ENDBRANCH   2   6
ENDBRANCH   1   2
BRANCH   1  32
ATOM     32  C   UNL     1      17.618  22.352  10.360  1.00  0.00     0.031 C 
BRANCH  32  33
ATOM     33  C   UNL     1      19.063  22.729  10.094  1.00  0.00    -0.075 C 
ATOM     34  C   UNL     1      19.699  23.550  10.949  1.00  0.00     0.008 C 
BRANCH  33  35
ATOM     35  C   UNL     1      19.821  22.052   8.955  1.00  0.00     0.008 C 
ATOM     36  C   UNL     1      20.585  23.067   8.097  1.00  0.00     0.012 C 
ATOM     37  C   UNL     1      20.763  20.965   9.485  1.00  0.00     0.012 C 
ENDBRANCH  33  35
ENDBRANCH  32  33
ENDBRANCH   1  32
TORSDOF 8
ENDMDL
MODEL 2
REMARK VINA RESULT:    -7.468      2.187      4.007
REMARK INTER + INTRA:         -11.786
REMARK INTER:                 -10.747
REMARK INTRA:                  -1.039
REMARK UNBOUND:                -1.262
REMARK SMILES C=C(CC[C@H](C(=O)[O-])[C@@H]1[C@@H](O)C[C@@]2(C)C3=C(CC[C@@]12C)[C@@]1(C)CC[C@H](O)C(C)(C)[C@H]1CC3)C(C)C
REMARK SMILES IDX 4 1 5 2 6 3 7 4 8 5 9 6 10 7 19 8 12 9 13 10 18 11 20 12
REMARK SMILES IDX 14 13 15 14 17 15 16 16 32 17 21 18 31 19 30 20 23 21 22 22
REMARK SMILES IDX 27 23 24 24 25 25 28 26 29 27 11 28 26 30 3 32 2 33 1 34
REMARK SMILES IDX 33 35 34 36 35 37
REMARK H PARENT 11 29 26 31
REMARK Flexibility Score: inf
ROOT
ATOM      1  C   UNL     1      17.720  20.093  10.196  1.00  0.00     0.014 C 
ENDROOT
BRANCH   1   2
ATOM      2  C   UNL     1      19.198  19.669  10.422  1.00  0.00     0.042 C 
BRANCH   2   3
ATOM      3  C   UNL     1      20.165  20.320   9.453  1.00  0.00     0.045 C 
ATOM      4  O   UNL     1      19.939  20.341   8.215  1.00  0.00    -0.550 OA
ATOM      5  O   UNL     1      21.319  20.926   9.935  1.00  0.00    -0.550 OA
ENDBRANCH   2   3
BRANCH   2   6
ATOM      6  C   UNL     1      19.362  18.109  10.560  1.00  0.00     0.033 C 
ATOM      7  C   UNL     1      20.778  17.621  10.279  1.00  0.00     0.119 C 
ATOM      8  C   UNL     1      18.442  17.103   9.775  1.00  0.00    -0.017 C 
ATOM      9  C   UNL     1      20.660  16.115  10.384  1.00  0.00     0.043 C 
ATOM     10  C   UNL     1      19.282  15.728   9.773  1.00  0.00    -0.003 C 
ATOM     11  C   UNL     1      17.076  16.937  10.501  1.00  0.00     0.012 C 
ATOM     12  C   UNL     1      18.150  17.632   8.339  1.00  0.00     0.013 C 
ATOM     13  C   UNL     1      19.529  15.140   8.355  1.00  0.00     0.017 C 
ATOM     14  C   UNL     1      18.636  14.581  10.601  1.00  0.00    -0.064 C 
ATOM     15  C   UNL     1      16.445  15.597  10.154  1.00  0.00     0.032 C 
ATOM     16  C   UNL     1      17.284  14.482  10.748  1.00  0.00    -0.064 C 
ATOM     17  C   UNL     1      19.527  13.485  11.132  1.00  0.00     0.032 C 
ATOM     18  C   UNL     1      16.573  13.255  11.403  1.00  0.00    -0.008 C 
ATOM     19  C   UNL     1      18.849  12.130  11.054  1.00  0.00     0.009 C 
ATOM     20  C   UNL     1      17.578  12.137  11.936  1.00  0.00     0.007 C 
ATOM     21  C   UNL     1      15.643  12.669  10.303  1.00  0.00     0.014 C 
ATOM     22  C   UNL     1      15.744  13.809  12.594  1.00  0.00     0.016 C 
ATOM     23  C   UNL     1      16.961  10.673  12.155  1.00  0.00    -0.006 C 
ATOM     24  C   UNL     1      14.981  11.348  10.673  1.00  0.00     0.033 C 
ATOM     25  C   UNL     1      16.033  10.277  10.971  1.00  0.00     0.120 C 
ATOM     26  C   UNL     1      16.190  10.579  13.510  1.00  0.00     0.014 C 
ATOM     27  C   UNL     1      18.078   9.591  12.251  1.00  0.00     0.014 C 
BRANCH   7  28
ATOM     28  O   UNL     1      21.684  18.128  11.225  1.00  0.00    -0.393 OA
ATOM     29  H   UNL     1      21.498  17.648  12.075  1.00  0.00     0.210 HD
ENDBRANCH   7  28
BRANCH  25  30
ATOM     30  O   UNL     1      15.388   9.056  11.243  1.00  0.00    -0.393 OA
ATOM     31  H   UNL     1      15.871   8.631  11.997  1.00  0.00     0.210 HD
ENDBRANCH  25  30
ENDBRANCH   2   6
ENDBRANCH   1   2
BRANCH   1  32
ATOM     32  C   UNL     1      17.105  20.903  11.356  1.00  0.00     0.031 C 
BRANCH  32  33
ATOM     33  C   UNL     1      16.123  20.133  12.217  1.00  0.00    -0.075 C 
ATOM     34  C   UNL     1      15.000  19.642  11.661  1.00  0.00     0.008 C 
BRANCH  33  35
ATOM     35  C   UNL     1      16.492  19.789  13.658  1.00  0.00     0.008 C 
ATOM     36  C   UNL     1      15.262  19.771  14.573  1.00  0.00     0.012 C 
ATOM     37  C   UNL     1      17.250  18.458  13.733  1.00  0.00     0.012 C 
ENDBRANCH  33  35
ENDBRANCH  32  33
ENDBRANCH   1  32
TORSDOF 8
ENDMDL
MODEL 3
REMARK VINA RESULT:    -7.454      2.125      3.401
REMARK INTER + INTRA:         -11.766
REMARK INTER:                 -11.407
REMARK INTRA:                  -0.358
REMARK UNBOUND:                -1.262
REMARK SMILES C=C(CC[C@H](C(=O)[O-])[C@@H]1[C@@H](O)C[C@@]2(C)C3=C(CC[C@@]12C)[C@@]1(C)CC[C@H](O)C(C)(C)[C@H]1CC3)C(C)C
REMARK SMILES IDX 4 1 5 2 6 3 7 4 8 5 9 6 10 7 19 8 12 9 13 10 18 11 20 12
REMARK SMILES IDX 14 13 15 14 17 15 16 16 32 17 21 18 31 19 30 20 23 21 22 22
REMARK SMILES IDX 27 23 24 24 25 25 28 26 29 27 11 28 26 30 3 32 2 33 1 34
REMARK SMILES IDX 33 35 34 36 35 37
REMARK H PARENT 11 29 26 31
REMARK Flexibility Score: inf
ROOT
ATOM      1  C   UNL     1      17.771  19.946  10.371  1.00  0.00     0.014 C 
ENDROOT
BRANCH   1   2
ATOM      2  C   UNL     1      19.251  19.504  10.544  1.00  0.00     0.042 C 
BRANCH   2   3
ATOM      3  C   UNL     1      20.194  20.160   9.554  1.00  0.00     0.045 C 
ATOM      4  O   UNL     1      21.262  20.709   9.930  1.00  0.00    -0.550 OA
ATOM      5  O   UNL     1      19.890  20.140   8.198  1.00  0.00    -0.550 OA
ENDBRANCH   2   3
BRANCH   2   6
ATOM      6  C   UNL     1      19.403  17.941  10.654  1.00  0.00     0.033 C 
ATOM      7  C   UNL     1      20.809  17.444  10.344  1.00  0.00     0.119 C 
ATOM      8  C   UNL     1      18.462  16.956   9.866  1.00  0.00    -0.017 C 
ATOM      9  C   UNL     1      20.679  15.937  10.426  1.00  0.00     0.043 C 
ATOM     10  C   UNL     1      19.289  15.574   9.829  1.00  0.00    -0.003 C 
ATOM     11  C   UNL     1      17.105  16.790  10.609  1.00  0.00     0.012 C 
ATOM     12  C   UNL     1      18.153  17.511   8.444  1.00  0.00     0.013 C 
ATOM     13  C   UNL     1      19.509  15.007   8.398  1.00  0.00     0.017 C 
ATOM     14  C   UNL     1      18.644  14.419  10.647  1.00  0.00    -0.064 C 
ATOM     15  C   UNL     1      16.457  15.461  10.250  1.00  0.00     0.032 C 
ATOM     16  C   UNL     1      17.294  14.330  10.813  1.00  0.00    -0.064 C 
ATOM     17  C   UNL     1      19.533  13.306  11.146  1.00  0.00     0.032 C 
ATOM     18  C   UNL     1      16.581  13.099  11.458  1.00  0.00    -0.008 C 
ATOM     19  C   UNL     1      18.841  11.959  11.056  1.00  0.00     0.009 C 
ATOM     20  C   UNL     1      17.584  11.963  11.957  1.00  0.00     0.007 C 
ATOM     21  C   UNL     1      15.630  12.539  10.362  1.00  0.00     0.014 C 
ATOM     22  C   UNL     1      15.775  13.640  12.670  1.00  0.00     0.016 C 
ATOM     23  C   UNL     1      16.957  10.501  12.161  1.00  0.00    -0.006 C 
ATOM     24  C   UNL     1      14.961  11.219  10.720  1.00  0.00     0.033 C 
ATOM     25  C   UNL     1      16.007  10.133  10.984  1.00  0.00     0.120 C 
ATOM     26  C   UNL     1      16.204  10.391  13.525  1.00  0.00     0.014 C 
ATOM     27  C   UNL     1      18.065   9.407  12.222  1.00  0.00     0.014 C 
BRANCH   7  28
ATOM     28  O   UNL     1      21.734  17.927  11.284  1.00  0.00    -0.393 OA
ATOM     29  H   UNL     1      22.288  18.602  10.811  1.00  0.00     0.210 HD
ENDBRANCH   7  28
BRANCH  25  30
ATOM     30  O   UNL     1      15.355   8.914  11.245  1.00  0.00    -0.393 OA
ATOM     31  H   UNL     1      15.136   8.900  12.213  1.00  0.00     0.210 HD
ENDBRANCH  25  30
ENDBRANCH   2   6
ENDBRANCH   1   2
BRANCH   1  32
ATOM     32  C   UNL     1      17.485  21.398  10.810  1.00  0.00     0.031 C 
BRANCH  32  33
ATOM     33  C   UNL     1      17.002  22.312   9.700  1.00  0.00    -0.075 C 
ATOM     34  C   UNL     1      15.726  22.226   9.282  1.00  0.00     0.008 C 
BRANCH  33  35
ATOM     35  C   UNL     1      17.917  23.419   9.183  1.00  0.00     0.008 C 
ATOM     36  C   UNL     1      17.139  24.699   8.860  1.00  0.00     0.012 C 
ATOM     37  C   UNL     1      19.054  23.704  10.172  1.00  0.00     0.012 C 
ENDBRANCH  33  35
ENDBRANCH  32  33
ENDBRANCH   1  32
TORSDOF 8
ENDMDL
MODEL 4
REMARK VINA RESULT:    -7.451      1.114      1.634
REMARK INTER + INTRA:         -11.762
REMARK INTER:                 -10.845
REMARK INTRA:                  -0.917
REMARK UNBOUND:                -1.262
REMARK SMILES C=C(CC[C@H](C(=O)[O-])[C@@H]1[C@@H](O)C[C@@]2(C)C3=C(CC[C@@]12C)[C@@]1(C)CC[C@H](O)C(C)(C)[C@H]1CC3)C(C)C
REMARK SMILES IDX 4 1 5 2 6 3 7 4 8 5 9 6 10 7 19 8 12 9 13 10 18 11 20 12
REMARK SMILES IDX 14 13 15 14 17 15 16 16 32 17 21 18 31 19 30 20 23 21 22 22
REMARK SMILES IDX 27 23 24 24 25 25 28 26 29 27 11 28 26 30 3 32 2 33 1 34
REMARK SMILES IDX 33 35 34 36 35 37
REMARK H PARENT 11 29 26 31
REMARK Flexibility Score: inf
ROOT
ATOM      1  C   UNL     1      19.513  20.358   9.906  1.00  0.00     0.014 C 
ENDROOT
BRANCH   1   2
ATOM      2  C   UNL     1      18.434  19.396   9.332  1.00  0.00     0.042 C 
BRANCH   2   3
ATOM      3  C   UNL     1      17.216  20.116   8.788  1.00  0.00     0.045 C 
ATOM      4  O   UNL     1      16.659  19.749   7.720  1.00  0.00    -0.550 OA
ATOM      5  O   UNL     1      16.684  21.193   9.487  1.00  0.00    -0.550 OA
ENDBRANCH   2   3
BRANCH   2   6
ATOM      6  C   UNL     1      18.107  18.207  10.311  1.00  0.00     0.033 C 
ATOM      7  C   UNL     1      17.886  18.650  11.752  1.00  0.00     0.119 C 
ATOM      8  C   UNL     1      19.041  16.947  10.431  1.00  0.00    -0.017 C 
ATOM      9  C   UNL     1      17.682  17.346  12.495  1.00  0.00     0.043 C 
ATOM     10  C   UNL     1      18.652  16.310  11.859  1.00  0.00    -0.003 C 
ATOM     11  C   UNL     1      18.764  15.952   9.268  1.00  0.00     0.012 C 
ATOM     12  C   UNL     1      20.539  17.364  10.346  1.00  0.00     0.013 C 
ATOM     13  C   UNL     1      19.861  16.125  12.819  1.00  0.00     0.017 C 
ATOM     14  C   UNL     1      17.963  14.918  11.774  1.00  0.00    -0.064 C 
ATOM     15  C   UNL     1      19.163  14.539   9.665  1.00  0.00     0.032 C 
ATOM     16  C   UNL     1      18.235  14.048  10.760  1.00  0.00    -0.064 C 
ATOM     17  C   UNL     1      17.081  14.479  12.918  1.00  0.00     0.032 C 
ATOM     18  C   UNL     1      17.722  12.574  10.725  1.00  0.00    -0.008 C 
ATOM     19  C   UNL     1      17.239  12.998  13.205  1.00  0.00     0.009 C 
ATOM     20  C   UNL     1      16.801  12.182  11.966  1.00  0.00     0.007 C 
ATOM     21  C   UNL     1      18.998  11.683  10.693  1.00  0.00     0.014 C 
ATOM     22  C   UNL     1      16.907  12.421   9.412  1.00  0.00     0.016 C 
ATOM     23  C   UNL     1      16.649  10.615  12.272  1.00  0.00    -0.006 C 
ATOM     24  C   UNL     1      18.730  10.191  10.836  1.00  0.00     0.033 C 
ATOM     25  C   UNL     1      18.020   9.890  12.158  1.00  0.00     0.120 C 
ATOM     26  C   UNL     1      15.599   9.952  11.325  1.00  0.00     0.014 C 
ATOM     27  C   UNL     1      16.109  10.364  13.712  1.00  0.00     0.014 C 
BRANCH   7  28
ATOM     28  O   UNL     1      16.757  19.478  11.858  1.00  0.00    -0.393 OA
ATOM     29  H   UNL     1      16.365  19.304  12.755  1.00  0.00     0.210 HD
ENDBRANCH   7  28
BRANCH  25  30
ATOM     30  O   UNL     1      17.850   8.499  12.287  1.00  0.00    -0.393 OA
ATOM     31  H   UNL     1      18.644   8.149  12.767  1.00  0.00     0.210 HD
ENDBRANCH  25  30
ENDBRANCH   2   6
ENDBRANCH   1   2
BRANCH   1  32
ATOM     32  C   UNL     1      20.464  20.952   8.847  1.00  0.00     0.031 C 
BRANCH  32  33
ATOM     33  C   UNL     1      20.423  22.464   8.734  1.00  0.00    -0.075 C 
ATOM     34  C   UNL     1      21.094  23.069   7.737  1.00  0.00     0.008 C 
BRANCH  33  35
ATOM     35  C   UNL     1      19.501  23.263   9.650  1.00  0.00     0.008 C 
ATOM     36  C   UNL     1      20.261  23.873  10.834  1.00  0.00     0.012 C 
ATOM     37  C   UNL     1      18.746  24.346   8.869  1.00  0.00     0.012 C 
ENDBRANCH  33  35
ENDBRANCH  32  33
ENDBRANCH   1  32
TORSDOF 8
ENDMDL
MODEL 5
REMARK VINA RESULT:    -7.280      2.373      9.639
REMARK INTER + INTRA:         -11.521
REMARK INTER:                 -10.657
REMARK INTRA:                  -0.865
REMARK UNBOUND:                -1.262
REMARK SMILES C=C(CC[C@H](C(=O)[O-])[C@@H]1[C@@H](O)C[C@@]2(C)C3=C(CC[C@@]12C)[C@@]1(C)CC[C@H](O)C(C)(C)[C@H]1CC3)C(C)C
REMARK SMILES IDX 4 1 5 2 6 3 7 4 8 5 9 6 10 7 19 8 12 9 13 10 18 11 20 12
REMARK SMILES IDX 14 13 15 14 17 15 16 16 32 17 21 18 31 19 30 20 23 21 22 22
REMARK SMILES IDX 27 23 24 24 25 25 28 26 29 27 11 28 26 30 3 32 2 33 1 34
REMARK SMILES IDX 33 35 34 36 35 37
REMARK H PARENT 11 29 26 31
REMARK Flexibility Score: inf
ROOT
ATOM      1  C   UNL     1      18.239  13.607  11.389  1.00  0.00     0.014 C 
ENDROOT
BRANCH   1   2
ATOM      2  C   UNL     1      19.098  14.778  11.944  1.00  0.00     0.042 C 
BRANCH   2   3
ATOM      3  C   UNL     1      19.316  14.705  13.443  1.00  0.00     0.045 C 
ATOM      4  O   UNL     1      20.387  15.104  13.970  1.00  0.00    -0.550 OA
ATOM      5  O   UNL     1      18.309  14.207  14.261  1.00  0.00    -0.550 OA
ENDBRANCH   2   3
BRANCH   2   6
ATOM      6  C   UNL     1      18.612  16.181  11.422  1.00  0.00     0.033 C 
ATOM      7  C   UNL     1      17.099  16.282  11.273  1.00  0.00     0.119 C 
ATOM      8  C   UNL     1      19.175  16.817  10.098  1.00  0.00    -0.017 C 
ATOM      9  C   UNL     1      16.892  17.662  10.685  1.00  0.00     0.043 C 
ATOM     10  C   UNL     1      18.058  17.902   9.682  1.00  0.00    -0.003 C 
ATOM     11  C   UNL     1      20.553  17.489  10.360  1.00  0.00     0.012 C 
ATOM     12  C   UNL     1      19.386  15.723   9.009  1.00  0.00     0.013 C 
ATOM     13  C   UNL     1      17.503  17.717   8.241  1.00  0.00     0.017 C 
ATOM     14  C   UNL     1      18.536  19.379   9.765  1.00  0.00    -0.064 C 
ATOM     15  C   UNL     1      20.820  18.583   9.337  1.00  0.00     0.032 C 
ATOM     16  C   UNL     1      19.840  19.719   9.555  1.00  0.00    -0.064 C 
ATOM     17  C   UNL     1      17.502  20.463   9.946  1.00  0.00     0.032 C 
ATOM     18  C   UNL     1      20.341  21.194   9.438  1.00  0.00    -0.008 C 
ATOM     19  C   UNL     1      17.846  21.701   9.141  1.00  0.00     0.009 C 
ATOM     20  C   UNL     1      19.191  22.282   9.637  1.00  0.00     0.007 C 
ATOM     21  C   UNL     1      20.965  21.317   8.018  1.00  0.00     0.014 C 
ATOM     22  C   UNL     1      21.421  21.382  10.538  1.00  0.00     0.016 C 
ATOM     23  C   UNL     1      19.491  23.747   9.057  1.00  0.00    -0.006 C 
ATOM     24  C   UNL     1      21.360  22.734   7.623  1.00  0.00     0.033 C 
ATOM     25  C   UNL     1      20.145  23.664   7.647  1.00  0.00     0.120 C 
ATOM     26  C   UNL     1      20.394  24.569  10.031  1.00  0.00     0.014 C 
ATOM     27  C   UNL     1      18.185  24.583   8.914  1.00  0.00     0.014 C 
BRANCH   7  28
ATOM     28  O   UNL     1      16.460  16.160  12.518  1.00  0.00    -0.393 OA
ATOM     29  H   UNL     1      15.776  15.447  12.412  1.00  0.00     0.210 HD
ENDBRANCH   7  28
BRANCH  25  30
ATOM     30  O   UNL     1      20.534  24.945   7.213  1.00  0.00    -0.393 OA
ATOM     31  H   UNL     1      20.285  25.586   7.929  1.00  0.00     0.210 HD
ENDBRANCH  25  30
ENDBRANCH   2   6
ENDBRANCH   1   2
BRANCH   1  32
ATOM     32  C   UNL     1      18.967  12.248  11.345  1.00  0.00     0.031 C 
BRANCH  32  33
ATOM     33  C   UNL     1      18.068  11.040  11.530  1.00  0.00    -0.075 C 
ATOM     34  C   UNL     1      17.313  10.943  12.639  1.00  0.00     0.008 C 
BRANCH  33  35
ATOM     35  C   UNL     1      17.914  10.034  10.392  1.00  0.00     0.008 C 
ATOM     36  C   UNL     1      19.059   9.015  10.373  1.00  0.00     0.012 C 
ATOM     37  C   UNL     1      16.554   9.327  10.458  1.00  0.00     0.012 C 
ENDBRANCH  33  35
ENDBRANCH  32  33
ENDBRANCH   1  32
TORSDOF 8
ENDMDL
MODEL 6
REMARK VINA RESULT:    -7.031     13.958     16.785
REMARK INTER + INTRA:         -11.170
REMARK INTER:                  -9.398
REMARK INTRA:                  -1.772
REMARK UNBOUND:                -1.262
REMARK SMILES C=C(CC[C@H](C(=O)[O-])[C@@H]1[C@@H](O)C[C@@]2(C)C3=C(CC[C@@]12C)[C@@]1(C)CC[C@H](O)C(C)(C)[C@H]1CC3)C(C)C
REMARK SMILES IDX 4 1 5 2 6 3 7 4 8 5 9 6 10 7 19 8 12 9 13 10 18 11 20 12
REMARK SMILES IDX 14 13 15 14 17 15 16 16 32 17 21 18 31 19 30 20 23 21 22 22
REMARK SMILES IDX 27 23 24 24 25 25 28 26 29 27 11 28 26 30 3 32 2 33 1 34
REMARK SMILES IDX 33 35 34 36 35 37
REMARK H PARENT 11 29 26 31
REMARK Flexibility Score: inf
ROOT
ATOM      1  C   UNL     1       7.511  16.412  19.037  1.00  0.00     0.014 C 
ENDROOT
BRANCH   1   2
ATOM      2  C   UNL     1       7.948  15.461  20.187  1.00  0.00     0.042 C 
BRANCH   2   3
ATOM      3  C   UNL     1       9.437  15.175  20.197  1.00  0.00     0.045 C 
ATOM      4  O   UNL     1      10.134  15.362  21.228  1.00  0.00    -0.550 OA
ATOM      5  O   UNL     1      10.049  14.677  19.053  1.00  0.00    -0.550 OA
ENDBRANCH   2   3
BRANCH   2   6
ATOM      6  C   UNL     1       7.036  14.182  20.288  1.00  0.00     0.033 C 
ATOM      7  C   UNL     1       6.433  13.759  18.954  1.00  0.00     0.119 C 
ATOM      8  C   UNL     1       5.836  14.093  21.302  1.00  0.00    -0.017 C 
ATOM      9  C   UNL     1       5.546  12.588  19.322  1.00  0.00     0.043 C 
ATOM     10  C   UNL     1       4.902  12.927  20.698  1.00  0.00    -0.003 C 
ATOM     11  C   UNL     1       6.352  13.732  22.725  1.00  0.00     0.012 C 
ATOM     12  C   UNL     1       5.100  15.462  21.402  1.00  0.00     0.013 C 
ATOM     13  C   UNL     1       3.430  13.361  20.450  1.00  0.00     0.017 C 
ATOM     14  C   UNL     1       4.825  11.647  21.578  1.00  0.00    -0.064 C 
ATOM     15  C   UNL     1       5.254  13.063  23.538  1.00  0.00     0.032 C 
ATOM     16  C   UNL     1       4.943  11.707  22.935  1.00  0.00    -0.064 C 
ATOM     17  C   UNL     1       4.474  10.337  20.916  1.00  0.00     0.032 C 
ATOM     18  C   UNL     1       4.685  10.491  23.880  1.00  0.00    -0.008 C 
ATOM     19  C   UNL     1       3.574   9.492  21.798  1.00  0.00     0.009 C 
ATOM     20  C   UNL     1       4.316   9.144  23.110  1.00  0.00     0.007 C 
ATOM     21  C   UNL     1       3.517  10.921  24.813  1.00  0.00     0.014 C 
ATOM     22  C   UNL     1       5.993  10.277  24.691  1.00  0.00     0.016 C 
ATOM     23  C   UNL     1       3.568   8.016  23.970  1.00  0.00    -0.006 C 
ATOM     24  C   UNL     1       2.979   9.809  25.705  1.00  0.00     0.033 C 
ATOM     25  C   UNL     1       2.459   8.641  24.864  1.00  0.00     0.120 C 
ATOM     26  C   UNL     1       4.579   7.203  24.840  1.00  0.00     0.014 C 
ATOM     27  C   UNL     1       2.884   6.958  23.053  1.00  0.00     0.014 C 
BRANCH   7  28
ATOM     28  O   UNL     1       7.434  13.374  18.048  1.00  0.00    -0.393 OA
ATOM     29  H   UNL     1       8.195  13.997  18.189  1.00  0.00     0.210 HD
ENDBRANCH   7  28
BRANCH  25  30
ATOM     30  O   UNL     1       1.910   7.664  25.717  1.00  0.00    -0.393 OA
ATOM     31  H   UNL     1       2.184   6.779  25.363  1.00  0.00     0.210 HD
ENDBRANCH  25  30
ENDBRANCH   2   6
ENDBRANCH   1   2
BRANCH   1  32
ATOM     32  C   UNL     1       7.934  17.883  19.232  1.00  0.00     0.031 C 
BRANCH  32  33
ATOM     33  C   UNL     1       7.207  18.610  20.348  1.00  0.00    -0.075 C 
ATOM     34  C   UNL     1       5.896  18.884  20.212  1.00  0.00     0.008 C 
BRANCH  33  35
ATOM     35  C   UNL     1       7.927  18.880  21.666  1.00  0.00     0.008 C 
ATOM     36  C   UNL     1       7.516  17.882  22.755  1.00  0.00     0.012 C 
ATOM     37  C   UNL     1       9.449  18.885  21.475  1.00  0.00     0.012 C 
ENDBRANCH  33  35
ENDBRANCH  32  33
ENDBRANCH   1  32
TORSDOF 8
ENDMDL
MODEL 7
REMARK VINA RESULT:    -7.019      5.582      8.997
REMARK INTER + INTRA:         -11.153
REMARK INTER:                  -9.932
REMARK INTRA:                  -1.221
REMARK UNBOUND:                -1.262
REMARK SMILES C=C(CC[C@H](C(=O)[O-])[C@@H]1[C@@H](O)C[C@@]2(C)C3=C(CC[C@@]12C)[C@@]1(C)CC[C@H](O)C(C)(C)[C@H]1CC3)C(C)C
REMARK SMILES IDX 4 1 5 2 6 3 7 4 8 5 9 6 10 7 19 8 12 9 13 10 18 11 20 12
REMARK SMILES IDX 14 13 15 14 17 15 16 16 32 17 21 18 31 19 30 20 23 21 22 22
REMARK SMILES IDX 27 23 24 24 25 25 28 26 29 27 11 28 26 30 3 32 2 33 1 34
REMARK SMILES IDX 33 35 34 36 35 37
REMARK H PARENT 11 29 26 31
REMARK Flexibility Score: inf
ROOT
ATOM      1  C   UNL     1      11.613  17.443  18.406  1.00  0.00     0.014 C 
ENDROOT
BRANCH   1   2
ATOM      2  C   UNL     1      12.022  16.326  17.405  1.00  0.00     0.042 C 
BRANCH   2   3
ATOM      3  C   UNL     1      11.817  14.926  17.951  1.00  0.00     0.045 C 
ATOM      4  O   UNL     1      12.617  14.423  18.781  1.00  0.00    -0.550 OA
ATOM      5  O   UNL     1      10.714  14.184  17.545  1.00  0.00    -0.550 OA
ENDBRANCH   2   3
BRANCH   2   6
ATOM      6  C   UNL     1      13.439  16.578  16.768  1.00  0.00     0.033 C 
ATOM      7  C   UNL     1      14.348  17.443  17.633  1.00  0.00     0.119 C 
ATOM      8  C   UNL     1      13.608  17.167  15.319  1.00  0.00    -0.017 C 
ATOM      9  C   UNL     1      15.590  17.612  16.783  1.00  0.00     0.043 C 
ATOM     10  C   UNL     1      15.110  17.752  15.309  1.00  0.00    -0.003 C 
ATOM     11  C   UNL     1      13.423  16.049  14.253  1.00  0.00     0.012 C 
ATOM     12  C   UNL     1      12.535  18.261  15.043  1.00  0.00     0.013 C 
ATOM     13  C   UNL     1      15.201  19.251  14.910  1.00  0.00     0.017 C 
ATOM     14  C   UNL     1      16.084  17.000  14.358  1.00  0.00    -0.064 C 
ATOM     15  C   UNL     1      14.149  16.412  12.966  1.00  0.00     0.032 C 
ATOM     16  C   UNL     1      15.644  16.400  13.216  1.00  0.00    -0.064 C 
ATOM     17  C   UNL     1      17.564  17.061  14.648  1.00  0.00     0.032 C 
ATOM     18  C   UNL     1      16.596  15.798  12.134  1.00  0.00    -0.008 C 
ATOM     19  C   UNL     1      18.376  17.165  13.371  1.00  0.00     0.009 C 
ATOM     20  C   UNL     1      18.143  15.903  12.507  1.00  0.00     0.007 C 
ATOM     21  C   UNL     1      16.299  16.585  10.825  1.00  0.00     0.014 C 
ATOM     22  C   UNL     1      16.204  14.303  11.983  1.00  0.00     0.016 C 
ATOM     23  C   UNL     1      19.178  15.781  11.288  1.00  0.00    -0.006 C 
ATOM     24  C   UNL     1      17.249  16.280   9.675  1.00  0.00     0.033 C 
ATOM     25  C   UNL     1      18.694  16.606  10.061  1.00  0.00     0.120 C 
ATOM     26  C   UNL     1      19.409  14.289  10.887  1.00  0.00     0.014 C 
ATOM     27  C   UNL     1      20.588  16.316  11.679  1.00  0.00     0.014 C 
BRANCH   7  28
ATOM     28  O   UNL     1      14.646  16.804  18.847  1.00  0.00    -0.393 OA
ATOM     29  H   UNL     1      13.948  16.110  18.978  1.00  0.00     0.210 HD
ENDBRANCH   7  28
BRANCH  25  30
ATOM     30  O   UNL     1      19.532  16.375   8.955  1.00  0.00    -0.393 OA
ATOM     31  H   UNL     1      19.023  16.630   8.142  1.00  0.00     0.210 HD
ENDBRANCH  25  30
ENDBRANCH   2   6
ENDBRANCH   1   2
BRANCH   1  32
ATOM     32  C   UNL     1      10.196  17.285  18.994  1.00  0.00     0.031 C 
BRANCH  32  33
ATOM     33  C   UNL     1      10.104  17.487  20.494  1.00  0.00    -0.075 C 
ATOM     34  C   UNL     1       9.827  18.711  20.979  1.00  0.00     0.008 C 
BRANCH  33  35
ATOM     35  C   UNL     1      10.170  16.278  21.423  1.00  0.00     0.008 C 
ATOM     36  C   UNL     1       9.500  15.046  20.804  1.00  0.00     0.012 C 
ATOM     37  C   UNL     1      11.616  15.969  21.828  1.00  0.00     0.012 C 
ENDBRANCH  33  35
ENDBRANCH  32  33
ENDBRANCH   1  32
TORSDOF 8
ENDMDL
MODEL 8
REMARK VINA RESULT:    -6.632     13.109     16.812
REMARK INTER + INTRA:         -10.607
REMARK INTER:                  -9.646
REMARK INTRA:                  -0.962
REMARK UNBOUND:                -1.262
REMARK SMILES C=C(CC[C@H](C(=O)[O-])[C@@H]1[C@@H](O)C[C@@]2(C)C3=C(CC[C@@]12C)[C@@]1(C)CC[C@H](O)C(C)(C)[C@H]1CC3)C(C)C
REMARK SMILES IDX 4 1 5 2 6 3 7 4 8 5 9 6 10 7 19 8 12 9 13 10 18 11 20 12
REMARK SMILES IDX 14 13 15 14 17 15 16 16 32 17 21 18 31 19 30 20 23 21 22 22
REMARK SMILES IDX 27 23 24 24 25 25 28 26 29 27 11 28 26 30 3 32 2 33 1 34
REMARK SMILES IDX 33 35 34 36 35 37
REMARK H PARENT 11 29 26 31
REMARK Flexibility Score: inf
ROOT
ATOM      1  C   UNL     1       3.662  13.146  23.730  1.00  0.00     0.014 C 
ENDROOT
BRANCH   1   2
ATOM      2  C   UNL     1       4.169  14.435  24.436  1.00  0.00     0.042 C 
BRANCH   2   3
ATOM      3  C   UNL     1       3.050  15.351  24.892  1.00  0.00     0.045 C 
ATOM      4  O   UNL     1       2.026  15.537  24.186  1.00  0.00    -0.550 OA
ATOM      5  O   UNL     1       3.141  15.986  26.125  1.00  0.00    -0.550 OA
ENDBRANCH   2   3
BRANCH   2   6
ATOM      6  C   UNL     1       5.312  15.154  23.626  1.00  0.00     0.033 C 
ATOM      7  C   UNL     1       5.552  16.594  24.062  1.00  0.00     0.119 C 
ATOM      8  C   UNL     1       5.302  15.222  22.054  1.00  0.00    -0.017 C 
ATOM      9  C   UNL     1       6.610  17.085  23.096  1.00  0.00     0.043 C 
ATOM     10  C   UNL     1       6.281  16.455  21.712  1.00  0.00    -0.003 C 
ATOM     11  C   UNL     1       5.830  13.889  21.449  1.00  0.00     0.012 C 
ATOM     12  C   UNL     1       3.854  15.437  21.523  1.00  0.00     0.013 C 
ATOM     13  C   UNL     1       5.628  17.552  20.823  1.00  0.00     0.017 C 
ATOM     14  C   UNL     1       7.595  16.049  20.986  1.00  0.00    -0.064 C 
ATOM     15  C   UNL     1       6.393  14.120  20.055  1.00  0.00     0.032 C 
ATOM     16  C   UNL     1       7.647  14.967  20.158  1.00  0.00    -0.064 C 
ATOM     17  C   UNL     1       8.794  16.958  21.103  1.00  0.00     0.032 C 
ATOM     18  C   UNL     1       8.878  14.624  19.260  1.00  0.00    -0.008 C 
ATOM     19  C   UNL     1       9.563  17.034  19.798  1.00  0.00     0.009 C 
ATOM     20  C   UNL     1      10.103  15.630  19.435  1.00  0.00     0.007 C 
ATOM     21  C   UNL     1       8.355  14.654  17.796  1.00  0.00     0.014 C 
ATOM     22  C   UNL     1       9.329  13.192  19.659  1.00  0.00     0.016 C 
ATOM     23  C   UNL     1      11.172  15.662  18.240  1.00  0.00    -0.006 C 
ATOM     24  C   UNL     1       9.439  14.520  16.735  1.00  0.00     0.033 C 
ATOM     25  C   UNL     1      10.461  15.652  16.856  1.00  0.00     0.120 C 
ATOM     26  C   UNL     1      12.177  14.471  18.347  1.00  0.00     0.014 C 
ATOM     27  C   UNL     1      12.057  16.943  18.299  1.00  0.00     0.014 C 
BRANCH   7  28
ATOM     28  O   UNL     1       6.009  16.650  25.389  1.00  0.00    -0.393 OA
ATOM     29  H   UNL     1       5.329  16.180  25.940  1.00  0.00     0.210 HD
ENDBRANCH   7  28
BRANCH  25  30
ATOM     30  O   UNL     1      11.408  15.535  15.821  1.00  0.00    -0.393 OA
ATOM     31  H   UNL     1      12.130  14.939  16.150  1.00  0.00     0.210 HD
ENDBRANCH  25  30
ENDBRANCH   2   6
ENDBRANCH   1   2
BRANCH   1  32
ATOM     32  C   UNL     1       4.108  11.833  24.406  1.00  0.00     0.031 C 
BRANCH  32  33
ATOM     33  C   UNL     1       5.087  11.004  23.597  1.00  0.00    -0.075 C 
ATOM     34  C   UNL     1       6.406  11.118  23.838  1.00  0.00     0.008 C 
BRANCH  33  35
ATOM     35  C   UNL     1       4.561   9.942  22.635  1.00  0.00     0.008 C 
ATOM     36  C   UNL     1       3.132   9.512  22.986  1.00  0.00     0.012 C 
ATOM     37  C   UNL     1       4.646  10.421  21.180  1.00  0.00     0.012 C 
ENDBRANCH  33  35
ENDBRANCH  32  33
ENDBRANCH   1  32
TORSDOF 8
ENDMDL
