MODEL 1
REMARK VINA RESULT:    12.716      0.000      0.000
REMARK INTER + INTRA:          16.573
REMARK INTER:                  16.061
REMARK INTRA:                   0.513
REMARK UNBOUND:                 0.513
REMARK SMILES CC(C)[C@@H](C)C=C[C@H](C)[C@H]1CC[C@H]2C3=CC=C4C[C@@H](O)CC[C@@]4(C)[C@@H]3CC[C@@]12C
REMARK SMILES IDX 8 1 9 2 7 3 6 4 4 5 5 6 2 7 1 8 3 9 10 10 11 11 28 12 12 13
REMARK SMILES IDX 13 14 27 15 29 16 14 17 26 18 25 19 15 20 23 21 16 22 17 23
REMARK SMILES IDX 22 24 24 25 18 26 21 27 19 28 20 29
REMARK H PARENT 20 30
REMARK Flexibility Score: inf
ROOT
ATOM      1  C   UNL     1     135.115 134.718 138.384  1.00  0.00     0.012 C 
ATOM      2  C   UNL     1     134.488 136.125 138.477  1.00  0.00     0.012 C 
ENDROOT
BRANCH   1   3
ATOM      3  C   UNL     1     135.168 134.133 139.787  1.00  0.00    -0.028 C 
ATOM      4  C   UNL     1     136.284 133.893 140.501  1.00  0.00    -0.028 C 
BRANCH   4   5
ATOM      5  C   UNL     1     137.709 134.127 140.023  1.00  0.00     0.011 C 
ATOM      6  C   UNL     1     137.874 133.563 138.602  1.00  0.00     0.012 C 
BRANCH   5   7
ATOM      7  C   UNL     1     138.778 133.564 141.012  1.00  0.00    -0.011 C 
ATOM      8  C   UNL     1     139.935 134.535 141.315  1.00  0.00     0.008 C 
ATOM      9  C   UNL     1     139.333 132.218 140.522  1.00  0.00     0.008 C 
ENDBRANCH   5   7
ENDBRANCH   4   5
ENDBRANCH   1   3
BRANCH   1  10
ATOM     10  C   UNL     1     134.397 133.695 137.424  1.00  0.00     0.002 C 
ATOM     11  C   UNL     1     135.242 132.517 136.903  1.00  0.00     0.005 C 
ATOM     12  C   UNL     1     133.041 133.060 137.853  1.00  0.00    -0.023 C 
ATOM     13  C   UNL     1     134.249 131.494 136.356  1.00  0.00     0.009 C 
ATOM     14  C   UNL     1     132.847 131.991 136.740  1.00  0.00     0.021 C 
ATOM     15  C   UNL     1     133.105 132.410 139.275  1.00  0.00     0.008 C 
ATOM     16  C   UNL     1     131.895 134.102 137.808  1.00  0.00     0.012 C 
ATOM     17  C   UNL     1     131.898 130.880 137.154  1.00  0.00    -0.063 C 
ATOM     18  C   UNL     1     132.039 131.326 139.537  1.00  0.00     0.009 C 
ATOM     19  C   UNL     1     132.142 130.202 138.485  1.00  0.00     0.025 C 
ATOM     20  C   UNL     1     130.698 130.798 136.570  1.00  0.00    -0.000 C 
ATOM     21  C   UNL     1     131.237 128.919 138.724  1.00  0.00    -0.005 C 
ATOM     22  C   UNL     1     129.646 129.911 137.071  1.00  0.00    -0.000 C 
ATOM     23  C   UNL     1     129.861 129.044 138.073  1.00  0.00    -0.061 C 
ATOM     24  C   UNL     1     131.913 127.689 138.044  1.00  0.00     0.014 C 
ATOM     25  C   UNL     1     131.095 128.642 140.250  1.00  0.00     0.017 C 
ATOM     26  C   UNL     1     128.928 127.863 138.197  1.00  0.00     0.063 C 
ATOM     27  C   UNL     1     131.051 126.400 138.068  1.00  0.00     0.033 C 
ATOM     28  C   UNL     1     129.593 126.610 137.583  1.00  0.00     0.118 C 
BRANCH  28  29
ATOM     29  O   UNL     1     129.524 126.634 136.180  1.00  0.00    -0.393 OA
ATOM     30  H   UNL     1     130.418 126.391 135.824  1.00  0.00     0.210 HD
ENDBRANCH  28  29
ENDBRANCH   1  10
TORSDOF 5
ENDMDL
MODEL 2
REMARK VINA RESULT:    14.848      2.675      7.676
REMARK INTER + INTRA:          19.267
REMARK INTER:                  16.753
REMARK INTRA:                   2.514
REMARK UNBOUND:                 0.513
REMARK SMILES CC(C)[C@@H](C)C=C[C@H](C)[C@H]1CC[C@H]2C3=CC=C4C[C@@H](O)CC[C@@]4(C)[C@@H]3CC[C@@]12C
REMARK SMILES IDX 8 1 9 2 7 3 6 4 4 5 5 6 2 7 1 8 3 9 10 10 11 11 28 12 12 13
REMARK SMILES IDX 13 14 27 15 29 16 14 17 26 18 25 19 15 20 23 21 16 22 17 23
REMARK SMILES IDX 22 24 24 25 18 26 21 27 19 28 20 29
REMARK H PARENT 20 30
REMARK Flexibility Score: inf
ROOT
ATOM      1  C   UNL     1     130.497 127.522 136.855  1.00  0.00     0.012 C 
ATOM      2  C   UNL     1     131.857 126.949 136.402  1.00  0.00     0.012 C 
ENDROOT
BRANCH   1   3
ATOM      3  C   UNL     1     129.772 126.442 137.643  1.00  0.00    -0.028 C 
ATOM      4  C   UNL     1     130.175 125.911 138.813  1.00  0.00    -0.028 C 
BRANCH   4   5
ATOM      5  C   UNL     1     131.457 126.265 139.551  1.00  0.00     0.011 C 
ATOM      6  C   UNL     1     132.642 125.528 138.905  1.00  0.00     0.012 C 
BRANCH   5   7
ATOM      7  C   UNL     1     131.362 126.004 141.086  1.00  0.00    -0.011 C 
ATOM      8  C   UNL     1     131.356 127.281 141.949  1.00  0.00     0.008 C 
ATOM      9  C   UNL     1     132.474 125.054 141.558  1.00  0.00     0.008 C 
ENDBRANCH   5   7
ENDBRANCH   4   5
ENDBRANCH   1   3
BRANCH   1  10
ATOM     10  C   UNL     1     130.547 128.843 137.713  1.00  0.00     0.002 C 
ATOM     11  C   UNL     1     131.093 128.721 139.148  1.00  0.00     0.005 C 
ATOM     12  C   UNL     1     131.227 130.115 137.128  1.00  0.00    -0.023 C 
ATOM     13  C   UNL     1     131.409 130.145 139.601  1.00  0.00     0.009 C 
ATOM     14  C   UNL     1     131.233 131.049 138.372  1.00  0.00     0.021 C 
ATOM     15  C   UNL     1     132.676 129.836 136.607  1.00  0.00     0.008 C 
ATOM     16  C   UNL     1     130.375 130.733 135.991  1.00  0.00     0.012 C 
ATOM     17  C   UNL     1     132.273 132.151 138.272  1.00  0.00    -0.063 C 
ATOM     18  C   UNL     1     133.585 131.080 136.532  1.00  0.00     0.009 C 
ATOM     19  C   UNL     1     133.690 131.757 137.915  1.00  0.00     0.025 C 
ATOM     20  C   UNL     1     131.867 133.415 138.105  1.00  0.00    -0.000 C 
ATOM     21  C   UNL     1     134.736 132.943 138.049  1.00  0.00    -0.005 C 
ATOM     22  C   UNL     1     132.797 134.495 137.768  1.00  0.00    -0.000 C 
ATOM     23  C   UNL     1     134.125 134.304 137.720  1.00  0.00    -0.061 C 
ATOM     24  C   UNL     1     135.203 133.041 139.534  1.00  0.00     0.014 C 
ATOM     25  C   UNL     1     135.973 132.669 137.143  1.00  0.00     0.017 C 
ATOM     26  C   UNL     1     135.017 135.514 137.857  1.00  0.00     0.063 C 
ATOM     27  C   UNL     1     136.110 134.262 139.833  1.00  0.00     0.033 C 
ATOM     28  C   UNL     1     135.546 135.608 139.306  1.00  0.00     0.118 C 
BRANCH  28  29
ATOM     29  O   UNL     1     134.566 136.119 140.173  1.00  0.00    -0.393 OA
ATOM     30  H   UNL     1     133.888 136.594 139.626  1.00  0.00     0.210 HD
ENDBRANCH  28  29
ENDBRANCH   1  10
TORSDOF 5
ENDMDL
MODEL 3
REMARK VINA RESULT:    15.498      3.228      8.352
REMARK INTER + INTRA:          20.088
REMARK INTER:                  20.864
REMARK INTRA:                  -0.776
REMARK UNBOUND:                 0.513
REMARK SMILES CC(C)[C@@H](C)C=C[C@H](C)[C@H]1CC[C@H]2C3=CC=C4C[C@@H](O)CC[C@@]4(C)[C@@H]3CC[C@@]12C
REMARK SMILES IDX 8 1 9 2 7 3 6 4 4 5 5 6 2 7 1 8 3 9 10 10 11 11 28 12 12 13
REMARK SMILES IDX 13 14 27 15 29 16 14 17 26 18 25 19 15 20 23 21 16 22 17 23
REMARK SMILES IDX 22 24 24 25 18 26 21 27 19 28 20 29
REMARK H PARENT 20 30
REMARK Flexibility Score: inf
ROOT
ATOM      1  C   UNL     1     132.794 134.627 138.526  1.00  0.00     0.012 C 
ATOM      2  C   UNL     1     132.568 136.111 138.885  1.00  0.00     0.012 C 
ENDROOT
BRANCH   1   3
ATOM      3  C   UNL     1     131.848 134.269 137.391  1.00  0.00    -0.028 C 
ATOM      4  C   UNL     1     131.634 133.033 136.900  1.00  0.00    -0.028 C 
BRANCH   4   5
ATOM      5  C   UNL     1     132.330 131.763 137.365  1.00  0.00     0.011 C 
ATOM      6  C   UNL     1     133.335 131.306 136.294  1.00  0.00     0.012 C 
BRANCH   5   7
ATOM      7  C   UNL     1     131.328 130.634 137.758  1.00  0.00    -0.011 C 
ATOM      8  C   UNL     1     130.825 130.709 139.212  1.00  0.00     0.008 C 
ATOM      9  C   UNL     1     131.918 129.243 137.475  1.00  0.00     0.008 C 
ENDBRANCH   5   7
ENDBRANCH   4   5
ENDBRANCH   1   3
BRANCH   1  10
ATOM     10  C   UNL     1     134.263 134.222 138.121  1.00  0.00     0.002 C 
ATOM     11  C   UNL     1     135.163 135.338 137.557  1.00  0.00     0.005 C 
ATOM     12  C   UNL     1     135.158 133.457 139.140  1.00  0.00    -0.023 C 
ATOM     13  C   UNL     1     136.592 134.804 137.630  1.00  0.00     0.009 C 
ATOM     14  C   UNL     1     136.530 133.481 138.408  1.00  0.00     0.021 C 
ATOM     15  C   UNL     1     135.231 134.172 140.530  1.00  0.00     0.008 C 
ATOM     16  C   UNL     1     134.671 131.998 139.329  1.00  0.00     0.012 C 
ATOM     17  C   UNL     1     137.701 133.274 139.353  1.00  0.00    -0.063 C 
ATOM     18  C   UNL     1     136.470 133.812 141.376  1.00  0.00     0.009 C 
ATOM     19  C   UNL     1     137.765 134.131 140.598  1.00  0.00     0.025 C 
ATOM     20  C   UNL     1     138.395 132.132 139.289  1.00  0.00    -0.000 C 
ATOM     21  C   UNL     1     139.128 133.992 141.400  1.00  0.00    -0.005 C 
ATOM     22  C   UNL     1     139.378 131.759 140.308  1.00  0.00    -0.000 C 
ATOM     23  C   UNL     1     139.726 132.590 141.302  1.00  0.00    -0.061 C 
ATOM     24  C   UNL     1     140.188 134.945 140.766  1.00  0.00     0.014 C 
ATOM     25  C   UNL     1     138.914 134.390 142.891  1.00  0.00     0.017 C 
ATOM     26  C   UNL     1     141.048 132.353 141.990  1.00  0.00     0.063 C 
ATOM     27  C   UNL     1     141.612 134.791 141.358  1.00  0.00     0.033 C 
ATOM     28  C   UNL     1     142.109 133.324 141.425  1.00  0.00     0.118 C 
BRANCH  28  29
ATOM     29  O   UNL     1     142.579 132.891 140.174  1.00  0.00    -0.393 OA
ATOM     30  H   UNL     1     142.617 133.678 139.570  1.00  0.00     0.210 HD
ENDBRANCH  28  29
ENDBRANCH   1  10
TORSDOF 5
ENDMDL
