MODEL 1
REMARK VINA RESULT:    -2.803      0.000      0.000
REMARK INTER + INTRA:          -2.803
REMARK INTER:                  -2.803
REMARK INTRA:                   0.000
REMARK UNBOUND:                 0.000
REMARK SMILES CC(=O)[O-]
REMARK SMILES IDX 1 1 2 2 3 3 4 4
REMARK H PARENT
REMARK Flexibility Score: inf
ROOT
ATOM      1  C   UNL     1      18.509  27.021  -0.008  1.00  0.00     0.063 C 
ATOM      2  C   UNL     1      18.911  25.792   0.734  1.00  0.00     0.038 C 
ATOM      3  O   UNL     1      18.975  25.806   1.992  1.00  0.00    -0.550 OA
ATOM      4  O   UNL     1      19.268  24.645   0.039  1.00  0.00    -0.550 OA
ENDROOT
TORSDOF 0
ENDMDL
MODEL 2
REMARK VINA RESULT:    -2.757      0.462      1.647
REMARK INTER + INTRA:          -2.757
REMARK INTER:                  -2.757
REMARK INTRA:                   0.000
REMARK UNBOUND:                 0.000
REMARK SMILES CC(=O)[O-]
REMARK SMILES IDX 1 1 2 2 3 3 4 4
REMARK H PARENT
REMARK Flexibility Score: inf
ROOT
ATOM      1  C   UNL     1      18.526  26.881   0.274  1.00  0.00     0.063 C 
ATOM      2  C   UNL     1      18.845  25.633   1.025  1.00  0.00     0.038 C 
ATOM      3  O   UNL     1      18.766  24.514   0.454  1.00  0.00    -0.550 OA
ATOM      4  O   UNL     1      19.177  25.698   2.372  1.00  0.00    -0.550 OA
ENDROOT
TORSDOF 0
ENDMDL
MODEL 3
REMARK VINA RESULT:    -2.670     11.366     11.866
REMARK INTER + INTRA:          -2.670
REMARK INTER:                  -2.670
REMARK INTRA:                   0.000
REMARK UNBOUND:                 0.000
REMARK SMILES CC(=O)[O-]
REMARK SMILES IDX 1 1 2 2 3 3 4 4
REMARK H PARENT
REMARK Flexibility Score: inf
ROOT
ATOM      1  C   UNL     1      16.532  23.784  13.371  1.00  0.00     0.063 C 
ATOM      2  C   UNL     1      16.980  23.525  11.973  1.00  0.00     0.038 C 
ATOM      3  O   UNL     1      16.457  22.594  11.305  1.00  0.00    -0.550 OA
ATOM      4  O   UNL     1      18.011  24.273  11.422  1.00  0.00    -0.550 OA
ENDROOT
TORSDOF 0
ENDMDL
MODEL 4
REMARK VINA RESULT:    -2.627     11.145     11.805
REMARK INTER + INTRA:          -2.627
REMARK INTER:                  -2.627
REMARK INTRA:                   0.000
REMARK UNBOUND:                 0.000
REMARK SMILES CC(=O)[O-]
REMARK SMILES IDX 1 1 2 2 3 3 4 4
REMARK H PARENT
REMARK Flexibility Score: inf
ROOT
ATOM      1  C   UNL     1      18.105  24.240  11.277  1.00  0.00     0.063 C 
ATOM      2  C   UNL     1      16.959  23.587  11.973  1.00  0.00     0.038 C 
ATOM      3  O   UNL     1      16.317  22.665  11.405  1.00  0.00    -0.550 OA
ATOM      4  O   UNL     1      16.563  24.031  13.228  1.00  0.00    -0.550 OA
ENDROOT
TORSDOF 0
ENDMDL
MODEL 5
REMARK VINA RESULT:    -2.609      2.061      2.524
REMARK INTER + INTRA:          -2.609
REMARK INTER:                  -2.609
REMARK INTRA:                   0.000
REMARK UNBOUND:                 0.000
REMARK SMILES CC(=O)[O-]
REMARK SMILES IDX 1 1 2 2 3 3 4 4
REMARK H PARENT
REMARK Flexibility Score: inf
ROOT
ATOM      1  C   UNL     1      18.463  26.899  -0.013  1.00  0.00     0.063 C 
ATOM      2  C   UNL     1      18.229  25.870  -1.067  1.00  0.00     0.038 C 
ATOM      3  O   UNL     1      19.180  25.151  -1.470  1.00  0.00    -0.550 OA
ATOM      4  O   UNL     1      16.974  25.739  -1.646  1.00  0.00    -0.550 OA
ENDROOT
TORSDOF 0
ENDMDL
MODEL 6
REMARK VINA RESULT:    -2.575      9.655     10.174
REMARK INTER + INTRA:          -2.575
REMARK INTER:                  -2.575
REMARK INTRA:                   0.000
REMARK UNBOUND:                 0.000
REMARK SMILES CC(=O)[O-]
REMARK SMILES IDX 1 1 2 2 3 3 4 4
REMARK H PARENT
REMARK Flexibility Score: inf
ROOT
ATOM      1  C   UNL     1      17.786  24.163  11.543  1.00  0.00     0.063 C 
ATOM      2  C   UNL     1      18.818  24.077  10.471  1.00  0.00     0.038 C 
ATOM      3  O   UNL     1      18.700  23.230   9.547  1.00  0.00    -0.550 OA
ATOM      4  O   UNL     1      19.940  24.893  10.518  1.00  0.00    -0.550 OA
ENDROOT
TORSDOF 0
ENDMDL
MODEL 7
REMARK VINA RESULT:    -2.573      1.694      1.891
REMARK INTER + INTRA:          -2.573
REMARK INTER:                  -2.573
REMARK INTRA:                   0.000
REMARK UNBOUND:                 0.000
REMARK SMILES CC(=O)[O-]
REMARK SMILES IDX 1 1 2 2 3 3 4 4
REMARK H PARENT
REMARK Flexibility Score: inf
ROOT
ATOM      1  C   UNL     1      17.383  26.231  -0.779  1.00  0.00     0.063 C 
ATOM      2  C   UNL     1      18.471  26.681   0.135  1.00  0.00     0.038 C 
ATOM      3  O   UNL     1      18.945  27.843   0.029  1.00  0.00    -0.550 OA
ATOM      4  O   UNL     1      19.004  25.803   1.069  1.00  0.00    -0.550 OA
ENDROOT
TORSDOF 0
ENDMDL
MODEL 8
REMARK VINA RESULT:    -2.537      2.531      3.019
REMARK INTER + INTRA:          -2.537
REMARK INTER:                  -2.537
REMARK INTRA:                   0.000
REMARK UNBOUND:                 0.000
REMARK SMILES CC(=O)[O-]
REMARK SMILES IDX 1 1 2 2 3 3 4 4
REMARK H PARENT
REMARK Flexibility Score: inf
ROOT
ATOM      1  C   UNL     1      19.267  25.372   3.733  1.00  0.00     0.063 C 
ATOM      2  C   UNL     1      19.931  24.655   2.607  1.00  0.00     0.038 C 
ATOM      3  O   UNL     1      19.475  24.755   1.438  1.00  0.00    -0.550 OA
ATOM      4  O   UNL     1      21.022  23.832   2.853  1.00  0.00    -0.550 OA
ENDROOT
TORSDOF 0
ENDMDL
MODEL 9
REMARK VINA RESULT:    -2.516      1.357      2.281
REMARK INTER + INTRA:          -2.516
REMARK INTER:                  -2.516
REMARK INTRA:                   0.000
REMARK UNBOUND:                 0.000
REMARK SMILES CC(=O)[O-]
REMARK SMILES IDX 1 1 2 2 3 3 4 4
REMARK H PARENT
REMARK Flexibility Score: inf
ROOT
ATOM      1  C   UNL     1      19.319  25.291   2.724  1.00  0.00     0.063 C 
ATOM      2  C   UNL     1      19.124  25.497   1.260  1.00  0.00     0.038 C 
ATOM      3  O   UNL     1      19.444  24.591   0.446  1.00  0.00    -0.550 OA
ATOM      4  O   UNL     1      18.640  26.709   0.786  1.00  0.00    -0.550 OA
ENDROOT
TORSDOF 0
ENDMDL
