MODEL 1
REMARK VINA RESULT:    -5.717      0.000      0.000
REMARK INTER + INTRA:         -11.009
REMARK INTER:                  -8.725
REMARK INTRA:                  -2.284
REMARK UNBOUND:                -2.284
REMARK SMILES CC(=O)CCC=C(C)CCC=C(C)CCC=C(C)C
REMARK SMILES IDX 10 1 11 2 12 3 13 4 14 5 15 6 16 7 18 8 17 9 19 10 9 11 7 12
REMARK SMILES IDX 6 13 8 14 5 15 4 16 2 17 3 18 1 19
REMARK H PARENT
REMARK Flexibility Score: inf
ROOT
ATOM      1  C   UNL     1      18.545 -30.858  21.214  1.00  0.00     0.032 C 
ENDROOT
BRANCH   1   2
ATOM      2  C   UNL     1      18.065 -31.906  20.243  1.00  0.00    -0.028 C 
ATOM      3  C   UNL     1      18.234 -33.237  20.416  1.00  0.00    -0.077 C 
ATOM      4  C   UNL     1      18.882 -33.803  21.658  1.00  0.00     0.039 C 
BRANCH   3   5
ATOM      5  C   UNL     1      17.757 -34.186  19.340  1.00  0.00     0.034 C 
BRANCH   5   6
ATOM      6  C   UNL     1      16.452 -34.870  19.761  1.00  0.00     0.032 C 
BRANCH   6   7
ATOM      7  C   UNL     1      15.278 -33.941  19.583  1.00  0.00    -0.028 C 
ATOM      8  C   UNL     1      13.500 -32.387  20.264  1.00  0.00     0.039 C 
ATOM      9  C   UNL     1      14.637 -33.318  20.596  1.00  0.00    -0.080 C 
ATOM     10  C   UNL     1      15.014 -33.545  22.042  1.00  0.00     0.039 C 
ENDBRANCH   6   7
ENDBRANCH   5   6
ENDBRANCH   3   5
ENDBRANCH   1   2
BRANCH   1  11
ATOM     11  C   UNL     1      17.492 -29.758  21.387  1.00  0.00     0.034 C 
BRANCH  11  12
ATOM     12  C   UNL     1      16.510 -30.128  22.476  1.00  0.00    -0.077 C 
ATOM     13  C   UNL     1      15.203 -29.829  22.302  1.00  0.00    -0.028 C 
ATOM     14  C   UNL     1      17.013 -30.824  23.718  1.00  0.00     0.039 C 
BRANCH  13  15
ATOM     15  C   UNL     1      14.129 -30.050  23.342  1.00  0.00     0.035 C 
BRANCH  15  16
ATOM     16  C   UNL     1      12.729 -29.833  22.754  1.00  0.00     0.079 C 
BRANCH  16  17
ATOM     17  C   UNL     1      12.056 -28.624  23.356  1.00  0.00     0.130 C 
ATOM     18  O   UNL     1      10.960 -28.278  22.945  1.00  0.00    -0.300 OA
ATOM     19  C   UNL     1      12.710 -27.834  24.453  1.00  0.00     0.087 C 
ENDBRANCH  16  17
ENDBRANCH  15  16
ENDBRANCH  13  15
ENDBRANCH  11  12
ENDBRANCH   1  11
TORSDOF 9
ENDMDL
MODEL 2
REMARK VINA RESULT:    -5.417      2.205      5.080
REMARK INTER + INTRA:         -10.552
REMARK INTER:                  -8.364
REMARK INTRA:                  -2.188
REMARK UNBOUND:                -2.284
REMARK SMILES CC(=O)CCC=C(C)CCC=C(C)CCC=C(C)C
REMARK SMILES IDX 10 1 11 2 12 3 13 4 14 5 15 6 16 7 18 8 17 9 19 10 9 11 7 12
REMARK SMILES IDX 6 13 8 14 5 15 4 16 2 17 3 18 1 19
REMARK H PARENT
REMARK Flexibility Score: inf
ROOT
ATOM      1  C   UNL     1      17.567 -36.468  19.856  1.00  0.00     0.032 C 
ENDROOT
BRANCH   1   2
ATOM      2  C   UNL     1      16.264 -35.724  20.005  1.00  0.00    -0.028 C 
ATOM      3  C   UNL     1      16.042 -34.478  19.527  1.00  0.00    -0.077 C 
ATOM      4  C   UNL     1      17.087 -33.732  18.731  1.00  0.00     0.039 C 
BRANCH   3   5
ATOM      5  C   UNL     1      14.709 -33.816  19.791  1.00  0.00     0.034 C 
BRANCH   5   6
ATOM      6  C   UNL     1      14.646 -33.279  21.226  1.00  0.00     0.032 C 
BRANCH   6   7
ATOM      7  C   UNL     1      13.864 -31.991  21.282  1.00  0.00    -0.028 C 
ATOM      8  C   UNL     1      12.718 -30.086  22.328  1.00  0.00     0.039 C 
ATOM      9  C   UNL     1      13.461 -31.392  22.424  1.00  0.00    -0.080 C 
ATOM     10  C   UNL     1      13.717 -32.004  23.783  1.00  0.00     0.039 C 
ENDBRANCH   6   7
ENDBRANCH   5   6
ENDBRANCH   3   5
ENDBRANCH   1   2
BRANCH   1  11
ATOM     11  C   UNL     1      18.168 -36.785  21.230  1.00  0.00     0.034 C 
BRANCH  11  12
ATOM     12  C   UNL     1      18.392 -35.514  22.019  1.00  0.00    -0.077 C 
ATOM     13  C   UNL     1      19.203 -34.563  21.503  1.00  0.00    -0.028 C 
ATOM     14  C   UNL     1      17.701 -35.341  23.350  1.00  0.00     0.039 C 
BRANCH  13  15
ATOM     15  C   UNL     1      19.594 -33.292  22.219  1.00  0.00     0.035 C 
BRANCH  15  16
ATOM     16  C   UNL     1      19.264 -32.052  21.378  1.00  0.00     0.079 C 
BRANCH  16  17
ATOM     17  C   UNL     1      17.922 -31.471  21.750  1.00  0.00     0.130 C 
ATOM     18  O   UNL     1      17.271 -30.874  20.908  1.00  0.00    -0.300 OA
ATOM     19  C   UNL     1      17.370 -31.612  23.139  1.00  0.00     0.087 C 
ENDBRANCH  16  17
ENDBRANCH  15  16
ENDBRANCH  13  15
ENDBRANCH  11  12
ENDBRANCH   1  11
TORSDOF 9
ENDMDL
MODEL 3
REMARK VINA RESULT:    -5.399      1.971      5.530
REMARK INTER + INTRA:         -10.523
REMARK INTER:                  -8.789
REMARK INTRA:                  -1.734
REMARK UNBOUND:                -2.284
REMARK SMILES CC(=O)CCC=C(C)CCC=C(C)CCC=C(C)C
REMARK SMILES IDX 10 1 11 2 12 3 13 4 14 5 15 6 16 7 18 8 17 9 19 10 9 11 7 12
REMARK SMILES IDX 6 13 8 14 5 15 4 16 2 17 3 18 1 19
REMARK H PARENT
REMARK Flexibility Score: inf
ROOT
ATOM      1  C   UNL     1      15.133 -34.690  20.221  1.00  0.00     0.032 C 
ENDROOT
BRANCH   1   2
ATOM      2  C   UNL     1      14.475 -33.335  20.271  1.00  0.00    -0.028 C 
ATOM      3  C   UNL     1      14.323 -32.605  21.400  1.00  0.00    -0.077 C 
ATOM      4  C   UNL     1      14.870 -33.071  22.729  1.00  0.00     0.039 C 
BRANCH   3   5
ATOM      5  C   UNL     1      13.593 -31.283  21.328  1.00  0.00     0.034 C 
BRANCH   5   6
ATOM      6  C   UNL     1      12.688 -31.098  22.551  1.00  0.00     0.032 C 
BRANCH   6   7
ATOM      7  C   UNL     1      13.022 -29.819  23.276  1.00  0.00    -0.028 C 
ATOM      8  C   UNL     1      12.661 -27.545  24.133  1.00  0.00     0.039 C 
ATOM      9  C   UNL     1      12.208 -28.742  23.339  1.00  0.00    -0.080 C 
ATOM     10  C   UNL     1      10.878 -28.701  22.623  1.00  0.00     0.039 C 
ENDBRANCH   6   7
ENDBRANCH   5   6
ENDBRANCH   3   5
ENDBRANCH   1   2
BRANCH   1  11
ATOM     11  C   UNL     1      16.424 -34.634  19.397  1.00  0.00     0.034 C 
BRANCH  11  12
ATOM     12  C   UNL     1      17.557 -34.062  20.221  1.00  0.00    -0.077 C 
ATOM     13  C   UNL     1      17.889 -32.762  20.055  1.00  0.00    -0.028 C 
ATOM     14  C   UNL     1      18.274 -34.951  21.207  1.00  0.00     0.039 C 
BRANCH  13  15
ATOM     15  C   UNL     1      19.055 -32.083  20.734  1.00  0.00     0.035 C 
BRANCH  15  16
ATOM     16  C   UNL     1      18.636 -31.453  22.068  1.00  0.00     0.079 C 
BRANCH  16  17
ATOM     17  C   UNL     1      17.861 -30.176  21.859  1.00  0.00     0.130 C 
ATOM     18  O   UNL     1      18.227 -29.382  21.005  1.00  0.00    -0.300 OA
ATOM     19  C   UNL     1      16.646 -29.857  22.681  1.00  0.00     0.087 C 
ENDBRANCH  16  17
ENDBRANCH  15  16
ENDBRANCH  13  15
ENDBRANCH  11  12
ENDBRANCH   1  11
TORSDOF 9
ENDMDL
MODEL 4
REMARK VINA RESULT:    -5.399      2.078      3.620
REMARK INTER + INTRA:         -10.523
REMARK INTER:                  -9.143
REMARK INTRA:                  -1.380
REMARK UNBOUND:                -2.284
REMARK SMILES CC(=O)CCC=C(C)CCC=C(C)CCC=C(C)C
REMARK SMILES IDX 10 1 11 2 12 3 13 4 14 5 15 6 16 7 18 8 17 9 19 10 9 11 7 12
REMARK SMILES IDX 6 13 8 14 5 15 4 16 2 17 3 18 1 19
REMARK H PARENT
REMARK Flexibility Score: inf
ROOT
ATOM      1  C   UNL     1      14.653 -33.621  20.351  1.00  0.00     0.032 C 
ENDROOT
BRANCH   1   2
ATOM      2  C   UNL     1      15.407 -34.919  20.215  1.00  0.00    -0.028 C 
ATOM      3  C   UNL     1      16.528 -35.074  19.474  1.00  0.00    -0.077 C 
ATOM      4  C   UNL     1      17.170 -33.914  18.751  1.00  0.00     0.039 C 
BRANCH   3   5
ATOM      5  C   UNL     1      17.159 -36.443  19.373  1.00  0.00     0.034 C 
BRANCH   5   6
ATOM      6  C   UNL     1      17.661 -36.911  20.743  1.00  0.00     0.032 C 
BRANCH   6   7
ATOM      7  C   UNL     1      18.866 -36.114  21.173  1.00  0.00    -0.028 C 
ATOM      8  C   UNL     1      20.188 -34.598  22.586  1.00  0.00     0.039 C 
ATOM      9  C   UNL     1      18.900 -35.306  22.256  1.00  0.00    -0.080 C 
ATOM     10  C   UNL     1      17.684 -35.082  23.126  1.00  0.00     0.039 C 
ENDBRANCH   6   7
ENDBRANCH   5   6
ENDBRANCH   3   5
ENDBRANCH   1   2
BRANCH   1  11
ATOM     11  C   UNL     1      15.044 -32.901  21.646  1.00  0.00     0.034 C 
BRANCH  11  12
ATOM     12  C   UNL     1      14.076 -31.778  21.944  1.00  0.00    -0.077 C 
ATOM     13  C   UNL     1      14.151 -31.155  23.142  1.00  0.00    -0.028 C 
ATOM     14  C   UNL     1      13.062 -31.380  20.898  1.00  0.00     0.039 C 
BRANCH  13  15
ATOM     15  C   UNL     1      13.191 -30.088  23.614  1.00  0.00     0.035 C 
BRANCH  15  16
ATOM     16  C   UNL     1      13.702 -28.683  23.268  1.00  0.00     0.079 C 
BRANCH  16  17
ATOM     17  C   UNL     1      12.644 -27.635  23.508  1.00  0.00     0.130 C 
ATOM     18  O   UNL     1      12.972 -26.464  23.625  1.00  0.00    -0.300 OA
ATOM     19  C   UNL     1      11.192 -28.001  23.608  1.00  0.00     0.087 C 
ENDBRANCH  16  17
ENDBRANCH  15  16
ENDBRANCH  13  15
ENDBRANCH  11  12
ENDBRANCH   1  11
TORSDOF 9
ENDMDL
MODEL 5
REMARK VINA RESULT:    -5.334      1.902      4.688
REMARK INTER + INTRA:         -10.424
REMARK INTER:                  -7.976
REMARK INTRA:                  -2.449
REMARK UNBOUND:                -2.284
REMARK SMILES CC(=O)CCC=C(C)CCC=C(C)CCC=C(C)C
REMARK SMILES IDX 10 1 11 2 12 3 13 4 14 5 15 6 16 7 18 8 17 9 19 10 9 11 7 12
REMARK SMILES IDX 6 13 8 14 5 15 4 16 2 17 3 18 1 19
REMARK H PARENT
REMARK Flexibility Score: inf
ROOT
ATOM      1  C   UNL     1      17.619 -36.885  20.849  1.00  0.00     0.032 C 
ENDROOT
BRANCH   1   2
ATOM      2  C   UNL     1      18.837 -36.130  21.316  1.00  0.00    -0.028 C 
ATOM      3  C   UNL     1      18.868 -35.340  22.414  1.00  0.00    -0.077 C 
ATOM      4  C   UNL     1      17.670 -35.193  23.322  1.00  0.00     0.039 C 
BRANCH   3   5
ATOM      5  C   UNL     1      20.137 -34.589  22.745  1.00  0.00     0.034 C 
BRANCH   5   6
ATOM      6  C   UNL     1      19.833 -33.118  23.047  1.00  0.00     0.032 C 
BRANCH   6   7
ATOM      7  C   UNL     1      19.197 -32.447  21.856  1.00  0.00    -0.028 C 
ATOM      8  C   UNL     1      17.653 -30.959  20.657  1.00  0.00     0.039 C 
ATOM      9  C   UNL     1      18.162 -31.582  21.930  1.00  0.00    -0.080 C 
ATOM     10  C   UNL     1      17.494 -31.243  23.243  1.00  0.00     0.039 C 
ENDBRANCH   6   7
ENDBRANCH   5   6
ENDBRANCH   3   5
ENDBRANCH   1   2
BRANCH   1  11
ATOM     11  C   UNL     1      17.201 -36.423  19.448  1.00  0.00     0.034 C 
BRANCH  11  12
ATOM     12  C   UNL     1      16.550 -35.059  19.510  1.00  0.00    -0.077 C 
ATOM     13  C   UNL     1      15.426 -34.908  20.246  1.00  0.00    -0.028 C 
ATOM     14  C   UNL     1      17.175 -33.909  18.758  1.00  0.00     0.039 C 
BRANCH  13  15
ATOM     15  C   UNL     1      14.617 -33.634  20.321  1.00  0.00     0.035 C 
BRANCH  15  16
ATOM     16  C   UNL     1      14.671 -33.018  21.725  1.00  0.00     0.079 C 
BRANCH  16  17
ATOM     17  C   UNL     1      13.800 -31.790  21.825  1.00  0.00     0.130 C 
ATOM     18  O   UNL     1      13.276 -31.339  20.818  1.00  0.00    -0.300 OA
ATOM     19  C   UNL     1      13.565 -31.108  23.141  1.00  0.00     0.087 C 
ENDBRANCH  16  17
ENDBRANCH  15  16
ENDBRANCH  13  15
ENDBRANCH  11  12
ENDBRANCH   1  11
TORSDOF 9
ENDMDL
MODEL 6
REMARK VINA RESULT:    -5.287      1.971      5.276
REMARK INTER + INTRA:         -10.352
REMARK INTER:                  -8.496
REMARK INTRA:                  -1.856
REMARK UNBOUND:                -2.284
REMARK SMILES CC(=O)CCC=C(C)CCC=C(C)CCC=C(C)C
REMARK SMILES IDX 10 1 11 2 12 3 13 4 14 5 15 6 16 7 18 8 17 9 19 10 9 11 7 12
REMARK SMILES IDX 6 13 8 14 5 15 4 16 2 17 3 18 1 19
REMARK H PARENT
REMARK Flexibility Score: inf
ROOT
ATOM      1  C   UNL     1      18.864 -30.762  22.012  1.00  0.00     0.032 C 
ENDROOT
BRANCH   1   2
ATOM      2  C   UNL     1      17.401 -30.513  22.279  1.00  0.00    -0.028 C 
ATOM      3  C   UNL     1      16.711 -31.065  23.303  1.00  0.00    -0.077 C 
ATOM      4  C   UNL     1      17.378 -31.951  24.328  1.00  0.00     0.039 C 
BRANCH   3   5
ATOM      5  C   UNL     1      15.231 -30.782  23.429  1.00  0.00     0.034 C 
BRANCH   5   6
ATOM      6  C   UNL     1      14.826 -29.608  22.531  1.00  0.00     0.032 C 
BRANCH   6   7
ATOM      7  C   UNL     1      13.690 -28.831  23.146  1.00  0.00    -0.028 C 
ATOM      8  C   UNL     1      11.355 -28.265  23.662  1.00  0.00     0.039 C 
ATOM      9  C   UNL     1      12.382 -29.107  22.951  1.00  0.00    -0.080 C 
ATOM     10  C   UNL     1      11.926 -30.217  22.031  1.00  0.00     0.039 C 
ENDBRANCH   6   7
ENDBRANCH   5   6
ENDBRANCH   3   5
ENDBRANCH   1   2
BRANCH   1  11
ATOM     11  C   UNL     1      19.062 -31.397  20.632  1.00  0.00     0.034 C 
BRANCH  11  12
ATOM     12  C   UNL     1      18.675 -32.859  20.659  1.00  0.00    -0.077 C 
ATOM     13  C   UNL     1      17.845 -33.330  19.701  1.00  0.00    -0.028 C 
ATOM     14  C   UNL     1      19.230 -33.750  21.744  1.00  0.00     0.039 C 
BRANCH  13  15
ATOM     15  C   UNL     1      17.298 -34.738  19.658  1.00  0.00     0.035 C 
BRANCH  15  16
ATOM     16  C   UNL     1      15.765 -34.744  19.701  1.00  0.00     0.079 C 
BRANCH  16  17
ATOM     17  C   UNL     1      15.239 -33.960  20.878  1.00  0.00     0.130 C 
ATOM     18  O   UNL     1      15.639 -34.221  22.002  1.00  0.00    -0.300 OA
ATOM     19  C   UNL     1      14.231 -32.863  20.696  1.00  0.00     0.087 C 
ENDBRANCH  16  17
ENDBRANCH  15  16
ENDBRANCH  13  15
ENDBRANCH  11  12
ENDBRANCH   1  11
TORSDOF 9
ENDMDL
MODEL 7
REMARK VINA RESULT:    -5.282      2.623      5.676
REMARK INTER + INTRA:         -10.346
REMARK INTER:                  -8.232
REMARK INTRA:                  -2.114
REMARK UNBOUND:                -2.284
REMARK SMILES CC(=O)CCC=C(C)CCC=C(C)CCC=C(C)C
REMARK SMILES IDX 10 1 11 2 12 3 13 4 14 5 15 6 16 7 18 8 17 9 19 10 9 11 7 12
REMARK SMILES IDX 6 13 8 14 5 15 4 16 2 17 3 18 1 19
REMARK H PARENT
REMARK Flexibility Score: inf
ROOT
ATOM      1  C   UNL     1      18.010 -32.008  24.154  1.00  0.00     0.032 C 
ENDROOT
BRANCH   1   2
ATOM      2  C   UNL     1      17.264 -30.857  23.528  1.00  0.00    -0.028 C 
ATOM      3  C   UNL     1      17.404 -30.472  22.238  1.00  0.00    -0.077 C 
ATOM      4  C   UNL     1      18.297 -31.219  21.276  1.00  0.00     0.039 C 
BRANCH   3   5
ATOM      5  C   UNL     1      16.641 -29.264  21.745  1.00  0.00     0.034 C 
BRANCH   5   6
ATOM      6  C   UNL     1      15.170 -29.616  21.497  1.00  0.00     0.032 C 
BRANCH   6   7
ATOM      7  C   UNL     1      14.270 -28.846  22.428  1.00  0.00    -0.028 C 
ATOM      8  C   UNL     1      12.717 -28.501  24.302  1.00  0.00     0.039 C 
ATOM      9  C   UNL     1      13.546 -29.403  23.424  1.00  0.00    -0.080 C 
ATOM     10  C   UNL     1      13.530 -30.895  23.665  1.00  0.00     0.039 C 
ENDBRANCH   6   7
ENDBRANCH   5   6
ENDBRANCH   3   5
ENDBRANCH   1   2
BRANCH   1  11
ATOM     11  C   UNL     1      17.055 -33.165  24.467  1.00  0.00     0.034 C 
BRANCH  11  12
ATOM     12  C   UNL     1      16.749 -33.957  23.215  1.00  0.00    -0.077 C 
ATOM     13  C   UNL     1      15.683 -33.601  22.464  1.00  0.00    -0.028 C 
ATOM     14  C   UNL     1      17.645 -35.112  22.836  1.00  0.00     0.039 C 
BRANCH  13  15
ATOM     15  C   UNL     1      15.202 -34.357  21.248  1.00  0.00     0.035 C 
BRANCH  15  16
ATOM     16  C   UNL     1      15.745 -33.737  19.954  1.00  0.00     0.079 C 
BRANCH  16  17
ATOM     17  C   UNL     1      16.788 -34.618  19.312  1.00  0.00     0.130 C 
ATOM     18  O   UNL     1      16.594 -35.821  19.234  1.00  0.00    -0.300 OA
ATOM     19  C   UNL     1      18.063 -34.044  18.766  1.00  0.00     0.087 C 
ENDBRANCH  16  17
ENDBRANCH  15  16
ENDBRANCH  13  15
ENDBRANCH  11  12
ENDBRANCH   1  11
TORSDOF 9
ENDMDL
MODEL 8
REMARK VINA RESULT:    -5.270      2.486      6.070
REMARK INTER + INTRA:         -10.328
REMARK INTER:                  -8.618
REMARK INTRA:                  -1.710
REMARK UNBOUND:                -2.284
REMARK SMILES CC(=O)CCC=C(C)CCC=C(C)CCC=C(C)C
REMARK SMILES IDX 10 1 11 2 12 3 13 4 14 5 15 6 16 7 18 8 17 9 19 10 9 11 7 12
REMARK SMILES IDX 6 13 8 14 5 15 4 16 2 17 3 18 1 19
REMARK H PARENT
REMARK Flexibility Score: inf
ROOT
ATOM      1  C   UNL     1      17.314 -32.163  23.871  1.00  0.00     0.032 C 
ENDROOT
BRANCH   1   2
ATOM      2  C   UNL     1      15.919 -31.893  23.366  1.00  0.00    -0.028 C 
ATOM      3  C   UNL     1      15.630 -31.051  22.347  1.00  0.00    -0.077 C 
ATOM      4  C   UNL     1      16.712 -30.339  21.570  1.00  0.00     0.039 C 
BRANCH   3   5
ATOM      5  C   UNL     1      14.184 -30.821  21.972  1.00  0.00     0.034 C 
BRANCH   5   6
ATOM      6  C   UNL     1      13.280 -30.932  23.204  1.00  0.00     0.032 C 
BRANCH   6   7
ATOM      7  C   UNL     1      13.235 -29.625  23.955  1.00  0.00    -0.028 C 
ATOM      8  C   UNL     1      12.355 -27.430  24.622  1.00  0.00     0.039 C 
ATOM      9  C   UNL     1      12.295 -28.672  23.772  1.00  0.00    -0.080 C 
ATOM     10  C   UNL     1      11.207 -28.810  22.731  1.00  0.00     0.039 C 
ENDBRANCH   6   7
ENDBRANCH   5   6
ENDBRANCH   3   5
ENDBRANCH   1   2
BRANCH   1  11
ATOM     11  C   UNL     1      17.596 -33.669  23.899  1.00  0.00     0.034 C 
BRANCH  11  12
ATOM     12  C   UNL     1      17.916 -34.176  22.510  1.00  0.00    -0.077 C 
ATOM     13  C   UNL     1      17.304 -35.299  22.071  1.00  0.00    -0.028 C 
ATOM     14  C   UNL     1      18.898 -33.413  21.654  1.00  0.00     0.039 C 
BRANCH  13  15
ATOM     15  C   UNL     1      17.597 -35.973  20.751  1.00  0.00     0.035 C 
BRANCH  15  16
ATOM     16  C   UNL     1      16.375 -35.942  19.824  1.00  0.00     0.079 C 
BRANCH  16  17
ATOM     17  C   UNL     1      16.031 -34.532  19.409  1.00  0.00     0.130 C 
ATOM     18  O   UNL     1      16.782 -33.923  18.664  1.00  0.00    -0.300 OA
ATOM     19  C   UNL     1      14.779 -33.861  19.897  1.00  0.00     0.087 C 
ENDBRANCH  16  17
ENDBRANCH  15  16
ENDBRANCH  13  15
ENDBRANCH  11  12
ENDBRANCH   1  11
TORSDOF 9
ENDMDL
MODEL 9
REMARK VINA RESULT:    -5.181      2.056      3.937
REMARK INTER + INTRA:         -10.192
REMARK INTER:                  -7.546
REMARK INTRA:                  -2.645
REMARK UNBOUND:                -2.284
REMARK SMILES CC(=O)CCC=C(C)CCC=C(C)CCC=C(C)C
REMARK SMILES IDX 10 1 11 2 12 3 13 4 14 5 15 6 16 7 18 8 17 9 19 10 9 11 7 12
REMARK SMILES IDX 6 13 8 14 5 15 4 16 2 17 3 18 1 19
REMARK H PARENT
REMARK Flexibility Score: inf
ROOT
ATOM      1  C   UNL     1      17.520 -33.218  19.209  1.00  0.00     0.032 C 
ENDROOT
BRANCH   1   2
ATOM      2  C   UNL     1      17.736 -34.699  19.388  1.00  0.00    -0.028 C 
ATOM      3  C   UNL     1      16.810 -35.547  19.891  1.00  0.00    -0.077 C 
ATOM      4  C   UNL     1      15.424 -35.080  20.268  1.00  0.00     0.039 C 
BRANCH   3   5
ATOM      5  C   UNL     1      17.169 -37.004  20.075  1.00  0.00     0.034 C 
BRANCH   5   6
ATOM      6  C   UNL     1      18.408 -37.148  20.966  1.00  0.00     0.032 C 
BRANCH   6   7
ATOM      7  C   UNL     1      18.138 -36.612  22.349  1.00  0.00    -0.028 C 
ATOM      8  C   UNL     1      18.449 -35.174  24.318  1.00  0.00     0.039 C 
ATOM      9  C   UNL     1      18.858 -35.636  22.943  1.00  0.00    -0.080 C 
ATOM     10  C   UNL     1      20.066 -35.015  22.279  1.00  0.00     0.039 C 
ENDBRANCH   6   7
ENDBRANCH   5   6
ENDBRANCH   3   5
ENDBRANCH   1   2
BRANCH   1  11
ATOM     11  C   UNL     1      18.372 -32.423  20.204  1.00  0.00     0.034 C 
BRANCH  11  12
ATOM     12  C   UNL     1      17.498 -31.776  21.255  1.00  0.00    -0.077 C 
ATOM     13  C   UNL     1      16.999 -32.545  22.249  1.00  0.00    -0.028 C 
ATOM     14  C   UNL     1      17.215 -30.296  21.170  1.00  0.00     0.039 C 
BRANCH  13  15
ATOM     15  C   UNL     1      16.036 -32.059  23.307  1.00  0.00     0.035 C 
BRANCH  15  16
ATOM     16  C   UNL     1      14.650 -32.692  23.136  1.00  0.00     0.079 C 
BRANCH  16  17
ATOM     17  C   UNL     1      13.692 -31.752  22.446  1.00  0.00     0.130 C 
ATOM     18  O   UNL     1      13.019 -30.982  23.112  1.00  0.00    -0.300 OA
ATOM     19  C   UNL     1      13.549 -31.746  20.952  1.00  0.00     0.087 C 
ENDBRANCH  16  17
ENDBRANCH  15  16
ENDBRANCH  13  15
ENDBRANCH  11  12
ENDBRANCH   1  11
TORSDOF 9
ENDMDL
