MODEL 1
REMARK VINA RESULT:    -6.190      0.000      0.000
REMARK INTER + INTRA:          -9.836
REMARK INTER:                  -8.361
REMARK INTRA:                  -1.475
REMARK UNBOUND:                -1.475
REMARK SMILES CC[C@@H](CC[C@@H](C)[C@@H]1CC[C@H]2[C@@H]3CC(=O)C4=CC(=O)CC[C@@]4(C)[C@@H]3CC[C@]21C)C(C)C
REMARK SMILES IDX 4 1 3 2 2 3 1 4 29 5 30 6 31 7 5 8 6 9 7 10 8 11 9 12 27 13
REMARK SMILES IDX 10 14 11 15 26 16 28 17 12 18 25 19 24 20 13 21 22 22 14 23
REMARK SMILES IDX 16 24 21 25 23 26 15 27 17 28 20 29 18 30 19 31
REMARK H PARENT
REMARK Flexibility Score: inf
ROOT
ATOM      1  C   UNL     1     -21.362 -10.078   7.815  1.00  0.00     0.004 C 
ENDROOT
BRANCH   1   2
ATOM      2  C   UNL     1     -22.850 -10.552   7.864  1.00  0.00    -0.009 C 
BRANCH   2   3
ATOM      3  C   UNL     1     -23.758  -9.627   8.729  1.00  0.00     0.000 C 
ATOM      4  C   UNL     1     -23.001  -8.795   9.766  1.00  0.00     0.004 C 
ENDBRANCH   2   3
BRANCH   2   5
ATOM      5  C   UNL     1     -23.006 -12.059   8.257  1.00  0.00    -0.014 C 
ATOM      6  C   UNL     1     -21.667 -12.695   8.679  1.00  0.00     0.007 C 
ATOM      7  C   UNL     1     -24.023 -12.262   9.399  1.00  0.00     0.007 C 
ENDBRANCH   2   5
ENDBRANCH   1   2
BRANCH   1   8
ATOM      8  C   UNL     1     -20.858  -9.489   6.467  1.00  0.00     0.004 C 
BRANCH   8   9
ATOM      9  C   UNL     1     -20.043  -8.162   6.537  1.00  0.00    -0.011 C 
ATOM     10  C   UNL     1     -19.241  -7.954   5.233  1.00  0.00     0.008 C 
BRANCH   9  11
ATOM     11  C   UNL     1     -21.022  -6.959   6.924  1.00  0.00    -0.002 C 
ATOM     12  C   UNL     1     -21.211  -5.890   5.824  1.00  0.00     0.005 C 
ATOM     13  C   UNL     1     -20.585  -6.108   8.172  1.00  0.00    -0.026 C 
ATOM     14  C   UNL     1     -20.205  -4.783   6.121  1.00  0.00     0.005 C 
ATOM     15  C   UNL     1     -19.651  -5.044   7.535  1.00  0.00    -0.001 C 
ATOM     16  C   UNL     1     -21.849  -5.442   8.811  1.00  0.00     0.007 C 
ATOM     17  C   UNL     1     -19.877  -6.947   9.272  1.00  0.00     0.012 C 
ATOM     18  C   UNL     1     -19.442  -3.729   8.344  1.00  0.00     0.004 C 
ATOM     19  C   UNL     1     -21.535  -4.228   9.698  1.00  0.00     0.005 C 
ATOM     20  C   UNL     1     -20.760  -3.138   8.917  1.00  0.00     0.003 C 
ATOM     21  C   UNL     1     -18.382  -3.895   9.451  1.00  0.00     0.085 C 
ATOM     22  C   UNL     1     -20.536  -1.749   9.684  1.00  0.00    -0.000 C 
ATOM     23  C   UNL     1     -18.102  -2.584  10.110  1.00  0.00     0.159 C 
ATOM     24  C   UNL     1     -19.050  -1.461   9.960  1.00  0.00     0.005 C 
ATOM     25  C   UNL     1     -21.098  -0.605   8.781  1.00  0.00     0.020 C 
ATOM     26  C   UNL     1     -21.261  -1.705  11.058  1.00  0.00     0.017 C 
ATOM     27  O   UNL     1     -17.049  -2.451  10.791  1.00  0.00    -0.295 OA
ATOM     28  C   UNL     1     -18.599  -0.199  10.096  1.00  0.00     0.055 C 
ATOM     29  C   UNL     1     -20.868   0.800   9.355  1.00  0.00     0.081 C 
ATOM     30  C   UNL     1     -19.460   0.968   9.844  1.00  0.00     0.156 C 
ATOM     31  O   UNL     1     -19.011   2.125  10.056  1.00  0.00    -0.295 OA
ENDBRANCH   9  11
ENDBRANCH   8   9
ENDBRANCH   1   8
TORSDOF 6
ENDMDL
MODEL 2
REMARK VINA RESULT:    -5.283      3.071      8.725
REMARK INTER + INTRA:          -8.611
REMARK INTER:                  -7.296
REMARK INTRA:                  -1.314
REMARK UNBOUND:                -1.475
REMARK SMILES CC[C@@H](CC[C@@H](C)[C@@H]1CC[C@H]2[C@@H]3CC(=O)C4=CC(=O)CC[C@@]4(C)[C@@H]3CC[C@]21C)C(C)C
REMARK SMILES IDX 4 1 3 2 2 3 1 4 29 5 30 6 31 7 5 8 6 9 7 10 8 11 9 12 27 13
REMARK SMILES IDX 10 14 11 15 26 16 28 17 12 18 25 19 24 20 13 21 22 22 14 23
REMARK SMILES IDX 16 24 21 25 23 26 15 27 17 28 20 29 18 30 19 31
REMARK H PARENT
REMARK Flexibility Score: inf
ROOT
ATOM      1  C   UNL     1     -20.200  -0.361   9.390  1.00  0.00     0.004 C 
ENDROOT
BRANCH   1   2
ATOM      2  C   UNL     1     -19.445  -0.445  10.754  1.00  0.00    -0.009 C 
BRANCH   2   3
ATOM      3  C   UNL     1     -19.634   0.827  11.636  1.00  0.00     0.000 C 
ATOM      4  C   UNL     1     -18.831   2.042  11.167  1.00  0.00     0.004 C 
ENDBRANCH   2   3
BRANCH   2   5
ATOM      5  C   UNL     1     -17.936  -0.832  10.604  1.00  0.00    -0.014 C 
ATOM      6  C   UNL     1     -17.219  -0.933  11.965  1.00  0.00     0.007 C 
ATOM      7  C   UNL     1     -17.748  -2.167   9.854  1.00  0.00     0.007 C 
ENDBRANCH   2   5
ENDBRANCH   1   2
BRANCH   1   8
ATOM      8  C   UNL     1     -21.704   0.031   9.444  1.00  0.00     0.004 C 
BRANCH   8   9
ATOM      9  C   UNL     1     -22.737  -1.079   9.082  1.00  0.00    -0.011 C 
ATOM     10  C   UNL     1     -23.996  -0.454   8.440  1.00  0.00     0.008 C 
BRANCH   9  11
ATOM     11  C   UNL     1     -22.019  -2.202   8.199  1.00  0.00    -0.002 C 
ATOM     12  C   UNL     1     -22.802  -2.647   6.943  1.00  0.00     0.005 C 
ATOM     13  C   UNL     1     -21.736  -3.562   8.937  1.00  0.00    -0.026 C 
ATOM     14  C   UNL     1     -23.599  -3.883   7.345  1.00  0.00     0.005 C 
ATOM     15  C   UNL     1     -23.061  -4.340   8.715  1.00  0.00    -0.001 C 
ATOM     16  C   UNL     1     -20.532  -4.284   8.246  1.00  0.00     0.007 C 
ATOM     17  C   UNL     1     -21.389  -3.385  10.442  1.00  0.00     0.012 C 
ATOM     18  C   UNL     1     -22.985  -5.891   8.837  1.00  0.00     0.004 C 
ATOM     19  C   UNL     1     -20.463  -5.792   8.526  1.00  0.00     0.005 C 
ATOM     20  C   UNL     1     -21.766  -6.511   8.097  1.00  0.00     0.003 C 
ATOM     21  C   UNL     1     -23.038  -6.359  10.305  1.00  0.00     0.085 C 
ATOM     22  C   UNL     1     -21.743  -8.112   8.172  1.00  0.00    -0.000 C 
ATOM     23  C   UNL     1     -23.109  -7.849  10.379  1.00  0.00     0.159 C 
ATOM     24  C   UNL     1     -22.737  -8.668   9.206  1.00  0.00     0.005 C 
ATOM     25  C   UNL     1     -22.140  -8.664   6.766  1.00  0.00     0.020 C 
ATOM     26  C   UNL     1     -20.344  -8.669   8.553  1.00  0.00     0.017 C 
ATOM     27  O   UNL     1     -23.490  -8.394  11.450  1.00  0.00    -0.295 OA
ATOM     28  C   UNL     1     -23.255  -9.905   9.080  1.00  0.00     0.055 C 
ATOM     29  C   UNL     1     -22.247 -10.195   6.714  1.00  0.00     0.081 C 
ATOM     30  C   UNL     1     -23.022 -10.728   7.883  1.00  0.00     0.156 C 
ATOM     31  O   UNL     1     -23.468 -11.905   7.845  1.00  0.00    -0.295 OA
ENDBRANCH   9  11
ENDBRANCH   8   9
ENDBRANCH   1   8
TORSDOF 6
ENDMDL
MODEL 3
REMARK VINA RESULT:    -5.214      3.097      8.662
REMARK INTER + INTRA:          -8.518
REMARK INTER:                  -8.108
REMARK INTRA:                  -0.410
REMARK UNBOUND:                -1.475
REMARK SMILES CC[C@@H](CC[C@@H](C)[C@@H]1CC[C@H]2[C@@H]3CC(=O)C4=CC(=O)CC[C@@]4(C)[C@@H]3CC[C@]21C)C(C)C
REMARK SMILES IDX 4 1 3 2 2 3 1 4 29 5 30 6 31 7 5 8 6 9 7 10 8 11 9 12 27 13
REMARK SMILES IDX 10 14 11 15 26 16 28 17 12 18 25 19 24 20 13 21 22 22 14 23
REMARK SMILES IDX 16 24 21 25 23 26 15 27 17 28 20 29 18 30 19 31
REMARK H PARENT
REMARK Flexibility Score: inf
ROOT
ATOM      1  C   UNL     1     -19.242  -3.184   9.516  1.00  0.00     0.004 C 
ENDROOT
BRANCH   1   2
ATOM      2  C   UNL     1     -18.854  -1.733   9.945  1.00  0.00    -0.009 C 
BRANCH   2   3
ATOM      3  C   UNL     1     -17.325  -1.557  10.191  1.00  0.00     0.000 C 
ATOM      4  C   UNL     1     -16.952  -1.256  11.644  1.00  0.00     0.004 C 
ENDBRANCH   2   3
BRANCH   2   5
ATOM      5  C   UNL     1     -19.704  -1.194  11.144  1.00  0.00    -0.014 C 
ATOM      6  C   UNL     1     -20.661  -0.063  10.718  1.00  0.00     0.007 C 
ATOM      7  C   UNL     1     -20.532  -2.306  11.819  1.00  0.00     0.007 C 
ENDBRANCH   2   5
ENDBRANCH   1   2
BRANCH   1   8
ATOM      8  C   UNL     1     -20.088  -3.330   8.220  1.00  0.00     0.004 C 
BRANCH   8   9
ATOM      9  C   UNL     1     -21.443  -2.560   8.171  1.00  0.00    -0.011 C 
ATOM     10  C   UNL     1     -21.498  -1.646   6.925  1.00  0.00     0.008 C 
BRANCH   9  11
ATOM     11  C   UNL     1     -22.649  -3.603   8.293  1.00  0.00    -0.002 C 
ATOM     12  C   UNL     1     -22.950  -4.090   9.728  1.00  0.00     0.005 C 
ATOM     13  C   UNL     1     -22.461  -4.946   7.496  1.00  0.00    -0.026 C 
ATOM     14  C   UNL     1     -22.185  -5.396   9.911  1.00  0.00     0.005 C 
ATOM     15  C   UNL     1     -21.692  -5.830   8.516  1.00  0.00    -0.001 C 
ATOM     16  C   UNL     1     -23.866  -5.552   7.168  1.00  0.00     0.007 C 
ATOM     17  C   UNL     1     -21.691  -4.767   6.158  1.00  0.00     0.012 C 
ATOM     18  C   UNL     1     -21.782  -7.371   8.307  1.00  0.00     0.004 C 
ATOM     19  C   UNL     1     -23.840  -7.054   6.848  1.00  0.00     0.005 C 
ATOM     20  C   UNL     1     -23.222  -7.873   8.009  1.00  0.00     0.003 C 
ATOM     21  C   UNL     1     -20.789  -7.867   7.237  1.00  0.00     0.085 C 
ATOM     22  C   UNL     1     -23.307  -9.467   7.867  1.00  0.00    -0.000 C 
ATOM     23  C   UNL     1     -20.798  -9.359   7.163  1.00  0.00     0.159 C 
ATOM     24  C   UNL     1     -21.921 -10.123   7.745  1.00  0.00     0.005 C 
ATOM     25  C   UNL     1     -24.003 -10.027   9.149  1.00  0.00     0.020 C 
ATOM     26  C   UNL     1     -24.123  -9.911   6.621  1.00  0.00     0.017 C 
ATOM     27  O   UNL     1     -19.837  -9.952   6.603  1.00  0.00    -0.295 OA
ATOM     28  C   UNL     1     -21.716 -11.397   8.132  1.00  0.00     0.055 C 
ATOM     29  C   UNL     1     -24.072 -11.560   9.192  1.00  0.00     0.081 C 
ATOM     30  C   UNL     1     -22.755 -12.177   8.824  1.00  0.00     0.156 C 
ATOM     31  O   UNL     1     -22.539 -13.386   9.100  1.00  0.00    -0.295 OA
ENDBRANCH   9  11
ENDBRANCH   8   9
ENDBRANCH   1   8
TORSDOF 6
ENDMDL
MODEL 4
REMARK VINA RESULT:    -5.025      1.561      3.447
REMARK INTER + INTRA:          -8.263
REMARK INTER:                  -6.936
REMARK INTRA:                  -1.327
REMARK UNBOUND:                -1.475
REMARK SMILES CC[C@@H](CC[C@@H](C)[C@@H]1CC[C@H]2[C@@H]3CC(=O)C4=CC(=O)CC[C@@]4(C)[C@@H]3CC[C@]21C)C(C)C
REMARK SMILES IDX 4 1 3 2 2 3 1 4 29 5 30 6 31 7 5 8 6 9 7 10 8 11 9 12 27 13
REMARK SMILES IDX 10 14 11 15 26 16 28 17 12 18 25 19 24 20 13 21 22 22 14 23
REMARK SMILES IDX 16 24 21 25 23 26 15 27 17 28 20 29 18 30 19 31
REMARK H PARENT
REMARK Flexibility Score: inf
ROOT
ATOM      1  C   UNL     1     -22.789  -9.050   6.147  1.00  0.00     0.004 C 
ENDROOT
BRANCH   1   2
ATOM      2  C   UNL     1     -22.028 -10.246   6.802  1.00  0.00    -0.009 C 
BRANCH   2   3
ATOM      3  C   UNL     1     -22.335 -10.409   8.321  1.00  0.00     0.000 C 
ATOM      4  C   UNL     1     -22.963 -11.754   8.695  1.00  0.00     0.004 C 
ENDBRANCH   2   3
BRANCH   2   5
ATOM      5  C   UNL     1     -20.489 -10.232   6.515  1.00  0.00    -0.014 C 
ATOM      6  C   UNL     1     -20.071  -9.043   5.627  1.00  0.00     0.007 C 
ATOM      7  C   UNL     1     -19.654 -10.189   7.811  1.00  0.00     0.007 C 
ENDBRANCH   2   5
ENDBRANCH   1   2
BRANCH   1   8
ATOM      8  C   UNL     1     -23.535  -8.083   7.110  1.00  0.00     0.004 C 
BRANCH   8   9
ATOM      9  C   UNL     1     -23.062  -6.598   7.125  1.00  0.00    -0.011 C 
ATOM     10  C   UNL     1     -24.125  -5.701   7.802  1.00  0.00     0.008 C 
BRANCH   9  11
ATOM     11  C   UNL     1     -21.602  -6.514   7.770  1.00  0.00    -0.002 C 
ATOM     12  C   UNL     1     -21.542  -6.782   9.291  1.00  0.00     0.005 C 
ATOM     13  C   UNL     1     -20.881  -5.123   7.628  1.00  0.00    -0.026 C 
ATOM     14  C   UNL     1     -21.606  -5.419   9.973  1.00  0.00     0.005 C 
ATOM     15  C   UNL     1     -21.396  -4.356   8.877  1.00  0.00    -0.001 C 
ATOM     16  C   UNL     1     -19.332  -5.335   7.692  1.00  0.00     0.007 C 
ATOM     17  C   UNL     1     -21.211  -4.391   6.297  1.00  0.00     0.012 C 
ATOM     18  C   UNL     1     -20.524  -3.162   9.367  1.00  0.00     0.004 C 
ATOM     19  C   UNL     1     -18.543  -4.070   8.058  1.00  0.00     0.005 C 
ATOM     20  C   UNL     1     -19.004  -3.483   9.415  1.00  0.00     0.003 C 
ATOM     21  C   UNL     1     -20.794  -1.879   8.556  1.00  0.00     0.085 C 
ATOM     22  C   UNL     1     -18.131  -2.267   9.989  1.00  0.00    -0.000 C 
ATOM     23  C   UNL     1     -20.053  -0.722   9.141  1.00  0.00     0.159 C 
ATOM     24  C   UNL     1     -18.929  -0.955  10.072  1.00  0.00     0.005 C 
ATOM     25  C   UNL     1     -17.665  -2.649  11.430  1.00  0.00     0.020 C 
ATOM     26  C   UNL     1     -16.877  -1.973   9.119  1.00  0.00     0.017 C 
ATOM     27  O   UNL     1     -20.401   0.451   8.832  1.00  0.00    -0.295 OA
ATOM     28  C   UNL     1     -18.604   0.004  10.961  1.00  0.00     0.055 C 
ATOM     29  C   UNL     1     -16.889  -1.532  12.142  1.00  0.00     0.081 C 
ATOM     30  C   UNL     1     -17.576  -0.208  11.992  1.00  0.00     0.156 C 
ATOM     31  O   UNL     1     -17.258   0.745  12.753  1.00  0.00    -0.295 OA
ENDBRANCH   9  11
ENDBRANCH   8   9
ENDBRANCH   1   8
TORSDOF 6
ENDMDL
MODEL 5
REMARK VINA RESULT:    -4.991      2.800      8.050
REMARK INTER + INTRA:          -8.217
REMARK INTER:                  -7.461
REMARK INTRA:                  -0.755
REMARK UNBOUND:                -1.475
REMARK SMILES CC[C@@H](CC[C@@H](C)[C@@H]1CC[C@H]2[C@@H]3CC(=O)C4=CC(=O)CC[C@@]4(C)[C@@H]3CC[C@]21C)C(C)C
REMARK SMILES IDX 4 1 3 2 2 3 1 4 29 5 30 6 31 7 5 8 6 9 7 10 8 11 9 12 27 13
REMARK SMILES IDX 10 14 11 15 26 16 28 17 12 18 25 19 24 20 13 21 22 22 14 23
REMARK SMILES IDX 16 24 21 25 23 26 15 27 17 28 20 29 18 30 19 31
REMARK H PARENT
REMARK Flexibility Score: inf
ROOT
ATOM      1  C   UNL     1     -20.273  -1.169   9.451  1.00  0.00     0.004 C 
ENDROOT
BRANCH   1   2
ATOM      2  C   UNL     1     -19.834  -2.337  10.391  1.00  0.00    -0.009 C 
BRANCH   2   3
ATOM      3  C   UNL     1     -20.105  -2.043  11.897  1.00  0.00     0.000 C 
ATOM      4  C   UNL     1     -21.556  -1.675  12.214  1.00  0.00     0.004 C 
ENDBRANCH   2   3
BRANCH   2   5
ATOM      5  C   UNL     1     -18.362  -2.810  10.143  1.00  0.00    -0.014 C 
ATOM      6  C   UNL     1     -18.239  -3.706   8.895  1.00  0.00     0.007 C 
ATOM      7  C   UNL     1     -17.385  -1.626   9.992  1.00  0.00     0.007 C 
ENDBRANCH   2   5
ENDBRANCH   1   2
BRANCH   1   8
ATOM      8  C   UNL     1     -21.209  -1.537   8.265  1.00  0.00     0.004 C 
BRANCH   8   9
ATOM      9  C   UNL     1     -22.729  -1.243   8.448  1.00  0.00    -0.011 C 
ATOM     10  C   UNL     1     -23.199  -0.185   7.423  1.00  0.00     0.008 C 
BRANCH   9  11
ATOM     11  C   UNL     1     -23.542  -2.619   8.414  1.00  0.00    -0.002 C 
ATOM     12  C   UNL     1     -23.630  -3.360   9.767  1.00  0.00     0.005 C 
ATOM     13  C   UNL     1     -22.969  -3.718   7.446  1.00  0.00    -0.026 C 
ATOM     14  C   UNL     1     -22.488  -4.371   9.781  1.00  0.00     0.005 C 
ATOM     15  C   UNL     1     -21.930  -4.440   8.346  1.00  0.00    -0.001 C 
ATOM     16  C   UNL     1     -24.123  -4.686   7.023  1.00  0.00     0.007 C 
ATOM     17  C   UNL     1     -22.337  -3.131   6.153  1.00  0.00     0.012 C 
ATOM     18  C   UNL     1     -21.538  -5.890   7.929  1.00  0.00     0.004 C 
ATOM     19  C   UNL     1     -23.638  -6.048   6.504  1.00  0.00     0.005 C 
ATOM     20  C   UNL     1     -22.758  -6.776   7.550  1.00  0.00     0.003 C 
ATOM     21  C   UNL     1     -20.475  -5.902   6.813  1.00  0.00     0.085 C 
ATOM     22  C   UNL     1     -22.343  -8.282   7.193  1.00  0.00    -0.000 C 
ATOM     23  C   UNL     1     -20.018  -7.298   6.539  1.00  0.00     0.159 C 
ATOM     24  C   UNL     1     -20.826  -8.446   6.999  1.00  0.00     0.005 C 
ATOM     25  C   UNL     1     -22.787  -9.196   8.380  1.00  0.00     0.020 C 
ATOM     26  C   UNL     1     -23.018  -8.792   5.890  1.00  0.00     0.017 C 
ATOM     27  O   UNL     1     -18.938  -7.479   5.914  1.00  0.00    -0.295 OA
ATOM     28  C   UNL     1     -20.220  -9.630   7.213  1.00  0.00     0.055 C 
ATOM     29  C   UNL     1     -22.370 -10.665   8.215  1.00  0.00     0.081 C 
ATOM     30  C   UNL     1     -20.939 -10.781   7.782  1.00  0.00     0.156 C 
ATOM     31  O   UNL     1     -20.346 -11.886   7.895  1.00  0.00    -0.295 OA
ENDBRANCH   9  11
ENDBRANCH   8   9
ENDBRANCH   1   8
TORSDOF 6
ENDMDL
MODEL 6
REMARK VINA RESULT:    -4.813      2.782      8.708
REMARK INTER + INTRA:          -7.976
REMARK INTER:                  -6.336
REMARK INTRA:                  -1.640
REMARK UNBOUND:                -1.475
REMARK SMILES CC[C@@H](CC[C@@H](C)[C@@H]1CC[C@H]2[C@@H]3CC(=O)C4=CC(=O)CC[C@@]4(C)[C@@H]3CC[C@]21C)C(C)C
REMARK SMILES IDX 4 1 3 2 2 3 1 4 29 5 30 6 31 7 5 8 6 9 7 10 8 11 9 12 27 13
REMARK SMILES IDX 10 14 11 15 26 16 28 17 12 18 25 19 24 20 13 21 22 22 14 23
REMARK SMILES IDX 16 24 21 25 23 26 15 27 17 28 20 29 18 30 19 31
REMARK H PARENT
REMARK Flexibility Score: inf
ROOT
ATOM      1  C   UNL     1     -20.831   2.059   8.513  1.00  0.00     0.004 C 
ENDROOT
BRANCH   1   2
ATOM      2  C   UNL     1     -22.263   2.124   7.891  1.00  0.00    -0.009 C 
BRANCH   2   3
ATOM      3  C   UNL     1     -23.262   1.127   8.551  1.00  0.00     0.000 C 
ATOM      4  C   UNL     1     -24.101   1.733   9.680  1.00  0.00     0.004 C 
ENDBRANCH   2   3
BRANCH   2   5
ATOM      5  C   UNL     1     -22.266   2.007   6.330  1.00  0.00    -0.014 C 
ATOM      6  C   UNL     1     -20.862   1.715   5.763  1.00  0.00     0.007 C 
ATOM      7  C   UNL     1     -23.231   0.914   5.829  1.00  0.00     0.007 C 
ENDBRANCH   2   5
ENDBRANCH   1   2
BRANCH   1   8
ATOM      8  C   UNL     1     -20.665   1.205   9.801  1.00  0.00     0.004 C 
BRANCH   8   9
ATOM      9  C   UNL     1     -19.807  -0.091   9.683  1.00  0.00    -0.011 C 
ATOM     10  C   UNL     1     -18.521   0.035  10.531  1.00  0.00     0.008 C 
BRANCH   9  11
ATOM     11  C   UNL     1     -20.717  -1.361  10.027  1.00  0.00    -0.002 C 
ATOM     12  C   UNL     1     -20.135  -2.312  11.096  1.00  0.00     0.005 C 
ATOM     13  C   UNL     1     -21.012  -2.325   8.820  1.00  0.00    -0.026 C 
ATOM     14  C   UNL     1     -19.394  -3.411  10.342  1.00  0.00     0.005 C 
ATOM     15  C   UNL     1     -19.790  -3.283   8.858  1.00  0.00    -0.001 C 
ATOM     16  C   UNL     1     -22.346  -3.097   9.090  1.00  0.00     0.007 C 
ATOM     17  C   UNL     1     -21.152  -1.586   7.460  1.00  0.00     0.012 C 
ATOM     18  C   UNL     1     -19.973  -4.670   8.171  1.00  0.00     0.004 C 
ATOM     19  C   UNL     1     -22.498  -4.388   8.272  1.00  0.00     0.005 C 
ATOM     20  C   UNL     1     -21.319  -5.362   8.521  1.00  0.00     0.003 C 
ATOM     21  C   UNL     1     -19.772  -4.589   6.644  1.00  0.00     0.085 C 
ATOM     22  C   UNL     1     -21.459  -6.817   7.863  1.00  0.00    -0.000 C 
ATOM     23  C   UNL     1     -19.811  -5.952   6.036  1.00  0.00     0.159 C 
ATOM     24  C   UNL     1     -20.391  -7.083   6.789  1.00  0.00     0.005 C 
ATOM     25  C   UNL     1     -21.287  -7.876   8.999  1.00  0.00     0.020 C 
ATOM     26  C   UNL     1     -22.840  -7.032   7.183  1.00  0.00     0.017 C 
ATOM     27  O   UNL     1     -19.342  -6.122   4.878  1.00  0.00    -0.295 OA
ATOM     28  C   UNL     1     -19.992  -8.338   6.499  1.00  0.00     0.055 C 
ATOM     29  C   UNL     1     -21.308  -9.326   8.496  1.00  0.00     0.081 C 
ATOM     30  C   UNL     1     -20.438  -9.498   7.286  1.00  0.00     0.156 C 
ATOM     31  O   UNL     1     -20.094 -10.656   6.930  1.00  0.00    -0.295 OA
ENDBRANCH   9  11
ENDBRANCH   8   9
ENDBRANCH   1   8
TORSDOF 6
ENDMDL
MODEL 7
REMARK VINA RESULT:    -4.626      3.118      9.008
REMARK INTER + INTRA:          -7.724
REMARK INTER:                  -6.844
REMARK INTRA:                  -0.880
REMARK UNBOUND:                -1.475
REMARK SMILES CC[C@@H](CC[C@@H](C)[C@@H]1CC[C@H]2[C@@H]3CC(=O)C4=CC(=O)CC[C@@]4(C)[C@@H]3CC[C@]21C)C(C)C
REMARK SMILES IDX 4 1 3 2 2 3 1 4 29 5 30 6 31 7 5 8 6 9 7 10 8 11 9 12 27 13
REMARK SMILES IDX 10 14 11 15 26 16 28 17 12 18 25 19 24 20 13 21 22 22 14 23
REMARK SMILES IDX 16 24 21 25 23 26 15 27 17 28 20 29 18 30 19 31
REMARK H PARENT
REMARK Flexibility Score: inf
ROOT
ATOM      1  C   UNL     1     -20.592  -0.473  10.315  1.00  0.00     0.004 C 
ENDROOT
BRANCH   1   2
ATOM      2  C   UNL     1     -21.444   0.763  10.746  1.00  0.00    -0.009 C 
BRANCH   2   3
ATOM      3  C   UNL     1     -20.604   1.867  11.456  1.00  0.00     0.000 C 
ATOM      4  C   UNL     1     -19.089   1.671  11.347  1.00  0.00     0.004 C 
ENDBRANCH   2   3
BRANCH   2   5
ATOM      5  C   UNL     1     -22.719   0.379  11.570  1.00  0.00    -0.014 C 
ATOM      6  C   UNL     1     -22.596  -1.011  12.224  1.00  0.00     0.007 C 
ATOM      7  C   UNL     1     -23.034   1.410  12.673  1.00  0.00     0.007 C 
ENDBRANCH   2   5
ENDBRANCH   1   2
BRANCH   1   8
ATOM      8  C   UNL     1     -20.759  -0.963   8.848  1.00  0.00     0.004 C 
BRANCH   8   9
ATOM      9  C   UNL     1     -20.369  -2.441   8.549  1.00  0.00    -0.011 C 
ATOM     10  C   UNL     1     -19.310  -2.934   9.562  1.00  0.00     0.008 C 
BRANCH   9  11
ATOM     11  C   UNL     1     -21.693  -3.334   8.474  1.00  0.00    -0.002 C 
ATOM     12  C   UNL     1     -22.216  -3.845   9.835  1.00  0.00     0.005 C 
ATOM     13  C   UNL     1     -21.570  -4.653   7.626  1.00  0.00    -0.026 C 
ATOM     14  C   UNL     1     -21.634  -5.241  10.026  1.00  0.00     0.005 C 
ATOM     15  C   UNL     1     -21.035  -5.668   8.672  1.00  0.00    -0.001 C 
ATOM     16  C   UNL     1     -22.987  -5.068   7.108  1.00  0.00     0.007 C 
ATOM     17  C   UNL     1     -20.632  -4.509   6.395  1.00  0.00     0.012 C 
ATOM     18  C   UNL     1     -21.277  -7.176   8.364  1.00  0.00     0.004 C 
ATOM     19  C   UNL     1     -23.098  -6.546   6.705  1.00  0.00     0.005 C 
ATOM     20  C   UNL     1     -22.720  -7.485   7.878  1.00  0.00     0.003 C 
ATOM     21  C   UNL     1     -20.229  -7.741   7.384  1.00  0.00     0.085 C 
ATOM     22  C   UNL     1     -22.972  -9.049   7.634  1.00  0.00    -0.000 C 
ATOM     23  C   UNL     1     -20.402  -9.216   7.223  1.00  0.00     0.159 C 
ATOM     24  C   UNL     1     -21.667  -9.863   7.629  1.00  0.00     0.005 C 
ATOM     25  C   UNL     1     -23.874  -9.577   8.795  1.00  0.00     0.020 C 
ATOM     26  C   UNL     1     -23.681  -9.334   6.281  1.00  0.00     0.017 C 
ATOM     27  O   UNL     1     -19.456  -9.896   6.740  1.00  0.00    -0.295 OA
ATOM     28  C   UNL     1     -21.658 -11.169   7.962  1.00  0.00     0.055 C 
ATOM     29  C   UNL     1     -24.125 -11.091   8.741  1.00  0.00     0.081 C 
ATOM     30  C   UNL     1     -22.854 -11.846   8.487  1.00  0.00     0.156 C 
ATOM     31  O   UNL     1     -22.814 -13.084   8.714  1.00  0.00    -0.295 OA
ENDBRANCH   9  11
ENDBRANCH   8   9
ENDBRANCH   1   8
TORSDOF 6
ENDMDL
MODEL 8
REMARK VINA RESULT:    -4.558      3.079      8.819
REMARK INTER + INTRA:          -7.632
REMARK INTER:                  -6.152
REMARK INTRA:                  -1.480
REMARK UNBOUND:                -1.475
REMARK SMILES CC[C@@H](CC[C@@H](C)[C@@H]1CC[C@H]2[C@@H]3CC(=O)C4=CC(=O)CC[C@@]4(C)[C@@H]3CC[C@]21C)C(C)C
REMARK SMILES IDX 4 1 3 2 2 3 1 4 29 5 30 6 31 7 5 8 6 9 7 10 8 11 9 12 27 13
REMARK SMILES IDX 10 14 11 15 26 16 28 17 12 18 25 19 24 20 13 21 22 22 14 23
REMARK SMILES IDX 16 24 21 25 23 26 15 27 17 28 20 29 18 30 19 31
REMARK H PARENT
REMARK Flexibility Score: inf
ROOT
ATOM      1  C   UNL     1     -21.123   1.611   9.647  1.00  0.00     0.004 C 
ENDROOT
BRANCH   1   2
ATOM      2  C   UNL     1     -20.863   1.418  11.175  1.00  0.00    -0.009 C 
BRANCH   2   3
ATOM      3  C   UNL     1     -19.876   0.251  11.484  1.00  0.00     0.000 C 
ATOM      4  C   UNL     1     -18.403   0.667  11.517  1.00  0.00     0.004 C 
ENDBRANCH   2   3
BRANCH   2   5
ATOM      5  C   UNL     1     -22.177   1.310  12.018  1.00  0.00    -0.014 C 
ATOM      6  C   UNL     1     -23.431   1.179  11.131  1.00  0.00     0.007 C 
ATOM      7  C   UNL     1     -22.147   0.119  12.998  1.00  0.00     0.007 C 
ENDBRANCH   2   5
ENDBRANCH   1   2
BRANCH   1   8
ATOM      8  C   UNL     1     -20.728   0.432   8.714  1.00  0.00     0.004 C 
BRANCH   8   9
ATOM      9  C   UNL     1     -21.843  -0.600   8.369  1.00  0.00    -0.011 C 
ATOM     10  C   UNL     1     -22.979   0.080   7.572  1.00  0.00     0.008 C 
BRANCH   9  11
ATOM     11  C   UNL     1     -21.186  -1.870   7.653  1.00  0.00    -0.002 C 
ATOM     12  C   UNL     1     -21.887  -2.321   6.351  1.00  0.00     0.005 C 
ATOM     13  C   UNL     1     -21.154  -3.187   8.511  1.00  0.00    -0.026 C 
ATOM     14  C   UNL     1     -22.870  -3.417   6.747  1.00  0.00     0.005 C 
ATOM     15  C   UNL     1     -22.538  -3.819   8.197  1.00  0.00    -0.001 C 
ATOM     16  C   UNL     1     -19.987  -4.102   8.011  1.00  0.00     0.007 C 
ATOM     17  C   UNL     1     -20.944  -2.928  10.030  1.00  0.00     0.012 C 
ATOM     18  C   UNL     1     -22.671  -5.353   8.434  1.00  0.00     0.004 C 
ATOM     19  C   UNL     1     -20.139  -5.579   8.401  1.00  0.00     0.005 C 
ATOM     20  C   UNL     1     -21.471  -6.172   7.881  1.00  0.00     0.003 C 
ATOM     21  C   UNL     1     -22.933  -5.688   9.916  1.00  0.00     0.085 C 
ATOM     22  C   UNL     1     -21.659  -7.753   8.070  1.00  0.00    -0.000 C 
ATOM     23  C   UNL     1     -23.199  -7.148  10.086  1.00  0.00     0.159 C 
ATOM     24  C   UNL     1     -22.815  -8.099   9.023  1.00  0.00     0.005 C 
ATOM     25  C   UNL     1     -21.975  -8.369   6.670  1.00  0.00     0.020 C 
ATOM     26  C   UNL     1     -20.387  -8.438   8.643  1.00  0.00     0.017 C 
ATOM     27  O   UNL     1     -23.754  -7.553  11.144  1.00  0.00    -0.295 OA
ATOM     28  C   UNL     1     -23.470  -9.273   8.926  1.00  0.00     0.055 C 
ATOM     29  C   UNL     1     -22.270  -9.876   6.714  1.00  0.00     0.081 C 
ATOM     30  C   UNL     1     -23.221 -10.215   7.823  1.00  0.00     0.156 C 
ATOM     31  O   UNL     1     -23.807 -11.329   7.818  1.00  0.00    -0.295 OA
ENDBRANCH   9  11
ENDBRANCH   8   9
ENDBRANCH   1   8
TORSDOF 6
ENDMDL
MODEL 9
REMARK VINA RESULT:    -4.482      2.221      3.676
REMARK INTER + INTRA:          -7.530
REMARK INTER:                  -6.442
REMARK INTRA:                  -1.088
REMARK UNBOUND:                -1.475
REMARK SMILES CC[C@@H](CC[C@@H](C)[C@@H]1CC[C@H]2[C@@H]3CC(=O)C4=CC(=O)CC[C@@]4(C)[C@@H]3CC[C@]21C)C(C)C
REMARK SMILES IDX 4 1 3 2 2 3 1 4 29 5 30 6 31 7 5 8 6 9 7 10 8 11 9 12 27 13
REMARK SMILES IDX 10 14 11 15 26 16 28 17 12 18 25 19 24 20 13 21 22 22 14 23
REMARK SMILES IDX 16 24 21 25 23 26 15 27 17 28 20 29 18 30 19 31
REMARK H PARENT
REMARK Flexibility Score: inf
ROOT
ATOM      1  C   UNL     1     -21.817  -8.999   5.489  1.00  0.00     0.004 C 
ENDROOT
BRANCH   1   2
ATOM      2  C   UNL     1     -20.428  -8.603   6.083  1.00  0.00    -0.009 C 
BRANCH   2   3
ATOM      3  C   UNL     1     -19.278  -8.649   5.032  1.00  0.00     0.000 C 
ATOM      4  C   UNL     1     -18.501  -7.338   4.893  1.00  0.00     0.004 C 
ENDBRANCH   2   3
BRANCH   2   5
ATOM      5  C   UNL     1     -20.064  -9.394   7.384  1.00  0.00    -0.014 C 
ATOM      6  C   UNL     1     -20.792  -8.844   8.626  1.00  0.00     0.007 C 
ATOM      7  C   UNL     1     -20.379 -10.898   7.260  1.00  0.00     0.007 C 
ENDBRANCH   2   5
ENDBRANCH   1   2
BRANCH   1   8
ATOM      8  C   UNL     1     -22.941  -7.926   5.557  1.00  0.00     0.004 C 
BRANCH   8   9
ATOM      9  C   UNL     1     -22.495  -6.451   5.787  1.00  0.00    -0.011 C 
ATOM     10  C   UNL     1     -23.514  -5.475   5.154  1.00  0.00     0.008 C 
BRANCH   9  11
ATOM     11  C   UNL     1     -22.220  -6.218   7.345  1.00  0.00    -0.002 C 
ATOM     12  C   UNL     1     -23.487  -6.107   8.223  1.00  0.00     0.005 C 
ATOM     13  C   UNL     1     -21.429  -4.906   7.701  1.00  0.00    -0.026 C 
ATOM     14  C   UNL     1     -23.796  -4.620   8.352  1.00  0.00     0.005 C 
ATOM     15  C   UNL     1     -22.567  -3.857   7.821  1.00  0.00    -0.001 C 
ATOM     16  C   UNL     1     -20.693  -5.102   9.068  1.00  0.00     0.007 C 
ATOM     17  C   UNL     1     -20.366  -4.519   6.635  1.00  0.00     0.012 C 
ATOM     18  C   UNL     1     -22.251  -2.582   8.659  1.00  0.00     0.004 C 
ATOM     19  C   UNL     1     -20.305  -3.790   9.763  1.00  0.00     0.005 C 
ATOM     20  C   UNL     1     -21.540  -2.888  10.007  1.00  0.00     0.003 C 
ATOM     21  C   UNL     1     -21.467  -1.534   7.845  1.00  0.00     0.085 C 
ATOM     22  C   UNL     1     -21.287  -1.573  10.888  1.00  0.00    -0.000 C 
ATOM     23  C   UNL     1     -21.307  -0.272   8.627  1.00  0.00     0.159 C 
ATOM     24  C   UNL     1     -21.512  -0.277  10.091  1.00  0.00     0.005 C 
ATOM     25  C   UNL     1     -22.294  -1.594  12.082  1.00  0.00     0.020 C 
ATOM     26  C   UNL     1     -19.842  -1.505  11.454  1.00  0.00     0.017 C 
ATOM     27  O   UNL     1     -20.997   0.791   8.023  1.00  0.00    -0.295 OA
ATOM     28  C   UNL     1     -21.865   0.869  10.707  1.00  0.00     0.055 C 
ATOM     29  C   UNL     1     -22.227  -0.340  12.966  1.00  0.00     0.081 C 
ATOM     30  C   UNL     1     -22.199   0.911  12.139  1.00  0.00     0.156 C 
ATOM     31  O   UNL     1     -22.452   2.018  12.682  1.00  0.00    -0.295 OA
ENDBRANCH   9  11
ENDBRANCH   8   9
ENDBRANCH   1   8
TORSDOF 6
ENDMDL
