MODEL 1
REMARK VINA RESULT:    -4.185      0.000      0.000
REMARK INTER + INTRA:         -15.872
REMARK INTER:                 -11.036
REMARK INTRA:                  -4.836
REMARK UNBOUND:                -4.836
REMARK SMILES CCCCCCCCCCCCCCCCCCCCCCCCCCCCCC(=O)[O-]
REMARK SMILES IDX 16 1 17 2 18 3 19 4 20 5 21 6 22 7 23 8 24 9 25 10 26 11
REMARK SMILES IDX 27 12 28 13 29 14 30 15 31 16 32 17 15 18 14 19 13 20 12 21
REMARK SMILES IDX 11 22 10 23 9 24 8 25 7 26 6 27 5 28 4 29 3 30 2 31 1 32
REMARK H PARENT
REMARK Flexibility Score: inf
ROOT
ATOM      1  C   UNL     1     169.239 175.549 185.091  1.00  0.00     0.000 C 
ENDROOT
BRANCH   1   2
ATOM      2  C   UNL     1     170.049 176.809 184.749  1.00  0.00     0.000 C 
BRANCH   2   3
ATOM      3  C   UNL     1     169.197 177.881 184.051  1.00  0.00     0.000 C 
BRANCH   3   4
ATOM      4  C   UNL     1     169.483 179.274 184.627  1.00  0.00     0.000 C 
BRANCH   4   5
ATOM      5  C   UNL     1     170.731 179.306 185.530  1.00  0.00     0.000 C 
BRANCH   5   6
ATOM      6  C   UNL     1     170.517 179.925 186.926  1.00  0.00     0.000 C 
BRANCH   6   7
ATOM      7  C   UNL     1     171.746 179.906 187.854  1.00  0.00     0.000 C 
BRANCH   7   8
ATOM      8  C   UNL     1     173.095 179.848 187.109  1.00  0.00     0.000 C 
BRANCH   8   9
ATOM      9  C   UNL     1     174.297 179.662 188.055  1.00  0.00     0.000 C 
BRANCH   9  10
ATOM     10  C   UNL     1     175.056 178.352 187.792  1.00  0.00     0.000 C 
BRANCH  10  11
ATOM     11  C   UNL     1     174.151 177.255 187.204  1.00  0.00     0.000 C 
BRANCH  11  12
ATOM     12  C   UNL     1     174.603 176.795 185.810  1.00  0.00     0.000 C 
BRANCH  12  13
ATOM     13  C   UNL     1     173.496 176.949 184.752  1.00  0.00     0.006 C 
BRANCH  13  14
ATOM     14  C   UNL     1     173.913 177.881 183.606  1.00  0.00     0.053 C 
BRANCH  14  15
ATOM     15  C   UNL     1     175.250 178.511 183.859  1.00  0.00     0.041 C 
ATOM     16  O   UNL     1     176.301 177.949 183.447  1.00  0.00    -0.550 OA
ATOM     17  O   UNL     1     175.339 179.682 184.600  1.00  0.00    -0.550 OA
ENDBRANCH  14  15
ENDBRANCH  13  14
ENDBRANCH  12  13
ENDBRANCH  11  12
ENDBRANCH  10  11
ENDBRANCH   9  10
ENDBRANCH   8   9
ENDBRANCH   7   8
ENDBRANCH   6   7
ENDBRANCH   5   6
ENDBRANCH   4   5
ENDBRANCH   3   4
ENDBRANCH   2   3
ENDBRANCH   1   2
BRANCH   1  18
ATOM     18  C   UNL     1     169.525 175.042 186.515  1.00  0.00     0.000 C 
BRANCH  18  19
ATOM     19  C   UNL     1     170.672 175.801 187.196  1.00  0.00     0.000 C 
BRANCH  19  20
ATOM     20  C   UNL     1     170.260 176.405 188.550  1.00  0.00     0.000 C 
BRANCH  20  21
ATOM     21  C   UNL     1     168.737 176.524 188.707  1.00  0.00     0.000 C 
BRANCH  21  22
ATOM     22  C   UNL     1     168.224 177.953 188.464  1.00  0.00     0.000 C 
BRANCH  22  23
ATOM     23  C   UNL     1     167.202 178.036 187.314  1.00  0.00     0.000 C 
BRANCH  23  24
ATOM     24  C   UNL     1     166.313 176.791 187.145  1.00  0.00    -0.000 C 
BRANCH  24  25
ATOM     25  C   UNL     1     164.826 177.134 186.947  1.00  0.00    -0.000 C 
BRANCH  25  26
ATOM     26  C   UNL     1     163.976 175.888 186.619  1.00  0.00    -0.000 C 
BRANCH  26  27
ATOM     27  C   UNL     1     162.808 175.660 187.590  1.00  0.00    -0.000 C 
BRANCH  27  28
ATOM     28  C   UNL     1     162.311 176.954 188.249  1.00  0.00    -0.000 C 
BRANCH  28  29
ATOM     29  C   UNL     1     160.921 177.341 187.731  1.00  0.00    -0.000 C 
BRANCH  29  30
ATOM     30  C   UNL     1     161.028 178.286 186.525  1.00  0.00    -0.000 C 
BRANCH  30  31
ATOM     31  C   UNL     1     160.478 177.660 185.233  1.00  0.00    -0.003 C 
ATOM     32  C   UNL     1     161.576 177.307 184.231  1.00  0.00     0.004 C 
ENDBRANCH  30  31
ENDBRANCH  29  30
ENDBRANCH  28  29
ENDBRANCH  27  28
ENDBRANCH  26  27
ENDBRANCH  25  26
ENDBRANCH  24  25
ENDBRANCH  23  24
ENDBRANCH  22  23
ENDBRANCH  21  22
ENDBRANCH  20  21
ENDBRANCH  19  20
ENDBRANCH  18  19
ENDBRANCH   1  18
TORSDOF 28
ENDMDL
MODEL 2
REMARK VINA RESULT:    -4.136      3.940     10.002
REMARK INTER + INTRA:         -15.743
REMARK INTER:                 -11.550
REMARK INTRA:                  -4.193
REMARK UNBOUND:                -4.836
REMARK SMILES CCCCCCCCCCCCCCCCCCCCCCCCCCCCCC(=O)[O-]
REMARK SMILES IDX 16 1 17 2 18 3 19 4 20 5 21 6 22 7 23 8 24 9 25 10 26 11
REMARK SMILES IDX 27 12 28 13 29 14 30 15 31 16 32 17 15 18 14 19 13 20 12 21
REMARK SMILES IDX 11 22 10 23 9 24 8 25 7 26 6 27 5 28 4 29 3 30 2 31 1 32
REMARK H PARENT
REMARK Flexibility Score: inf
ROOT
ATOM      1  C   UNL     1     170.604 177.510 187.381  1.00  0.00     0.000 C 
ENDROOT
BRANCH   1   2
ATOM      2  C   UNL     1     169.630 178.607 187.837  1.00  0.00     0.000 C 
BRANCH   2   3
ATOM      3  C   UNL     1     168.417 178.036 188.590  1.00  0.00     0.000 C 
BRANCH   3   4
ATOM      4  C   UNL     1     168.104 176.606 188.128  1.00  0.00     0.000 C 
BRANCH   4   5
ATOM      5  C   UNL     1     167.107 176.559 186.954  1.00  0.00     0.000 C 
BRANCH   5   6
ATOM      6  C   UNL     1     166.261 177.833 186.759  1.00  0.00     0.000 C 
BRANCH   6   7
ATOM      7  C   UNL     1     164.736 177.631 186.821  1.00  0.00     0.000 C 
BRANCH   7   8
ATOM      8  C   UNL     1     164.305 176.172 187.078  1.00  0.00     0.000 C 
BRANCH   8   9
ATOM      9  C   UNL     1     163.085 176.061 188.012  1.00  0.00     0.000 C 
BRANCH   9  10
ATOM     10  C   UNL     1     161.983 175.159 187.435  1.00  0.00     0.000 C 
BRANCH  10  11
ATOM     11  C   UNL     1     160.680 175.927 187.154  1.00  0.00     0.000 C 
BRANCH  11  12
ATOM     12  C   UNL     1     160.841 177.447 187.309  1.00  0.00     0.000 C 
BRANCH  12  13
ATOM     13  C   UNL     1     160.627 178.199 185.983  1.00  0.00     0.006 C 
BRANCH  13  14
ATOM     14  C   UNL     1     161.612 177.749 184.895  1.00  0.00     0.053 C 
BRANCH  14  15
ATOM     15  C   UNL     1     160.907 177.361 183.630  1.00  0.00     0.041 C 
ATOM     16  O   UNL     1     161.212 177.919 182.541  1.00  0.00    -0.550 OA
ATOM     17  O   UNL     1     159.875 176.433 183.664  1.00  0.00    -0.550 OA
ENDBRANCH  14  15
ENDBRANCH  13  14
ENDBRANCH  12  13
ENDBRANCH  11  12
ENDBRANCH  10  11
ENDBRANCH   9  10
ENDBRANCH   8   9
ENDBRANCH   7   8
ENDBRANCH   6   7
ENDBRANCH   5   6
ENDBRANCH   4   5
ENDBRANCH   3   4
ENDBRANCH   2   3
ENDBRANCH   1   2
BRANCH   1  18
ATOM     18  C   UNL     1     172.074 177.935 187.540  1.00  0.00     0.000 C 
BRANCH  18  19
ATOM     19  C   UNL     1     172.260 179.457 187.491  1.00  0.00     0.000 C 
BRANCH  19  20
ATOM     20  C   UNL     1     173.737 179.869 187.354  1.00  0.00     0.000 C 
BRANCH  20  21
ATOM     21  C   UNL     1     174.661 179.081 188.296  1.00  0.00     0.000 C 
BRANCH  21  22
ATOM     22  C   UNL     1     175.876 178.478 187.571  1.00  0.00     0.000 C 
BRANCH  22  23
ATOM     23  C   UNL     1     175.637 177.031 187.102  1.00  0.00     0.000 C 
BRANCH  23  24
ATOM     24  C   UNL     1     175.020 176.897 185.698  1.00  0.00    -0.000 C 
BRANCH  24  25
ATOM     25  C   UNL     1     175.815 177.650 184.616  1.00  0.00    -0.000 C 
BRANCH  25  26
ATOM     26  C   UNL     1     174.967 178.729 183.912  1.00  0.00    -0.000 C 
BRANCH  26  27
ATOM     27  C   UNL     1     173.453 178.475 183.985  1.00  0.00    -0.000 C 
BRANCH  27  28
ATOM     28  C   UNL     1     172.852 178.031 182.644  1.00  0.00    -0.000 C 
BRANCH  28  29
ATOM     29  C   UNL     1     171.330 178.214 182.632  1.00  0.00    -0.000 C 
BRANCH  29  30
ATOM     30  C   UNL     1     170.933 179.551 183.274  1.00  0.00    -0.000 C 
BRANCH  30  31
ATOM     31  C   UNL     1     169.744 179.413 184.238  1.00  0.00    -0.003 C 
ATOM     32  C   UNL     1     169.007 178.082 184.084  1.00  0.00     0.004 C 
ENDBRANCH  30  31
ENDBRANCH  29  30
ENDBRANCH  28  29
ENDBRANCH  27  28
ENDBRANCH  26  27
ENDBRANCH  25  26
ENDBRANCH  24  25
ENDBRANCH  23  24
ENDBRANCH  22  23
ENDBRANCH  21  22
ENDBRANCH  20  21
ENDBRANCH  19  20
ENDBRANCH  18  19
ENDBRANCH   1  18
TORSDOF 28
ENDMDL
MODEL 3
REMARK VINA RESULT:    -4.127      1.767      4.310
REMARK INTER + INTRA:         -15.718
REMARK INTER:                 -10.974
REMARK INTRA:                  -4.744
REMARK UNBOUND:                -4.836
REMARK SMILES CCCCCCCCCCCCCCCCCCCCCCCCCCCCCC(=O)[O-]
REMARK SMILES IDX 16 1 17 2 18 3 19 4 20 5 21 6 22 7 23 8 24 9 25 10 26 11
REMARK SMILES IDX 27 12 28 13 29 14 30 15 31 16 32 17 15 18 14 19 13 20 12 21
REMARK SMILES IDX 11 22 10 23 9 24 8 25 7 26 6 27 5 28 4 29 3 30 2 31 1 32
REMARK H PARENT
REMARK Flexibility Score: inf
ROOT
ATOM      1  C   UNL     1     166.972 174.336 186.788  1.00  0.00     0.000 C 
ENDROOT
BRANCH   1   2
ATOM      2  C   UNL     1     167.775 174.698 188.047  1.00  0.00     0.000 C 
BRANCH   2   3
ATOM      3  C   UNL     1     169.284 174.798 187.770  1.00  0.00     0.000 C 
BRANCH   3   4
ATOM      4  C   UNL     1     169.851 176.132 188.276  1.00  0.00     0.000 C 
BRANCH   4   5
ATOM      5  C   UNL     1     168.775 177.044 188.897  1.00  0.00     0.000 C 
BRANCH   5   6
ATOM      6  C   UNL     1     168.499 178.352 188.130  1.00  0.00     0.000 C 
BRANCH   6   7
ATOM      7  C   UNL     1     168.925 178.354 186.650  1.00  0.00     0.000 C 
BRANCH   7   8
ATOM      8  C   UNL     1     169.978 179.427 186.301  1.00  0.00     0.000 C 
BRANCH   8   9
ATOM      9  C   UNL     1     170.628 180.059 187.546  1.00  0.00     0.000 C 
BRANCH   9  10
ATOM     10  C   UNL     1     172.153 179.869 187.574  1.00  0.00     0.000 C 
BRANCH  10  11
ATOM     11  C   UNL     1     172.587 178.507 187.006  1.00  0.00     0.000 C 
BRANCH  11  12
ATOM     12  C   UNL     1     174.006 178.107 187.439  1.00  0.00     0.000 C 
BRANCH  12  13
ATOM     13  C   UNL     1     174.313 176.626 187.153  1.00  0.00     0.006 C 
BRANCH  13  14
ATOM     14  C   UNL     1     175.139 176.441 185.873  1.00  0.00     0.053 C 
BRANCH  14  15
ATOM     15  C   UNL     1     176.588 176.195 186.176  1.00  0.00     0.041 C 
ATOM     16  O   UNL     1     177.234 177.018 186.878  1.00  0.00    -0.550 OA
ATOM     17  O   UNL     1     177.235 175.093 185.633  1.00  0.00    -0.550 OA
ENDBRANCH  14  15
ENDBRANCH  13  14
ENDBRANCH  12  13
ENDBRANCH  11  12
ENDBRANCH  10  11
ENDBRANCH   9  10
ENDBRANCH   8   9
ENDBRANCH   7   8
ENDBRANCH   6   7
ENDBRANCH   5   6
ENDBRANCH   4   5
ENDBRANCH   3   4
ENDBRANCH   2   3
ENDBRANCH   1   2
BRANCH   1  18
ATOM     18  C   UNL     1     166.406 175.580 186.081  1.00  0.00     0.000 C 
BRANCH  18  19
ATOM     19  C   UNL     1     165.527 176.436 187.002  1.00  0.00     0.000 C 
BRANCH  19  20
ATOM     20  C   UNL     1     164.860 177.609 186.261  1.00  0.00     0.000 C 
BRANCH  20  21
ATOM     21  C   UNL     1     163.820 178.340 187.124  1.00  0.00     0.000 C 
BRANCH  21  22
ATOM     22  C   UNL     1     162.913 177.376 187.907  1.00  0.00     0.000 C 
BRANCH  22  23
ATOM     23  C   UNL     1     161.433 177.803 187.895  1.00  0.00     0.000 C 
BRANCH  23  24
ATOM     24  C   UNL     1     160.900 178.259 186.525  1.00  0.00    -0.000 C 
BRANCH  24  25
ATOM     25  C   UNL     1     160.617 177.086 185.568  1.00  0.00    -0.000 C 
BRANCH  25  26
ATOM     26  C   UNL     1     161.634 177.019 184.410  1.00  0.00    -0.000 C 
BRANCH  26  27
ATOM     27  C   UNL     1     162.016 175.588 184.001  1.00  0.00    -0.000 C 
BRANCH  27  28
ATOM     28  C   UNL     1     162.720 174.809 185.122  1.00  0.00    -0.000 C 
BRANCH  28  29
ATOM     29  C   UNL     1     161.810 173.713 185.689  1.00  0.00    -0.000 C 
BRANCH  29  30
ATOM     30  C   UNL     1     161.717 173.815 187.219  1.00  0.00    -0.000 C 
BRANCH  30  31
ATOM     31  C   UNL     1     163.092 173.738 187.901  1.00  0.00    -0.003 C 
ATOM     32  C   UNL     1     163.746 172.363 187.765  1.00  0.00     0.004 C 
ENDBRANCH  30  31
ENDBRANCH  29  30
ENDBRANCH  28  29
ENDBRANCH  27  28
ENDBRANCH  26  27
ENDBRANCH  25  26
ENDBRANCH  24  25
ENDBRANCH  23  24
ENDBRANCH  22  23
ENDBRANCH  21  22
ENDBRANCH  20  21
ENDBRANCH  19  20
ENDBRANCH  18  19
ENDBRANCH   1  18
TORSDOF 28
ENDMDL
MODEL 4
REMARK VINA RESULT:    -4.094      2.121      5.123
REMARK INTER + INTRA:         -15.630
REMARK INTER:                 -10.696
REMARK INTRA:                  -4.935
REMARK UNBOUND:                -4.836
REMARK SMILES CCCCCCCCCCCCCCCCCCCCCCCCCCCCCC(=O)[O-]
REMARK SMILES IDX 16 1 17 2 18 3 19 4 20 5 21 6 22 7 23 8 24 9 25 10 26 11
REMARK SMILES IDX 27 12 28 13 29 14 30 15 31 16 32 17 15 18 14 19 13 20 12 21
REMARK SMILES IDX 11 22 10 23 9 24 8 25 7 26 6 27 5 28 4 29 3 30 2 31 1 32
REMARK H PARENT
REMARK Flexibility Score: inf
ROOT
ATOM      1  C   UNL     1     164.441 178.735 186.175  1.00  0.00     0.000 C 
ENDROOT
BRANCH   1   2
ATOM      2  C   UNL     1     165.526 177.774 186.685  1.00  0.00     0.000 C 
BRANCH   2   3
ATOM      3  C   UNL     1     166.625 177.527 185.640  1.00  0.00     0.000 C 
BRANCH   3   4
ATOM      4  C   UNL     1     167.424 176.258 185.969  1.00  0.00     0.000 C 
BRANCH   4   5
ATOM      5  C   UNL     1     167.659 176.072 187.481  1.00  0.00     0.000 C 
BRANCH   5   6
ATOM      6  C   UNL     1     168.895 176.799 188.048  1.00  0.00     0.000 C 
BRANCH   6   7
ATOM      7  C   UNL     1     168.631 178.204 188.622  1.00  0.00     0.000 C 
BRANCH   7   8
ATOM      8  C   UNL     1     169.580 179.293 188.079  1.00  0.00     0.000 C 
BRANCH   8   9
ATOM      9  C   UNL     1     169.857 179.150 186.570  1.00  0.00     0.000 C 
BRANCH   9  10
ATOM     10  C   UNL     1     171.342 179.342 186.224  1.00  0.00     0.000 C 
BRANCH  10  11
ATOM     11  C   UNL     1     172.178 179.777 187.439  1.00  0.00     0.000 C 
BRANCH  11  12
ATOM     12  C   UNL     1     173.429 178.908 187.642  1.00  0.00     0.000 C 
BRANCH  12  13
ATOM     13  C   UNL     1     174.285 178.802 186.367  1.00  0.00     0.006 C 
BRANCH  13  14
ATOM     14  C   UNL     1     175.787 178.908 186.666  1.00  0.00     0.053 C 
BRANCH  14  15
ATOM     15  C   UNL     1     176.404 177.562 186.906  1.00  0.00     0.041 C 
ATOM     16  O   UNL     1     177.650 177.458 187.066  1.00  0.00    -0.550 OA
ATOM     17  O   UNL     1     175.612 176.421 186.893  1.00  0.00    -0.550 OA
ENDBRANCH  14  15
ENDBRANCH  13  14
ENDBRANCH  12  13
ENDBRANCH  11  12
ENDBRANCH  10  11
ENDBRANCH   9  10
ENDBRANCH   8   9
ENDBRANCH   7   8
ENDBRANCH   6   7
ENDBRANCH   5   6
ENDBRANCH   4   5
ENDBRANCH   3   4
ENDBRANCH   2   3
ENDBRANCH   1   2
BRANCH   1  18
ATOM     18  C   UNL     1     163.023 178.253 186.528  1.00  0.00     0.000 C 
BRANCH  18  19
ATOM     19  C   UNL     1     162.971 177.487 187.857  1.00  0.00     0.000 C 
BRANCH  19  20
ATOM     20  C   UNL     1     161.640 176.741 188.059  1.00  0.00     0.000 C 
BRANCH  20  21
ATOM     21  C   UNL     1     160.734 176.803 186.820  1.00  0.00     0.000 C 
BRANCH  21  22
ATOM     22  C   UNL     1     160.323 175.411 186.313  1.00  0.00     0.000 C 
BRANCH  22  23
ATOM     23  C   UNL     1     160.128 174.392 187.451  1.00  0.00     0.000 C 
BRANCH  23  24
ATOM     24  C   UNL     1     160.601 172.962 187.130  1.00  0.00    -0.000 C 
BRANCH  24  25
ATOM     25  C   UNL     1     161.969 172.626 187.752  1.00  0.00    -0.000 C 
BRANCH  25  26
ATOM     26  C   UNL     1     163.118 172.730 186.727  1.00  0.00    -0.000 C 
BRANCH  26  27
ATOM     27  C   UNL     1     163.989 173.985 186.894  1.00  0.00    -0.000 C 
BRANCH  27  28
ATOM     28  C   UNL     1     164.168 174.772 185.588  1.00  0.00    -0.000 C 
BRANCH  28  29
ATOM     29  C   UNL     1     163.131 174.348 184.541  1.00  0.00    -0.000 C 
BRANCH  29  30
ATOM     30  C   UNL     1     162.809 175.508 183.587  1.00  0.00    -0.000 C 
BRANCH  30  31
ATOM     31  C   UNL     1     164.021 176.417 183.331  1.00  0.00    -0.003 C 
ATOM     32  C   UNL     1     163.644 177.731 182.648  1.00  0.00     0.004 C 
ENDBRANCH  30  31
ENDBRANCH  29  30
ENDBRANCH  28  29
ENDBRANCH  27  28
ENDBRANCH  26  27
ENDBRANCH  25  26
ENDBRANCH  24  25
ENDBRANCH  23  24
ENDBRANCH  22  23
ENDBRANCH  21  22
ENDBRANCH  20  21
ENDBRANCH  19  20
ENDBRANCH  18  19
ENDBRANCH   1  18
TORSDOF 28
ENDMDL
MODEL 5
REMARK VINA RESULT:    -4.031      4.081     10.360
REMARK INTER + INTRA:         -15.465
REMARK INTER:                 -10.464
REMARK INTRA:                  -5.001
REMARK UNBOUND:                -4.836
REMARK SMILES CCCCCCCCCCCCCCCCCCCCCCCCCCCCCC(=O)[O-]
REMARK SMILES IDX 16 1 17 2 18 3 19 4 20 5 21 6 22 7 23 8 24 9 25 10 26 11
REMARK SMILES IDX 27 12 28 13 29 14 30 15 31 16 32 17 15 18 14 19 13 20 12 21
REMARK SMILES IDX 11 22 10 23 9 24 8 25 7 26 6 27 5 28 4 29 3 30 2 31 1 32
REMARK H PARENT
REMARK Flexibility Score: inf
ROOT
ATOM      1  C   UNL     1     168.759 178.613 185.111  1.00  0.00     0.000 C 
ENDROOT
BRANCH   1   2
ATOM      2  C   UNL     1     169.860 179.500 185.714  1.00  0.00     0.000 C 
BRANCH   2   3
ATOM      3  C   UNL     1     170.008 179.300 187.230  1.00  0.00     0.000 C 
BRANCH   3   4
ATOM      4  C   UNL     1     168.950 178.323 187.764  1.00  0.00     0.000 C 
BRANCH   4   5
ATOM      5  C   UNL     1     169.563 177.043 188.363  1.00  0.00     0.000 C 
BRANCH   5   6
ATOM      6  C   UNL     1     168.564 175.898 188.628  1.00  0.00     0.000 C 
BRANCH   6   7
ATOM      7  C   UNL     1     168.174 175.061 187.395  1.00  0.00     0.000 C 
BRANCH   7   8
ATOM      8  C   UNL     1     166.663 175.069 187.083  1.00  0.00     0.000 C 
BRANCH   8   9
ATOM      9  C   UNL     1     166.246 176.228 186.158  1.00  0.00     0.000 C 
BRANCH   9  10
ATOM     10  C   UNL     1     165.436 177.307 186.895  1.00  0.00     0.000 C 
BRANCH  10  11
ATOM     11  C   UNL     1     163.984 176.874 187.160  1.00  0.00     0.000 C 
BRANCH  11  12
ATOM     12  C   UNL     1     163.110 178.021 187.691  1.00  0.00     0.000 C 
BRANCH  12  13
ATOM     13  C   UNL     1     161.700 177.549 188.089  1.00  0.00     0.006 C 
BRANCH  13  14
ATOM     14  C   UNL     1     160.604 178.222 187.251  1.00  0.00     0.053 C 
BRANCH  14  15
ATOM     15  C   UNL     1     160.497 177.616 185.883  1.00  0.00     0.041 C 
ATOM     16  O   UNL     1     160.403 178.359 184.869  1.00  0.00    -0.550 OA
ATOM     17  O   UNL     1     160.441 176.237 185.735  1.00  0.00    -0.550 OA
ENDBRANCH  14  15
ENDBRANCH  13  14
ENDBRANCH  12  13
ENDBRANCH  11  12
ENDBRANCH  10  11
ENDBRANCH   9  10
ENDBRANCH   8   9
ENDBRANCH   7   8
ENDBRANCH   6   7
ENDBRANCH   5   6
ENDBRANCH   4   5
ENDBRANCH   3   4
ENDBRANCH   2   3
ENDBRANCH   1   2
BRANCH   1  18
ATOM     18  C   UNL     1     169.284 177.734 183.963  1.00  0.00     0.000 C 
BRANCH  18  19
ATOM     19  C   UNL     1     169.980 176.461 184.461  1.00  0.00     0.000 C 
BRANCH  19  20
ATOM     20  C   UNL     1     171.469 176.410 184.073  1.00  0.00     0.000 C 
BRANCH  20  21
ATOM     21  C   UNL     1     172.390 176.921 185.191  1.00  0.00     0.000 C 
BRANCH  21  22
ATOM     22  C   UNL     1     172.528 175.921 186.352  1.00  0.00     0.000 C 
BRANCH  22  23
ATOM     23  C   UNL     1     173.155 176.548 187.611  1.00  0.00     0.000 C 
BRANCH  23  24
ATOM     24  C   UNL     1     173.220 178.087 187.607  1.00  0.00    -0.000 C 
BRANCH  24  25
ATOM     25  C   UNL     1     174.463 178.639 188.327  1.00  0.00    -0.000 C 
BRANCH  25  26
ATOM     26  C   UNL     1     175.748 178.473 187.488  1.00  0.00    -0.000 C 
BRANCH  26  27
ATOM     27  C   UNL     1     175.624 179.003 186.051  1.00  0.00    -0.000 C 
BRANCH  27  28
ATOM     28  C   UNL     1     175.896 177.929 184.989  1.00  0.00    -0.000 C 
BRANCH  28  29
ATOM     29  C   UNL     1     176.686 176.754 185.579  1.00  0.00    -0.000 C 
BRANCH  29  30
ATOM     30  C   UNL     1     176.077 175.412 185.149  1.00  0.00    -0.000 C 
BRANCH  30  31
ATOM     31  C   UNL     1     176.602 174.231 185.981  1.00  0.00    -0.003 C 
ATOM     32  C   UNL     1     175.803 174.011 187.266  1.00  0.00     0.004 C 
ENDBRANCH  30  31
ENDBRANCH  29  30
ENDBRANCH  28  29
ENDBRANCH  27  28
ENDBRANCH  26  27
ENDBRANCH  25  26
ENDBRANCH  24  25
ENDBRANCH  23  24
ENDBRANCH  22  23
ENDBRANCH  21  22
ENDBRANCH  20  21
ENDBRANCH  19  20
ENDBRANCH  18  19
ENDBRANCH   1  18
TORSDOF 28
ENDMDL
MODEL 6
REMARK VINA RESULT:    -4.013      4.095      8.364
REMARK INTER + INTRA:         -15.419
REMARK INTER:                  -9.273
REMARK INTRA:                  -6.146
REMARK UNBOUND:                -4.836
REMARK SMILES CCCCCCCCCCCCCCCCCCCCCCCCCCCCCC(=O)[O-]
REMARK SMILES IDX 16 1 17 2 18 3 19 4 20 5 21 6 22 7 23 8 24 9 25 10 26 11
REMARK SMILES IDX 27 12 28 13 29 14 30 15 31 16 32 17 15 18 14 19 13 20 12 21
REMARK SMILES IDX 11 22 10 23 9 24 8 25 7 26 6 27 5 28 4 29 3 30 2 31 1 32
REMARK H PARENT
REMARK Flexibility Score: inf
ROOT
ATOM      1  C   UNL     1     162.653 176.541 181.122  1.00  0.00     0.000 C 
ENDROOT
BRANCH   1   2
ATOM      2  C   UNL     1     162.475 177.739 182.068  1.00  0.00     0.000 C 
BRANCH   2   3
ATOM      3  C   UNL     1     162.344 177.310 183.538  1.00  0.00     0.000 C 
BRANCH   3   4
ATOM      4  C   UNL     1     160.945 177.626 184.083  1.00  0.00     0.000 C 
BRANCH   4   5
ATOM      5  C   UNL     1     160.683 176.999 185.466  1.00  0.00     0.000 C 
BRANCH   5   6
ATOM      6  C   UNL     1     160.768 177.974 186.657  1.00  0.00     0.000 C 
BRANCH   6   7
ATOM      7  C   UNL     1     161.434 177.412 187.927  1.00  0.00     0.000 C 
BRANCH   7   8
ATOM      8  C   UNL     1     162.971 177.552 187.944  1.00  0.00     0.000 C 
BRANCH   8   9
ATOM      9  C   UNL     1     163.480 178.703 187.057  1.00  0.00     0.000 C 
BRANCH   9  10
ATOM     10  C   UNL     1     164.740 178.321 186.264  1.00  0.00     0.000 C 
BRANCH  10  11
ATOM     11  C   UNL     1     165.345 176.985 186.727  1.00  0.00     0.000 C 
BRANCH  11  12
ATOM     12  C   UNL     1     166.441 176.469 185.782  1.00  0.00     0.000 C 
BRANCH  12  13
ATOM     13  C   UNL     1     167.505 175.634 186.516  1.00  0.00     0.006 C 
BRANCH  13  14
ATOM     14  C   UNL     1     167.809 176.183 187.917  1.00  0.00     0.053 C 
BRANCH  14  15
ATOM     15  C   UNL     1     168.573 177.473 187.856  1.00  0.00     0.041 C 
ATOM     16  O   UNL     1     168.252 178.432 188.608  1.00  0.00    -0.550 OA
ATOM     17  O   UNL     1     169.596 177.634 186.931  1.00  0.00    -0.550 OA
ENDBRANCH  14  15
ENDBRANCH  13  14
ENDBRANCH  12  13
ENDBRANCH  11  12
ENDBRANCH  10  11
ENDBRANCH   9  10
ENDBRANCH   8   9
ENDBRANCH   7   8
ENDBRANCH   6   7
ENDBRANCH   5   6
ENDBRANCH   4   5
ENDBRANCH   3   4
ENDBRANCH   2   3
ENDBRANCH   1   2
BRANCH   1  18
ATOM     18  C   UNL     1     161.307 175.925 180.704  1.00  0.00     0.000 C 
BRANCH  18  19
ATOM     19  C   UNL     1     161.150 174.471 181.169  1.00  0.00     0.000 C 
BRANCH  19  20
ATOM     20  C   UNL     1     160.209 174.336 182.379  1.00  0.00     0.000 C 
BRANCH  20  21
ATOM     21  C   UNL     1     160.933 173.845 183.641  1.00  0.00     0.000 C 
BRANCH  21  22
ATOM     22  C   UNL     1     162.166 172.982 183.323  1.00  0.00     0.000 C 
BRANCH  22  23
ATOM     23  C   UNL     1     163.443 173.478 184.027  1.00  0.00     0.000 C 
BRANCH  23  24
ATOM     24  C   UNL     1     163.200 174.359 185.266  1.00  0.00    -0.000 C 
BRANCH  24  25
ATOM     25  C   UNL     1     163.837 173.786 186.546  1.00  0.00    -0.000 C 
BRANCH  25  26
ATOM     26  C   UNL     1     162.887 173.871 187.759  1.00  0.00    -0.000 C 
BRANCH  26  27
ATOM     27  C   UNL     1     161.397 173.851 187.384  1.00  0.00    -0.000 C 
BRANCH  27  28
ATOM     28  C   UNL     1     160.712 172.517 187.711  1.00  0.00    -0.000 C 
BRANCH  28  29
ATOM     29  C   UNL     1     160.637 171.615 186.473  1.00  0.00    -0.000 C 
BRANCH  29  30
ATOM     30  C   UNL     1     160.981 170.162 186.830  1.00  0.00    -0.000 C 
BRANCH  30  31
ATOM     31  C   UNL     1     162.375 170.023 187.462  1.00  0.00    -0.003 C 
ATOM     32  C   UNL     1     163.502 170.085 186.431  1.00  0.00     0.004 C 
ENDBRANCH  30  31
ENDBRANCH  29  30
ENDBRANCH  28  29
ENDBRANCH  27  28
ENDBRANCH  26  27
ENDBRANCH  25  26
ENDBRANCH  24  25
ENDBRANCH  23  24
ENDBRANCH  22  23
ENDBRANCH  21  22
ENDBRANCH  20  21
ENDBRANCH  19  20
ENDBRANCH  18  19
ENDBRANCH   1  18
TORSDOF 28
ENDMDL
MODEL 7
REMARK VINA RESULT:    -3.993      2.015      5.152
REMARK INTER + INTRA:         -15.366
REMARK INTER:                 -11.731
REMARK INTRA:                  -3.635
REMARK UNBOUND:                -4.836
REMARK SMILES CCCCCCCCCCCCCCCCCCCCCCCCCCCCCC(=O)[O-]
REMARK SMILES IDX 16 1 17 2 18 3 19 4 20 5 21 6 22 7 23 8 24 9 25 10 26 11
REMARK SMILES IDX 27 12 28 13 29 14 30 15 31 16 32 17 15 18 14 19 13 20 12 21
REMARK SMILES IDX 11 22 10 23 9 24 8 25 7 26 6 27 5 28 4 29 3 30 2 31 1 32
REMARK H PARENT
REMARK Flexibility Score: inf
ROOT
ATOM      1  C   UNL     1     164.382 174.359 186.721  1.00  0.00     0.000 C 
ENDROOT
BRANCH   1   2
ATOM      2  C   UNL     1     165.604 175.282 186.593  1.00  0.00     0.000 C 
BRANCH   2   3
ATOM      3  C   UNL     1     165.212 176.729 186.255  1.00  0.00     0.000 C 
BRANCH   3   4
ATOM      4  C   UNL     1     166.006 177.729 187.107  1.00  0.00     0.000 C 
BRANCH   4   5
ATOM      5  C   UNL     1     167.508 177.393 187.183  1.00  0.00     0.000 C 
BRANCH   5   6
ATOM      6  C   UNL     1     168.274 178.065 188.340  1.00  0.00     0.000 C 
BRANCH   6   7
ATOM      7  C   UNL     1     169.436 178.983 187.919  1.00  0.00     0.000 C 
BRANCH   7   8
ATOM      8  C   UNL     1     169.832 178.856 186.434  1.00  0.00     0.000 C 
BRANCH   8   9
ATOM      9  C   UNL     1     171.306 179.214 186.171  1.00  0.00     0.000 C 
BRANCH   9  10
ATOM     10  C   UNL     1     172.095 179.448 187.469  1.00  0.00     0.000 C 
BRANCH  10  11
ATOM     11  C   UNL     1     173.331 178.538 187.578  1.00  0.00     0.000 C 
BRANCH  11  12
ATOM     12  C   UNL     1     174.552 179.263 188.166  1.00  0.00     0.000 C 
BRANCH  12  13
ATOM     13  C   UNL     1     175.655 179.502 187.119  1.00  0.00     0.006 C 
BRANCH  13  14
ATOM     14  C   UNL     1     175.565 178.516 185.947  1.00  0.00     0.053 C 
BRANCH  14  15
ATOM     15  C   UNL     1     176.596 177.431 186.050  1.00  0.00     0.041 C 
ATOM     16  O   UNL     1     177.548 177.542 186.868  1.00  0.00    -0.550 OA
ATOM     17  O   UNL     1     176.538 176.332 185.204  1.00  0.00    -0.550 OA
ENDBRANCH  14  15
ENDBRANCH  13  14
ENDBRANCH  12  13
ENDBRANCH  11  12
ENDBRANCH  10  11
ENDBRANCH   9  10
ENDBRANCH   8   9
ENDBRANCH   7   8
ENDBRANCH   6   7
ENDBRANCH   5   6
ENDBRANCH   4   5
ENDBRANCH   3   4
ENDBRANCH   2   3
ENDBRANCH   1   2
BRANCH   1  18
ATOM     18  C   UNL     1     163.373 174.871 187.764  1.00  0.00     0.000 C 
BRANCH  18  19
ATOM     19  C   UNL     1     161.919 174.754 187.290  1.00  0.00     0.000 C 
BRANCH  19  20
ATOM     20  C   UNL     1     161.035 175.906 187.800  1.00  0.00     0.000 C 
BRANCH  20  21
ATOM     21  C   UNL     1     161.845 177.165 188.145  1.00  0.00     0.000 C 
BRANCH  21  22
ATOM     22  C   UNL     1     161.683 178.281 187.100  1.00  0.00     0.000 C 
BRANCH  22  23
ATOM     23  C   UNL     1     160.295 178.282 186.433  1.00  0.00     0.000 C 
BRANCH  23  24
ATOM     24  C   UNL     1     160.314 178.244 184.894  1.00  0.00    -0.000 C 
BRANCH  24  25
ATOM     25  C   UNL     1     160.642 176.850 184.329  1.00  0.00    -0.000 C 
BRANCH  25  26
ATOM     26  C   UNL     1     162.136 176.701 183.973  1.00  0.00    -0.000 C 
BRANCH  26  27
ATOM     27  C   UNL     1     162.531 175.281 183.537  1.00  0.00    -0.000 C 
BRANCH  27  28
ATOM     28  C   UNL     1     162.626 175.124 182.013  1.00  0.00    -0.000 C 
BRANCH  28  29
ATOM     29  C   UNL     1     161.238 174.940 181.389  1.00  0.00    -0.000 C 
BRANCH  29  30
ATOM     30  C   UNL     1     160.925 176.073 180.399  1.00  0.00    -0.000 C 
BRANCH  30  31
ATOM     31  C   UNL     1     162.082 177.076 180.266  1.00  0.00    -0.003 C 
ATOM     32  C   UNL     1     161.729 178.463 180.802  1.00  0.00     0.004 C 
ENDBRANCH  30  31
ENDBRANCH  29  30
ENDBRANCH  28  29
ENDBRANCH  27  28
ENDBRANCH  26  27
ENDBRANCH  25  26
ENDBRANCH  24  25
ENDBRANCH  23  24
ENDBRANCH  22  23
ENDBRANCH  21  22
ENDBRANCH  20  21
ENDBRANCH  19  20
ENDBRANCH  18  19
ENDBRANCH   1  18
TORSDOF 28
ENDMDL
MODEL 8
REMARK VINA RESULT:    -3.944      6.116      9.923
REMARK INTER + INTRA:         -15.236
REMARK INTER:                  -8.898
REMARK INTRA:                  -6.338
REMARK UNBOUND:                -4.836
REMARK SMILES CCCCCCCCCCCCCCCCCCCCCCCCCCCCCC(=O)[O-]
REMARK SMILES IDX 16 1 17 2 18 3 19 4 20 5 21 6 22 7 23 8 24 9 25 10 26 11
REMARK SMILES IDX 27 12 28 13 29 14 30 15 31 16 32 17 15 18 14 19 13 20 12 21
REMARK SMILES IDX 11 22 10 23 9 24 8 25 7 26 6 27 5 28 4 29 3 30 2 31 1 32
REMARK H PARENT
REMARK Flexibility Score: inf
ROOT
ATOM      1  C   UNL     1     161.435 175.832 184.942  1.00  0.00     0.000 C 
ENDROOT
BRANCH   1   2
ATOM      2  C   UNL     1     160.625 177.136 184.886  1.00  0.00     0.000 C 
BRANCH   2   3
ATOM      3  C   UNL     1     160.762 177.967 186.172  1.00  0.00     0.000 C 
BRANCH   3   4
ATOM      4  C   UNL     1     160.996 177.062 187.390  1.00  0.00     0.000 C 
BRANCH   4   5
ATOM      5  C   UNL     1     162.220 177.486 188.226  1.00  0.00     0.000 C 
BRANCH   5   6
ATOM      6  C   UNL     1     163.299 178.275 187.458  1.00  0.00     0.000 C 
BRANCH   6   7
ATOM      7  C   UNL     1     164.447 177.431 186.875  1.00  0.00     0.000 C 
BRANCH   7   8
ATOM      8  C   UNL     1     164.824 177.801 185.425  1.00  0.00     0.000 C 
BRANCH   8   9
ATOM      9  C   UNL     1     165.033 176.568 184.525  1.00  0.00     0.000 C 
BRANCH   9  10
ATOM     10  C   UNL     1     164.552 176.802 183.085  1.00  0.00     0.000 C 
BRANCH  10  11
ATOM     11  C   UNL     1     163.647 178.040 182.960  1.00  0.00     0.000 C 
BRANCH  11  12
ATOM     12  C   UNL     1     162.731 177.986 181.727  1.00  0.00     0.000 C 
BRANCH  12  13
ATOM     13  C   UNL     1     162.488 176.547 181.238  1.00  0.00     0.006 C 
BRANCH  13  14
ATOM     14  C   UNL     1     161.020 176.302 180.863  1.00  0.00     0.053 C 
BRANCH  14  15
ATOM     15  C   UNL     1     160.890 175.341 179.719  1.00  0.00     0.041 C 
ATOM     16  O   UNL     1     161.682 174.365 179.622  1.00  0.00    -0.550 OA
ATOM     17  O   UNL     1     159.938 175.557 178.733  1.00  0.00    -0.550 OA
ENDBRANCH  14  15
ENDBRANCH  13  14
ENDBRANCH  12  13
ENDBRANCH  11  12
ENDBRANCH  10  11
ENDBRANCH   9  10
ENDBRANCH   8   9
ENDBRANCH   7   8
ENDBRANCH   6   7
ENDBRANCH   5   6
ENDBRANCH   4   5
ENDBRANCH   3   4
ENDBRANCH   2   3
ENDBRANCH   1   2
BRANCH   1  18
ATOM     18  C   UNL     1     160.625 174.622 184.446  1.00  0.00     0.000 C 
BRANCH  18  19
ATOM     19  C   UNL     1     161.422 173.727 183.488  1.00  0.00     0.000 C 
BRANCH  19  20
ATOM     20  C   UNL     1     161.160 172.229 183.720  1.00  0.00     0.000 C 
BRANCH  20  21
ATOM     21  C   UNL     1     160.604 171.936 185.122  1.00  0.00     0.000 C 
BRANCH  21  22
ATOM     22  C   UNL     1     160.975 170.532 185.628  1.00  0.00     0.000 C 
BRANCH  22  23
ATOM     23  C   UNL     1     161.054 170.450 187.164  1.00  0.00     0.000 C 
BRANCH  23  24
ATOM     24  C   UNL     1     161.101 171.809 187.885  1.00  0.00    -0.000 C 
BRANCH  24  25
ATOM     25  C   UNL     1     162.529 172.242 188.262  1.00  0.00    -0.000 C 
BRANCH  25  26
ATOM     26  C   UNL     1     162.809 173.715 187.898  1.00  0.00    -0.000 C 
BRANCH  26  27
ATOM     27  C   UNL     1     163.567 173.894 186.573  1.00  0.00    -0.000 C 
BRANCH  27  28
ATOM     28  C   UNL     1     164.505 172.722 186.253  1.00  0.00    -0.000 C 
BRANCH  28  29
ATOM     29  C   UNL     1     164.750 172.605 184.745  1.00  0.00    -0.000 C 
BRANCH  29  30
ATOM     30  C   UNL     1     166.220 172.888 184.403  1.00  0.00    -0.000 C 
BRANCH  30  31
ATOM     31  C   UNL     1     167.000 173.474 185.591  1.00  0.00    -0.003 C 
ATOM     32  C   UNL     1     168.106 174.435 185.157  1.00  0.00     0.004 C 
ENDBRANCH  30  31
ENDBRANCH  29  30
ENDBRANCH  28  29
ENDBRANCH  27  28
ENDBRANCH  26  27
ENDBRANCH  25  26
ENDBRANCH  24  25
ENDBRANCH  23  24
ENDBRANCH  22  23
ENDBRANCH  21  22
ENDBRANCH  20  21
ENDBRANCH  19  20
ENDBRANCH  18  19
ENDBRANCH   1  18
TORSDOF 28
ENDMDL
MODEL 9
REMARK VINA RESULT:    -3.939      1.940      4.443
REMARK INTER + INTRA:         -15.223
REMARK INTER:                 -10.666
REMARK INTRA:                  -4.557
REMARK UNBOUND:                -4.836
REMARK SMILES CCCCCCCCCCCCCCCCCCCCCCCCCCCCCC(=O)[O-]
REMARK SMILES IDX 16 1 17 2 18 3 19 4 20 5 21 6 22 7 23 8 24 9 25 10 26 11
REMARK SMILES IDX 27 12 28 13 29 14 30 15 31 16 32 17 15 18 14 19 13 20 12 21
REMARK SMILES IDX 11 22 10 23 9 24 8 25 7 26 6 27 5 28 4 29 3 30 2 31 1 32
REMARK H PARENT
REMARK Flexibility Score: inf
ROOT
ATOM      1  C   UNL     1     166.680 176.182 185.673  1.00  0.00     0.000 C 
ENDROOT
BRANCH   1   2
ATOM      2  C   UNL     1     168.098 176.290 186.257  1.00  0.00     0.000 C 
BRANCH   2   3
ATOM      3  C   UNL     1     168.163 175.830 187.722  1.00  0.00     0.000 C 
BRANCH   3   4
ATOM      4  C   UNL     1     168.927 176.843 188.585  1.00  0.00     0.000 C 
BRANCH   4   5
ATOM      5  C   UNL     1     168.515 178.301 188.305  1.00  0.00     0.000 C 
BRANCH   5   6
ATOM      6  C   UNL     1     169.675 179.259 187.968  1.00  0.00     0.000 C 
BRANCH   6   7
ATOM      7  C   UNL     1     170.044 179.353 186.476  1.00  0.00     0.000 C 
BRANCH   7   8
ATOM      8  C   UNL     1     171.558 179.249 186.196  1.00  0.00     0.000 C 
BRANCH   8   9
ATOM      9  C   UNL     1     172.128 177.849 186.488  1.00  0.00     0.000 C 
BRANCH   9  10
ATOM     10  C   UNL     1     173.083 177.841 187.693  1.00  0.00     0.000 C 
BRANCH  10  11
ATOM     11  C   UNL     1     173.762 179.204 187.914  1.00  0.00     0.000 C 
BRANCH  11  12
ATOM     12  C   UNL     1     175.296 179.117 187.875  1.00  0.00     0.000 C 
BRANCH  12  13
ATOM     13  C   UNL     1     175.817 178.498 186.566  1.00  0.00     0.006 C 
BRANCH  13  14
ATOM     14  C   UNL     1     176.976 177.521 186.807  1.00  0.00     0.053 C 
BRANCH  14  15
ATOM     15  C   UNL     1     176.580 176.103 186.520  1.00  0.00     0.041 C 
ATOM     16  O   UNL     1     177.219 175.431 185.666  1.00  0.00    -0.550 OA
ATOM     17  O   UNL     1     175.474 175.549 187.148  1.00  0.00    -0.550 OA
ENDBRANCH  14  15
ENDBRANCH  13  14
ENDBRANCH  12  13
ENDBRANCH  11  12
ENDBRANCH  10  11
ENDBRANCH   9  10
ENDBRANCH   8   9
ENDBRANCH   7   8
ENDBRANCH   6   7
ENDBRANCH   5   6
ENDBRANCH   4   5
ENDBRANCH   3   4
ENDBRANCH   2   3
ENDBRANCH   1   2
BRANCH   1  18
ATOM     18  C   UNL     1     165.851 177.454 185.923  1.00  0.00     0.000 C 
BRANCH  18  19
ATOM     19  C   UNL     1     164.600 177.189 186.771  1.00  0.00     0.000 C 
BRANCH  19  20
ATOM     20  C   UNL     1     164.296 175.688 186.924  1.00  0.00     0.000 C 
BRANCH  20  21
ATOM     21  C   UNL     1     163.195 175.409 187.959  1.00  0.00     0.000 C 
BRANCH  21  22
ATOM     22  C   UNL     1     161.915 174.837 187.327  1.00  0.00     0.000 C 
BRANCH  22  23
ATOM     23  C   UNL     1     160.693 175.757 187.512  1.00  0.00     0.000 C 
BRANCH  23  24
ATOM     24  C   UNL     1     161.023 177.193 187.959  1.00  0.00    -0.000 C 
BRANCH  24  25
ATOM     25  C   UNL     1     160.907 178.220 186.818  1.00  0.00    -0.000 C 
BRANCH  25  26
ATOM     26  C   UNL     1     160.631 177.552 185.455  1.00  0.00    -0.000 C 
BRANCH  26  27
ATOM     27  C   UNL     1     161.849 177.523 184.519  1.00  0.00    -0.000 C 
BRANCH  27  28
ATOM     28  C   UNL     1     162.005 176.189 183.775  1.00  0.00    -0.000 C 
BRANCH  28  29
ATOM     29  C   UNL     1     163.467 175.936 183.393  1.00  0.00    -0.000 C 
BRANCH  29  30
ATOM     30  C   UNL     1     163.673 174.483 182.940  1.00  0.00    -0.000 C 
BRANCH  30  31
ATOM     31  C   UNL     1     164.324 173.612 184.027  1.00  0.00    -0.003 C 
ATOM     32  C   UNL     1     163.331 172.668 184.703  1.00  0.00     0.004 C 
ENDBRANCH  30  31
ENDBRANCH  29  30
ENDBRANCH  28  29
ENDBRANCH  27  28
ENDBRANCH  26  27
ENDBRANCH  25  26
ENDBRANCH  24  25
ENDBRANCH  23  24
ENDBRANCH  22  23
ENDBRANCH  21  22
ENDBRANCH  20  21
ENDBRANCH  19  20
ENDBRANCH  18  19
ENDBRANCH   1  18
TORSDOF 28
ENDMDL
