MODEL 1
REMARK VINA RESULT:    -3.587      0.000      0.000
REMARK INTER + INTRA:          -7.530
REMARK INTER:                  -6.312
REMARK INTRA:                  -1.218
REMARK UNBOUND:                -1.218
REMARK SMILES CCCCCCCCCCCCCCC(=O)[O-]
REMARK SMILES IDX 9 1 10 2 11 3 12 4 13 5 14 6 15 7 16 8 17 9 8 10 7 11 6 12
REMARK SMILES IDX 5 13 4 14 3 15 2 16 1 17
REMARK H PARENT
REMARK Flexibility Score: inf
ROOT
ATOM      1  C   UNL     1      10.738  -2.568  21.091  1.00  0.00     0.000 C 
ENDROOT
BRANCH   1   2
ATOM      2  C   UNL     1       9.527  -1.638  20.923  1.00  0.00     0.000 C 
BRANCH   2   3
ATOM      3  C   UNL     1       8.197  -2.404  20.835  1.00  0.00     0.000 C 
BRANCH   3   4
ATOM      4  C   UNL     1       7.177  -1.714  19.914  1.00  0.00     0.000 C 
BRANCH   4   5
ATOM      5  C   UNL     1       6.685  -2.624  18.773  1.00  0.00     0.006 C 
BRANCH   5   6
ATOM      6  C   UNL     1       5.599  -1.987  17.887  1.00  0.00     0.053 C 
BRANCH   6   7
ATOM      7  C   UNL     1       5.941  -2.032  16.429  1.00  0.00     0.041 C 
ATOM      8  O   UNL     1       7.006  -2.582  16.042  1.00  0.00    -0.550 OA
ATOM      9  O   UNL     1       5.096  -1.441  15.498  1.00  0.00    -0.550 OA
ENDBRANCH   6   7
ENDBRANCH   5   6
ENDBRANCH   4   5
ENDBRANCH   3   4
ENDBRANCH   2   3
ENDBRANCH   1   2
BRANCH   1  10
ATOM     10  C   UNL     1      10.710  -3.696  20.047  1.00  0.00     0.000 C 
BRANCH  10  11
ATOM     11  C   UNL     1      10.807  -5.094  20.679  1.00  0.00    -0.000 C 
BRANCH  11  12
ATOM     12  C   UNL     1       9.819  -6.094  20.055  1.00  0.00    -0.000 C 
BRANCH  12  13
ATOM     13  C   UNL     1       9.050  -5.498  18.864  1.00  0.00    -0.000 C 
BRANCH  13  14
ATOM     14  C   UNL     1       8.374  -6.570  17.996  1.00  0.00    -0.000 C 
BRANCH  14  15
ATOM     15  C   UNL     1       9.300  -7.775  17.793  1.00  0.00    -0.000 C 
BRANCH  15  16
ATOM     16  C   UNL     1       8.639  -8.835  16.904  1.00  0.00    -0.003 C 
ATOM     17  C   UNL     1       7.244  -8.396  16.467  1.00  0.00     0.004 C 
ENDBRANCH  15  16
ENDBRANCH  14  15
ENDBRANCH  13  14
ENDBRANCH  12  13
ENDBRANCH  11  12
ENDBRANCH  10  11
ENDBRANCH   1  10
TORSDOF 13
ENDMDL
MODEL 2
REMARK VINA RESULT:    -3.581      1.482      2.253
REMARK INTER + INTRA:          -7.520
REMARK INTER:                  -5.524
REMARK INTRA:                  -1.996
REMARK UNBOUND:                -1.218
REMARK SMILES CCCCCCCCCCCCCCC(=O)[O-]
REMARK SMILES IDX 9 1 10 2 11 3 12 4 13 5 14 6 15 7 16 8 17 9 8 10 7 11 6 12
REMARK SMILES IDX 5 13 4 14 3 15 2 16 1 17
REMARK H PARENT
REMARK Flexibility Score: inf
ROOT
ATOM      1  C   UNL     1       9.918  -2.284  19.836  1.00  0.00     0.000 C 
ENDROOT
BRANCH   1   2
ATOM      2  C   UNL     1       8.601  -1.582  19.470  1.00  0.00     0.000 C 
BRANCH   2   3
ATOM      3  C   UNL     1       7.373  -2.487  19.658  1.00  0.00     0.000 C 
BRANCH   3   4
ATOM      4  C   UNL     1       6.578  -2.683  18.355  1.00  0.00     0.000 C 
BRANCH   4   5
ATOM      5  C   UNL     1       5.318  -1.801  18.282  1.00  0.00     0.006 C 
BRANCH   5   6
ATOM      6  C   UNL     1       5.419  -0.646  17.269  1.00  0.00     0.053 C 
BRANCH   6   7
ATOM      7  C   UNL     1       5.682  -1.120  15.873  1.00  0.00     0.041 C 
ATOM      8  O   UNL     1       4.821  -1.805  15.262  1.00  0.00    -0.550 OA
ATOM      9  O   UNL     1       6.891  -0.826  15.255  1.00  0.00    -0.550 OA
ENDBRANCH   6   7
ENDBRANCH   5   6
ENDBRANCH   4   5
ENDBRANCH   3   4
ENDBRANCH   2   3
ENDBRANCH   1   2
BRANCH   1  10
ATOM     10  C   UNL     1       9.648  -3.568  20.637  1.00  0.00     0.000 C 
BRANCH  10  11
ATOM     11  C   UNL     1      10.703  -4.657  20.387  1.00  0.00    -0.000 C 
BRANCH  11  12
ATOM     12  C   UNL     1      10.094  -6.069  20.336  1.00  0.00    -0.000 C 
BRANCH  12  13
ATOM     13  C   UNL     1       9.854  -6.556  18.897  1.00  0.00    -0.000 C 
BRANCH  13  14
ATOM     14  C   UNL     1       8.448  -6.213  18.381  1.00  0.00    -0.000 C 
BRANCH  14  15
ATOM     15  C   UNL     1       8.516  -5.569  16.991  1.00  0.00    -0.000 C 
BRANCH  15  16
ATOM     16  C   UNL     1       9.603  -4.490  16.937  1.00  0.00    -0.003 C 
ATOM     17  C   UNL     1       9.220  -3.368  15.977  1.00  0.00     0.004 C 
ENDBRANCH  15  16
ENDBRANCH  14  15
ENDBRANCH  13  14
ENDBRANCH  12  13
ENDBRANCH  11  12
ENDBRANCH  10  11
ENDBRANCH   1  10
TORSDOF 13
ENDMDL
MODEL 3
REMARK VINA RESULT:    -3.400      3.108      5.686
REMARK INTER + INTRA:          -7.202
REMARK INTER:                  -6.311
REMARK INTRA:                  -0.890
REMARK UNBOUND:                -1.218
REMARK SMILES CCCCCCCCCCCCCCC(=O)[O-]
REMARK SMILES IDX 9 1 10 2 11 3 12 4 13 5 14 6 15 7 16 8 17 9 8 10 7 11 6 12
REMARK SMILES IDX 5 13 4 14 3 15 2 16 1 17
REMARK H PARENT
REMARK Flexibility Score: inf
ROOT
ATOM      1  C   UNL     1      10.354  -3.297  20.874  1.00  0.00     0.000 C 
ENDROOT
BRANCH   1   2
ATOM      2  C   UNL     1       8.965  -3.481  20.241  1.00  0.00     0.000 C 
BRANCH   2   3
ATOM      3  C   UNL     1       7.912  -2.532  20.835  1.00  0.00     0.000 C 
BRANCH   3   4
ATOM      4  C   UNL     1       7.220  -1.672  19.763  1.00  0.00     0.000 C 
BRANCH   4   5
ATOM      5  C   UNL     1       6.312  -2.492  18.829  1.00  0.00     0.006 C 
BRANCH   5   6
ATOM      6  C   UNL     1       5.181  -1.675  18.177  1.00  0.00     0.053 C 
BRANCH   6   7
ATOM      7  C   UNL     1       5.505  -1.251  16.778  1.00  0.00     0.041 C 
ATOM      8  O   UNL     1       5.094  -1.925  15.798  1.00  0.00    -0.550 OA
ATOM      9  O   UNL     1       6.286  -0.122  16.557  1.00  0.00    -0.550 OA
ENDBRANCH   6   7
ENDBRANCH   5   6
ENDBRANCH   4   5
ENDBRANCH   3   4
ENDBRANCH   2   3
ENDBRANCH   1   2
BRANCH   1  10
ATOM     10  C   UNL     1      10.391  -2.038  21.755  1.00  0.00     0.000 C 
BRANCH  10  11
ATOM     11  C   UNL     1      10.813  -2.338  23.202  1.00  0.00    -0.000 C 
BRANCH  11  12
ATOM     12  C   UNL     1      10.160  -1.384  24.217  1.00  0.00    -0.000 C 
BRANCH  12  13
ATOM     13  C   UNL     1       8.637  -1.574  24.310  1.00  0.00    -0.000 C 
BRANCH  13  14
ATOM     14  C   UNL     1       8.131  -1.619  25.761  1.00  0.00    -0.000 C 
BRANCH  14  15
ATOM     15  C   UNL     1       7.977  -3.067  26.242  1.00  0.00    -0.000 C 
BRANCH  15  16
ATOM     16  C   UNL     1       6.586  -3.304  26.840  1.00  0.00    -0.003 C 
ATOM     17  C   UNL     1       5.502  -3.212  25.770  1.00  0.00     0.004 C 
ENDBRANCH  15  16
ENDBRANCH  14  15
ENDBRANCH  13  14
ENDBRANCH  12  13
ENDBRANCH  11  12
ENDBRANCH  10  11
ENDBRANCH   1  10
TORSDOF 13
ENDMDL
MODEL 4
REMARK VINA RESULT:    -3.380      1.838      3.987
REMARK INTER + INTRA:          -7.166
REMARK INTER:                  -5.337
REMARK INTRA:                  -1.829
REMARK UNBOUND:                -1.218
REMARK SMILES CCCCCCCCCCCCCCC(=O)[O-]
REMARK SMILES IDX 9 1 10 2 11 3 12 4 13 5 14 6 15 7 16 8 17 9 8 10 7 11 6 12
REMARK SMILES IDX 5 13 4 14 3 15 2 16 1 17
REMARK H PARENT
REMARK Flexibility Score: inf
ROOT
ATOM      1  C   UNL     1       7.474  -2.917  16.981  1.00  0.00     0.000 C 
ENDROOT
BRANCH   1   2
ATOM      2  C   UNL     1       6.918  -3.248  18.375  1.00  0.00     0.000 C 
BRANCH   2   3
ATOM      3  C   UNL     1       6.153  -2.071  19.004  1.00  0.00     0.000 C 
BRANCH   3   4
ATOM      4  C   UNL     1       5.087  -1.489  18.060  1.00  0.00     0.000 C 
BRANCH   4   5
ATOM      5  C   UNL     1       5.414  -0.059  17.593  1.00  0.00     0.006 C 
BRANCH   5   6
ATOM      6  C   UNL     1       4.783   0.319  16.240  1.00  0.00     0.053 C 
BRANCH   6   7
ATOM      7  C   UNL     1       5.304  -0.509  15.106  1.00  0.00     0.041 C 
ATOM      8  O   UNL     1       6.494  -0.377  14.717  1.00  0.00    -0.550 OA
ATOM      9  O   UNL     1       4.465  -1.409  14.460  1.00  0.00    -0.550 OA
ENDBRANCH   6   7
ENDBRANCH   5   6
ENDBRANCH   4   5
ENDBRANCH   3   4
ENDBRANCH   2   3
ENDBRANCH   1   2
BRANCH   1  10
ATOM     10  C   UNL     1       8.482  -3.984  16.526  1.00  0.00     0.000 C 
BRANCH  10  11
ATOM     11  C   UNL     1       8.368  -5.290  17.330  1.00  0.00    -0.000 C 
BRANCH  11  12
ATOM     12  C   UNL     1       9.741  -5.895  17.669  1.00  0.00    -0.000 C 
BRANCH  12  13
ATOM     13  C   UNL     1       9.884  -6.235  19.162  1.00  0.00    -0.000 C 
BRANCH  13  14
ATOM     14  C   UNL     1       9.721  -5.006  20.069  1.00  0.00    -0.000 C 
BRANCH  14  15
ATOM     15  C   UNL     1      10.863  -4.007  19.850  1.00  0.00    -0.000 C 
BRANCH  15  16
ATOM     16  C   UNL     1      10.328  -2.574  19.739  1.00  0.00    -0.003 C 
ATOM     17  C   UNL     1      10.806  -1.904  18.455  1.00  0.00     0.004 C 
ENDBRANCH  15  16
ENDBRANCH  14  15
ENDBRANCH  13  14
ENDBRANCH  12  13
ENDBRANCH  11  12
ENDBRANCH  10  11
ENDBRANCH   1  10
TORSDOF 13
ENDMDL
MODEL 5
REMARK VINA RESULT:    -3.321      1.330      2.073
REMARK INTER + INTRA:          -7.063
REMARK INTER:                  -6.023
REMARK INTRA:                  -1.040
REMARK UNBOUND:                -1.218
REMARK SMILES CCCCCCCCCCCCCCC(=O)[O-]
REMARK SMILES IDX 9 1 10 2 11 3 12 4 13 5 14 6 15 7 16 8 17 9 8 10 7 11 6 12
REMARK SMILES IDX 5 13 4 14 3 15 2 16 1 17
REMARK H PARENT
REMARK Flexibility Score: inf
ROOT
ATOM      1  C   UNL     1       9.489  -3.808  19.491  1.00  0.00     0.000 C 
ENDROOT
BRANCH   1   2
ATOM      2  C   UNL     1       8.513  -2.973  20.334  1.00  0.00     0.000 C 
BRANCH   2   3
ATOM      3  C   UNL     1       7.206  -2.654  19.588  1.00  0.00     0.000 C 
BRANCH   3   4
ATOM      4  C   UNL     1       7.092  -3.405  18.250  1.00  0.00     0.000 C 
BRANCH   4   5
ATOM      5  C   UNL     1       6.836  -2.468  17.056  1.00  0.00     0.006 C 
BRANCH   5   6
ATOM      6  C   UNL     1       5.523  -1.670  17.154  1.00  0.00     0.053 C 
BRANCH   6   7
ATOM      7  C   UNL     1       5.230  -0.880  15.916  1.00  0.00     0.041 C 
ATOM      8  O   UNL     1       5.407   0.367  15.900  1.00  0.00    -0.550 OA
ATOM      9  O   UNL     1       4.736  -1.518  14.785  1.00  0.00    -0.550 OA
ENDBRANCH   6   7
ENDBRANCH   5   6
ENDBRANCH   4   5
ENDBRANCH   3   4
ENDBRANCH   2   3
ENDBRANCH   1   2
BRANCH   1  10
ATOM     10  C   UNL     1       9.958  -5.049  20.267  1.00  0.00     0.000 C 
BRANCH  10  11
ATOM     11  C   UNL     1       9.695  -6.359  19.508  1.00  0.00    -0.000 C 
BRANCH  11  12
ATOM     12  C   UNL     1       9.262  -6.121  18.051  1.00  0.00    -0.000 C 
BRANCH  12  13
ATOM     13  C   UNL     1       8.022  -6.943  17.662  1.00  0.00    -0.000 C 
BRANCH  13  14
ATOM     14  C   UNL     1       8.241  -7.787  16.397  1.00  0.00    -0.000 C 
BRANCH  14  15
ATOM     15  C   UNL     1       7.137  -8.839  16.241  1.00  0.00    -0.000 C 
BRANCH  15  16
ATOM     16  C   UNL     1       7.376 -10.032  17.173  1.00  0.00    -0.003 C 
ATOM     17  C   UNL     1       8.799 -10.564  17.033  1.00  0.00     0.004 C 
ENDBRANCH  15  16
ENDBRANCH  14  15
ENDBRANCH  13  14
ENDBRANCH  12  13
ENDBRANCH  11  12
ENDBRANCH  10  11
ENDBRANCH   1  10
TORSDOF 13
ENDMDL
MODEL 6
REMARK VINA RESULT:    -3.306      1.733      2.780
REMARK INTER + INTRA:          -7.036
REMARK INTER:                  -5.472
REMARK INTRA:                  -1.564
REMARK UNBOUND:                -1.218
REMARK SMILES CCCCCCCCCCCCCCC(=O)[O-]
REMARK SMILES IDX 9 1 10 2 11 3 12 4 13 5 14 6 15 7 16 8 17 9 8 10 7 11 6 12
REMARK SMILES IDX 5 13 4 14 3 15 2 16 1 17
REMARK H PARENT
REMARK Flexibility Score: inf
ROOT
ATOM      1  C   UNL     1      10.000  -4.796  19.392  1.00  0.00     0.000 C 
ENDROOT
BRANCH   1   2
ATOM      2  C   UNL     1       9.085  -3.633  18.979  1.00  0.00     0.000 C 
BRANCH   2   3
ATOM      3  C   UNL     1       8.441  -2.928  20.184  1.00  0.00     0.000 C 
BRANCH   3   4
ATOM      4  C   UNL     1       7.029  -2.402  19.875  1.00  0.00     0.000 C 
BRANCH   4   5
ATOM      5  C   UNL     1       6.510  -2.847  18.495  1.00  0.00     0.006 C 
BRANCH   5   6
ATOM      6  C   UNL     1       5.714  -1.764  17.745  1.00  0.00     0.053 C 
BRANCH   6   7
ATOM      7  C   UNL     1       5.947  -1.793  16.265  1.00  0.00     0.041 C 
ATOM      8  O   UNL     1       4.973  -1.792  15.468  1.00  0.00    -0.550 OA
ATOM      9  O   UNL     1       7.243  -1.849  15.767  1.00  0.00    -0.550 OA
ENDBRANCH   6   7
ENDBRANCH   5   6
ENDBRANCH   4   5
ENDBRANCH   3   4
ENDBRANCH   2   3
ENDBRANCH   1   2
BRANCH   1  10
ATOM     10  C   UNL     1       9.283  -6.145  19.219  1.00  0.00     0.000 C 
BRANCH  10  11
ATOM     11  C   UNL     1       8.163  -6.091  18.167  1.00  0.00    -0.000 C 
BRANCH  11  12
ATOM     12  C   UNL     1       8.070  -7.384  17.338  1.00  0.00    -0.000 C 
BRANCH  12  13
ATOM     13  C   UNL     1       9.415  -8.124  17.244  1.00  0.00    -0.000 C 
BRANCH  13  14
ATOM     14  C   UNL     1      10.260  -7.669  16.044  1.00  0.00    -0.000 C 
BRANCH  14  15
ATOM     15  C   UNL     1       9.381  -7.021  14.968  1.00  0.00    -0.000 C 
BRANCH  15  16
ATOM     16  C   UNL     1      10.029  -5.744  14.422  1.00  0.00    -0.003 C 
ATOM     17  C   UNL     1      10.442  -4.807  15.553  1.00  0.00     0.004 C 
ENDBRANCH  15  16
ENDBRANCH  14  15
ENDBRANCH  13  14
ENDBRANCH  12  13
ENDBRANCH  11  12
ENDBRANCH  10  11
ENDBRANCH   1  10
TORSDOF 13
ENDMDL
MODEL 7
REMARK VINA RESULT:    -3.240      9.515     11.878
REMARK INTER + INTRA:          -6.919
REMARK INTER:                  -4.996
REMARK INTRA:                  -1.924
REMARK UNBOUND:                -1.218
REMARK SMILES CCCCCCCCCCCCCCC(=O)[O-]
REMARK SMILES IDX 9 1 10 2 11 3 12 4 13 5 14 6 15 7 16 8 17 9 8 10 7 11 6 12
REMARK SMILES IDX 5 13 4 14 3 15 2 16 1 17
REMARK H PARENT
REMARK Flexibility Score: inf
ROOT
ATOM      1  C   UNL     1       0.721   1.146  21.320  1.00  0.00     0.000 C 
ENDROOT
BRANCH   1   2
ATOM      2  C   UNL     1       0.543   0.139  20.174  1.00  0.00     0.000 C 
BRANCH   2   3
ATOM      3  C   UNL     1      -0.121  -1.170  20.631  1.00  0.00     0.000 C 
BRANCH   3   4
ATOM      4  C   UNL     1      -0.006  -1.391  22.150  1.00  0.00     0.000 C 
BRANCH   4   5
ATOM      5  C   UNL     1      -0.373  -2.824  22.578  1.00  0.00     0.006 C 
BRANCH   5   6
ATOM      6  C   UNL     1      -0.187  -3.096  24.082  1.00  0.00     0.053 C 
BRANCH   6   7
ATOM      7  C   UNL     1       1.025  -3.925  24.375  1.00  0.00     0.041 C 
ATOM      8  O   UNL     1       2.119  -3.372  24.665  1.00  0.00    -0.550 OA
ATOM      9  O   UNL     1       0.955  -5.311  24.301  1.00  0.00    -0.550 OA
ENDBRANCH   6   7
ENDBRANCH   5   6
ENDBRANCH   4   5
ENDBRANCH   3   4
ENDBRANCH   2   3
ENDBRANCH   1   2
BRANCH   1  10
ATOM     10  C   UNL     1      -0.276   2.309  21.187  1.00  0.00     0.000 C 
BRANCH  10  11
ATOM     11  C   UNL     1      -1.088   2.546  22.470  1.00  0.00    -0.000 C 
BRANCH  11  12
ATOM     12  C   UNL     1      -2.150   1.458  22.706  1.00  0.00    -0.000 C 
BRANCH  12  13
ATOM     13  C   UNL     1      -3.249   1.463  21.630  1.00  0.00    -0.000 C 
BRANCH  13  14
ATOM     14  C   UNL     1      -3.653   0.048  21.187  1.00  0.00    -0.000 C 
BRANCH  14  15
ATOM     15  C   UNL     1      -3.709  -0.907  22.385  1.00  0.00    -0.000 C 
BRANCH  15  16
ATOM     16  C   UNL     1      -3.990  -2.344  21.932  1.00  0.00    -0.003 C 
ATOM     17  C   UNL     1      -4.733  -2.367  20.599  1.00  0.00     0.004 C 
ENDBRANCH  15  16
ENDBRANCH  14  15
ENDBRANCH  13  14
ENDBRANCH  12  13
ENDBRANCH  11  12
ENDBRANCH  10  11
ENDBRANCH   1  10
TORSDOF 13
ENDMDL
MODEL 8
REMARK VINA RESULT:    -3.173      3.168      6.041
REMARK INTER + INTRA:          -6.803
REMARK INTER:                  -5.402
REMARK INTRA:                  -1.400
REMARK UNBOUND:                -1.218
REMARK SMILES CCCCCCCCCCCCCCC(=O)[O-]
REMARK SMILES IDX 9 1 10 2 11 3 12 4 13 5 14 6 15 7 16 8 17 9 8 10 7 11 6 12
REMARK SMILES IDX 5 13 4 14 3 15 2 16 1 17
REMARK H PARENT
REMARK Flexibility Score: inf
ROOT
ATOM      1  C   UNL     1      10.616  -4.926  19.499  1.00  0.00     0.000 C 
ENDROOT
BRANCH   1   2
ATOM      2  C   UNL     1       9.798  -6.225  19.550  1.00  0.00     0.000 C 
BRANCH   2   3
ATOM      3  C   UNL     1       9.600  -6.857  18.162  1.00  0.00     0.000 C 
BRANCH   3   4
ATOM      4  C   UNL     1       8.126  -6.859  17.720  1.00  0.00     0.000 C 
BRANCH   4   5
ATOM      5  C   UNL     1       7.751  -8.100  16.889  1.00  0.00     0.006 C 
BRANCH   5   6
ATOM      6  C   UNL     1       8.571  -9.357  17.233  1.00  0.00     0.053 C 
BRANCH   6   7
ATOM      7  C   UNL     1       7.751 -10.610  17.201  1.00  0.00     0.041 C 
ATOM      8  O   UNL     1       6.554 -10.577  16.810  1.00  0.00    -0.550 OA
ATOM      9  O   UNL     1       8.301 -11.812  17.627  1.00  0.00    -0.550 OA
ENDBRANCH   6   7
ENDBRANCH   5   6
ENDBRANCH   4   5
ENDBRANCH   3   4
ENDBRANCH   2   3
ENDBRANCH   1   2
BRANCH   1  10
ATOM     10  C   UNL     1      11.094  -4.524  20.904  1.00  0.00     0.000 C 
BRANCH  10  11
ATOM     11  C   UNL     1      10.769  -3.061  21.246  1.00  0.00    -0.000 C 
BRANCH  11  12
ATOM     12  C   UNL     1      10.466  -2.216  19.997  1.00  0.00    -0.000 C 
BRANCH  12  13
ATOM     13  C   UNL     1       9.150  -1.428  20.123  1.00  0.00    -0.000 C 
BRANCH  13  14
ATOM     14  C   UNL     1       7.977  -2.303  20.592  1.00  0.00    -0.000 C 
BRANCH  14  15
ATOM     15  C   UNL     1       6.915  -2.429  19.493  1.00  0.00    -0.000 C 
BRANCH  15  16
ATOM     16  C   UNL     1       7.307  -3.500  18.468  1.00  0.00    -0.003 C 
ATOM     17  C   UNL     1       7.551  -2.885  17.094  1.00  0.00     0.004 C 
ENDBRANCH  15  16
ENDBRANCH  14  15
ENDBRANCH  13  14
ENDBRANCH  12  13
ENDBRANCH  11  12
ENDBRANCH  10  11
ENDBRANCH   1  10
TORSDOF 13
ENDMDL
MODEL 9
REMARK VINA RESULT:    -3.167      2.760      5.597
REMARK INTER + INTRA:          -6.791
REMARK INTER:                  -4.888
REMARK INTRA:                  -1.903
REMARK UNBOUND:                -1.218
REMARK SMILES CCCCCCCCCCCCCCC(=O)[O-]
REMARK SMILES IDX 9 1 10 2 11 3 12 4 13 5 14 6 15 7 16 8 17 9 8 10 7 11 6 12
REMARK SMILES IDX 5 13 4 14 3 15 2 16 1 17
REMARK H PARENT
REMARK Flexibility Score: inf
ROOT
ATOM      1  C   UNL     1      10.459  -3.972  20.880  1.00  0.00     0.000 C 
ENDROOT
BRANCH   1   2
ATOM      2  C   UNL     1      10.775  -5.418  20.464  1.00  0.00     0.000 C 
BRANCH   2   3
ATOM      3  C   UNL     1       9.667  -6.042  19.600  1.00  0.00     0.000 C 
BRANCH   3   4
ATOM      4  C   UNL     1      10.193  -6.568  18.253  1.00  0.00     0.000 C 
BRANCH   4   5
ATOM      5  C   UNL     1       9.167  -6.432  17.113  1.00  0.00     0.006 C 
BRANCH   5   6
ATOM      6  C   UNL     1       7.865  -7.220  17.344  1.00  0.00     0.053 C 
BRANCH   6   7
ATOM      7  C   UNL     1       7.893  -8.581  16.720  1.00  0.00     0.041 C 
ATOM      8  O   UNL     1       7.686  -9.607  17.421  1.00  0.00    -0.550 OA
ATOM      9  O   UNL     1       8.174  -8.720  15.366  1.00  0.00    -0.550 OA
ENDBRANCH   6   7
ENDBRANCH   5   6
ENDBRANCH   4   5
ENDBRANCH   3   4
ENDBRANCH   2   3
ENDBRANCH   1   2
BRANCH   1  10
ATOM     10  C   UNL     1      10.923  -2.979  19.802  1.00  0.00     0.000 C 
BRANCH  10  11
ATOM     11  C   UNL     1       9.755  -2.220  19.152  1.00  0.00    -0.000 C 
BRANCH  11  12
ATOM     12  C   UNL     1       9.455  -2.709  17.724  1.00  0.00    -0.000 C 
BRANCH  12  13
ATOM     13  C   UNL     1       7.971  -3.057  17.519  1.00  0.00    -0.000 C 
BRANCH  13  14
ATOM     14  C   UNL     1       7.201  -3.179  18.843  1.00  0.00    -0.000 C 
BRANCH  14  15
ATOM     15  C   UNL     1       5.921  -2.336  18.812  1.00  0.00    -0.000 C 
BRANCH  15  16
ATOM     16  C   UNL     1       6.229  -0.878  18.452  1.00  0.00    -0.003 C 
ATOM     17  C   UNL     1       6.694  -0.094  19.676  1.00  0.00     0.004 C 
ENDBRANCH  15  16
ENDBRANCH  14  15
ENDBRANCH  13  14
ENDBRANCH  12  13
ENDBRANCH  11  12
ENDBRANCH  10  11
ENDBRANCH   1  10
TORSDOF 13
ENDMDL
