MODEL 1
REMARK VINA RESULT:     4.391      0.000      0.000
REMARK INTER + INTRA:           5.890
REMARK INTER:                   5.290
REMARK INTRA:                   0.600
REMARK UNBOUND:                 0.600
REMARK SMILES O=c1c(O)c(-c2ccc(O)cc2O)oc2cc(O)cc(O)c12
REMARK SMILES IDX 5 1 3 2 2 3 1 4 22 5 20 6 19 7 17 8 16 9 15 10 14 11 6 12
REMARK SMILES IDX 8 13 7 14 9 15 11 16 12 17 10 18 13 20 4 22 21 24 18 26
REMARK H PARENT 10 19 13 21 4 23 21 25 18 27
REMARK Flexibility Score: inf
ROOT
ATOM      1  C   UNL     1     -20.100 -19.841 -27.198  1.00  0.00     0.184 A 
ATOM      2  C   UNL     1     -20.183 -18.514 -26.750  1.00  0.00     0.208 A 
ATOM      3  C   UNL     1     -20.243 -18.263 -25.370  1.00  0.00     0.238 A 
ATOM      4  O   UNL     1     -20.263 -17.069 -24.974  1.00  0.00    -0.285 OA
ATOM      5  C   UNL     1     -20.234 -19.346 -24.458  1.00  0.00     0.111 A 
ATOM      6  C   UNL     1     -20.331 -19.211 -23.040  1.00  0.00     0.134 A 
ATOM      7  C   UNL     1     -20.182 -20.342 -22.228  1.00  0.00     0.093 A 
ATOM      8  C   UNL     1     -20.005 -21.610 -22.782  1.00  0.00     0.123 A 
ATOM      9  C   UNL     1     -19.968 -21.761 -24.168  1.00  0.00     0.094 A 
ATOM     10  C   UNL     1     -20.078 -20.648 -25.005  1.00  0.00     0.146 A 
ATOM     11  O   UNL     1     -20.027 -20.832 -26.319  1.00  0.00    -0.451 OA
ENDROOT
BRANCH   1  12
ATOM     12  C   UNL     1     -20.050 -20.174 -28.637  1.00  0.00     0.063 A 
ATOM     13  C   UNL     1     -19.938 -19.413 -30.944  1.00  0.00     0.047 A 
ATOM     14  C   UNL     1     -19.993 -19.132 -29.576  1.00  0.00     0.020 A 
ATOM     15  C   UNL     1     -19.926 -20.737 -31.390  1.00  0.00     0.119 A 
ATOM     16  C   UNL     1     -19.959 -21.784 -30.460  1.00  0.00     0.093 A 
ATOM     17  C   UNL     1     -20.008 -21.511 -29.085  1.00  0.00     0.130 A 
BRANCH  15  18
ATOM     18  O   UNL     1     -19.876 -21.002 -32.757  1.00  0.00    -0.508 OA
ATOM     19  H   UNL     1     -20.143 -21.905 -33.131  1.00  0.00     0.293 HD
ENDBRANCH  15  18
BRANCH  17  20
ATOM     20  O   UNL     1     -19.991 -22.563 -28.168  1.00  0.00    -0.507 OA
ATOM     21  H   UNL     1     -20.428 -22.481 -27.258  1.00  0.00     0.293 HD
ENDBRANCH  17  20
ENDBRANCH   1  12
BRANCH   2  22
ATOM     22  O   UNL     1     -20.172 -17.463 -27.673  1.00  0.00    -0.502 OA
ATOM     23  H   UNL     1     -20.100 -17.618 -28.671  1.00  0.00     0.293 HD
ENDBRANCH   2  22
BRANCH   6  24
ATOM     24  O   UNL     1     -20.598 -18.005 -22.387  1.00  0.00    -0.507 OA
ATOM     25  H   UNL     1     -21.423 -17.819 -21.837  1.00  0.00     0.293 HD
ENDBRANCH   6  24
BRANCH   8  26
ATOM     26  O   UNL     1     -19.876 -22.715 -21.942  1.00  0.00    -0.508 OA
ATOM     27  H   UNL     1     -19.270 -23.491 -22.179  1.00  0.00     0.293 HD
ENDBRANCH   8  26
TORSDOF 6
ENDMDL
MODEL 2
REMARK VINA RESULT:     6.031      1.795      6.776
REMARK INTER + INTRA:           7.866
REMARK INTER:                   8.277
REMARK INTRA:                  -0.411
REMARK UNBOUND:                 0.600
REMARK SMILES O=c1c(O)c(-c2ccc(O)cc2O)oc2cc(O)cc(O)c12
REMARK SMILES IDX 5 1 3 2 2 3 1 4 22 5 20 6 19 7 17 8 16 9 15 10 14 11 6 12
REMARK SMILES IDX 8 13 7 14 9 15 11 16 12 17 10 18 13 20 4 22 21 24 18 26
REMARK H PARENT 10 19 13 21 4 23 21 25 18 27
REMARK Flexibility Score: inf
ROOT
ATOM      1  C   UNL     1     -20.679 -19.866 -25.971  1.00  0.00     0.184 A 
ATOM      2  C   UNL     1     -20.477 -21.216 -25.646  1.00  0.00     0.208 A 
ATOM      3  C   UNL     1     -20.237 -22.136 -26.679  1.00  0.00     0.238 A 
ATOM      4  O   UNL     1     -20.005 -23.336 -26.377  1.00  0.00    -0.285 OA
ATOM      5  C   UNL     1     -20.219 -21.695 -28.024  1.00  0.00     0.111 A 
ATOM      6  C   UNL     1     -20.026 -22.546 -29.153  1.00  0.00     0.134 A 
ATOM      7  C   UNL     1     -19.896 -21.982 -30.428  1.00  0.00     0.093 A 
ATOM      8  C   UNL     1     -20.018 -20.607 -30.624  1.00  0.00     0.123 A 
ATOM      9  C   UNL     1     -20.266 -19.771 -29.535  1.00  0.00     0.094 A 
ATOM     10  C   UNL     1     -20.364 -20.299 -28.245  1.00  0.00     0.146 A 
ATOM     11  O   UNL     1     -20.590 -19.469 -27.234  1.00  0.00    -0.451 OA
ENDROOT
BRANCH   1  12
ATOM     12  C   UNL     1     -20.951 -18.849 -24.934  1.00  0.00     0.063 A 
ATOM     13  C   UNL     1     -20.098 -17.339 -23.229  1.00  0.00     0.047 A 
ATOM     14  C   UNL     1     -19.875 -18.306 -24.212  1.00  0.00     0.020 A 
ATOM     15  C   UNL     1     -21.394 -16.891 -22.963  1.00  0.00     0.119 A 
ATOM     16  C   UNL     1     -22.471 -17.409 -23.694  1.00  0.00     0.093 A 
ATOM     17  C   UNL     1     -22.257 -18.376 -24.687  1.00  0.00     0.130 A 
BRANCH  15  18
ATOM     18  O   UNL     1     -21.601 -15.929 -21.978  1.00  0.00    -0.508 OA
ATOM     19  H   UNL     1     -22.452 -15.381 -21.944  1.00  0.00     0.293 HD
ENDBRANCH  15  18
BRANCH  17  20
ATOM     20  O   UNL     1     -23.332 -18.847 -25.441  1.00  0.00    -0.507 OA
ATOM     21  H   UNL     1     -23.919 -18.221 -25.978  1.00  0.00     0.293 HD
ENDBRANCH  17  20
ENDBRANCH   1  12
BRANCH   2  22
ATOM     22  O   UNL     1     -20.483 -21.621 -24.308  1.00  0.00    -0.502 OA
ATOM     23  H   UNL     1     -21.243 -22.156 -23.906  1.00  0.00     0.293 HD
ENDBRANCH   2  22
BRANCH   6  24
ATOM     24  O   UNL     1     -19.982 -23.941 -29.081  1.00  0.00    -0.507 OA
ATOM     25  H   UNL     1     -20.614 -24.562 -29.563  1.00  0.00     0.293 HD
ENDBRANCH   6  24
BRANCH   8  26
ATOM     26  O   UNL     1     -19.900 -20.082 -31.910  1.00  0.00    -0.508 OA
ATOM     27  H   UNL     1     -19.545 -20.639 -32.678  1.00  0.00     0.293 HD
ENDBRANCH   8  26
TORSDOF 6
ENDMDL
