MODEL 1
REMARK VINA RESULT:    16.246      0.000      0.000
REMARK INTER + INTRA:          39.849
REMARK INTER:                  40.939
REMARK INTRA:                  -1.090
REMARK UNBOUND:                -1.090
REMARK SMILES CCCCCCCCCCCCCCCCCCCCCCCCCCCC(=O)[O-]
REMARK SMILES IDX 15 1 16 2 17 3 18 4 19 5 20 6 21 7 22 8 23 9 24 10 25 11
REMARK SMILES IDX 26 12 27 13 28 14 29 15 30 16 14 17 13 18 12 19 11 20 10 21
REMARK SMILES IDX 9 22 8 23 7 24 6 25 5 26 4 27 3 28 2 29 1 30
REMARK H PARENT
REMARK Flexibility Score: inf
ROOT
ATOM      1  C   UNL     1     -32.514  12.728  18.942  1.00  0.00     0.000 C 
ENDROOT
BRANCH   1   2
ATOM      2  C   UNL     1     -33.308  11.449  19.281  1.00  0.00     0.000 C 
BRANCH   2   3
ATOM      3  C   UNL     1     -33.736  11.318  20.756  1.00  0.00     0.000 C 
BRANCH   3   4
ATOM      4  C   UNL     1     -33.963  12.654  21.490  1.00  0.00     0.000 C 
BRANCH   4   5
ATOM      5  C   UNL     1     -34.493  12.529  22.931  1.00  0.00     0.000 C 
BRANCH   5   6
ATOM      6  C   UNL     1     -33.666  11.557  23.789  1.00  0.00     0.000 C 
BRANCH   6   7
ATOM      7  C   UNL     1     -34.031  11.616  25.284  1.00  0.00     0.000 C 
BRANCH   7   8
ATOM      8  C   UNL     1     -32.897  11.226  26.255  1.00  0.00     0.000 C 
BRANCH   8   9
ATOM      9  C   UNL     1     -33.091   9.879  26.981  1.00  0.00     0.000 C 
BRANCH   9  10
ATOM     10  C   UNL     1     -34.111   8.929  26.324  1.00  0.00     0.000 C 
BRANCH  10  11
ATOM     11  C   UNL     1     -33.498   7.701  25.622  1.00  0.00     0.000 C 
BRANCH  11  12
ATOM     12  C   UNL     1     -34.521   6.696  25.055  1.00  0.00     0.006 C 
BRANCH  12  13
ATOM     13  C   UNL     1     -35.304   7.206  23.834  1.00  0.00     0.053 C 
BRANCH  13  14
ATOM     14  C   UNL     1     -34.489   7.144  22.578  1.00  0.00     0.041 C 
ATOM     15  O   UNL     1     -34.557   6.136  21.827  1.00  0.00    -0.550 OA
ATOM     16  O   UNL     1     -33.684   8.218  22.218  1.00  0.00    -0.550 OA
ENDBRANCH  13  14
ENDBRANCH  12  13
ENDBRANCH  11  12
ENDBRANCH  10  11
ENDBRANCH   9  10
ENDBRANCH   8   9
ENDBRANCH   7   8
ENDBRANCH   6   7
ENDBRANCH   5   6
ENDBRANCH   4   5
ENDBRANCH   3   4
ENDBRANCH   2   3
ENDBRANCH   1   2
BRANCH   1  17
ATOM     17  C   UNL     1     -32.524  13.134  17.458  1.00  0.00     0.000 C 
BRANCH  17  18
ATOM     18  C   UNL     1     -33.944  13.295  16.889  1.00  0.00     0.000 C 
BRANCH  18  19
ATOM     19  C   UNL     1     -34.045  14.428  15.851  1.00  0.00     0.000 C 
BRANCH  19  20
ATOM     20  C   UNL     1     -34.454  15.798  16.420  1.00  0.00     0.000 C 
BRANCH  20  21
ATOM     21  C   UNL     1     -34.759  15.752  17.927  1.00  0.00     0.000 C 
BRANCH  21  22
ATOM     22  C   UNL     1     -34.722  17.147  18.574  1.00  0.00    -0.000 C 
BRANCH  22  23
ATOM     23  C   UNL     1     -35.324  18.261  17.686  1.00  0.00    -0.000 C 
BRANCH  23  24
ATOM     24  C   UNL     1     -36.852  18.160  17.523  1.00  0.00    -0.000 C 
BRANCH  24  25
ATOM     25  C   UNL     1     -37.423  16.738  17.682  1.00  0.00    -0.000 C 
BRANCH  25  26
ATOM     26  C   UNL     1     -38.946  16.663  17.921  1.00  0.00    -0.000 C 
BRANCH  26  27
ATOM     27  C   UNL     1     -39.375  15.860  19.162  1.00  0.00    -0.000 C 
BRANCH  27  28
ATOM     28  C   UNL     1     -39.089  14.354  19.027  1.00  0.00    -0.000 C 
BRANCH  28  29
ATOM     29  C   UNL     1     -40.373  13.514  18.955  1.00  0.00    -0.003 C 
ATOM     30  C   UNL     1     -40.094  12.016  18.823  1.00  0.00     0.004 C 
ENDBRANCH  28  29
ENDBRANCH  27  28
ENDBRANCH  26  27
ENDBRANCH  25  26
ENDBRANCH  24  25
ENDBRANCH  23  24
ENDBRANCH  22  23
ENDBRANCH  21  22
ENDBRANCH  20  21
ENDBRANCH  19  20
ENDBRANCH  18  19
ENDBRANCH  17  18
ENDBRANCH   1  17
TORSDOF 26
ENDMDL
MODEL 2
REMARK VINA RESULT:    16.369      1.896      3.478
REMARK INTER + INTRA:          40.160
REMARK INTER:                  40.498
REMARK INTRA:                  -0.338
REMARK UNBOUND:                -1.090
REMARK SMILES CCCCCCCCCCCCCCCCCCCCCCCCCCCC(=O)[O-]
REMARK SMILES IDX 15 1 16 2 17 3 18 4 19 5 20 6 21 7 22 8 23 9 24 10 25 11
REMARK SMILES IDX 26 12 27 13 28 14 29 15 30 16 14 17 13 18 12 19 11 20 10 21
REMARK SMILES IDX 9 22 8 23 7 24 6 25 5 26 4 27 3 28 2 29 1 30
REMARK H PARENT
REMARK Flexibility Score: inf
ROOT
ATOM      1  C   UNL     1     -33.164  12.823  20.072  1.00  0.00     0.000 C 
ENDROOT
BRANCH   1   2
ATOM      2  C   UNL     1     -34.004  11.992  21.064  1.00  0.00     0.000 C 
BRANCH   2   3
ATOM      3  C   UNL     1     -34.196  10.513  20.678  1.00  0.00     0.000 C 
BRANCH   3   4
ATOM      4  C   UNL     1     -33.176   9.538  21.299  1.00  0.00     0.000 C 
BRANCH   4   5
ATOM      5  C   UNL     1     -33.693   8.726  22.501  1.00  0.00     0.000 C 
BRANCH   5   6
ATOM      6  C   UNL     1     -33.893   7.236  22.173  1.00  0.00     0.000 C 
BRANCH   6   7
ATOM      7  C   UNL     1     -35.218   6.674  22.723  1.00  0.00     0.000 C 
BRANCH   7   8
ATOM      8  C   UNL     1     -35.465   6.920  24.226  1.00  0.00     0.000 C 
BRANCH   8   9
ATOM      9  C   UNL     1     -34.192   7.046  25.086  1.00  0.00     0.000 C 
BRANCH   9  10
ATOM     10  C   UNL     1     -34.261   8.113  26.195  1.00  0.00     0.000 C 
BRANCH  10  11
ATOM     11  C   UNL     1     -32.899   8.686  26.633  1.00  0.00     0.000 C 
BRANCH  11  12
ATOM     12  C   UNL     1     -32.903  10.191  26.971  1.00  0.00     0.006 C 
BRANCH  12  13
ATOM     13  C   UNL     1     -32.806  11.119  25.748  1.00  0.00     0.053 C 
BRANCH  13  14
ATOM     14  C   UNL     1     -34.157  11.504  25.227  1.00  0.00     0.041 C 
ATOM     15  O   UNL     1     -34.257  12.293  24.250  1.00  0.00    -0.550 OA
ATOM     16  O   UNL     1     -35.303  10.963  25.796  1.00  0.00    -0.550 OA
ENDBRANCH  13  14
ENDBRANCH  12  13
ENDBRANCH  11  12
ENDBRANCH  10  11
ENDBRANCH   9  10
ENDBRANCH   8   9
ENDBRANCH   7   8
ENDBRANCH   6   7
ENDBRANCH   5   6
ENDBRANCH   4   5
ENDBRANCH   3   4
ENDBRANCH   2   3
ENDBRANCH   1   2
BRANCH   1  17
ATOM     17  C   UNL     1     -32.662  12.056  18.834  1.00  0.00     0.000 C 
BRANCH  17  18
ATOM     18  C   UNL     1     -31.788  12.918  17.908  1.00  0.00     0.000 C 
BRANCH  18  19
ATOM     19  C   UNL     1     -32.491  13.272  16.584  1.00  0.00     0.000 C 
BRANCH  19  20
ATOM     20  C   UNL     1     -34.029  13.266  16.642  1.00  0.00     0.000 C 
BRANCH  20  21
ATOM     21  C   UNL     1     -34.621  14.653  16.947  1.00  0.00     0.000 C 
BRANCH  21  22
ATOM     22  C   UNL     1     -34.684  15.550  15.698  1.00  0.00    -0.000 C 
BRANCH  22  23
ATOM     23  C   UNL     1     -34.836  17.055  16.021  1.00  0.00    -0.000 C 
BRANCH  23  24
ATOM     24  C   UNL     1     -34.870  17.362  17.530  1.00  0.00    -0.000 C 
BRANCH  24  25
ATOM     25  C   UNL     1     -36.045  18.252  17.978  1.00  0.00    -0.000 C 
BRANCH  25  26
ATOM     26  C   UNL     1     -37.450  17.667  17.720  1.00  0.00    -0.000 C 
BRANCH  26  27
ATOM     27  C   UNL     1     -37.554  16.136  17.841  1.00  0.00    -0.000 C 
BRANCH  27  28
ATOM     28  C   UNL     1     -38.738  15.684  18.713  1.00  0.00    -0.000 C 
BRANCH  28  29
ATOM     29  C   UNL     1     -39.992  16.544  18.495  1.00  0.00    -0.003 C 
ATOM     30  C   UNL     1     -40.077  17.121  17.082  1.00  0.00     0.004 C 
ENDBRANCH  28  29
ENDBRANCH  27  28
ENDBRANCH  26  27
ENDBRANCH  25  26
ENDBRANCH  24  25
ENDBRANCH  23  24
ENDBRANCH  22  23
ENDBRANCH  21  22
ENDBRANCH  20  21
ENDBRANCH  19  20
ENDBRANCH  18  19
ENDBRANCH  17  18
ENDBRANCH   1  17
TORSDOF 26
ENDMDL
MODEL 3
REMARK VINA RESULT:    16.401      1.208      2.039
REMARK INTER + INTRA:          40.239
REMARK INTER:                  39.583
REMARK INTRA:                   0.656
REMARK UNBOUND:                -1.090
REMARK SMILES CCCCCCCCCCCCCCCCCCCCCCCCCCCC(=O)[O-]
REMARK SMILES IDX 15 1 16 2 17 3 18 4 19 5 20 6 21 7 22 8 23 9 24 10 25 11
REMARK SMILES IDX 26 12 27 13 28 14 29 15 30 16 14 17 13 18 12 19 11 20 10 21
REMARK SMILES IDX 9 22 8 23 7 24 6 25 5 26 4 27 3 28 2 29 1 30
REMARK H PARENT
REMARK Flexibility Score: inf
ROOT
ATOM      1  C   UNL     1     -32.920  12.460  19.041  1.00  0.00     0.000 C 
ENDROOT
BRANCH   1   2
ATOM      2  C   UNL     1     -33.337  11.101  19.640  1.00  0.00     0.000 C 
BRANCH   2   3
ATOM      3  C   UNL     1     -34.057  11.181  21.000  1.00  0.00     0.000 C 
BRANCH   3   4
ATOM      4  C   UNL     1     -34.118  12.589  21.625  1.00  0.00     0.000 C 
BRANCH   4   5
ATOM      5  C   UNL     1     -34.424  12.626  23.133  1.00  0.00     0.000 C 
BRANCH   5   6
ATOM      6  C   UNL     1     -33.751  11.478  23.906  1.00  0.00     0.000 C 
BRANCH   6   7
ATOM      7  C   UNL     1     -34.272  11.340  25.350  1.00  0.00     0.000 C 
BRANCH   7   8
ATOM      8  C   UNL     1     -33.189  11.383  26.447  1.00  0.00     0.000 C 
BRANCH   8   9
ATOM      9  C   UNL     1     -32.843  10.021  27.080  1.00  0.00     0.000 C 
BRANCH   9  10
ATOM     10  C   UNL     1     -33.763   8.859  26.662  1.00  0.00     0.000 C 
BRANCH  10  11
ATOM     11  C   UNL     1     -33.037   7.627  26.086  1.00  0.00     0.000 C 
BRANCH  11  12
ATOM     12  C   UNL     1     -33.909   6.707  25.206  1.00  0.00     0.006 C 
BRANCH  12  13
ATOM     13  C   UNL     1     -34.873   7.452  24.268  1.00  0.00     0.053 C 
BRANCH  13  14
ATOM     14  C   UNL     1     -34.503   7.274  22.826  1.00  0.00     0.041 C 
ATOM     15  O   UNL     1     -35.002   6.331  22.157  1.00  0.00    -0.550 OA
ATOM     16  O   UNL     1     -33.638   8.172  22.214  1.00  0.00    -0.550 OA
ENDBRANCH  13  14
ENDBRANCH  12  13
ENDBRANCH  11  12
ENDBRANCH  10  11
ENDBRANCH   9  10
ENDBRANCH   8   9
ENDBRANCH   7   8
ENDBRANCH   6   7
ENDBRANCH   5   6
ENDBRANCH   4   5
ENDBRANCH   3   4
ENDBRANCH   2   3
ENDBRANCH   1   2
BRANCH   1  17
ATOM     17  C   UNL     1     -31.405  12.663  18.863  1.00  0.00     0.000 C 
BRANCH  17  18
ATOM     18  C   UNL     1     -30.996  12.885  17.397  1.00  0.00     0.000 C 
BRANCH  18  19
ATOM     19  C   UNL     1     -32.132  13.484  16.546  1.00  0.00     0.000 C 
BRANCH  19  20
ATOM     20  C   UNL     1     -33.511  12.833  16.748  1.00  0.00     0.000 C 
BRANCH  20  21
ATOM     21  C   UNL     1     -34.672  13.829  16.582  1.00  0.00     0.000 C 
BRANCH  21  22
ATOM     22  C   UNL     1     -34.251  15.096  15.819  1.00  0.00    -0.000 C 
BRANCH  22  23
ATOM     23  C   UNL     1     -35.065  16.353  16.204  1.00  0.00    -0.000 C 
BRANCH  23  24
ATOM     24  C   UNL     1     -34.662  16.956  17.563  1.00  0.00    -0.000 C 
BRANCH  24  25
ATOM     25  C   UNL     1     -35.452  18.215  17.968  1.00  0.00    -0.000 C 
BRANCH  25  26
ATOM     26  C   UNL     1     -36.980  18.128  17.760  1.00  0.00    -0.000 C 
BRANCH  26  27
ATOM     27  C   UNL     1     -37.518  16.722  17.444  1.00  0.00    -0.000 C 
BRANCH  27  28
ATOM     28  C   UNL     1     -38.491  16.199  18.516  1.00  0.00    -0.000 C 
BRANCH  28  29
ATOM     29  C   UNL     1     -39.963  16.400  18.124  1.00  0.00    -0.003 C 
ATOM     30  C   UNL     1     -40.137  17.358  16.946  1.00  0.00     0.004 C 
ENDBRANCH  28  29
ENDBRANCH  27  28
ENDBRANCH  26  27
ENDBRANCH  25  26
ENDBRANCH  24  25
ENDBRANCH  23  24
ENDBRANCH  22  23
ENDBRANCH  21  22
ENDBRANCH  20  21
ENDBRANCH  19  20
ENDBRANCH  18  19
ENDBRANCH  17  18
ENDBRANCH   1  17
TORSDOF 26
ENDMDL
MODEL 4
REMARK VINA RESULT:    16.425      1.599      2.864
REMARK INTER + INTRA:          40.300
REMARK INTER:                  41.973
REMARK INTRA:                  -1.673
REMARK UNBOUND:                -1.090
REMARK SMILES CCCCCCCCCCCCCCCCCCCCCCCCCCCC(=O)[O-]
REMARK SMILES IDX 15 1 16 2 17 3 18 4 19 5 20 6 21 7 22 8 23 9 24 10 25 11
REMARK SMILES IDX 26 12 27 13 28 14 29 15 30 16 14 17 13 18 12 19 11 20 10 21
REMARK SMILES IDX 9 22 8 23 7 24 6 25 5 26 4 27 3 28 2 29 1 30
REMARK H PARENT
REMARK Flexibility Score: inf
ROOT
ATOM      1  C   UNL     1     -32.873  11.979  19.054  1.00  0.00     0.000 C 
ENDROOT
BRANCH   1   2
ATOM      2  C   UNL     1     -33.712  12.653  20.159  1.00  0.00     0.000 C 
BRANCH   2   3
ATOM      3  C   UNL     1     -34.007  11.769  21.387  1.00  0.00     0.000 C 
BRANCH   3   4
ATOM      4  C   UNL     1     -33.968  10.250  21.121  1.00  0.00     0.000 C 
BRANCH   4   5
ATOM      5  C   UNL     1     -33.589   9.381  22.334  1.00  0.00     0.000 C 
BRANCH   5   6
ATOM      6  C   UNL     1     -33.586   7.877  22.013  1.00  0.00     0.000 C 
BRANCH   6   7
ATOM      7  C   UNL     1     -34.692   7.102  22.755  1.00  0.00     0.000 C 
BRANCH   7   8
ATOM      8  C   UNL     1     -34.885   7.488  24.236  1.00  0.00     0.000 C 
BRANCH   8   9
ATOM      9  C   UNL     1     -33.938   6.781  25.226  1.00  0.00     0.000 C 
BRANCH   9  10
ATOM     10  C   UNL     1     -32.974   7.715  25.982  1.00  0.00     0.000 C 
BRANCH  10  11
ATOM     11  C   UNL     1     -33.651   8.695  26.961  1.00  0.00     0.000 C 
BRANCH  11  12
ATOM     12  C   UNL     1     -32.975  10.077  27.072  1.00  0.00     0.006 C 
BRANCH  12  13
ATOM     13  C   UNL     1     -32.901  10.857  25.749  1.00  0.00     0.053 C 
BRANCH  13  14
ATOM     14  C   UNL     1     -34.253  11.308  25.286  1.00  0.00     0.041 C 
ATOM     15  O   UNL     1     -35.292  10.757  25.734  1.00  0.00    -0.550 OA
ATOM     16  O   UNL     1     -34.365  12.363  24.389  1.00  0.00    -0.550 OA
ENDBRANCH  13  14
ENDBRANCH  12  13
ENDBRANCH  11  12
ENDBRANCH  10  11
ENDBRANCH   9  10
ENDBRANCH   8   9
ENDBRANCH   7   8
ENDBRANCH   6   7
ENDBRANCH   5   6
ENDBRANCH   4   5
ENDBRANCH   3   4
ENDBRANCH   2   3
ENDBRANCH   1   2
BRANCH   1  17
ATOM     17  C   UNL     1     -32.168  12.943  18.084  1.00  0.00     0.000 C 
BRANCH  17  18
ATOM     18  C   UNL     1     -32.784  12.933  16.674  1.00  0.00     0.000 C 
BRANCH  18  19
ATOM     19  C   UNL     1     -34.177  13.587  16.627  1.00  0.00     0.000 C 
BRANCH  19  20
ATOM     20  C   UNL     1     -34.218  15.065  17.052  1.00  0.00     0.000 C 
BRANCH  20  21
ATOM     21  C   UNL     1     -34.669  16.000  15.917  1.00  0.00     0.000 C 
BRANCH  21  22
ATOM     22  C   UNL     1     -34.874  17.447  16.398  1.00  0.00    -0.000 C 
BRANCH  22  23
ATOM     23  C   UNL     1     -35.366  17.552  17.861  1.00  0.00    -0.000 C 
BRANCH  23  24
ATOM     24  C   UNL     1     -36.896  17.663  17.991  1.00  0.00    -0.000 C 
BRANCH  24  25
ATOM     25  C   UNL     1     -37.658  16.344  17.764  1.00  0.00    -0.000 C 
BRANCH  25  26
ATOM     26  C   UNL     1     -39.197  16.450  17.839  1.00  0.00    -0.000 C 
BRANCH  26  27
ATOM     27  C   UNL     1     -39.844  15.735  19.037  1.00  0.00    -0.000 C 
BRANCH  27  28
ATOM     28  C   UNL     1     -39.269  14.327  19.275  1.00  0.00    -0.000 C 
BRANCH  28  29
ATOM     29  C   UNL     1     -40.346  13.233  19.216  1.00  0.00    -0.003 C 
ATOM     30  C   UNL     1     -39.881  11.984  18.468  1.00  0.00     0.004 C 
ENDBRANCH  28  29
ENDBRANCH  27  28
ENDBRANCH  26  27
ENDBRANCH  25  26
ENDBRANCH  24  25
ENDBRANCH  23  24
ENDBRANCH  22  23
ENDBRANCH  21  22
ENDBRANCH  20  21
ENDBRANCH  19  20
ENDBRANCH  18  19
ENDBRANCH  17  18
ENDBRANCH   1  17
TORSDOF 26
ENDMDL
MODEL 5
REMARK VINA RESULT:    16.828      2.597      9.690
REMARK INTER + INTRA:          41.315
REMARK INTER:                  42.942
REMARK INTRA:                  -1.627
REMARK UNBOUND:                -1.090
REMARK SMILES CCCCCCCCCCCCCCCCCCCCCCCCCCCC(=O)[O-]
REMARK SMILES IDX 15 1 16 2 17 3 18 4 19 5 20 6 21 7 22 8 23 9 24 10 25 11
REMARK SMILES IDX 26 12 27 13 28 14 29 15 30 16 14 17 13 18 12 19 11 20 10 21
REMARK SMILES IDX 9 22 8 23 7 24 6 25 5 26 4 27 3 28 2 29 1 30
REMARK H PARENT
REMARK Flexibility Score: inf
ROOT
ATOM      1  C   UNL     1     -33.245  11.379  19.559  1.00  0.00     0.000 C 
ENDROOT
BRANCH   1   2
ATOM      2  C   UNL     1     -32.538  12.717  19.257  1.00  0.00     0.000 C 
BRANCH   2   3
ATOM      3  C   UNL     1     -31.779  12.765  17.916  1.00  0.00     0.000 C 
BRANCH   3   4
ATOM      4  C   UNL     1     -32.671  12.918  16.668  1.00  0.00     0.000 C 
BRANCH   4   5
ATOM      5  C   UNL     1     -33.900  13.829  16.847  1.00  0.00     0.000 C 
BRANCH   5   6
ATOM      6  C   UNL     1     -34.046  14.862  15.717  1.00  0.00     0.000 C 
BRANCH   6   7
ATOM      7  C   UNL     1     -35.007  16.012  16.076  1.00  0.00     0.000 C 
BRANCH   7   8
ATOM      8  C   UNL     1     -34.894  16.537  17.522  1.00  0.00     0.000 C 
BRANCH   8   9
ATOM      9  C   UNL     1     -35.347  17.996  17.728  1.00  0.00     0.000 C 
BRANCH   9  10
ATOM     10  C   UNL     1     -36.871  18.192  17.838  1.00  0.00     0.000 C 
BRANCH  10  11
ATOM     11  C   UNL     1     -37.717  16.976  17.407  1.00  0.00     0.000 C 
BRANCH  11  12
ATOM     12  C   UNL     1     -38.815  16.559  18.407  1.00  0.00     0.006 C 
BRANCH  12  13
ATOM     13  C   UNL     1     -38.640  15.148  18.992  1.00  0.00     0.053 C 
BRANCH  13  14
ATOM     14  C   UNL     1     -39.909  14.352  18.930  1.00  0.00     0.041 C 
ATOM     15  O   UNL     1     -39.927  13.157  19.327  1.00  0.00    -0.550 OA
ATOM     16  O   UNL     1     -41.079  14.943  18.469  1.00  0.00    -0.550 OA
ENDBRANCH  13  14
ENDBRANCH  12  13
ENDBRANCH  11  12
ENDBRANCH  10  11
ENDBRANCH   9  10
ENDBRANCH   8   9
ENDBRANCH   7   8
ENDBRANCH   6   7
ENDBRANCH   5   6
ENDBRANCH   4   5
ENDBRANCH   3   4
ENDBRANCH   2   3
ENDBRANCH   1   2
BRANCH   1  17
ATOM     17  C   UNL     1     -34.044  11.341  20.874  1.00  0.00     0.000 C 
BRANCH  17  18
ATOM     18  C   UNL     1     -34.222  12.730  21.510  1.00  0.00     0.000 C 
BRANCH  18  19
ATOM     19  C   UNL     1     -34.384  12.668  23.040  1.00  0.00     0.000 C 
BRANCH  19  20
ATOM     20  C   UNL     1     -33.497  11.629  23.748  1.00  0.00     0.000 C 
BRANCH  20  21
ATOM     21  C   UNL     1     -34.030  11.235  25.136  1.00  0.00     0.000 C 
BRANCH  21  22
ATOM     22  C   UNL     1     -32.915  11.171  26.194  1.00  0.00    -0.000 C 
BRANCH  22  23
ATOM     23  C   UNL     1     -33.103  10.036  27.228  1.00  0.00    -0.000 C 
BRANCH  23  24
ATOM     24  C   UNL     1     -33.896   8.833  26.684  1.00  0.00    -0.000 C 
BRANCH  24  25
ATOM     25  C   UNL     1     -33.034   7.615  26.301  1.00  0.00    -0.000 C 
BRANCH  25  26
ATOM     26  C   UNL     1     -33.696   6.623  25.320  1.00  0.00    -0.000 C 
BRANCH  26  27
ATOM     27  C   UNL     1     -34.779   7.227  24.409  1.00  0.00    -0.000 C 
BRANCH  27  28
ATOM     28  C   UNL     1     -34.420   7.139  22.915  1.00  0.00    -0.000 C 
BRANCH  28  29
ATOM     29  C   UNL     1     -34.108   8.512  22.302  1.00  0.00    -0.003 C 
ATOM     30  C   UNL     1     -32.758   8.548  21.585  1.00  0.00     0.004 C 
ENDBRANCH  28  29
ENDBRANCH  27  28
ENDBRANCH  26  27
ENDBRANCH  25  26
ENDBRANCH  24  25
ENDBRANCH  23  24
ENDBRANCH  22  23
ENDBRANCH  21  22
ENDBRANCH  20  21
ENDBRANCH  19  20
ENDBRANCH  18  19
ENDBRANCH  17  18
ENDBRANCH   1  17
TORSDOF 26
ENDMDL
MODEL 6
REMARK VINA RESULT:    17.196      1.662      2.962
REMARK INTER + INTRA:          42.244
REMARK INTER:                  43.860
REMARK INTRA:                  -1.616
REMARK UNBOUND:                -1.090
REMARK SMILES CCCCCCCCCCCCCCCCCCCCCCCCCCCC(=O)[O-]
REMARK SMILES IDX 15 1 16 2 17 3 18 4 19 5 20 6 21 7 22 8 23 9 24 10 25 11
REMARK SMILES IDX 26 12 27 13 28 14 29 15 30 16 14 17 13 18 12 19 11 20 10 21
REMARK SMILES IDX 9 22 8 23 7 24 6 25 5 26 4 27 3 28 2 29 1 30
REMARK H PARENT
REMARK Flexibility Score: inf
ROOT
ATOM      1  C   UNL     1     -32.091  12.754  18.782  1.00  0.00     0.000 C 
ENDROOT
BRANCH   1   2
ATOM      2  C   UNL     1     -33.325  12.083  19.420  1.00  0.00     0.000 C 
BRANCH   2   3
ATOM      3  C   UNL     1     -33.677  12.579  20.837  1.00  0.00     0.000 C 
BRANCH   3   4
ATOM      4  C   UNL     1     -34.066  11.472  21.837  1.00  0.00     0.000 C 
BRANCH   4   5
ATOM      5  C   UNL     1     -34.154  10.053  21.245  1.00  0.00     0.000 C 
BRANCH   5   6
ATOM      6  C   UNL     1     -33.324   9.025  22.032  1.00  0.00     0.000 C 
BRANCH   6   7
ATOM      7  C   UNL     1     -33.815   7.579  21.834  1.00  0.00     0.000 C 
BRANCH   7   8
ATOM      8  C   UNL     1     -35.142   7.232  22.542  1.00  0.00     0.000 C 
BRANCH   8   9
ATOM      9  C   UNL     1     -34.996   6.685  23.976  1.00  0.00     0.000 C 
BRANCH   9  10
ATOM     10  C   UNL     1     -34.374   7.668  24.986  1.00  0.00     0.000 C 
BRANCH  10  11
ATOM     11  C   UNL     1     -33.324   7.053  25.933  1.00  0.00     0.000 C 
BRANCH  11  12
ATOM     12  C   UNL     1     -32.552   8.069  26.799  1.00  0.00     0.006 C 
BRANCH  12  13
ATOM     13  C   UNL     1     -33.414   9.215  27.355  1.00  0.00     0.053 C 
BRANCH  13  14
ATOM     14  C   UNL     1     -33.096  10.525  26.700  1.00  0.00     0.041 C 
ATOM     15  O   UNL     1     -32.138  11.226  27.118  1.00  0.00    -0.550 OA
ATOM     16  O   UNL     1     -33.836  10.953  25.604  1.00  0.00    -0.550 OA
ENDBRANCH  13  14
ENDBRANCH  12  13
ENDBRANCH  11  12
ENDBRANCH  10  11
ENDBRANCH   9  10
ENDBRANCH   8   9
ENDBRANCH   7   8
ENDBRANCH   6   7
ENDBRANCH   5   6
ENDBRANCH   4   5
ENDBRANCH   3   4
ENDBRANCH   2   3
ENDBRANCH   1   2
BRANCH   1  17
ATOM     17  C   UNL     1     -32.217  13.068  17.280  1.00  0.00     0.000 C 
BRANCH  17  18
ATOM     18  C   UNL     1     -33.485  12.471  16.646  1.00  0.00     0.000 C 
BRANCH  18  19
ATOM     19  C   UNL     1     -34.500  13.546  16.216  1.00  0.00     0.000 C 
BRANCH  19  20
ATOM     20  C   UNL     1     -34.265  14.942  16.819  1.00  0.00     0.000 C 
BRANCH  20  21
ATOM     21  C   UNL     1     -34.896  16.068  15.982  1.00  0.00     0.000 C 
BRANCH  21  22
ATOM     22  C   UNL     1     -34.748  17.446  16.649  1.00  0.00    -0.000 C 
BRANCH  22  23
ATOM     23  C   UNL     1     -35.414  17.537  18.042  1.00  0.00    -0.000 C 
BRANCH  23  24
ATOM     24  C   UNL     1     -36.940  17.743  17.984  1.00  0.00    -0.000 C 
BRANCH  24  25
ATOM     25  C   UNL     1     -37.738  16.506  17.528  1.00  0.00    -0.000 C 
BRANCH  25  26
ATOM     26  C   UNL     1     -39.272  16.631  17.651  1.00  0.00    -0.000 C 
BRANCH  26  27
ATOM     27  C   UNL     1     -39.895  15.883  18.842  1.00  0.00    -0.000 C 
BRANCH  27  28
ATOM     28  C   UNL     1     -39.231  14.520  19.106  1.00  0.00    -0.000 C 
BRANCH  28  29
ATOM     29  C   UNL     1     -40.255  13.390  19.290  1.00  0.00    -0.003 C 
ATOM     30  C   UNL     1     -39.844  12.097  18.586  1.00  0.00     0.004 C 
ENDBRANCH  28  29
ENDBRANCH  27  28
ENDBRANCH  26  27
ENDBRANCH  25  26
ENDBRANCH  24  25
ENDBRANCH  23  24
ENDBRANCH  22  23
ENDBRANCH  21  22
ENDBRANCH  20  21
ENDBRANCH  19  20
ENDBRANCH  18  19
ENDBRANCH  17  18
ENDBRANCH   1  17
TORSDOF 26
ENDMDL
MODEL 7
REMARK VINA RESULT:    17.297      2.083      3.447
REMARK INTER + INTRA:          42.497
REMARK INTER:                  43.104
REMARK INTRA:                  -0.607
REMARK UNBOUND:                -1.090
REMARK SMILES CCCCCCCCCCCCCCCCCCCCCCCCCCCC(=O)[O-]
REMARK SMILES IDX 15 1 16 2 17 3 18 4 19 5 20 6 21 7 22 8 23 9 24 10 25 11
REMARK SMILES IDX 26 12 27 13 28 14 29 15 30 16 14 17 13 18 12 19 11 20 10 21
REMARK SMILES IDX 9 22 8 23 7 24 6 25 5 26 4 27 3 28 2 29 1 30
REMARK H PARENT
REMARK Flexibility Score: inf
ROOT
ATOM      1  C   UNL     1     -32.296  12.380  18.934  1.00  0.00     0.000 C 
ENDROOT
BRANCH   1   2
ATOM      2  C   UNL     1     -33.203  13.074  19.972  1.00  0.00     0.000 C 
BRANCH   2   3
ATOM      3  C   UNL     1     -33.957  12.122  20.920  1.00  0.00     0.000 C 
BRANCH   3   4
ATOM      4  C   UNL     1     -34.111  10.676  20.405  1.00  0.00     0.000 C 
BRANCH   4   5
ATOM      5  C   UNL     1     -33.246   9.627  21.127  1.00  0.00     0.000 C 
BRANCH   5   6
ATOM      6  C   UNL     1     -33.907   9.087  22.408  1.00  0.00     0.000 C 
BRANCH   6   7
ATOM      7  C   UNL     1     -34.084   7.557  22.392  1.00  0.00     0.000 C 
BRANCH   7   8
ATOM      8  C   UNL     1     -35.221   7.017  23.285  1.00  0.00     0.000 C 
BRANCH   8   9
ATOM      9  C   UNL     1     -34.856   6.833  24.771  1.00  0.00     0.000 C 
BRANCH   9  10
ATOM     10  C   UNL     1     -34.134   8.032  25.415  1.00  0.00     0.000 C 
BRANCH  10  11
ATOM     11  C   UNL     1     -35.063   9.105  26.017  1.00  0.00     0.000 C 
BRANCH  11  12
ATOM     12  C   UNL     1     -34.739  10.555  25.601  1.00  0.00     0.006 C 
BRANCH  12  13
ATOM     13  C   UNL     1     -33.245  10.914  25.657  1.00  0.00     0.053 C 
BRANCH  13  14
ATOM     14  C   UNL     1     -32.670  10.712  27.027  1.00  0.00     0.041 C 
ATOM     15  O   UNL     1     -32.566   9.552  27.505  1.00  0.00    -0.550 OA
ATOM     16  O   UNL     1     -32.214  11.803  27.758  1.00  0.00    -0.550 OA
ENDBRANCH  13  14
ENDBRANCH  12  13
ENDBRANCH  11  12
ENDBRANCH  10  11
ENDBRANCH   9  10
ENDBRANCH   8   9
ENDBRANCH   7   8
ENDBRANCH   6   7
ENDBRANCH   5   6
ENDBRANCH   4   5
ENDBRANCH   3   4
ENDBRANCH   2   3
ENDBRANCH   1   2
BRANCH   1  17
ATOM     17  C   UNL     1     -32.471  12.861  17.482  1.00  0.00     0.000 C 
BRANCH  17  18
ATOM     18  C   UNL     1     -33.635  12.167  16.756  1.00  0.00     0.000 C 
BRANCH  18  19
ATOM     19  C   UNL     1     -34.824  13.111  16.497  1.00  0.00     0.000 C 
BRANCH  19  20
ATOM     20  C   UNL     1     -34.586  14.581  16.885  1.00  0.00     0.000 C 
BRANCH  20  21
ATOM     21  C   UNL     1     -34.344  15.488  15.667  1.00  0.00     0.000 C 
BRANCH  21  22
ATOM     22  C   UNL     1     -35.178  16.780  15.725  1.00  0.00    -0.000 C 
BRANCH  22  23
ATOM     23  C   UNL     1     -34.702  17.780  16.803  1.00  0.00    -0.000 C 
BRANCH  23  24
ATOM     24  C   UNL     1     -35.483  17.678  18.127  1.00  0.00    -0.000 C 
BRANCH  24  25
ATOM     25  C   UNL     1     -37.006  17.519  17.963  1.00  0.00    -0.000 C 
BRANCH  25  26
ATOM     26  C   UNL     1     -37.479  16.113  17.536  1.00  0.00    -0.000 C 
BRANCH  26  27
ATOM     27  C   UNL     1     -38.583  15.499  18.416  1.00  0.00    -0.000 C 
BRANCH  27  28
ATOM     28  C   UNL     1     -39.595  16.542  18.920  1.00  0.00    -0.000 C 
BRANCH  28  29
ATOM     29  C   UNL     1     -40.790  16.711  17.970  1.00  0.00    -0.003 C 
ATOM     30  C   UNL     1     -40.447  17.534  16.727  1.00  0.00     0.004 C 
ENDBRANCH  28  29
ENDBRANCH  27  28
ENDBRANCH  26  27
ENDBRANCH  25  26
ENDBRANCH  24  25
ENDBRANCH  23  24
ENDBRANCH  22  23
ENDBRANCH  21  22
ENDBRANCH  20  21
ENDBRANCH  19  20
ENDBRANCH  18  19
ENDBRANCH  17  18
ENDBRANCH   1  17
TORSDOF 26
ENDMDL
MODEL 8
REMARK VINA RESULT:    17.633      2.207      9.538
REMARK INTER + INTRA:          43.346
REMARK INTER:                  45.336
REMARK INTRA:                  -1.990
REMARK UNBOUND:                -1.090
REMARK SMILES CCCCCCCCCCCCCCCCCCCCCCCCCCCC(=O)[O-]
REMARK SMILES IDX 15 1 16 2 17 3 18 4 19 5 20 6 21 7 22 8 23 9 24 10 25 11
REMARK SMILES IDX 26 12 27 13 28 14 29 15 30 16 14 17 13 18 12 19 11 20 10 21
REMARK SMILES IDX 9 22 8 23 7 24 6 25 5 26 4 27 3 28 2 29 1 30
REMARK H PARENT
REMARK Flexibility Score: inf
ROOT
ATOM      1  C   UNL     1     -31.754  12.799  18.469  1.00  0.00     0.000 C 
ENDROOT
BRANCH   1   2
ATOM      2  C   UNL     1     -32.196  12.939  16.998  1.00  0.00     0.000 C 
BRANCH   2   3
ATOM      3  C   UNL     1     -33.710  12.784  16.754  1.00  0.00     0.000 C 
BRANCH   3   4
ATOM      4  C   UNL     1     -34.427  14.060  16.267  1.00  0.00     0.000 C 
BRANCH   4   5
ATOM      5  C   UNL     1     -34.448  15.225  17.274  1.00  0.00     0.000 C 
BRANCH   5   6
ATOM      6  C   UNL     1     -34.768  16.577  16.615  1.00  0.00     0.000 C 
BRANCH   6   7
ATOM      7  C   UNL     1     -35.179  17.659  17.632  1.00  0.00     0.000 C 
BRANCH   7   8
ATOM      8  C   UNL     1     -36.698  17.887  17.773  1.00  0.00     0.000 C 
BRANCH   8   9
ATOM      9  C   UNL     1     -37.544  16.604  17.901  1.00  0.00     0.000 C 
BRANCH   9  10
ATOM     10  C   UNL     1     -39.065  16.814  17.776  1.00  0.00     0.000 C 
BRANCH  10  11
ATOM     11  C   UNL     1     -39.922  15.951  18.723  1.00  0.00     0.000 C 
BRANCH  11  12
ATOM     12  C   UNL     1     -39.362  14.542  19.006  1.00  0.00     0.006 C 
BRANCH  12  13
ATOM     13  C   UNL     1     -40.415  13.421  18.978  1.00  0.00     0.053 C 
BRANCH  13  14
ATOM     14  C   UNL     1     -39.820  12.101  18.591  1.00  0.00     0.041 C 
ATOM     15  O   UNL     1     -38.827  12.056  17.819  1.00  0.00    -0.550 OA
ATOM     16  O   UNL     1     -40.340  10.924  19.116  1.00  0.00    -0.550 OA
ENDBRANCH  13  14
ENDBRANCH  12  13
ENDBRANCH  11  12
ENDBRANCH  10  11
ENDBRANCH   9  10
ENDBRANCH   8   9
ENDBRANCH   7   8
ENDBRANCH   6   7
ENDBRANCH   5   6
ENDBRANCH   4   5
ENDBRANCH   3   4
ENDBRANCH   2   3
ENDBRANCH   1   2
BRANCH   1  17
ATOM     17  C   UNL     1     -32.892  12.557  19.477  1.00  0.00     0.000 C 
BRANCH  17  18
ATOM     18  C   UNL     1     -33.086  11.071  19.820  1.00  0.00     0.000 C 
BRANCH  18  19
ATOM     19  C   UNL     1     -33.840  10.858  21.146  1.00  0.00     0.000 C 
BRANCH  19  20
ATOM     20  C   UNL     1     -34.520   9.486  21.297  1.00  0.00     0.000 C 
BRANCH  20  21
ATOM     21  C   UNL     1     -33.803   8.572  22.306  1.00  0.00     0.000 C 
BRANCH  21  22
ATOM     22  C   UNL     1     -34.343   7.132  22.277  1.00  0.00    -0.000 C 
BRANCH  22  23
ATOM     23  C   UNL     1     -35.154   6.747  23.536  1.00  0.00    -0.000 C 
BRANCH  23  24
ATOM     24  C   UNL     1     -34.733   7.517  24.801  1.00  0.00    -0.000 C 
BRANCH  24  25
ATOM     25  C   UNL     1     -33.516   6.927  25.538  1.00  0.00    -0.000 C 
BRANCH  25  26
ATOM     26  C   UNL     1     -32.873   7.851  26.594  1.00  0.00    -0.000 C 
BRANCH  26  27
ATOM     27  C   UNL     1     -33.665   9.131  26.912  1.00  0.00    -0.000 C 
BRANCH  27  28
ATOM     28  C   UNL     1     -32.760  10.357  27.124  1.00  0.00    -0.000 C 
BRANCH  28  29
ATOM     29  C   UNL     1     -33.061  11.490  26.131  1.00  0.00    -0.003 C 
ATOM     30  C   UNL     1     -34.136  11.114  25.111  1.00  0.00     0.004 C 
ENDBRANCH  28  29
ENDBRANCH  27  28
ENDBRANCH  26  27
ENDBRANCH  25  26
ENDBRANCH  24  25
ENDBRANCH  23  24
ENDBRANCH  22  23
ENDBRANCH  21  22
ENDBRANCH  20  21
ENDBRANCH  19  20
ENDBRANCH  18  19
ENDBRANCH  17  18
ENDBRANCH   1  17
TORSDOF 26
ENDMDL
MODEL 9
REMARK VINA RESULT:    17.938      1.712      3.209
REMARK INTER + INTRA:          44.113
REMARK INTER:                  44.129
REMARK INTRA:                  -0.016
REMARK UNBOUND:                -1.090
REMARK SMILES CCCCCCCCCCCCCCCCCCCCCCCCCCCC(=O)[O-]
REMARK SMILES IDX 15 1 16 2 17 3 18 4 19 5 20 6 21 7 22 8 23 9 24 10 25 11
REMARK SMILES IDX 26 12 27 13 28 14 29 15 30 16 14 17 13 18 12 19 11 20 10 21
REMARK SMILES IDX 9 22 8 23 7 24 6 25 5 26 4 27 3 28 2 29 1 30
REMARK H PARENT
REMARK Flexibility Score: inf
ROOT
ATOM      1  C   UNL     1     -33.633  13.442  16.632  1.00  0.00     0.000 C 
ENDROOT
BRANCH   1   2
ATOM      2  C   UNL     1     -32.327  13.104  17.381  1.00  0.00     0.000 C 
BRANCH   2   3
ATOM      3  C   UNL     1     -32.496  12.803  18.883  1.00  0.00     0.000 C 
BRANCH   3   4
ATOM      4  C   UNL     1     -33.280  11.515  19.206  1.00  0.00     0.000 C 
BRANCH   4   5
ATOM      5  C   UNL     1     -33.844  11.432  20.637  1.00  0.00     0.000 C 
BRANCH   5   6
ATOM      6  C   UNL     1     -34.372  10.031  20.990  1.00  0.00     0.000 C 
BRANCH   6   7
ATOM      7  C   UNL     1     -33.602   9.375  22.152  1.00  0.00     0.000 C 
BRANCH   7   8
ATOM      8  C   UNL     1     -33.682   7.835  22.208  1.00  0.00     0.000 C 
BRANCH   8   9
ATOM      9  C   UNL     1     -35.051   7.265  22.630  1.00  0.00     0.000 C 
BRANCH   9  10
ATOM     10  C   UNL     1     -35.240   7.090  24.149  1.00  0.00     0.000 C 
BRANCH  10  11
ATOM     11  C   UNL     1     -33.942   6.844  24.943  1.00  0.00     0.000 C 
BRANCH  11  12
ATOM     12  C   UNL     1     -33.643   7.884  26.042  1.00  0.00     0.006 C 
BRANCH  12  13
ATOM     13  C   UNL     1     -34.500   9.158  25.963  1.00  0.00     0.053 C 
BRANCH  13  14
ATOM     14  C   UNL     1     -33.675  10.401  26.105  1.00  0.00     0.041 C 
ATOM     15  O   UNL     1     -32.745  10.450  26.952  1.00  0.00    -0.550 OA
ATOM     16  O   UNL     1     -33.910  11.491  25.275  1.00  0.00    -0.550 OA
ENDBRANCH  13  14
ENDBRANCH  12  13
ENDBRANCH  11  12
ENDBRANCH  10  11
ENDBRANCH   9  10
ENDBRANCH   8   9
ENDBRANCH   7   8
ENDBRANCH   6   7
ENDBRANCH   5   6
ENDBRANCH   4   5
ENDBRANCH   3   4
ENDBRANCH   2   3
ENDBRANCH   1   2
BRANCH   1  17
ATOM     17  C   UNL     1     -33.587  14.719  15.774  1.00  0.00     0.000 C 
BRANCH  17  18
ATOM     18  C   UNL     1     -34.866  15.565  15.886  1.00  0.00     0.000 C 
BRANCH  18  19
ATOM     19  C   UNL     1     -35.296  15.806  17.345  1.00  0.00     0.000 C 
BRANCH  19  20
ATOM     20  C   UNL     1     -34.535  16.930  18.071  1.00  0.00     0.000 C 
BRANCH  20  21
ATOM     21  C   UNL     1     -35.097  18.328  17.761  1.00  0.00     0.000 C 
BRANCH  21  22
ATOM     22  C   UNL     1     -36.631  18.330  17.644  1.00  0.00    -0.000 C 
BRANCH  22  23
ATOM     23  C   UNL     1     -37.261  16.919  17.712  1.00  0.00    -0.000 C 
BRANCH  23  24
ATOM     24  C   UNL     1     -38.801  16.931  17.708  1.00  0.00    -0.000 C 
BRANCH  24  25
ATOM     25  C   UNL     1     -39.452  16.372  18.987  1.00  0.00    -0.000 C 
BRANCH  25  26
ATOM     26  C   UNL     1     -40.279  15.082  18.795  1.00  0.00    -0.000 C 
BRANCH  26  27
ATOM     27  C   UNL     1     -39.487  13.770  18.931  1.00  0.00    -0.000 C 
BRANCH  27  28
ATOM     28  C   UNL     1     -40.346  12.604  19.452  1.00  0.00    -0.000 C 
BRANCH  28  29
ATOM     29  C   UNL     1     -40.332  11.393  18.507  1.00  0.00    -0.003 C 
ATOM     30  C   UNL     1     -38.973  11.180  17.839  1.00  0.00     0.004 C 
ENDBRANCH  28  29
ENDBRANCH  27  28
ENDBRANCH  26  27
ENDBRANCH  25  26
ENDBRANCH  24  25
ENDBRANCH  23  24
ENDBRANCH  22  23
ENDBRANCH  21  22
ENDBRANCH  20  21
ENDBRANCH  19  20
ENDBRANCH  18  19
ENDBRANCH  17  18
ENDBRANCH   1  17
TORSDOF 26
ENDMDL
