MODEL 1
REMARK VINA RESULT:    -5.597      0.000      0.000
REMARK INTER + INTRA:          -6.118
REMARK INTER:                  -6.088
REMARK INTRA:                  -0.030
REMARK UNBOUND:                -0.030
REMARK SMILES O=C([O-])c1ccc(O)cc1
REMARK SMILES IDX 7 1 6 2 9 3 5 4 10 5 4 6 8 7 2 9 1 10 3 11
REMARK H PARENT 8 8
REMARK Flexibility Score: inf
ROOT
ATOM      1  C   UNL     1       9.757  70.134  -2.090  1.00  0.00     0.115 A 
ATOM      2  C   UNL     1       9.688  68.738  -2.139  1.00  0.00     0.047 A 
ATOM      3  C   UNL     1       9.841  70.782  -0.852  1.00  0.00     0.047 A 
ATOM      4  C   UNL     1       9.703  67.991  -0.957  1.00  0.00     0.014 A 
ATOM      5  C   UNL     1       9.856  70.038   0.332  1.00  0.00     0.014 A 
ATOM      6  C   UNL     1       9.787  68.634   0.291  1.00  0.00    -0.003 A 
ENDROOT
BRANCH   1   7
ATOM      7  O   UNL     1       9.741  70.865  -3.277  1.00  0.00    -0.508 OA
ATOM      8  H   UNL     1       9.126  71.661  -3.399  1.00  0.00     0.293 HD
ENDBRANCH   1   7
BRANCH   6   9
ATOM      9  C   UNL     1       9.804  67.849   1.546  1.00  0.00     0.071 C 
ATOM     10  O   UNL     1       8.912  66.989   1.775  1.00  0.00    -0.545 OA
ATOM     11  O   UNL     1      10.804  68.050   2.489  1.00  0.00    -0.545 OA
ENDBRANCH   6   9
TORSDOF 2
ENDMDL
MODEL 2
REMARK VINA RESULT:    -5.591      1.971      3.966
REMARK INTER + INTRA:          -6.111
REMARK INTER:                  -6.080
REMARK INTRA:                  -0.031
REMARK UNBOUND:                -0.030
REMARK SMILES O=C([O-])c1ccc(O)cc1
REMARK SMILES IDX 7 1 6 2 9 3 5 4 10 5 4 6 8 7 2 9 1 10 3 11
REMARK H PARENT 8 8
REMARK Flexibility Score: inf
ROOT
ATOM      1  C   UNL     1       9.897  70.134   2.587  1.00  0.00     0.115 A 
ATOM      2  C   UNL     1       9.974  70.755   1.337  1.00  0.00     0.047 A 
ATOM      3  C   UNL     1       9.594  68.770   2.667  1.00  0.00     0.047 A 
ATOM      4  C   UNL     1       9.750  70.018   0.170  1.00  0.00     0.014 A 
ATOM      5  C   UNL     1       9.369  68.029   1.502  1.00  0.00     0.014 A 
ATOM      6  C   UNL     1       9.445  68.646   0.241  1.00  0.00    -0.003 A 
ENDROOT
BRANCH   1   7
ATOM      7  O   UNL     1      10.123  70.882   3.741  1.00  0.00    -0.508 OA
ATOM      8  H   UNL     1      10.274  70.436   4.639  1.00  0.00     0.293 HD
ENDBRANCH   1   7
BRANCH   6   9
ATOM      9  C   UNL     1       9.207  67.861  -0.991  1.00  0.00     0.071 C 
ATOM     10  O   UNL     1       9.749  66.734  -1.146  1.00  0.00    -0.545 OA
ATOM     11  O   UNL     1       8.383  68.357  -1.993  1.00  0.00    -0.545 OA
ENDBRANCH   6   9
TORSDOF 2
ENDMDL
MODEL 3
REMARK VINA RESULT:    -5.587      2.031      4.044
REMARK INTER + INTRA:          -6.107
REMARK INTER:                  -6.071
REMARK INTRA:                  -0.036
REMARK UNBOUND:                -0.030
REMARK SMILES O=C([O-])c1ccc(O)cc1
REMARK SMILES IDX 7 1 6 2 9 3 5 4 10 5 4 6 8 7 2 9 1 10 3 11
REMARK H PARENT 8 8
REMARK Flexibility Score: inf
ROOT
ATOM      1  C   UNL     1      10.030  70.888   1.758  1.00  0.00     0.115 A 
ATOM      2  C   UNL     1       9.910  69.530   1.445  1.00  0.00     0.047 A 
ATOM      3  C   UNL     1      10.077  71.836   0.730  1.00  0.00     0.047 A 
ATOM      4  C   UNL     1       9.836  69.120   0.110  1.00  0.00     0.014 A 
ATOM      5  C   UNL     1      10.004  71.429  -0.606  1.00  0.00     0.014 A 
ATOM      6  C   UNL     1       9.883  70.066  -0.930  1.00  0.00    -0.003 A 
ENDROOT
BRANCH   1   7
ATOM      7  O   UNL     1      10.102  71.281   3.093  1.00  0.00    -0.508 OA
ATOM      8  H   UNL     1      10.946  71.149   3.638  1.00  0.00     0.293 HD
ENDBRANCH   1   7
BRANCH   6   9
ATOM      9  C   UNL     1       9.805  69.638  -2.345  1.00  0.00     0.071 C 
ATOM     10  O   UNL     1       9.456  68.464  -2.640  1.00  0.00    -0.545 OA
ATOM     11  O   UNL     1      10.116  70.526  -3.367  1.00  0.00    -0.545 OA
ENDBRANCH   6   9
TORSDOF 2
ENDMDL
MODEL 4
REMARK VINA RESULT:    -5.578      1.592      1.850
REMARK INTER + INTRA:          -6.097
REMARK INTER:                  -6.062
REMARK INTRA:                  -0.035
REMARK UNBOUND:                -0.030
REMARK SMILES O=C([O-])c1ccc(O)cc1
REMARK SMILES IDX 7 1 6 2 9 3 5 4 10 5 4 6 8 7 2 9 1 10 3 11
REMARK H PARENT 8 8
REMARK Flexibility Score: inf
ROOT
ATOM      1  C   UNL     1       9.737  70.773  -1.572  1.00  0.00     0.115 A 
ATOM      2  C   UNL     1       9.398  69.494  -1.122  1.00  0.00     0.047 A 
ATOM      3  C   UNL     1      10.050  71.775  -0.646  1.00  0.00     0.047 A 
ATOM      4  C   UNL     1       9.371  69.214   0.248  1.00  0.00     0.014 A 
ATOM      5  C   UNL     1      10.023  71.499   0.725  1.00  0.00     0.014 A 
ATOM      6  C   UNL     1       9.683  70.215   1.186  1.00  0.00    -0.003 A 
ENDROOT
BRANCH   1   7
ATOM      7  O   UNL     1       9.760  71.037  -2.940  1.00  0.00    -0.508 OA
ATOM      8  H   UNL     1      10.529  71.539  -3.369  1.00  0.00     0.293 HD
ENDBRANCH   1   7
BRANCH   6   9
ATOM      9  C   UNL     1       9.656  69.925   2.637  1.00  0.00     0.071 C 
ATOM     10  O   UNL     1       9.704  68.737   3.053  1.00  0.00    -0.545 OA
ATOM     11  O   UNL     1       9.577  70.960   3.561  1.00  0.00    -0.545 OA
ENDBRANCH   6   9
TORSDOF 2
ENDMDL
MODEL 5
REMARK VINA RESULT:    -5.570      0.118      1.536
REMARK INTER + INTRA:          -6.088
REMARK INTER:                  -6.057
REMARK INTRA:                  -0.031
REMARK UNBOUND:                -0.030
REMARK SMILES O=C([O-])c1ccc(O)cc1
REMARK SMILES IDX 7 1 6 2 9 3 5 4 10 5 4 6 8 7 2 9 1 10 3 11
REMARK H PARENT 8 8
REMARK Flexibility Score: inf
ROOT
ATOM      1  C   UNL     1       9.787  70.091  -2.126  1.00  0.00     0.115 A 
ATOM      2  C   UNL     1       9.846  70.791  -0.917  1.00  0.00     0.047 A 
ATOM      3  C   UNL     1       9.719  68.693  -2.116  1.00  0.00     0.047 A 
ATOM      4  C   UNL     1       9.838  70.099   0.299  1.00  0.00     0.014 A 
ATOM      5  C   UNL     1       9.711  67.997  -0.903  1.00  0.00     0.014 A 
ATOM      6  C   UNL     1       9.770  68.693   0.317  1.00  0.00    -0.003 A 
ENDROOT
BRANCH   1   7
ATOM      7  O   UNL     1       9.795  70.795  -3.329  1.00  0.00    -0.508 OA
ATOM      8  H   UNL     1       9.441  71.742  -3.389  1.00  0.00     0.293 HD
ENDBRANCH   1   7
BRANCH   6   9
ATOM      9  C   UNL     1       9.761  67.956   1.600  1.00  0.00     0.071 C 
ATOM     10  O   UNL     1       8.935  67.025   1.798  1.00  0.00    -0.545 OA
ATOM     11  O   UNL     1      10.664  68.280   2.605  1.00  0.00    -0.545 OA
ENDBRANCH   6   9
TORSDOF 2
ENDMDL
MODEL 6
REMARK VINA RESULT:    -5.561      2.480      3.540
REMARK INTER + INTRA:          -6.079
REMARK INTER:                  -6.044
REMARK INTRA:                  -0.034
REMARK UNBOUND:                -0.030
REMARK SMILES O=C([O-])c1ccc(O)cc1
REMARK SMILES IDX 7 1 6 2 9 3 5 4 10 5 4 6 8 7 2 9 1 10 3 11
REMARK H PARENT 8 8
REMARK Flexibility Score: inf
ROOT
ATOM      1  C   UNL     1       9.841  67.364   0.031  1.00  0.00     0.115 A 
ATOM      2  C   UNL     1      10.112  68.582  -0.600  1.00  0.00     0.047 A 
ATOM      3  C   UNL     1       9.497  67.347   1.388  1.00  0.00     0.047 A 
ATOM      4  C   UNL     1      10.040  69.779   0.120  1.00  0.00     0.014 A 
ATOM      5  C   UNL     1       9.423  68.542   2.111  1.00  0.00     0.014 A 
ATOM      6  C   UNL     1       9.694  69.771   1.484  1.00  0.00    -0.003 A 
ENDROOT
BRANCH   1   7
ATOM      7  O   UNL     1       9.918  66.180  -0.699  1.00  0.00    -0.508 OA
ATOM      8  H   UNL     1       9.096  65.768  -1.125  1.00  0.00     0.293 HD
ENDBRANCH   1   7
BRANCH   6   9
ATOM      9  C   UNL     1       9.615  71.034   2.250  1.00  0.00     0.071 C 
ATOM     10  O   UNL     1      10.255  72.052   1.875  1.00  0.00    -0.545 OA
ATOM     11  O   UNL     1       8.834  71.114   3.397  1.00  0.00    -0.545 OA
ENDBRANCH   6   9
TORSDOF 2
ENDMDL
MODEL 7
REMARK VINA RESULT:    -5.549      2.458      3.510
REMARK INTER + INTRA:          -6.065
REMARK INTER:                  -6.031
REMARK INTRA:                  -0.035
REMARK UNBOUND:                -0.030
REMARK SMILES O=C([O-])c1ccc(O)cc1
REMARK SMILES IDX 7 1 6 2 9 3 5 4 10 5 4 6 8 7 2 9 1 10 3 11
REMARK H PARENT 8 8
REMARK Flexibility Score: inf
ROOT
ATOM      1  C   UNL     1       9.840  67.459  -0.039  1.00  0.00     0.115 A 
ATOM      2  C   UNL     1       9.476  67.430   1.311  1.00  0.00     0.047 A 
ATOM      3  C   UNL     1      10.137  68.681  -0.652  1.00  0.00     0.047 A 
ATOM      4  C   UNL     1       9.410  68.618   2.047  1.00  0.00     0.014 A 
ATOM      5  C   UNL     1      10.072  69.870   0.081  1.00  0.00     0.014 A 
ATOM      6  C   UNL     1       9.707  69.851   1.438  1.00  0.00    -0.003 A 
ENDROOT
BRANCH   1   7
ATOM      7  O   UNL     1       9.902  66.267  -0.759  1.00  0.00    -0.508 OA
ATOM      8  H   UNL     1      10.786  65.888  -1.077  1.00  0.00     0.293 HD
ENDBRANCH   1   7
BRANCH   6   9
ATOM      9  C   UNL     1       9.639  71.111   2.212  1.00  0.00     0.071 C 
ATOM     10  O   UNL     1      10.255  72.137   1.820  1.00  0.00    -0.545 OA
ATOM     11  O   UNL     1       8.894  71.178   3.383  1.00  0.00    -0.545 OA
ENDBRANCH   6   9
TORSDOF 2
ENDMDL
MODEL 8
REMARK VINA RESULT:    -5.524      1.313      4.355
REMARK INTER + INTRA:          -6.038
REMARK INTER:                  -6.003
REMARK INTRA:                  -0.035
REMARK UNBOUND:                -0.030
REMARK SMILES O=C([O-])c1ccc(O)cc1
REMARK SMILES IDX 7 1 6 2 9 3 5 4 10 5 4 6 8 7 2 9 1 10 3 11
REMARK H PARENT 8 8
REMARK Flexibility Score: inf
ROOT
ATOM      1  C   UNL     1       8.998  67.478   0.499  1.00  0.00     0.115 A 
ATOM      2  C   UNL     1       9.051  68.759   1.058  1.00  0.00     0.047 A 
ATOM      3  C   UNL     1       9.351  67.291  -0.842  1.00  0.00     0.047 A 
ATOM      4  C   UNL     1       9.456  69.849   0.281  1.00  0.00     0.014 A 
ATOM      5  C   UNL     1       9.757  68.378  -1.622  1.00  0.00     0.014 A 
ATOM      6  C   UNL     1       9.813  69.669  -1.068  1.00  0.00    -0.003 A 
ENDROOT
BRANCH   1   7
ATOM      7  O   UNL     1       8.592  66.402   1.286  1.00  0.00    -0.508 OA
ATOM      8  H   UNL     1       9.252  65.701   1.604  1.00  0.00     0.293 HD
ENDBRANCH   1   7
BRANCH   6   9
ATOM      9  C   UNL     1      10.243  70.819  -1.895  1.00  0.00     0.071 C 
ATOM     10  O   UNL     1       9.985  71.999  -1.534  1.00  0.00    -0.545 OA
ATOM     11  O   UNL     1      10.936  70.613  -3.081  1.00  0.00    -0.545 OA
ENDBRANCH   6   9
TORSDOF 2
ENDMDL
MODEL 9
REMARK VINA RESULT:    -5.516      1.289      4.100
REMARK INTER + INTRA:          -6.029
REMARK INTER:                  -5.995
REMARK INTRA:                  -0.035
REMARK UNBOUND:                -0.030
REMARK SMILES O=C([O-])c1ccc(O)cc1
REMARK SMILES IDX 7 1 6 2 9 3 5 4 10 5 4 6 8 7 2 9 1 10 3 11
REMARK H PARENT 8 8
REMARK Flexibility Score: inf
ROOT
ATOM      1  C   UNL     1       9.009  67.503   0.596  1.00  0.00     0.115 A 
ATOM      2  C   UNL     1       9.351  67.299  -0.745  1.00  0.00     0.047 A 
ATOM      3  C   UNL     1       9.050  68.795   1.133  1.00  0.00     0.047 A 
ATOM      4  C   UNL     1       9.732  68.380  -1.547  1.00  0.00     0.014 A 
ATOM      5  C   UNL     1       9.430  69.878   0.335  1.00  0.00     0.014 A 
ATOM      6  C   UNL     1       9.775  69.681  -1.014  1.00  0.00    -0.003 A 
ENDROOT
BRANCH   1   7
ATOM      7  O   UNL     1       8.632  66.416   1.382  1.00  0.00    -0.508 OA
ATOM      8  H   UNL     1       9.312  65.891   1.919  1.00  0.00     0.293 HD
ENDBRANCH   1   7
BRANCH   6   9
ATOM      9  C   UNL     1      10.177  70.829  -1.857  1.00  0.00     0.071 C 
ATOM     10  O   UNL     1       9.852  72.003  -1.538  1.00  0.00    -0.545 OA
ATOM     11  O   UNL     1      10.919  70.626  -3.015  1.00  0.00    -0.545 OA
ENDBRANCH   6   9
TORSDOF 2
ENDMDL
