MODEL 1
REMARK VINA RESULT:    -7.005      0.000      0.000
REMARK INTER + INTRA:          -8.485
REMARK INTER:                  -8.439
REMARK INTRA:                  -0.046
REMARK UNBOUND:                -0.046
REMARK SMILES O=c1c(O)c(-c2ccc(O)c(O)c2)oc2cc(O)cc(O)c12
REMARK SMILES IDX 5 1 3 2 2 3 1 4 22 5 20 6 19 7 17 8 16 9 15 10 14 11 6 12
REMARK SMILES IDX 7 13 8 14 9 15 13 16 11 17 10 18 12 20 4 22 21 24 18 26
REMARK H PARENT 10 19 12 21 4 23 21 25 18 27
REMARK Flexibility Score: inf
ROOT
ATOM      1  C   UNL     1     -16.193  14.800  -8.419  1.00  0.00     0.180 A 
ATOM      2  C   UNL     1     -14.909  15.295  -8.702  1.00  0.00     0.208 A 
ATOM      3  C   UNL     1     -14.220  16.010  -7.709  1.00  0.00     0.238 A 
ATOM      4  O   UNL     1     -13.093  16.496  -7.986  1.00  0.00    -0.285 OA
ATOM      5  C   UNL     1     -14.816  16.205  -6.440  1.00  0.00     0.111 A 
ATOM      6  C   UNL     1     -14.193  16.878  -5.347  1.00  0.00     0.134 A 
ATOM      7  C   UNL     1     -14.927  17.128  -4.181  1.00  0.00     0.093 A 
ATOM      8  C   UNL     1     -16.241  16.673  -4.045  1.00  0.00     0.123 A 
ATOM      9  C   UNL     1     -16.837  15.962  -5.084  1.00  0.00     0.094 A 
ATOM     10  C   UNL     1     -16.143  15.729  -6.274  1.00  0.00     0.146 A 
ATOM     11  O   UNL     1     -16.753  15.057  -7.243  1.00  0.00    -0.452 OA
ENDROOT
BRANCH   1  12
ATOM     12  C   UNL     1     -16.972  14.017  -9.406  1.00  0.00     0.025 A 
ATOM     13  C   UNL     1     -18.251  14.428  -9.822  1.00  0.00     0.016 A 
ATOM     14  C   UNL     1     -18.957  13.687 -10.772  1.00  0.00     0.051 A 
ATOM     15  C   UNL     1     -18.392  12.534 -11.332  1.00  0.00     0.157 A 
ATOM     16  C   UNL     1     -16.402  12.872  -9.985  1.00  0.00     0.062 A 
ATOM     17  C   UNL     1     -17.106  12.127 -10.938  1.00  0.00     0.158 A 
BRANCH  15  18
ATOM     18  O   UNL     1     -19.100  11.795 -12.279  1.00  0.00    -0.504 OA
ATOM     19  H   UNL     1     -18.939  11.913 -13.272  1.00  0.00     0.293 HD
ENDBRANCH  15  18
BRANCH  17  20
ATOM     20  O   UNL     1     -16.513  10.987 -11.481  1.00  0.00    -0.504 OA
ATOM     21  H   UNL     1     -15.521  10.938 -11.679  1.00  0.00     0.293 HD
ENDBRANCH  17  20
ENDBRANCH   1  12
BRANCH   2  22
ATOM     22  O   UNL     1     -14.347  15.108  -9.969  1.00  0.00    -0.502 OA
ATOM     23  H   UNL     1     -14.650  14.372 -10.595  1.00  0.00     0.293 HD
ENDBRANCH   2  22
BRANCH   6  24
ATOM     24  O   UNL     1     -12.858  17.294  -5.345  1.00  0.00    -0.507 OA
ATOM     25  H   UNL     1     -12.070  16.693  -5.152  1.00  0.00     0.293 HD
ENDBRANCH   6  24
BRANCH   8  26
ATOM     26  O   UNL     1     -16.959  16.911  -2.875  1.00  0.00    -0.508 OA
ATOM     27  H   UNL     1     -16.742  17.697  -2.272  1.00  0.00     0.293 HD
ENDBRANCH   8  26
TORSDOF 6
ENDMDL
MODEL 2
REMARK VINA RESULT:    -6.681      1.938      7.327
REMARK INTER + INTRA:          -8.094
REMARK INTER:                  -7.799
REMARK INTRA:                  -0.295
REMARK UNBOUND:                -0.046
REMARK SMILES O=c1c(O)c(-c2ccc(O)c(O)c2)oc2cc(O)cc(O)c12
REMARK SMILES IDX 5 1 3 2 2 3 1 4 22 5 20 6 19 7 17 8 16 9 15 10 14 11 6 12
REMARK SMILES IDX 7 13 8 14 9 15 13 16 11 17 10 18 12 20 4 22 21 24 18 26
REMARK H PARENT 10 19 12 21 4 23 21 25 18 27
REMARK Flexibility Score: inf
ROOT
ATOM      1  C   UNL     1     -16.665  14.636  -7.052  1.00  0.00     0.180 A 
ATOM      2  C   UNL     1     -17.971  14.125  -6.973  1.00  0.00     0.208 A 
ATOM      3  C   UNL     1     -18.414  13.233  -7.963  1.00  0.00     0.238 A 
ATOM      4  O   UNL     1     -19.602  12.820  -7.917  1.00  0.00    -0.285 OA
ATOM      5  C   UNL     1     -17.540  12.850  -9.009  1.00  0.00     0.111 A 
ATOM      6  C   UNL     1     -17.870  11.922 -10.042  1.00  0.00     0.134 A 
ATOM      7  C   UNL     1     -16.974  11.719 -11.098  1.00  0.00     0.093 A 
ATOM      8  C   UNL     1     -15.734  12.361 -11.126  1.00  0.00     0.123 A 
ATOM      9  C   UNL     1     -15.379  13.223 -10.090  1.00  0.00     0.094 A 
ATOM     10  C   UNL     1     -16.266  13.474  -9.041  1.00  0.00     0.146 A 
ATOM     11  O   UNL     1     -15.892  14.311  -8.081  1.00  0.00    -0.452 OA
ENDROOT
BRANCH   1  12
ATOM     12  C   UNL     1     -16.118  15.562  -6.033  1.00  0.00     0.025 A 
ATOM     13  C   UNL     1     -15.252  15.110  -5.022  1.00  0.00     0.016 A 
ATOM     14  C   UNL     1     -14.730  16.005  -4.086  1.00  0.00     0.051 A 
ATOM     15  C   UNL     1     -15.051  17.367  -4.153  1.00  0.00     0.157 A 
ATOM     16  C   UNL     1     -16.421  16.931  -6.109  1.00  0.00     0.062 A 
ATOM     17  C   UNL     1     -15.900  17.832  -5.173  1.00  0.00     0.158 A 
BRANCH  15  18
ATOM     18  O   UNL     1     -14.530  18.258  -3.217  1.00  0.00    -0.504 OA
ATOM     19  H   UNL     1     -14.236  19.191  -3.479  1.00  0.00     0.293 HD
ENDBRANCH  15  18
BRANCH  17  20
ATOM     20  O   UNL     1     -16.234  19.182  -5.272  1.00  0.00    -0.504 OA
ATOM     21  H   UNL     1     -17.123  19.542  -4.948  1.00  0.00     0.293 HD
ENDBRANCH  17  20
ENDBRANCH   1  12
BRANCH   2  22
ATOM     22  O   UNL     1     -18.825  14.532  -5.943  1.00  0.00    -0.502 OA
ATOM     23  H   UNL     1     -19.066  15.503  -5.788  1.00  0.00     0.293 HD
ENDBRANCH   2  22
BRANCH   6  24
ATOM     24  O   UNL     1     -19.042  11.161 -10.062  1.00  0.00    -0.507 OA
ATOM     25  H   UNL     1     -19.973  11.542 -10.139  1.00  0.00     0.293 HD
ENDBRANCH   6  24
BRANCH   8  26
ATOM     26  O   UNL     1     -14.841  12.141 -12.172  1.00  0.00    -0.508 OA
ATOM     27  H   UNL     1     -14.980  11.387 -12.836  1.00  0.00     0.293 HD
ENDBRANCH   8  26
TORSDOF 6
ENDMDL
MODEL 3
REMARK VINA RESULT:    -6.660      2.213      3.748
REMARK INTER + INTRA:          -8.070
REMARK INTER:                  -7.913
REMARK INTRA:                  -0.156
REMARK UNBOUND:                -0.046
REMARK SMILES O=c1c(O)c(-c2ccc(O)c(O)c2)oc2cc(O)cc(O)c12
REMARK SMILES IDX 5 1 3 2 2 3 1 4 22 5 20 6 19 7 17 8 16 9 15 10 14 11 6 12
REMARK SMILES IDX 7 13 8 14 9 15 13 16 11 17 10 18 12 20 4 22 21 24 18 26
REMARK H PARENT 10 19 12 21 4 23 21 25 18 27
REMARK Flexibility Score: inf
ROOT
ATOM      1  C   UNL     1     -17.519  13.806  -8.052  1.00  0.00     0.180 A 
ATOM      2  C   UNL     1     -17.647  14.280  -6.736  1.00  0.00     0.208 A 
ATOM      3  C   UNL     1     -16.712  15.212  -6.253  1.00  0.00     0.238 A 
ATOM      4  O   UNL     1     -16.801  15.592  -5.057  1.00  0.00    -0.285 OA
ATOM      5  C   UNL     1     -15.673  15.670  -7.099  1.00  0.00     0.111 A 
ATOM      6  C   UNL     1     -14.696  16.642  -6.728  1.00  0.00     0.134 A 
ATOM      7  C   UNL     1     -13.637  16.922  -7.599  1.00  0.00     0.093 A 
ATOM      8  C   UNL     1     -13.555  16.313  -8.855  1.00  0.00     0.123 A 
ATOM      9  C   UNL     1     -14.537  15.407  -9.249  1.00  0.00     0.094 A 
ATOM     10  C   UNL     1     -15.587  15.080  -8.387  1.00  0.00     0.146 A 
ATOM     11  O   UNL     1     -16.495  14.203  -8.799  1.00  0.00    -0.452 OA
ENDROOT
BRANCH   1  12
ATOM     12  C   UNL     1     -18.478  12.842  -8.640  1.00  0.00     0.025 A 
ATOM     13  C   UNL     1     -19.282  13.188  -9.740  1.00  0.00     0.016 A 
ATOM     14  C   UNL     1     -20.162  12.255 -10.292  1.00  0.00     0.051 A 
ATOM     15  C   UNL     1     -20.244  10.959  -9.765  1.00  0.00     0.157 A 
ATOM     16  C   UNL     1     -18.548  11.537  -8.127  1.00  0.00     0.062 A 
ATOM     17  C   UNL     1     -19.429  10.599  -8.677  1.00  0.00     0.158 A 
BRANCH  15  18
ATOM     18  O   UNL     1     -21.125  10.031 -10.317  1.00  0.00    -0.504 OA
ATOM     19  H   UNL     1     -21.267   9.120  -9.896  1.00  0.00     0.293 HD
ENDBRANCH  15  18
BRANCH  17  20
ATOM     20  O   UNL     1     -19.481   9.316  -8.133  1.00  0.00    -0.504 OA
ATOM     21  H   UNL     1     -20.340   8.781  -8.096  1.00  0.00     0.293 HD
ENDBRANCH  17  20
ENDBRANCH   1  12
BRANCH   2  22
ATOM     22  O   UNL     1     -18.668  13.799  -5.911  1.00  0.00    -0.502 OA
ATOM     23  H   UNL     1     -18.642  12.876  -5.495  1.00  0.00     0.293 HD
ENDBRANCH   2  22
BRANCH   6  24
ATOM     24  O   UNL     1     -14.736  17.374  -5.538  1.00  0.00    -0.507 OA
ATOM     25  H   UNL     1     -15.564  17.810  -5.160  1.00  0.00     0.293 HD
ENDBRANCH   6  24
BRANCH   8  26
ATOM     26  O   UNL     1     -12.506  16.610  -9.722  1.00  0.00    -0.508 OA
ATOM     27  H   UNL     1     -12.639  16.628 -10.727  1.00  0.00     0.293 HD
ENDBRANCH   8  26
TORSDOF 6
ENDMDL
MODEL 4
REMARK VINA RESULT:    -6.529      1.782      2.857
REMARK INTER + INTRA:          -7.912
REMARK INTER:                  -7.632
REMARK INTRA:                  -0.279
REMARK UNBOUND:                -0.046
REMARK SMILES O=c1c(O)c(-c2ccc(O)c(O)c2)oc2cc(O)cc(O)c12
REMARK SMILES IDX 5 1 3 2 2 3 1 4 22 5 20 6 19 7 17 8 16 9 15 10 14 11 6 12
REMARK SMILES IDX 7 13 8 14 9 15 13 16 11 17 10 18 12 20 4 22 21 24 18 26
REMARK H PARENT 10 19 12 21 4 23 21 25 18 27
REMARK Flexibility Score: inf
ROOT
ATOM      1  C   UNL     1     -17.274  14.716  -8.124  1.00  0.00     0.180 A 
ATOM      2  C   UNL     1     -17.962  15.775  -7.506  1.00  0.00     0.208 A 
ATOM      3  C   UNL     1     -17.286  16.568  -6.564  1.00  0.00     0.238 A 
ATOM      4  O   UNL     1     -17.922  17.480  -5.975  1.00  0.00    -0.285 OA
ATOM      5  C   UNL     1     -15.927  16.304  -6.267  1.00  0.00     0.111 A 
ATOM      6  C   UNL     1     -15.133  17.069  -5.360  1.00  0.00     0.134 A 
ATOM      7  C   UNL     1     -13.840  16.638  -5.043  1.00  0.00     0.093 A 
ATOM      8  C   UNL     1     -13.288  15.506  -5.649  1.00  0.00     0.123 A 
ATOM      9  C   UNL     1     -14.035  14.787  -6.581  1.00  0.00     0.094 A 
ATOM     10  C   UNL     1     -15.342  15.172  -6.890  1.00  0.00     0.146 A 
ATOM     11  O   UNL     1     -16.021  14.452  -7.775  1.00  0.00    -0.452 OA
ENDROOT
BRANCH   1  12
ATOM     12  C   UNL     1     -17.912  13.851  -9.144  1.00  0.00     0.025 A 
ATOM     13  C   UNL     1     -18.139  14.309 -10.453  1.00  0.00     0.016 A 
ATOM     14  C   UNL     1     -18.720  13.468 -11.405  1.00  0.00     0.051 A 
ATOM     15  C   UNL     1     -19.070  12.154 -11.069  1.00  0.00     0.157 A 
ATOM     16  C   UNL     1     -18.246  12.527  -8.816  1.00  0.00     0.062 A 
ATOM     17  C   UNL     1     -18.828  11.681  -9.767  1.00  0.00     0.158 A 
BRANCH  15  18
ATOM     18  O   UNL     1     -19.652  11.317 -12.020  1.00  0.00    -0.504 OA
ATOM     19  H   UNL     1     -19.122  10.959 -12.806  1.00  0.00     0.293 HD
ENDBRANCH  15  18
BRANCH  17  20
ATOM     20  O   UNL     1     -19.159  10.376  -9.402  1.00  0.00    -0.504 OA
ATOM     21  H   UNL     1     -19.906   9.863  -9.854  1.00  0.00     0.293 HD
ENDBRANCH  17  20
ENDBRANCH   1  12
BRANCH   2  22
ATOM     22  O   UNL     1     -19.309  16.004  -7.799  1.00  0.00    -0.502 OA
ATOM     23  H   UNL     1     -19.827  15.437  -8.459  1.00  0.00     0.293 HD
ENDBRANCH   2  22
BRANCH   6  24
ATOM     24  O   UNL     1     -15.554  18.264  -4.770  1.00  0.00    -0.507 OA
ATOM     25  H   UNL     1     -15.191  18.637  -3.906  1.00  0.00     0.293 HD
ENDBRANCH   6  24
BRANCH   8  26
ATOM     26  O   UNL     1     -11.994  15.093  -5.341  1.00  0.00    -0.508 OA
ATOM     27  H   UNL     1     -11.418  14.604  -6.017  1.00  0.00     0.293 HD
ENDBRANCH   8  26
TORSDOF 6
ENDMDL
MODEL 5
REMARK VINA RESULT:    -6.250      2.196      6.822
REMARK INTER + INTRA:          -7.575
REMARK INTER:                  -7.264
REMARK INTRA:                  -0.312
REMARK UNBOUND:                -0.046
REMARK SMILES O=c1c(O)c(-c2ccc(O)c(O)c2)oc2cc(O)cc(O)c12
REMARK SMILES IDX 5 1 3 2 2 3 1 4 22 5 20 6 19 7 17 8 16 9 15 10 14 11 6 12
REMARK SMILES IDX 7 13 8 14 9 15 13 16 11 17 10 18 12 20 4 22 21 24 18 26
REMARK H PARENT 10 19 12 21 4 23 21 25 18 27
REMARK Flexibility Score: inf
ROOT
ATOM      1  C   UNL     1     -16.606  14.397  -7.446  1.00  0.00     0.180 A 
ATOM      2  C   UNL     1     -15.948  14.192  -8.671  1.00  0.00     0.208 A 
ATOM      3  C   UNL     1     -16.497  13.289  -9.596  1.00  0.00     0.238 A 
ATOM      4  O   UNL     1     -15.876  13.069 -10.668  1.00  0.00    -0.285 OA
ATOM      5  C   UNL     1     -17.704  12.615  -9.291  1.00  0.00     0.111 A 
ATOM      6  C   UNL     1     -18.370  11.709 -10.170  1.00  0.00     0.134 A 
ATOM      7  C   UNL     1     -19.488  11.000  -9.713  1.00  0.00     0.093 A 
ATOM      8  C   UNL     1     -20.001  11.212  -8.430  1.00  0.00     0.123 A 
ATOM      9  C   UNL     1     -19.392  12.139  -7.587  1.00  0.00     0.094 A 
ATOM     10  C   UNL     1     -18.254  12.835  -8.002  1.00  0.00     0.146 A 
ATOM     11  O   UNL     1     -17.699  13.701  -7.162  1.00  0.00    -0.452 OA
ENDROOT
BRANCH   1  12
ATOM     12  C   UNL     1     -16.102  15.351  -6.431  1.00  0.00     0.025 A 
ATOM     13  C   UNL     1     -15.279  14.927  -5.373  1.00  0.00     0.016 A 
ATOM     14  C   UNL     1     -14.796  15.848  -4.441  1.00  0.00     0.051 A 
ATOM     15  C   UNL     1     -15.114  17.208  -4.559  1.00  0.00     0.157 A 
ATOM     16  C   UNL     1     -16.402  16.717  -6.557  1.00  0.00     0.062 A 
ATOM     17  C   UNL     1     -15.920  17.643  -5.626  1.00  0.00     0.158 A 
BRANCH  15  18
ATOM     18  O   UNL     1     -14.632  18.125  -3.626  1.00  0.00    -0.504 OA
ATOM     19  H   UNL     1     -13.726  18.565  -3.735  1.00  0.00     0.293 HD
ENDBRANCH  15  18
BRANCH  17  20
ATOM     20  O   UNL     1     -16.250  18.990  -5.775  1.00  0.00    -0.504 OA
ATOM     21  H   UNL     1     -16.401  19.599  -4.980  1.00  0.00     0.293 HD
ENDBRANCH  17  20
ENDBRANCH   1  12
BRANCH   2  22
ATOM     22  O   UNL     1     -14.746  14.852  -8.943  1.00  0.00    -0.502 OA
ATOM     23  H   UNL     1     -13.968  14.397  -9.405  1.00  0.00     0.293 HD
ENDBRANCH   2  22
BRANCH   6  24
ATOM     24  O   UNL     1     -17.995  11.492 -11.499  1.00  0.00    -0.507 OA
ATOM     25  H   UNL     1     -17.854  12.222 -12.182  1.00  0.00     0.293 HD
ENDBRANCH   6  24
BRANCH   8  26
ATOM     26  O   UNL     1     -21.123  10.515  -7.989  1.00  0.00    -0.508 OA
ATOM     27  H   UNL     1     -21.963  10.449  -8.554  1.00  0.00     0.293 HD
ENDBRANCH   8  26
TORSDOF 6
ENDMDL
MODEL 6
REMARK VINA RESULT:    -6.235      2.132      2.271
REMARK INTER + INTRA:          -7.557
REMARK INTER:                  -7.244
REMARK INTRA:                  -0.313
REMARK UNBOUND:                -0.046
REMARK SMILES O=c1c(O)c(-c2ccc(O)c(O)c2)oc2cc(O)cc(O)c12
REMARK SMILES IDX 5 1 3 2 2 3 1 4 22 5 20 6 19 7 17 8 16 9 15 10 14 11 6 12
REMARK SMILES IDX 7 13 8 14 9 15 13 16 11 17 10 18 12 20 4 22 21 24 18 26
REMARK H PARENT 10 19 12 21 4 23 21 25 18 27
REMARK Flexibility Score: inf
ROOT
ATOM      1  C   UNL     1     -17.318  13.790  -7.908  1.00  0.00     0.180 A 
ATOM      2  C   UNL     1     -16.389  14.293  -8.834  1.00  0.00     0.208 A 
ATOM      3  C   UNL     1     -15.445  15.241  -8.406  1.00  0.00     0.238 A 
ATOM      4  O   UNL     1     -14.651  15.728  -9.252  1.00  0.00    -0.285 OA
ATOM      5  C   UNL     1     -15.431  15.660  -7.054  1.00  0.00     0.111 A 
ATOM      6  C   UNL     1     -14.494  16.584  -6.502  1.00  0.00     0.134 A 
ATOM      7  C   UNL     1     -14.656  17.025  -5.183  1.00  0.00     0.093 A 
ATOM      8  C   UNL     1     -15.683  16.527  -4.376  1.00  0.00     0.123 A 
ATOM      9  C   UNL     1     -16.566  15.580  -4.889  1.00  0.00     0.094 A 
ATOM     10  C   UNL     1     -16.452  15.147  -6.212  1.00  0.00     0.146 A 
ATOM     11  O   UNL     1     -17.323  14.251  -6.663  1.00  0.00    -0.452 OA
ENDROOT
BRANCH   1  12
ATOM     12  C   UNL     1     -18.328  12.771  -8.278  1.00  0.00     0.025 A 
ATOM     13  C   UNL     1     -19.551  13.134  -8.869  1.00  0.00     0.016 A 
ATOM     14  C   UNL     1     -20.478  12.154  -9.231  1.00  0.00     0.051 A 
ATOM     15  C   UNL     1     -20.193  10.798  -9.025  1.00  0.00     0.157 A 
ATOM     16  C   UNL     1     -18.038  11.410  -8.091  1.00  0.00     0.062 A 
ATOM     17  C   UNL     1     -18.964  10.425  -8.453  1.00  0.00     0.158 A 
BRANCH  15  18
ATOM     18  O   UNL     1     -21.121   9.823  -9.386  1.00  0.00    -0.504 OA
ATOM     19  H   UNL     1     -21.033   8.864  -9.070  1.00  0.00     0.293 HD
ENDBRANCH  15  18
BRANCH  17  20
ATOM     20  O   UNL     1     -18.647   9.084  -8.240  1.00  0.00    -0.504 OA
ATOM     21  H   UNL     1     -18.933   8.354  -8.881  1.00  0.00     0.293 HD
ENDBRANCH  17  20
ENDBRANCH   1  12
BRANCH   2  22
ATOM     22  O   UNL     1     -16.434  13.882 -10.170  1.00  0.00    -0.502 OA
ATOM     23  H   UNL     1     -17.305  13.692 -10.651  1.00  0.00     0.293 HD
ENDBRANCH   2  22
BRANCH   6  24
ATOM     24  O   UNL     1     -13.381  17.072  -7.191  1.00  0.00    -0.507 OA
ATOM     25  H   UNL     1     -12.768  16.511  -7.764  1.00  0.00     0.293 HD
ENDBRANCH   6  24
BRANCH   8  26
ATOM     26  O   UNL     1     -15.827  16.960  -3.060  1.00  0.00    -0.508 OA
ATOM     27  H   UNL     1     -15.899  16.302  -2.291  1.00  0.00     0.293 HD
ENDBRANCH   8  26
TORSDOF 6
ENDMDL
MODEL 7
REMARK VINA RESULT:    -6.120      2.051      7.273
REMARK INTER + INTRA:          -7.419
REMARK INTER:                  -7.204
REMARK INTRA:                  -0.214
REMARK UNBOUND:                -0.046
REMARK SMILES O=c1c(O)c(-c2ccc(O)c(O)c2)oc2cc(O)cc(O)c12
REMARK SMILES IDX 5 1 3 2 2 3 1 4 22 5 20 6 19 7 17 8 16 9 15 10 14 11 6 12
REMARK SMILES IDX 7 13 8 14 9 15 13 16 11 17 10 18 12 20 4 22 21 24 18 26
REMARK H PARENT 10 19 12 21 4 23 21 25 18 27
REMARK Flexibility Score: inf
ROOT
ATOM      1  C   UNL     1     -16.748  14.367  -7.130  1.00  0.00     0.180 A 
ATOM      2  C   UNL     1     -17.676  13.647  -6.358  1.00  0.00     0.208 A 
ATOM      3  C   UNL     1     -18.709  12.953  -7.008  1.00  0.00     0.238 A 
ATOM      4  O   UNL     1     -19.569  12.355  -6.309  1.00  0.00    -0.285 OA
ATOM      5  C   UNL     1     -18.791  12.972  -8.421  1.00  0.00     0.111 A 
ATOM      6  C   UNL     1     -19.771  12.271  -9.185  1.00  0.00     0.134 A 
ATOM      7  C   UNL     1     -19.836  12.467 -10.570  1.00  0.00     0.093 A 
ATOM      8  C   UNL     1     -18.916  13.289 -11.226  1.00  0.00     0.123 A 
ATOM      9  C   UNL     1     -17.918  13.930 -10.495  1.00  0.00     0.094 A 
ATOM     10  C   UNL     1     -17.850  13.782  -9.107  1.00  0.00     0.146 A 
ATOM     11  O   UNL     1     -16.890  14.420  -8.448  1.00  0.00    -0.452 OA
ENDROOT
BRANCH   1  12
ATOM     12  C   UNL     1     -15.618  15.104  -6.518  1.00  0.00     0.025 A 
ATOM     13  C   UNL     1     -14.289  14.679  -6.689  1.00  0.00     0.016 A 
ATOM     14  C   UNL     1     -13.237  15.402  -6.123  1.00  0.00     0.051 A 
ATOM     15  C   UNL     1     -13.494  16.569  -5.391  1.00  0.00     0.157 A 
ATOM     16  C   UNL     1     -15.869  16.285  -5.801  1.00  0.00     0.062 A 
ATOM     17  C   UNL     1     -14.819  17.013  -5.233  1.00  0.00     0.158 A 
BRANCH  15  18
ATOM     18  O   UNL     1     -12.443  17.289  -4.826  1.00  0.00    -0.504 OA
ATOM     19  H   UNL     1     -12.499  17.658  -3.884  1.00  0.00     0.293 HD
ENDBRANCH  15  18
BRANCH  17  20
ATOM     20  O   UNL     1     -15.108  18.174  -4.516  1.00  0.00    -0.504 OA
ATOM     21  H   UNL     1     -15.692  18.910  -4.894  1.00  0.00     0.293 HD
ENDBRANCH  17  20
ENDBRANCH   1  12
BRANCH   2  22
ATOM     22  O   UNL     1     -17.590  13.659  -4.962  1.00  0.00    -0.502 OA
ATOM     23  H   UNL     1     -16.858  14.154  -4.467  1.00  0.00     0.293 HD
ENDBRANCH   2  22
BRANCH   6  24
ATOM     24  O   UNL     1     -20.678  11.357  -8.642  1.00  0.00    -0.507 OA
ATOM     25  H   UNL     1     -21.299  10.772  -9.183  1.00  0.00     0.293 HD
ENDBRANCH   6  24
BRANCH   8  26
ATOM     26  O   UNL     1     -18.977  13.466 -12.606  1.00  0.00    -0.508 OA
ATOM     27  H   UNL     1     -18.399  12.922 -13.237  1.00  0.00     0.293 HD
ENDBRANCH   8  26
TORSDOF 6
ENDMDL
MODEL 8
REMARK VINA RESULT:    -5.947      2.411      7.250
REMARK INTER + INTRA:          -7.210
REMARK INTER:                  -7.435
REMARK INTRA:                   0.225
REMARK UNBOUND:                -0.046
REMARK SMILES O=c1c(O)c(-c2ccc(O)c(O)c2)oc2cc(O)cc(O)c12
REMARK SMILES IDX 5 1 3 2 2 3 1 4 22 5 20 6 19 7 17 8 16 9 15 10 14 11 6 12
REMARK SMILES IDX 7 13 8 14 9 15 13 16 11 17 10 18 12 20 4 22 21 24 18 26
REMARK H PARENT 10 19 12 21 4 23 21 25 18 27
REMARK Flexibility Score: inf
ROOT
ATOM      1  C   UNL     1     -17.311  13.776  -8.439  1.00  0.00     0.180 A 
ATOM      2  C   UNL     1     -17.943  13.260  -7.295  1.00  0.00     0.208 A 
ATOM      3  C   UNL     1     -18.940  12.283  -7.450  1.00  0.00     0.238 A 
ATOM      4  O   UNL     1     -19.540  11.863  -6.426  1.00  0.00    -0.285 OA
ATOM      5  C   UNL     1     -19.280  11.823  -8.745  1.00  0.00     0.111 A 
ATOM      6  C   UNL     1     -20.246  10.808  -9.017  1.00  0.00     0.134 A 
ATOM      7  C   UNL     1     -20.596  10.525 -10.343  1.00  0.00     0.093 A 
ATOM      8  C   UNL     1     -19.968  11.176 -11.408  1.00  0.00     0.123 A 
ATOM      9  C   UNL     1     -18.982  12.126 -11.154  1.00  0.00     0.094 A 
ATOM     10  C   UNL     1     -18.637  12.455  -9.841  1.00  0.00     0.146 A 
ATOM     11  O   UNL     1     -17.699  13.374  -9.643  1.00  0.00    -0.452 OA
ENDROOT
BRANCH   1  12
ATOM     12  C   UNL     1     -16.235  14.790  -8.354  1.00  0.00     0.025 A 
ATOM     13  C   UNL     1     -15.151  14.784  -9.250  1.00  0.00     0.016 A 
ATOM     14  C   UNL     1     -14.160  15.763  -9.166  1.00  0.00     0.051 A 
ATOM     15  C   UNL     1     -14.242  16.774  -8.199  1.00  0.00     0.157 A 
ATOM     16  C   UNL     1     -16.324  15.816  -7.399  1.00  0.00     0.062 A 
ATOM     17  C   UNL     1     -15.333  16.800  -7.313  1.00  0.00     0.158 A 
BRANCH  15  18
ATOM     18  O   UNL     1     -13.251  17.750  -8.117  1.00  0.00    -0.504 OA
ATOM     19  H   UNL     1     -13.102  18.419  -8.863  1.00  0.00     0.293 HD
ENDBRANCH  15  18
BRANCH  17  20
ATOM     20  O   UNL     1     -15.449  17.796  -6.343  1.00  0.00    -0.504 OA
ATOM     21  H   UNL     1     -14.840  18.604  -6.325  1.00  0.00     0.293 HD
ENDBRANCH  17  20
ENDBRANCH   1  12
BRANCH   2  22
ATOM     22  O   UNL     1     -17.607  13.743  -6.027  1.00  0.00    -0.502 OA
ATOM     23  H   UNL     1     -17.759  14.706  -5.754  1.00  0.00     0.293 HD
ENDBRANCH   2  22
BRANCH   6  24
ATOM     24  O   UNL     1     -20.865  10.035  -8.030  1.00  0.00    -0.507 OA
ATOM     25  H   UNL     1     -21.809   9.682  -8.085  1.00  0.00     0.293 HD
ENDBRANCH   6  24
BRANCH   8  26
ATOM     26  O   UNL     1     -20.311  10.877 -12.725  1.00  0.00    -0.508 OA
ATOM     27  H   UNL     1     -21.069  11.358 -13.197  1.00  0.00     0.293 HD
ENDBRANCH   8  26
TORSDOF 6
ENDMDL
MODEL 9
REMARK VINA RESULT:    -5.820      1.914      3.161
REMARK INTER + INTRA:          -7.057
REMARK INTER:                  -7.099
REMARK INTRA:                   0.042
REMARK UNBOUND:                -0.046
REMARK SMILES O=c1c(O)c(-c2ccc(O)c(O)c2)oc2cc(O)cc(O)c12
REMARK SMILES IDX 5 1 3 2 2 3 1 4 22 5 20 6 19 7 17 8 16 9 15 10 14 11 6 12
REMARK SMILES IDX 7 13 8 14 9 15 13 16 11 17 10 18 12 20 4 22 21 24 18 26
REMARK H PARENT 10 19 12 21 4 23 21 25 18 27
REMARK Flexibility Score: inf
ROOT
ATOM      1  C   UNL     1     -16.842  15.018  -7.571  1.00  0.00     0.180 A 
ATOM      2  C   UNL     1     -18.077  15.665  -7.397  1.00  0.00     0.208 A 
ATOM      3  C   UNL     1     -18.189  16.664  -6.416  1.00  0.00     0.238 A 
ATOM      4  O   UNL     1     -19.311  17.202  -6.228  1.00  0.00    -0.285 OA
ATOM      5  C   UNL     1     -17.062  17.015  -5.635  1.00  0.00     0.111 A 
ATOM      6  C   UNL     1     -17.052  18.039  -4.641  1.00  0.00     0.134 A 
ATOM      7  C   UNL     1     -15.917  18.210  -3.838  1.00  0.00     0.093 A 
ATOM      8  C   UNL     1     -14.770  17.438  -4.037  1.00  0.00     0.123 A 
ATOM      9  C   UNL     1     -14.751  16.475  -5.044  1.00  0.00     0.094 A 
ATOM     10  C   UNL     1     -15.880  16.256  -5.837  1.00  0.00     0.146 A 
ATOM     11  O   UNL     1     -15.821  15.322  -6.778  1.00  0.00    -0.452 OA
ENDROOT
BRANCH   1  12
ATOM     12  C   UNL     1     -16.639  13.972  -8.601  1.00  0.00     0.025 A 
ATOM     13  C   UNL     1     -15.537  14.008  -9.474  1.00  0.00     0.016 A 
ATOM     14  C   UNL     1     -15.353  12.999 -10.421  1.00  0.00     0.051 A 
ATOM     15  C   UNL     1     -16.256  11.931 -10.502  1.00  0.00     0.157 A 
ATOM     16  C   UNL     1     -17.530  12.889  -8.672  1.00  0.00     0.062 A 
ATOM     17  C   UNL     1     -17.349  11.876  -9.619  1.00  0.00     0.158 A 
BRANCH  15  18
ATOM     18  O   UNL     1     -16.071  10.925 -11.449  1.00  0.00    -0.504 OA
ATOM     19  H   UNL     1     -15.774  11.136 -12.395  1.00  0.00     0.293 HD
ENDBRANCH  15  18
BRANCH  17  20
ATOM     20  O   UNL     1     -18.262  10.823  -9.669  1.00  0.00    -0.504 OA
ATOM     21  H   UNL     1     -19.259  10.978  -9.752  1.00  0.00     0.293 HD
ENDBRANCH  17  20
ENDBRANCH   1  12
BRANCH   2  22
ATOM     22  O   UNL     1     -19.183  15.289  -8.165  1.00  0.00    -0.502 OA
ATOM     23  H   UNL     1     -19.235  14.398  -8.643  1.00  0.00     0.293 HD
ENDBRANCH   2  22
BRANCH   6  24
ATOM     24  O   UNL     1     -18.110  18.926  -4.423  1.00  0.00    -0.507 OA
ATOM     25  H   UNL     1     -18.991  18.676  -3.998  1.00  0.00     0.293 HD
ENDBRANCH   6  24
BRANCH   8  26
ATOM     26  O   UNL     1     -13.640  17.625  -3.244  1.00  0.00    -0.508 OA
ATOM     27  H   UNL     1     -12.817  17.043  -3.349  1.00  0.00     0.293 HD
ENDBRANCH   8  26
TORSDOF 6
ENDMDL
