MODEL 1
REMARK VINA RESULT:    -1.858      0.000      0.000
REMARK INTER + INTRA:          -1.858
REMARK INTER:                  -1.858
REMARK INTRA:                   0.000
REMARK UNBOUND:                 0.000
REMARK SMILES CC(=O)[O-]
REMARK SMILES IDX 1 1 2 2 3 3 4 4
REMARK H PARENT
REMARK Flexibility Score: inf
ROOT
ATOM      1  C   UNL     1      -7.842  -9.200  89.591  1.00  0.00     0.063 C 
ATOM      2  C   UNL     1      -8.283 -10.532  89.087  1.00  0.00     0.038 C 
ATOM      3  O   UNL     1      -7.434 -11.365  88.675  1.00  0.00    -0.550 OA
ATOM      4  O   UNL     1      -9.628 -10.878  89.122  1.00  0.00    -0.550 OA
ENDROOT
TORSDOF 0
ENDMDL
MODEL 2
REMARK VINA RESULT:    -1.821      1.356      1.813
REMARK INTER + INTRA:          -1.821
REMARK INTER:                  -1.821
REMARK INTRA:                   0.000
REMARK UNBOUND:                 0.000
REMARK SMILES CC(=O)[O-]
REMARK SMILES IDX 1 1 2 2 3 3 4 4
REMARK H PARENT
REMARK Flexibility Score: inf
ROOT
ATOM      1  C   UNL     1      -9.446 -11.448  88.403  1.00  0.00     0.063 C 
ATOM      2  C   UNL     1      -8.183 -10.822  88.891  1.00  0.00     0.038 C 
ATOM      3  O   UNL     1      -7.082 -11.409  88.725  1.00  0.00    -0.550 OA
ATOM      4  O   UNL     1      -8.213  -9.566  89.482  1.00  0.00    -0.550 OA
ENDROOT
TORSDOF 0
ENDMDL
MODEL 3
REMARK VINA RESULT:    -1.812     10.889     11.267
REMARK INTER + INTRA:          -1.812
REMARK INTER:                  -1.812
REMARK INTRA:                   0.000
REMARK UNBOUND:                 0.000
REMARK SMILES CC(=O)[O-]
REMARK SMILES IDX 1 1 2 2 3 3 4 4
REMARK H PARENT
REMARK Flexibility Score: inf
ROOT
ATOM      1  C   UNL     1       1.138 -12.475  96.244  1.00  0.00     0.063 C 
ATOM      2  C   UNL     1      -0.302 -12.743  96.525  1.00  0.00     0.038 C 
ATOM      3  O   UNL     1      -1.114 -11.787  96.625  1.00  0.00    -0.550 OA
ATOM      4  O   UNL     1      -0.760 -14.050  96.623  1.00  0.00    -0.550 OA
ENDROOT
TORSDOF 0
ENDMDL
MODEL 4
REMARK VINA RESULT:    -1.761     10.998     11.257
REMARK INTER + INTRA:          -1.761
REMARK INTER:                  -1.761
REMARK INTRA:                   0.000
REMARK UNBOUND:                 0.000
REMARK SMILES CC(=O)[O-]
REMARK SMILES IDX 1 1 2 2 3 3 4 4
REMARK H PARENT
REMARK Flexibility Score: inf
ROOT
ATOM      1  C   UNL     1      -0.939 -11.560  96.940  1.00  0.00     0.063 C 
ATOM      2  C   UNL     1      -0.152 -12.711  96.412  1.00  0.00     0.038 C 
ATOM      3  O   UNL     1      -0.597 -13.883  96.519  1.00  0.00    -0.550 OA
ATOM      4  O   UNL     1       1.050 -12.487  95.751  1.00  0.00    -0.550 OA
ENDROOT
TORSDOF 0
ENDMDL
MODEL 5
REMARK VINA RESULT:    -1.678      1.986      2.584
REMARK INTER + INTRA:          -1.678
REMARK INTER:                  -1.678
REMARK INTRA:                   0.000
REMARK UNBOUND:                 0.000
REMARK SMILES CC(=O)[O-]
REMARK SMILES IDX 1 1 2 2 3 3 4 4
REMARK H PARENT
REMARK Flexibility Score: inf
ROOT
ATOM      1  C   UNL     1      -9.107 -11.487  88.303  1.00  0.00     0.063 C 
ATOM      2  C   UNL     1      -9.671 -10.547  89.313  1.00  0.00     0.038 C 
ATOM      3  O   UNL     1     -10.882 -10.632  89.647  1.00  0.00    -0.550 OA
ATOM      4  O   UNL     1      -8.850  -9.610  89.927  1.00  0.00    -0.550 OA
ENDROOT
TORSDOF 0
ENDMDL
MODEL 6
REMARK VINA RESULT:    -1.637      7.066      7.592
REMARK INTER + INTRA:          -1.637
REMARK INTER:                  -1.637
REMARK INTRA:                   0.000
REMARK UNBOUND:                 0.000
REMARK SMILES CC(=O)[O-]
REMARK SMILES IDX 1 1 2 2 3 3 4 4
REMARK H PARENT
REMARK Flexibility Score: inf
ROOT
ATOM      1  C   UNL     1     -11.610 -12.160  94.481  1.00  0.00     0.063 C 
ATOM      2  C   UNL     1     -13.061 -11.862  94.649  1.00  0.00     0.038 C 
ATOM      3  O   UNL     1     -13.887 -12.232  93.774  1.00  0.00    -0.550 OA
ATOM      4  O   UNL     1     -13.512 -11.224  95.797  1.00  0.00    -0.550 OA
ENDROOT
TORSDOF 0
ENDMDL
MODEL 7
REMARK VINA RESULT:    -1.636      7.014      7.537
REMARK INTER + INTRA:          -1.636
REMARK INTER:                  -1.636
REMARK INTRA:                   0.000
REMARK UNBOUND:                 0.000
REMARK SMILES CC(=O)[O-]
REMARK SMILES IDX 1 1 2 2 3 3 4 4
REMARK H PARENT
REMARK Flexibility Score: inf
ROOT
ATOM      1  C   UNL     1     -11.443 -12.140  94.484  1.00  0.00     0.063 C 
ATOM      2  C   UNL     1     -12.880 -11.867  94.771  1.00  0.00     0.038 C 
ATOM      3  O   UNL     1     -13.229 -11.437  95.901  1.00  0.00    -0.550 OA
ATOM      4  O   UNL     1     -13.832 -12.035  93.773  1.00  0.00    -0.550 OA
ENDROOT
TORSDOF 0
ENDMDL
MODEL 8
REMARK VINA RESULT:    -1.626      8.121      8.529
REMARK INTER + INTRA:          -1.626
REMARK INTER:                  -1.626
REMARK INTRA:                   0.000
REMARK UNBOUND:                 0.000
REMARK SMILES CC(=O)[O-]
REMARK SMILES IDX 1 1 2 2 3 3 4 4
REMARK H PARENT
REMARK Flexibility Score: inf
ROOT
ATOM      1  C   UNL     1     -13.164 -11.034  97.460  1.00  0.00     0.063 C 
ATOM      2  C   UNL     1     -12.710 -11.414  96.091  1.00  0.00     0.038 C 
ATOM      3  O   UNL     1     -13.531 -11.439  95.138  1.00  0.00    -0.550 OA
ATOM      4  O   UNL     1     -11.369 -11.687  95.854  1.00  0.00    -0.550 OA
ENDROOT
TORSDOF 0
ENDMDL
MODEL 9
REMARK VINA RESULT:    -1.599      1.389      1.571
REMARK INTER + INTRA:          -1.599
REMARK INTER:                  -1.599
REMARK INTRA:                   0.000
REMARK UNBOUND:                 0.000
REMARK SMILES CC(=O)[O-]
REMARK SMILES IDX 1 1 2 2 3 3 4 4
REMARK H PARENT
REMARK Flexibility Score: inf
ROOT
ATOM      1  C   UNL     1      -7.737  -8.040  90.655  1.00  0.00     0.063 C 
ATOM      2  C   UNL     1      -8.278  -9.185  89.868  1.00  0.00     0.038 C 
ATOM      3  O   UNL     1      -7.501  -9.912  89.195  1.00  0.00    -0.550 OA
ATOM      4  O   UNL     1      -9.633  -9.485  89.918  1.00  0.00    -0.550 OA
ENDROOT
TORSDOF 0
ENDMDL
