MODEL 1
REMARK VINA RESULT:    -3.520      0.000      0.000
REMARK INTER + INTRA:          -3.935
REMARK INTER:                  -3.931
REMARK INTRA:                  -0.004
REMARK UNBOUND:                -0.004
REMARK SMILES CCCC(=O)[O-]
REMARK SMILES IDX 3 1 4 2 5 3 6 4 2 5 1 6
REMARK H PARENT
REMARK Flexibility Score: inf
ROOT
ATOM      1  C   UNL     1     -16.385  34.510 -19.825  1.00  0.00     0.052 C 
ENDROOT
BRANCH   1   2
ATOM      2  C   UNL     1     -17.707  34.269 -19.162  1.00  0.00     0.041 C 
ATOM      3  O   UNL     1     -18.670  33.794 -19.819  1.00  0.00    -0.550 OA
ATOM      4  O   UNL     1     -17.884  34.601 -17.824  1.00  0.00    -0.550 OA
ENDBRANCH   1   2
BRANCH   1   5
ATOM      5  C   UNL     1     -15.227  33.920 -19.010  1.00  0.00     0.003 C 
ATOM      6  C   UNL     1     -14.512  34.975 -18.167  1.00  0.00     0.004 C 
ENDBRANCH   1   5
TORSDOF 2
ENDMDL
MODEL 2
REMARK VINA RESULT:    -3.491     24.699     25.470
REMARK INTER + INTRA:          -3.903
REMARK INTER:                  -3.876
REMARK INTRA:                  -0.027
REMARK UNBOUND:                -0.004
REMARK SMILES CCCC(=O)[O-]
REMARK SMILES IDX 3 1 4 2 5 3 6 4 2 5 1 6
REMARK H PARENT
REMARK Flexibility Score: inf
ROOT
ATOM      1  C   UNL     1      -6.830  18.666  -1.587  1.00  0.00     0.052 C 
ENDROOT
BRANCH   1   2
ATOM      2  C   UNL     1      -5.648  19.437  -1.087  1.00  0.00     0.041 C 
ATOM      3  O   UNL     1      -5.737  20.676  -0.884  1.00  0.00    -0.550 OA
ATOM      4  O   UNL     1      -4.436  18.791  -0.875  1.00  0.00    -0.550 OA
ENDBRANCH   1   2
BRANCH   1   5
ATOM      5  C   UNL     1      -8.142  19.186  -0.986  1.00  0.00     0.003 C 
ATOM      6  C   UNL     1      -8.973  19.975  -1.997  1.00  0.00     0.004 C 
ENDBRANCH   1   5
TORSDOF 2
ENDMDL
MODEL 3
REMARK VINA RESULT:    -3.477      0.120      1.326
REMARK INTER + INTRA:          -3.888
REMARK INTER:                  -3.895
REMARK INTRA:                   0.007
REMARK UNBOUND:                -0.004
REMARK SMILES CCCC(=O)[O-]
REMARK SMILES IDX 3 1 4 2 5 3 6 4 2 5 1 6
REMARK H PARENT
REMARK Flexibility Score: inf
ROOT
ATOM      1  C   UNL     1     -16.415  34.638 -19.740  1.00  0.00     0.052 C 
ENDROOT
BRANCH   1   2
ATOM      2  C   UNL     1     -17.715  34.377 -19.043  1.00  0.00     0.041 C 
ATOM      3  O   UNL     1     -17.852  34.669 -17.826  1.00  0.00    -0.550 OA
ATOM      4  O   UNL     1     -18.765  33.781 -19.730  1.00  0.00    -0.550 OA
ENDBRANCH   1   2
BRANCH   1   5
ATOM      5  C   UNL     1     -15.233  34.008 -18.992  1.00  0.00     0.003 C 
ATOM      6  C   UNL     1     -14.497  35.017 -18.112  1.00  0.00     0.004 C 
ENDBRANCH   1   5
TORSDOF 2
ENDMDL
MODEL 4
REMARK VINA RESULT:    -3.289      1.200      1.523
REMARK INTER + INTRA:          -3.678
REMARK INTER:                  -3.656
REMARK INTRA:                  -0.022
REMARK UNBOUND:                -0.004
REMARK SMILES CCCC(=O)[O-]
REMARK SMILES IDX 3 1 4 2 5 3 6 4 2 5 1 6
REMARK H PARENT
REMARK Flexibility Score: inf
ROOT
ATOM      1  C   UNL     1     -16.804  34.207 -18.768  1.00  0.00     0.052 C 
ENDROOT
BRANCH   1   2
ATOM      2  C   UNL     1     -17.634  34.345 -20.008  1.00  0.00     0.041 C 
ATOM      3  O   UNL     1     -18.794  33.856 -20.053  1.00  0.00    -0.550 OA
ATOM      4  O   UNL     1     -17.114  34.987 -21.125  1.00  0.00    -0.550 OA
ENDBRANCH   1   2
BRANCH   1   5
ATOM      5  C   UNL     1     -15.304  34.201 -19.088  1.00  0.00     0.003 C 
ATOM      6  C   UNL     1     -14.495  35.036 -18.097  1.00  0.00     0.004 C 
ENDBRANCH   1   5
TORSDOF 2
ENDMDL
MODEL 5
REMARK VINA RESULT:    -3.066     24.946     25.712
REMARK INTER + INTRA:          -3.428
REMARK INTER:                  -3.401
REMARK INTRA:                  -0.027
REMARK UNBOUND:                -0.004
REMARK SMILES CCCC(=O)[O-]
REMARK SMILES IDX 3 1 4 2 5 3 6 4 2 5 1 6
REMARK H PARENT
REMARK Flexibility Score: inf
ROOT
ATOM      1  C   UNL     1      -6.543  19.793  -1.467  1.00  0.00     0.052 C 
ENDROOT
BRANCH   1   2
ATOM      2  C   UNL     1      -5.746  18.597  -1.048  1.00  0.00     0.041 C 
ATOM      3  O   UNL     1      -4.502  18.692  -0.875  1.00  0.00    -0.550 OA
ATOM      4  O   UNL     1      -6.372  17.368  -0.879  1.00  0.00    -0.550 OA
ENDBRANCH   1   2
BRANCH   1   5
ATOM      5  C   UNL     1      -7.980  19.732  -0.932  1.00  0.00     0.003 C 
ATOM      6  C   UNL     1      -9.017  20.024  -2.017  1.00  0.00     0.004 C 
ENDBRANCH   1   5
TORSDOF 2
ENDMDL
MODEL 6
REMARK VINA RESULT:    -2.990      2.262      3.200
REMARK INTER + INTRA:          -3.344
REMARK INTER:                  -3.308
REMARK INTRA:                  -0.036
REMARK UNBOUND:                -0.004
REMARK SMILES CCCC(=O)[O-]
REMARK SMILES IDX 3 1 4 2 5 3 6 4 2 5 1 6
REMARK H PARENT
REMARK Flexibility Score: inf
ROOT
ATOM      1  C   UNL     1     -16.710  35.349 -18.768  1.00  0.00     0.052 C 
ENDROOT
BRANCH   1   2
ATOM      2  C   UNL     1     -15.318  34.865 -18.497  1.00  0.00     0.041 C 
ATOM      3  O   UNL     1     -14.792  33.995 -19.240  1.00  0.00    -0.550 OA
ATOM      4  O   UNL     1     -14.614  35.352 -17.402  1.00  0.00    -0.550 OA
ENDBRANCH   1   2
BRANCH   1   5
ATOM      5  C   UNL     1     -17.651  34.193 -19.130  1.00  0.00     0.003 C 
ATOM      6  C   UNL     1     -18.312  34.387 -20.494  1.00  0.00     0.004 C 
ENDBRANCH   1   5
TORSDOF 2
ENDMDL
MODEL 7
REMARK VINA RESULT:    -2.861      2.189      3.022
REMARK INTER + INTRA:          -3.199
REMARK INTER:                  -3.129
REMARK INTRA:                  -0.070
REMARK UNBOUND:                -0.004
REMARK SMILES CCCC(=O)[O-]
REMARK SMILES IDX 3 1 4 2 5 3 6 4 2 5 1 6
REMARK H PARENT
REMARK Flexibility Score: inf
ROOT
ATOM      1  C   UNL     1     -15.558  34.897 -18.611  1.00  0.00     0.052 C 
ENDROOT
BRANCH   1   2
ATOM      2  C   UNL     1     -15.494  33.791 -19.619  1.00  0.00     0.041 C 
ATOM      3  O   UNL     1     -15.309  32.602 -19.246  1.00  0.00    -0.550 OA
ATOM      4  O   UNL     1     -15.606  34.077 -20.974  1.00  0.00    -0.550 OA
ENDBRANCH   1   2
BRANCH   1   5
ATOM      5  C   UNL     1     -16.916  35.610 -18.638  1.00  0.00     0.003 C 
ATOM      6  C   UNL     1     -18.079  34.658 -18.362  1.00  0.00     0.004 C 
ENDBRANCH   1   5
TORSDOF 2
ENDMDL
MODEL 8
REMARK VINA RESULT:    -1.626     25.348     26.089
REMARK INTER + INTRA:          -1.820
REMARK INTER:                  -1.818
REMARK INTRA:                  -0.002
REMARK UNBOUND:                -0.004
REMARK SMILES CCCC(=O)[O-]
REMARK SMILES IDX 3 1 4 2 5 3 6 4 2 5 1 6
REMARK H PARENT
REMARK Flexibility Score: inf
ROOT
ATOM      1  C   UNL     1      -6.807  18.883  -1.814  1.00  0.00     0.052 C 
ENDROOT
BRANCH   1   2
ATOM      2  C   UNL     1      -5.640  19.571  -1.176  1.00  0.00     0.041 C 
ATOM      3  O   UNL     1      -4.605  18.920  -0.875  1.00  0.00    -0.550 OA
ATOM      4  O   UNL     1      -5.707  20.929  -0.885  1.00  0.00    -0.550 OA
ENDBRANCH   1   2
BRANCH   1   5
ATOM      5  C   UNL     1      -7.376  17.779  -0.913  1.00  0.00     0.003 C 
ATOM      6  C   UNL     1      -6.852  16.394  -1.290  1.00  0.00     0.004 C 
ENDBRANCH   1   5
TORSDOF 2
ENDMDL
