MODEL 1
REMARK VINA RESULT:    -4.911      0.000      0.000
REMARK INTER + INTRA:          -4.911
REMARK INTER:                  -4.911
REMARK INTRA:                   0.000
REMARK UNBOUND:                 0.000
REMARK SMILES C[C@H]1C(=O)CC[C@@H]2[C@]3(C)CC[C@@]4(C)[C@H]5CC(C)(C)CC[C@@]5(C)CC[C@]4(C)[C@@H]3CC[C@@]21C
REMARK SMILES IDX 1 1 2 2 3 3 4 4 5 5 6 6 7 7 30 8 29 9 28 10 27 11 8 12 10 13
REMARK SMILES IDX 11 14 12 15 25 16 24 17 23 18 21 19 14 20 15 21 16 22 19 23
REMARK SMILES IDX 20 24 17 25 18 26 22 27 26 28 13 29 9 30 31 31
REMARK H PARENT
REMARK Flexibility Score: inf
ROOT
ATOM      1  C   UNL     1     162.055 174.287 169.499  1.00  0.00     0.016 C 
ATOM      2  C   UNL     1     162.970 173.787 170.640  1.00  0.00     0.059 C 
ATOM      3  C   UNL     1     163.586 174.937 171.397  1.00  0.00     0.136 C 
ATOM      4  O   UNL     1     163.372 176.101 171.088  1.00  0.00    -0.299 OA
ATOM      5  C   UNL     1     164.505 174.619 172.524  1.00  0.00     0.076 C 
ATOM      6  C   UNL     1     163.766 173.744 173.527  1.00  0.00     0.012 C 
ATOM      7  C   UNL     1     163.160 172.435 172.916  1.00  0.00     0.002 C 
ATOM      8  C   UNL     1     162.283 172.748 171.621  1.00  0.00    -0.020 C 
ATOM      9  C   UNL     1     162.010 171.440 170.835  1.00  0.00     0.008 C 
ATOM     10  C   UNL     1     161.884 170.207 171.726  1.00  0.00     0.005 C 
ATOM     11  C   UNL     1     163.177 169.840 172.540  1.00  0.00     0.002 C 
ATOM     12  C   UNL     1     164.082 171.120 172.885  1.00  0.00    -0.026 C 
ATOM     13  C   UNL     1     165.273 171.259 171.893  1.00  0.00     0.008 C 
ATOM     14  C   UNL     1     166.008 169.939 171.542  1.00  0.00     0.008 C 
ATOM     15  C   UNL     1     165.079 168.791 171.010  1.00  0.00    -0.024 C 
ATOM     16  C   UNL     1     163.969 168.491 172.112  1.00  0.00    -0.024 C 
ATOM     17  C   UNL     1     163.021 167.363 171.565  1.00  0.00     0.008 C 
ATOM     18  C   UNL     1     163.729 166.043 171.184  1.00  0.00     0.007 C 
ATOM     19  C   UNL     1     164.987 166.192 170.267  1.00  0.00    -0.029 C 
ATOM     20  C   UNL     1     165.894 167.460 170.633  1.00  0.00     0.002 C 
ATOM     21  C   UNL     1     167.071 167.047 171.573  1.00  0.00     0.011 C 
ATOM     22  C   UNL     1     168.044 166.021 170.902  1.00  0.00    -0.035 C 
ATOM     23  C   UNL     1     167.276 165.056 169.950  1.00  0.00     0.007 C 
ATOM     24  C   UNL     1     165.821 164.867 170.395  1.00  0.00     0.007 C 
ATOM     25  C   UNL     1     169.133 166.766 170.097  1.00  0.00     0.011 C 
ATOM     26  C   UNL     1     168.749 165.204 172.009  1.00  0.00     0.011 C 
ATOM     27  C   UNL     1     164.490 166.267 168.793  1.00  0.00     0.011 C 
ATOM     28  C   UNL     1     164.591 167.888 173.435  1.00  0.00     0.012 C 
ATOM     29  C   UNL     1     164.473 169.324 169.650  1.00  0.00     0.012 C 
ATOM     30  C   UNL     1     164.688 170.965 174.321  1.00  0.00     0.012 C 
ATOM     31  C   UNL     1     160.911 173.327 172.094  1.00  0.00     0.012 C 
ENDROOT
TORSDOF 0
ENDMDL
MODEL 2
REMARK VINA RESULT:    -4.903      5.124      8.139
REMARK INTER + INTRA:          -4.903
REMARK INTER:                  -4.903
REMARK INTRA:                   0.000
REMARK UNBOUND:                 0.000
REMARK SMILES C[C@H]1C(=O)CC[C@@H]2[C@]3(C)CC[C@@]4(C)[C@H]5CC(C)(C)CC[C@@]5(C)CC[C@]4(C)[C@@H]3CC[C@@]21C
REMARK SMILES IDX 1 1 2 2 3 3 4 4 5 5 6 6 7 7 30 8 29 9 28 10 27 11 8 12 10 13
REMARK SMILES IDX 11 14 12 15 25 16 24 17 23 18 21 19 14 20 15 21 16 22 19 23
REMARK SMILES IDX 20 24 17 25 18 26 22 27 26 28 13 29 9 30 31 31
REMARK H PARENT
REMARK Flexibility Score: inf
ROOT
ATOM      1  C   UNL     1     174.249 169.177 169.506  1.00  0.00     0.016 C 
ATOM      2  C   UNL     1     173.745 168.258 170.642  1.00  0.00     0.059 C 
ATOM      3  C   UNL     1     174.891 167.641 171.402  1.00  0.00     0.136 C 
ATOM      4  O   UNL     1     176.056 167.856 171.099  1.00  0.00    -0.299 OA
ATOM      5  C   UNL     1     174.569 166.717 172.525  1.00  0.00     0.076 C 
ATOM      6  C   UNL     1     173.689 167.453 173.526  1.00  0.00     0.012 C 
ATOM      7  C   UNL     1     172.382 168.059 172.912  1.00  0.00     0.002 C 
ATOM      8  C   UNL     1     172.700 168.941 171.621  1.00  0.00    -0.020 C 
ATOM      9  C   UNL     1     171.396 169.216 170.830  1.00  0.00     0.008 C 
ATOM     10  C   UNL     1     170.159 169.338 171.716  1.00  0.00     0.005 C 
ATOM     11  C   UNL     1     169.790 168.042 172.525  1.00  0.00     0.002 C 
ATOM     12  C   UNL     1     171.069 167.137 172.872  1.00  0.00    -0.026 C 
ATOM     13  C   UNL     1     171.213 165.949 171.876  1.00  0.00     0.008 C 
ATOM     14  C   UNL     1     169.895 165.214 171.518  1.00  0.00     0.008 C 
ATOM     15  C   UNL     1     168.748 166.144 170.984  1.00  0.00    -0.024 C 
ATOM     16  C   UNL     1     168.443 167.250 172.088  1.00  0.00    -0.024 C 
ATOM     17  C   UNL     1     167.317 168.200 171.539  1.00  0.00     0.008 C 
ATOM     18  C   UNL     1     165.998 167.492 171.150  1.00  0.00     0.007 C 
ATOM     19  C   UNL     1     166.152 166.237 170.229  1.00  0.00    -0.029 C 
ATOM     20  C   UNL     1     167.419 165.329 170.598  1.00  0.00     0.002 C 
ATOM     21  C   UNL     1     167.003 164.149 171.533  1.00  0.00     0.011 C 
ATOM     22  C   UNL     1     165.981 163.178 170.855  1.00  0.00    -0.035 C 
ATOM     23  C   UNL     1     165.019 163.948 169.900  1.00  0.00     0.007 C 
ATOM     24  C   UNL     1     164.827 165.401 170.349  1.00  0.00     0.007 C 
ATOM     25  C   UNL     1     166.730 162.091 170.049  1.00  0.00     0.011 C 
ATOM     26  C   UNL     1     165.159 162.469 171.956  1.00  0.00     0.011 C 
ATOM     27  C   UNL     1     166.234 166.739 168.757  1.00  0.00     0.011 C 
ATOM     28  C   UNL     1     167.834 166.623 173.407  1.00  0.00     0.012 C 
ATOM     29  C   UNL     1     169.287 166.754 169.628  1.00  0.00     0.012 C 
ATOM     30  C   UNL     1     170.907 166.526 174.305  1.00  0.00     0.012 C 
ATOM     31  C   UNL     1     173.276 170.312 172.101  1.00  0.00     0.012 C 
ENDROOT
TORSDOF 0
ENDMDL
MODEL 3
REMARK VINA RESULT:    -4.709      5.481      9.250
REMARK INTER + INTRA:          -4.709
REMARK INTER:                  -4.709
REMARK INTRA:                   0.000
REMARK UNBOUND:                 0.000
REMARK SMILES C[C@H]1C(=O)CC[C@@H]2[C@]3(C)CC[C@@]4(C)[C@H]5CC(C)(C)CC[C@@]5(C)CC[C@]4(C)[C@@H]3CC[C@@]21C
REMARK SMILES IDX 1 1 2 2 3 3 4 4 5 5 6 6 7 7 30 8 29 9 28 10 27 11 8 12 10 13
REMARK SMILES IDX 11 14 12 15 25 16 24 17 23 18 21 19 14 20 15 21 16 22 19 23
REMARK SMILES IDX 20 24 17 25 18 26 22 27 26 28 13 29 9 30 31 31
REMARK H PARENT
REMARK Flexibility Score: inf
ROOT
ATOM      1  C   UNL     1     167.556 166.002 169.058  1.00  0.00     0.016 C 
ATOM      2  C   UNL     1     167.910 166.879 170.281  1.00  0.00     0.059 C 
ATOM      3  C   UNL     1     166.691 167.178 171.117  1.00  0.00     0.136 C 
ATOM      4  O   UNL     1     165.580 166.771 170.806  1.00  0.00    -0.299 OA
ATOM      5  C   UNL     1     166.864 168.025 172.329  1.00  0.00     0.076 C 
ATOM      6  C   UNL     1     167.902 167.377 173.234  1.00  0.00     0.012 C 
ATOM      7  C   UNL     1     169.281 167.105 172.543  1.00  0.00     0.002 C 
ATOM      8  C   UNL     1     169.098 166.316 171.168  1.00  0.00    -0.020 C 
ATOM      9  C   UNL     1     170.404 166.385 170.336  1.00  0.00     0.008 C 
ATOM     10  C   UNL     1     171.669 166.417 171.189  1.00  0.00     0.005 C 
ATOM     11  C   UNL     1     171.808 167.669 172.128  1.00  0.00     0.002 C 
ATOM     12  C   UNL     1     170.390 168.266 172.587  1.00  0.00    -0.026 C 
ATOM     13  C   UNL     1     169.986 169.499 171.727  1.00  0.00     0.008 C 
ATOM     14  C   UNL     1     171.124 170.511 171.434  1.00  0.00     0.008 C 
ATOM     15  C   UNL     1     172.411 169.884 170.789  1.00  0.00    -0.024 C 
ATOM     16  C   UNL     1     172.961 168.751 171.764  1.00  0.00    -0.024 C 
ATOM     17  C   UNL     1     174.230 168.102 171.102  1.00  0.00     0.008 C 
ATOM     18  C   UNL     1     175.374 169.091 170.776  1.00  0.00     0.007 C 
ATOM     19  C   UNL     1     174.950 170.380 169.998  1.00  0.00    -0.029 C 
ATOM     20  C   UNL     1     173.544 170.978 170.478  1.00  0.00     0.002 C 
ATOM     21  C   UNL     1     173.754 172.114 171.530  1.00  0.00     0.011 C 
ATOM     22  C   UNL     1     174.546 173.332 170.948  1.00  0.00    -0.035 C 
ATOM     23  C   UNL     1     175.607 172.868 169.905  1.00  0.00     0.007 C 
ATOM     24  C   UNL     1     176.091 171.442 170.192  1.00  0.00     0.007 C 
ATOM     25  C   UNL     1     173.575 174.328 170.274  1.00  0.00     0.011 C 
ATOM     26  C   UNL     1     175.251 174.070 172.110  1.00  0.00     0.011 C 
ATOM     27  C   UNL     1     174.918 170.027 168.482  1.00  0.00     0.011 C 
ATOM     28  C   UNL     1     173.479 169.344 173.135  1.00  0.00     0.012 C 
ATOM     29  C   UNL     1     171.956 169.323 169.382  1.00  0.00     0.012 C 
ATOM     30  C   UNL     1     170.477 168.744 174.075  1.00  0.00     0.012 C 
ATOM     31  C   UNL     1     168.814 164.817 171.504  1.00  0.00     0.012 C 
ENDROOT
TORSDOF 0
ENDMDL
MODEL 4
REMARK VINA RESULT:    -4.705      2.668      8.185
REMARK INTER + INTRA:          -4.705
REMARK INTER:                  -4.705
REMARK INTRA:                   0.000
REMARK UNBOUND:                 0.000
REMARK SMILES C[C@H]1C(=O)CC[C@@H]2[C@]3(C)CC[C@@]4(C)[C@H]5CC(C)(C)CC[C@@]5(C)CC[C@]4(C)[C@@H]3CC[C@@]21C
REMARK SMILES IDX 1 1 2 2 3 3 4 4 5 5 6 6 7 7 30 8 29 9 28 10 27 11 8 12 10 13
REMARK SMILES IDX 11 14 12 15 25 16 24 17 23 18 21 19 14 20 15 21 16 22 19 23
REMARK SMILES IDX 20 24 17 25 18 26 22 27 26 28 13 29 9 30 31 31
REMARK H PARENT
REMARK Flexibility Score: inf
ROOT
ATOM      1  C   UNL     1     165.239 167.501 169.081  1.00  0.00     0.016 C 
ATOM      2  C   UNL     1     164.345 167.859 170.290  1.00  0.00     0.059 C 
ATOM      3  C   UNL     1     164.008 166.638 171.107  1.00  0.00     0.136 C 
ATOM      4  O   UNL     1     164.400 165.523 170.793  1.00  0.00    -0.299 OA
ATOM      5  C   UNL     1     163.140 166.815 172.305  1.00  0.00     0.076 C 
ATOM      6  C   UNL     1     163.790 167.832 173.233  1.00  0.00     0.012 C 
ATOM      7  C   UNL     1     164.101 169.212 172.561  1.00  0.00     0.002 C 
ATOM      8  C   UNL     1     164.913 169.028 171.200  1.00  0.00    -0.020 C 
ATOM      9  C   UNL     1     164.884 170.343 170.381  1.00  0.00     0.008 C 
ATOM     10  C   UNL     1     164.859 171.600 171.246  1.00  0.00     0.005 C 
ATOM     11  C   UNL     1     163.592 171.752 172.162  1.00  0.00     0.002 C 
ATOM     12  C   UNL     1     162.960 170.342 172.594  1.00  0.00    -0.026 C 
ATOM     13  C   UNL     1     161.736 169.969 171.707  1.00  0.00     0.008 C 
ATOM     14  C   UNL     1     160.752 171.129 171.406  1.00  0.00     0.008 C 
ATOM     15  C   UNL     1     161.415 172.411 170.787  1.00  0.00    -0.024 C 
ATOM     16  C   UNL     1     162.539 172.929 171.789  1.00  0.00    -0.024 C 
ATOM     17  C   UNL     1     163.223 174.193 171.153  1.00  0.00     0.008 C 
ATOM     18  C   UNL     1     162.262 175.358 170.820  1.00  0.00     0.007 C 
ATOM     19  C   UNL     1     160.982 174.966 170.013  1.00  0.00    -0.029 C 
ATOM     20  C   UNL     1     160.348 173.567 170.466  1.00  0.00     0.002 C 
ATOM     21  C   UNL     1     159.196 173.788 171.498  1.00  0.00     0.011 C 
ATOM     22  C   UNL     1     158.005 174.609 170.901  1.00  0.00    -0.035 C 
ATOM     23  C   UNL     1     158.508 175.671 169.878  1.00  0.00     0.007 C 
ATOM     24  C   UNL     1     159.937 176.125 170.198  1.00  0.00     0.007 C 
ATOM     25  C   UNL     1     157.004 173.663 170.198  1.00  0.00     0.011 C 
ATOM     26  C   UNL     1     157.257 175.315 172.055  1.00  0.00     0.011 C 
ATOM     27  C   UNL     1     161.363 174.943 168.503  1.00  0.00     0.011 C 
ATOM     28  C   UNL     1     161.928 173.445 173.154  1.00  0.00     0.012 C 
ATOM     29  C   UNL     1     161.994 171.960 169.386  1.00  0.00     0.012 C 
ATOM     30  C   UNL     1     162.455 170.423 174.074  1.00  0.00     0.012 C 
ATOM     31  C   UNL     1     166.399 168.712 171.561  1.00  0.00     0.012 C 
ENDROOT
TORSDOF 0
ENDMDL
MODEL 5
REMARK VINA RESULT:    -4.634      1.679      3.085
REMARK INTER + INTRA:          -4.634
REMARK INTER:                  -4.634
REMARK INTRA:                   0.000
REMARK UNBOUND:                 0.000
REMARK SMILES C[C@H]1C(=O)CC[C@@H]2[C@]3(C)CC[C@@]4(C)[C@H]5CC(C)(C)CC[C@@]5(C)CC[C@]4(C)[C@@H]3CC[C@@]21C
REMARK SMILES IDX 1 1 2 2 3 3 4 4 5 5 6 6 7 7 30 8 29 9 28 10 27 11 8 12 10 13
REMARK SMILES IDX 11 14 12 15 25 16 24 17 23 18 21 19 14 20 15 21 16 22 19 23
REMARK SMILES IDX 20 24 17 25 18 26 22 27 26 28 13 29 9 30 31 31
REMARK H PARENT
REMARK Flexibility Score: inf
ROOT
ATOM      1  C   UNL     1     158.828 173.680 172.457  1.00  0.00     0.016 C 
ATOM      2  C   UNL     1     160.159 173.702 171.671  1.00  0.00     0.059 C 
ATOM      3  C   UNL     1     160.197 174.841 170.683  1.00  0.00     0.136 C 
ATOM      4  O   UNL     1     159.254 175.608 170.546  1.00  0.00    -0.299 OA
ATOM      5  C   UNL     1     161.413 174.993 169.837  1.00  0.00     0.076 C 
ATOM      6  C   UNL     1     162.628 175.123 170.746  1.00  0.00     0.012 C 
ATOM      7  C   UNL     1     162.801 173.945 171.763  1.00  0.00     0.002 C 
ATOM      8  C   UNL     1     161.457 173.680 172.582  1.00  0.00    -0.020 C 
ATOM      9  C   UNL     1     161.531 172.306 173.294  1.00  0.00     0.008 C 
ATOM     10  C   UNL     1     162.940 171.923 173.738  1.00  0.00     0.005 C 
ATOM     11  C   UNL     1     163.980 171.749 172.573  1.00  0.00     0.002 C 
ATOM     12  C   UNL     1     163.648 172.663 171.297  1.00  0.00    -0.026 C 
ATOM     13  C   UNL     1     162.921 171.850 170.186  1.00  0.00     0.008 C 
ATOM     14  C   UNL     1     163.488 170.431 169.918  1.00  0.00     0.008 C 
ATOM     15  C   UNL     1     163.590 169.514 171.189  1.00  0.00    -0.024 C 
ATOM     16  C   UNL     1     164.508 170.246 172.265  1.00  0.00    -0.024 C 
ATOM     17  C   UNL     1     164.584 169.341 173.548  1.00  0.00     0.008 C 
ATOM     18  C   UNL     1     165.122 167.911 173.308  1.00  0.00     0.007 C 
ATOM     19  C   UNL     1     164.460 167.130 172.126  1.00  0.00    -0.029 C 
ATOM     20  C   UNL     1     164.152 168.048 170.851  1.00  0.00     0.002 C 
ATOM     21  C   UNL     1     165.305 167.945 169.802  1.00  0.00     0.011 C 
ATOM     22  C   UNL     1     165.476 166.495 169.238  1.00  0.00    -0.035 C 
ATOM     23  C   UNL     1     165.154 165.426 170.325  1.00  0.00     0.007 C 
ATOM     24  C   UNL     1     165.430 165.958 171.736  1.00  0.00     0.007 C 
ATOM     25  C   UNL     1     164.542 166.281 168.024  1.00  0.00     0.011 C 
ATOM     26  C   UNL     1     166.932 166.317 168.751  1.00  0.00     0.011 C 
ATOM     27  C   UNL     1     163.157 166.471 172.668  1.00  0.00     0.011 C 
ATOM     28  C   UNL     1     166.007 170.380 171.777  1.00  0.00     0.012 C 
ATOM     29  C   UNL     1     162.104 169.301 171.685  1.00  0.00     0.012 C 
ATOM     30  C   UNL     1     164.980 173.208 170.679  1.00  0.00     0.012 C 
ATOM     31  C   UNL     1     161.329 174.789 173.674  1.00  0.00     0.012 C 
ENDROOT
TORSDOF 0
ENDMDL
MODEL 6
REMARK VINA RESULT:    -4.628      4.807      8.427
REMARK INTER + INTRA:          -4.628
REMARK INTER:                  -4.628
REMARK INTRA:                   0.000
REMARK UNBOUND:                 0.000
REMARK SMILES C[C@H]1C(=O)CC[C@@H]2[C@]3(C)CC[C@@]4(C)[C@H]5CC(C)(C)CC[C@@]5(C)CC[C@]4(C)[C@@H]3CC[C@@]21C
REMARK SMILES IDX 1 1 2 2 3 3 4 4 5 5 6 6 7 7 30 8 29 9 28 10 27 11 8 12 10 13
REMARK SMILES IDX 11 14 12 15 25 16 24 17 23 18 21 19 14 20 15 21 16 22 19 23
REMARK SMILES IDX 20 24 17 25 18 26 22 27 26 28 13 29 9 30 31 31
REMARK H PARENT
REMARK Flexibility Score: inf
ROOT
ATOM      1  C   UNL     1     173.599 172.275 172.244  1.00  0.00     0.016 C 
ATOM      2  C   UNL     1     173.618 170.909 171.521  1.00  0.00     0.059 C 
ATOM      3  C   UNL     1     174.778 170.809 170.563  1.00  0.00     0.136 C 
ATOM      4  O   UNL     1     175.563 171.733 170.400  1.00  0.00    -0.299 OA
ATOM      5  C   UNL     1     174.930 169.553 169.777  1.00  0.00     0.076 C 
ATOM      6  C   UNL     1     175.022 168.380 170.743  1.00  0.00     0.012 C 
ATOM      7  C   UNL     1     173.819 168.271 171.740  1.00  0.00     0.002 C 
ATOM      8  C   UNL     1     173.556 169.655 172.490  1.00  0.00    -0.020 C 
ATOM      9  C   UNL     1     172.165 169.634 173.173  1.00  0.00     0.008 C 
ATOM     10  C   UNL     1     171.751 168.252 173.672  1.00  0.00     0.005 C 
ATOM     11  C   UNL     1     171.586 167.162 172.552  1.00  0.00     0.002 C 
ATOM     12  C   UNL     1     172.534 167.422 171.284  1.00  0.00    -0.026 C 
ATOM     13  C   UNL     1     171.757 168.108 170.122  1.00  0.00     0.008 C 
ATOM     14  C   UNL     1     170.336 167.550 169.848  1.00  0.00     0.008 C 
ATOM     15  C   UNL     1     169.389 167.520 171.101  1.00  0.00    -0.024 C 
ATOM     16  C   UNL     1     170.083 166.642 172.234  1.00  0.00    -0.024 C 
ATOM     17  C   UNL     1     169.149 166.639 173.498  1.00  0.00     0.008 C 
ATOM     18  C   UNL     1     167.717 166.110 173.250  1.00  0.00     0.007 C 
ATOM     19  C   UNL     1     166.972 166.728 172.022  1.00  0.00    -0.029 C 
ATOM     20  C   UNL     1     167.923 166.964 170.755  1.00  0.00     0.002 C 
ATOM     21  C   UNL     1     167.826 165.765 169.758  1.00  0.00     0.011 C 
ATOM     22  C   UNL     1     166.386 165.590 169.169  1.00  0.00    -0.035 C 
ATOM     23  C   UNL     1     165.298 165.976 170.216  1.00  0.00     0.007 C 
ATOM     24  C   UNL     1     165.795 165.758 171.649  1.00  0.00     0.007 C 
ATOM     25  C   UNL     1     166.213 166.470 167.910  1.00  0.00     0.011 C 
ATOM     26  C   UNL     1     166.196 164.115 168.746  1.00  0.00     0.011 C 
ATOM     27  C   UNL     1     166.322 168.064 172.488  1.00  0.00     0.011 C 
ATOM     28  C   UNL     1     170.205 165.121 171.819  1.00  0.00     0.012 C 
ATOM     29  C   UNL     1     169.188 169.030 171.523  1.00  0.00     0.012 C 
ATOM     30  C   UNL     1     173.072 166.055 170.741  1.00  0.00     0.012 C 
ATOM     31  C   UNL     1     174.642 169.818 173.601  1.00  0.00     0.012 C 
ENDROOT
TORSDOF 0
ENDMDL
MODEL 7
REMARK VINA RESULT:    -4.610      5.457      9.024
REMARK INTER + INTRA:          -4.610
REMARK INTER:                  -4.610
REMARK INTRA:                   0.000
REMARK UNBOUND:                 0.000
REMARK SMILES C[C@H]1C(=O)CC[C@@H]2[C@]3(C)CC[C@@]4(C)[C@H]5CC(C)(C)CC[C@@]5(C)CC[C@]4(C)[C@@H]3CC[C@@]21C
REMARK SMILES IDX 1 1 2 2 3 3 4 4 5 5 6 6 7 7 30 8 29 9 28 10 27 11 8 12 10 13
REMARK SMILES IDX 11 14 12 15 25 16 24 17 23 18 21 19 14 20 15 21 16 22 19 23
REMARK SMILES IDX 20 24 17 25 18 26 22 27 26 28 13 29 9 30 31 31
REMARK H PARENT
REMARK Flexibility Score: inf
ROOT
ATOM      1  C   UNL     1     174.239 172.054 174.227  1.00  0.00     0.016 C 
ATOM      2  C   UNL     1     173.980 171.576 172.780  1.00  0.00     0.059 C 
ATOM      3  C   UNL     1     174.394 172.617 171.772  1.00  0.00     0.136 C 
ATOM      4  O   UNL     1     174.851 173.700 172.112  1.00  0.00    -0.299 OA
ATOM      5  C   UNL     1     174.196 172.311 170.328  1.00  0.00     0.076 C 
ATOM      6  C   UNL     1     174.935 171.022 169.996  1.00  0.00     0.012 C 
ATOM      7  C   UNL     1     174.529 169.798 170.886  1.00  0.00     0.002 C 
ATOM      8  C   UNL     1     174.603 170.157 172.439  1.00  0.00    -0.020 C 
ATOM      9  C   UNL     1     173.857 169.083 173.269  1.00  0.00     0.008 C 
ATOM     10  C   UNL     1     173.938 167.682 172.669  1.00  0.00     0.005 C 
ATOM     11  C   UNL     1     173.275 167.525 171.253  1.00  0.00     0.002 C 
ATOM     12  C   UNL     1     173.304 168.882 170.396  1.00  0.00    -0.026 C 
ATOM     13  C   UNL     1     171.942 169.632 170.470  1.00  0.00     0.008 C 
ATOM     14  C   UNL     1     170.680 168.738 170.348  1.00  0.00     0.008 C 
ATOM     15  C   UNL     1     170.620 167.543 171.365  1.00  0.00    -0.024 C 
ATOM     16  C   UNL     1     171.917 166.643 171.159  1.00  0.00    -0.024 C 
ATOM     17  C   UNL     1     171.872 165.465 172.198  1.00  0.00     0.008 C 
ATOM     18  C   UNL     1     170.613 164.570 172.117  1.00  0.00     0.007 C 
ATOM     19  C   UNL     1     169.246 165.329 172.090  1.00  0.00    -0.029 C 
ATOM     20  C   UNL     1     169.281 166.670 171.216  1.00  0.00     0.002 C 
ATOM     21  C   UNL     1     168.754 166.404 169.770  1.00  0.00     0.011 C 
ATOM     22  C   UNL     1     167.261 165.935 169.752  1.00  0.00    -0.035 C 
ATOM     23  C   UNL     1     166.927 165.067 171.003  1.00  0.00     0.007 C 
ATOM     24  C   UNL     1     168.168 164.336 171.526  1.00  0.00     0.007 C 
ATOM     25  C   UNL     1     166.317 167.160 169.719  1.00  0.00     0.011 C 
ATOM     26  C   UNL     1     167.011 165.111 168.468  1.00  0.00     0.011 C 
ATOM     27  C   UNL     1     168.847 165.633 173.564  1.00  0.00     0.011 C 
ATOM     28  C   UNL     1     171.932 165.933 169.745  1.00  0.00     0.012 C 
ATOM     29  C   UNL     1     170.546 168.204 172.799  1.00  0.00     0.012 C 
ATOM     30  C   UNL     1     173.571 168.548 168.890  1.00  0.00     0.012 C 
ATOM     31  C   UNL     1     176.105 170.147 172.867  1.00  0.00     0.012 C 
ENDROOT
TORSDOF 0
ENDMDL
MODEL 8
REMARK VINA RESULT:    -4.588      6.693     12.319
REMARK INTER + INTRA:          -4.588
REMARK INTER:                  -4.588
REMARK INTRA:                   0.000
REMARK UNBOUND:                 0.000
REMARK SMILES C[C@H]1C(=O)CC[C@@H]2[C@]3(C)CC[C@@]4(C)[C@H]5CC(C)(C)CC[C@@]5(C)CC[C@]4(C)[C@@H]3CC[C@@]21C
REMARK SMILES IDX 1 1 2 2 3 3 4 4 5 5 6 6 7 7 30 8 29 9 28 10 27 11 8 12 10 13
REMARK SMILES IDX 11 14 12 15 25 16 24 17 23 18 21 19 14 20 15 21 16 22 19 23
REMARK SMILES IDX 20 24 17 25 18 26 22 27 26 28 13 29 9 30 31 31
REMARK H PARENT
REMARK Flexibility Score: inf
ROOT
ATOM      1  C   UNL     1     172.495 157.867 171.919  1.00  0.00     0.016 C 
ATOM      2  C   UNL     1     171.131 157.842 171.192  1.00  0.00     0.059 C 
ATOM      3  C   UNL     1     171.092 156.773 170.129  1.00  0.00     0.136 C 
ATOM      4  O   UNL     1     172.057 156.059 169.896  1.00  0.00    -0.299 OA
ATOM      5  C   UNL     1     169.845 156.629 169.328  1.00  0.00     0.076 C 
ATOM      6  C   UNL     1     168.680 156.384 170.277  1.00  0.00     0.012 C 
ATOM      7  C   UNL     1     168.508 157.481 171.382  1.00  0.00     0.002 C 
ATOM      8  C   UNL     1     169.877 157.745 172.158  1.00  0.00    -0.020 C 
ATOM      9  C   UNL     1     169.782 159.062 172.969  1.00  0.00     0.008 C 
ATOM     10  C   UNL     1     168.381 159.353 173.500  1.00  0.00     0.005 C 
ATOM     11  C   UNL     1     167.282 159.564 172.397  1.00  0.00     0.002 C 
ATOM     12  C   UNL     1     167.590 158.755 171.045  1.00  0.00    -0.026 C 
ATOM     13  C   UNL     1     168.232 159.673 169.965  1.00  0.00     0.008 C 
ATOM     14  C   UNL     1     167.598 161.082 169.824  1.00  0.00     0.008 C 
ATOM     15  C   UNL     1     167.519 161.904 171.159  1.00  0.00    -0.024 C 
ATOM     16  C   UNL     1     166.682 161.061 172.220  1.00  0.00    -0.024 C 
ATOM     17  C   UNL     1     166.630 161.870 173.566  1.00  0.00     0.008 C 
ATOM     18  C   UNL     1     166.024 163.289 173.452  1.00  0.00     0.007 C 
ATOM     19  C   UNL     1     166.600 164.177 172.301  1.00  0.00    -0.029 C 
ATOM     20  C   UNL     1     166.884 163.364 170.951  1.00  0.00     0.002 C 
ATOM     21  C   UNL     1     165.681 163.490 169.963  1.00  0.00     0.011 C 
ATOM     22  C   UNL     1     165.427 164.967 169.512  1.00  0.00    -0.035 C 
ATOM     23  C   UNL     1     165.756 165.971 170.657  1.00  0.00     0.007 C 
ATOM     24  C   UNL     1     165.567 165.331 172.037  1.00  0.00     0.007 C 
ATOM     25  C   UNL     1     166.294 165.305 168.277  1.00  0.00     0.011 C 
ATOM     26  C   UNL     1     163.943 165.117 169.103  1.00  0.00     0.011 C 
ATOM     27  C   UNL     1     167.900 164.852 172.831  1.00  0.00     0.011 C 
ATOM     28  C   UNL     1     165.168 160.897 171.789  1.00  0.00     0.012 C 
ATOM     29  C   UNL     1     169.017 162.145 171.604  1.00  0.00     0.012 C 
ATOM     30  C   UNL     1     166.254 158.198 170.449  1.00  0.00     0.012 C 
ATOM     31  C   UNL     1     170.099 156.570 173.162  1.00  0.00     0.012 C 
ENDROOT
TORSDOF 0
ENDMDL
MODEL 9
REMARK VINA RESULT:    -4.549      6.248      9.558
REMARK INTER + INTRA:          -4.549
REMARK INTER:                  -4.549
REMARK INTRA:                   0.000
REMARK UNBOUND:                 0.000
REMARK SMILES C[C@H]1C(=O)CC[C@@H]2[C@]3(C)CC[C@@]4(C)[C@H]5CC(C)(C)CC[C@@]5(C)CC[C@]4(C)[C@@H]3CC[C@@]21C
REMARK SMILES IDX 1 1 2 2 3 3 4 4 5 5 6 6 7 7 30 8 29 9 28 10 27 11 8 12 10 13
REMARK SMILES IDX 11 14 12 15 25 16 24 17 23 18 21 19 14 20 15 21 16 22 19 23
REMARK SMILES IDX 20 24 17 25 18 26 22 27 26 28 13 29 9 30 31 31
REMARK H PARENT
REMARK Flexibility Score: inf
ROOT
ATOM      1  C   UNL     1     157.833 158.746 171.844  1.00  0.00     0.016 C 
ATOM      2  C   UNL     1     157.797 160.138 171.174  1.00  0.00     0.059 C 
ATOM      3  C   UNL     1     156.711 160.220 170.131  1.00  0.00     0.136 C 
ATOM      4  O   UNL     1     155.992 159.265 169.871  1.00  0.00    -0.299 OA
ATOM      5  C   UNL     1     156.554 161.499 169.383  1.00  0.00     0.076 C 
ATOM      6  C   UNL     1     156.325 162.625 170.383  1.00  0.00     0.012 C 
ATOM      7  C   UNL     1     157.439 162.752 171.476  1.00  0.00     0.002 C 
ATOM      8  C   UNL     1     157.716 161.353 172.191  1.00  0.00    -0.020 C 
ATOM      9  C   UNL     1     159.047 161.415 172.984  1.00  0.00     0.008 C 
ATOM     10  C   UNL     1     159.347 162.794 173.566  1.00  0.00     0.005 C 
ATOM     11  C   UNL     1     159.539 163.936 172.505  1.00  0.00     0.002 C 
ATOM     12  C   UNL     1     158.708 163.683 171.156  1.00  0.00    -0.026 C 
ATOM     13  C   UNL     1     159.608 163.086 170.035  1.00  0.00     0.008 C 
ATOM     14  C   UNL     1     161.015 163.725 169.897  1.00  0.00     0.008 C 
ATOM     15  C   UNL     1     161.858 163.751 171.221  1.00  0.00    -0.024 C 
ATOM     16  C   UNL     1     161.033 164.544 172.328  1.00  0.00    -0.024 C 
ATOM     17  C   UNL     1     161.865 164.541 173.662  1.00  0.00     0.008 C 
ATOM     18  C   UNL     1     163.282 165.151 173.549  1.00  0.00     0.007 C 
ATOM     19  C   UNL     1     164.151 164.623 172.361  1.00  0.00    -0.029 C 
ATOM     20  C   UNL     1     163.315 164.393 171.014  1.00  0.00     0.002 C 
ATOM     21  C   UNL     1     163.426 165.636 170.074  1.00  0.00     0.011 C 
ATOM     22  C   UNL     1     164.895 165.908 169.609  1.00  0.00    -0.035 C 
ATOM     23  C   UNL     1     165.918 165.533 170.724  1.00  0.00     0.007 C 
ATOM     24  C   UNL     1     165.301 165.666 172.121  1.00  0.00     0.007 C 
ATOM     25  C   UNL     1     165.212 165.092 168.335  1.00  0.00     0.011 C 
ATOM     26  C   UNL     1     165.039 167.407 169.259  1.00  0.00     0.011 C 
ATOM     27  C   UNL     1     164.834 163.303 172.827  1.00  0.00     0.011 C 
ATOM     28  C   UNL     1     160.863 166.073 171.962  1.00  0.00     0.012 C 
ATOM     29  C   UNL     1     162.107 162.236 171.600  1.00  0.00     0.012 C 
ATOM     30  C   UNL     1     158.142 165.042 170.624  1.00  0.00     0.012 C 
ATOM     31  C   UNL     1     156.558 161.089 173.205  1.00  0.00     0.012 C 
ENDROOT
TORSDOF 0
ENDMDL
