MODEL 1
REMARK VINA RESULT:    11.964      0.000      0.000
REMARK INTER + INTRA:          25.619
REMARK INTER:                  27.351
REMARK INTRA:                  -1.732
REMARK UNBOUND:                -1.732
REMARK SMILES CCCCCCCCCCCCCCCCCCCCCCCC(=O)[O-]
REMARK SMILES IDX 13 1 14 2 15 3 16 4 17 5 18 6 19 7 20 8 21 9 22 10 23 11
REMARK SMILES IDX 24 12 25 13 26 14 12 15 11 16 10 17 9 18 8 19 7 20 6 21 5 22
REMARK SMILES IDX 4 23 3 24 2 25 1 26
REMARK H PARENT
REMARK Flexibility Score: inf
ROOT
ATOM      1  C   UNL     1      34.951  12.912  41.072  1.00  0.00     0.000 C 
ENDROOT
BRANCH   1   2
ATOM      2  C   UNL     1      33.642  12.356  40.478  1.00  0.00     0.000 C 
BRANCH   2   3
ATOM      3  C   UNL     1      32.867  11.388  41.394  1.00  0.00     0.000 C 
BRANCH   3   4
ATOM      4  C   UNL     1      32.619   9.991  40.799  1.00  0.00     0.000 C 
BRANCH   4   5
ATOM      5  C   UNL     1      33.561   9.665  39.630  1.00  0.00     0.000 C 
BRANCH   5   6
ATOM      6  C   UNL     1      34.439   8.448  39.954  1.00  0.00     0.000 C 
BRANCH   6   7
ATOM      7  C   UNL     1      33.807   7.509  40.997  1.00  0.00     0.000 C 
BRANCH   7   8
ATOM      8  C   UNL     1      34.218   6.029  40.876  1.00  0.00     0.000 C 
BRANCH   8   9
ATOM      9  C   UNL     1      33.075   5.061  41.210  1.00  0.00     0.000 C 
BRANCH   9  10
ATOM     10  C   UNL     1      31.772   5.826  41.489  1.00  0.00     0.006 C 
BRANCH  10  11
ATOM     11  C   UNL     1      30.600   4.886  41.798  1.00  0.00     0.053 C 
BRANCH  11  12
ATOM     12  C   UNL     1      29.351   5.642  42.135  1.00  0.00     0.041 C 
ATOM     13  O   UNL     1      29.208   6.832  41.748  1.00  0.00    -0.550 OA
ATOM     14  O   UNL     1      28.356   5.040  42.896  1.00  0.00    -0.550 OA
ENDBRANCH  11  12
ENDBRANCH  10  11
ENDBRANCH   9  10
ENDBRANCH   8   9
ENDBRANCH   7   8
ENDBRANCH   6   7
ENDBRANCH   5   6
ENDBRANCH   4   5
ENDBRANCH   3   4
ENDBRANCH   2   3
ENDBRANCH   1   2
BRANCH   1  15
ATOM     15  C   UNL     1      34.901  13.220  42.580  1.00  0.00     0.000 C 
BRANCH  15  16
ATOM     16  C   UNL     1      36.150  13.961  43.078  1.00  0.00     0.000 C 
BRANCH  16  17
ATOM     17  C   UNL     1      35.763  15.231  43.850  1.00  0.00     0.000 C 
BRANCH  17  18
ATOM     18  C   UNL     1      34.422  15.830  43.387  1.00  0.00    -0.000 C 
BRANCH  18  19
ATOM     19  C   UNL     1      34.433  17.351  43.149  1.00  0.00    -0.000 C 
BRANCH  19  20
ATOM     20  C   UNL     1      33.679  17.763  41.873  1.00  0.00    -0.000 C 
BRANCH  20  21
ATOM     21  C   UNL     1      33.966  16.825  40.690  1.00  0.00    -0.000 C 
BRANCH  21  22
ATOM     22  C   UNL     1      34.252  17.586  39.386  1.00  0.00    -0.000 C 
BRANCH  22  23
ATOM     23  C   UNL     1      33.125  18.578  39.070  1.00  0.00    -0.000 C 
BRANCH  23  24
ATOM     24  C   UNL     1      32.282  18.091  37.882  1.00  0.00    -0.000 C 
BRANCH  24  25
ATOM     25  C   UNL     1      30.956  18.857  37.746  1.00  0.00    -0.003 C 
ATOM     26  C   UNL     1      31.112  20.356  37.999  1.00  0.00     0.004 C 
ENDBRANCH  24  25
ENDBRANCH  23  24
ENDBRANCH  22  23
ENDBRANCH  21  22
ENDBRANCH  20  21
ENDBRANCH  19  20
ENDBRANCH  18  19
ENDBRANCH  17  18
ENDBRANCH  16  17
ENDBRANCH  15  16
ENDBRANCH   1  15
TORSDOF 22
ENDMDL
MODEL 2
REMARK VINA RESULT:    12.183      4.527     10.318
REMARK INTER + INTRA:          26.119
REMARK INTER:                  27.577
REMARK INTRA:                  -1.458
REMARK UNBOUND:                -1.732
REMARK SMILES CCCCCCCCCCCCCCCCCCCCCCCC(=O)[O-]
REMARK SMILES IDX 13 1 14 2 15 3 16 4 17 5 18 6 19 7 20 8 21 9 22 10 23 11
REMARK SMILES IDX 24 12 25 13 26 14 12 15 11 16 10 17 9 18 8 19 7 20 6 21 5 22
REMARK SMILES IDX 4 23 3 24 2 25 1 26
REMARK H PARENT
REMARK Flexibility Score: inf
ROOT
ATOM      1  C   UNL     1      34.780  13.533  40.987  1.00  0.00     0.000 C 
ENDROOT
BRANCH   1   2
ATOM      2  C   UNL     1      35.093  13.153  42.448  1.00  0.00     0.000 C 
BRANCH   2   3
ATOM      3  C   UNL     1      36.358  13.809  43.037  1.00  0.00     0.000 C 
BRANCH   3   4
ATOM      4  C   UNL     1      36.093  14.983  43.995  1.00  0.00     0.000 C 
BRANCH   4   5
ATOM      5  C   UNL     1      34.716  15.629  43.781  1.00  0.00     0.000 C 
BRANCH   5   6
ATOM      6  C   UNL     1      34.857  17.089  43.325  1.00  0.00     0.000 C 
BRANCH   6   7
ATOM      7  C   UNL     1      33.644  17.589  42.520  1.00  0.00     0.000 C 
BRANCH   7   8
ATOM      8  C   UNL     1      33.593  17.113  41.056  1.00  0.00     0.000 C 
BRANCH   8   9
ATOM      9  C   UNL     1      34.446  17.977  40.117  1.00  0.00     0.000 C 
BRANCH   9  10
ATOM     10  C   UNL     1      33.691  18.280  38.814  1.00  0.00     0.006 C 
BRANCH  10  11
ATOM     11  C   UNL     1      32.248  18.734  39.071  1.00  0.00     0.053 C 
BRANCH  11  12
ATOM     12  C   UNL     1      31.437  18.755  37.811  1.00  0.00     0.041 C 
ATOM     13  O   UNL     1      31.061  19.851  37.318  1.00  0.00    -0.550 OA
ATOM     14  O   UNL     1      31.077  17.562  37.195  1.00  0.00    -0.550 OA
ENDBRANCH  11  12
ENDBRANCH  10  11
ENDBRANCH   9  10
ENDBRANCH   8   9
ENDBRANCH   7   8
ENDBRANCH   6   7
ENDBRANCH   5   6
ENDBRANCH   4   5
ENDBRANCH   3   4
ENDBRANCH   2   3
ENDBRANCH   1   2
BRANCH   1  15
ATOM     15  C   UNL     1      33.915  12.513  40.224  1.00  0.00     0.000 C 
BRANCH  15  16
ATOM     16  C   UNL     1      33.460  11.340  41.104  1.00  0.00     0.000 C 
BRANCH  16  17
ATOM     17  C   UNL     1      34.016  10.010  40.575  1.00  0.00     0.000 C 
BRANCH  17  18
ATOM     18  C   UNL     1      33.134   9.382  39.480  1.00  0.00    -0.000 C 
BRANCH  18  19
ATOM     19  C   UNL     1      31.646   9.775  39.534  1.00  0.00    -0.000 C 
BRANCH  19  20
ATOM     20  C   UNL     1      30.967   9.738  38.154  1.00  0.00    -0.000 C 
BRANCH  20  21
ATOM     21  C   UNL     1      29.808   8.730  38.095  1.00  0.00    -0.000 C 
BRANCH  21  22
ATOM     22  C   UNL     1      28.512   9.349  37.549  1.00  0.00    -0.000 C 
BRANCH  22  23
ATOM     23  C   UNL     1      27.692   8.312  36.771  1.00  0.00    -0.000 C 
BRANCH  23  24
ATOM     24  C   UNL     1      28.485   7.009  36.589  1.00  0.00    -0.000 C 
BRANCH  24  25
ATOM     25  C   UNL     1      27.588   5.820  36.211  1.00  0.00    -0.003 C 
ATOM     26  C   UNL     1      27.698   4.659  37.198  1.00  0.00     0.004 C 
ENDBRANCH  24  25
ENDBRANCH  23  24
ENDBRANCH  22  23
ENDBRANCH  21  22
ENDBRANCH  20  21
ENDBRANCH  19  20
ENDBRANCH  18  19
ENDBRANCH  17  18
ENDBRANCH  16  17
ENDBRANCH  15  16
ENDBRANCH   1  15
TORSDOF 22
ENDMDL
MODEL 3
REMARK VINA RESULT:    12.421      1.429      2.103
REMARK INTER + INTRA:          26.665
REMARK INTER:                  28.110
REMARK INTRA:                  -1.445
REMARK UNBOUND:                -1.732
REMARK SMILES CCCCCCCCCCCCCCCCCCCCCCCC(=O)[O-]
REMARK SMILES IDX 13 1 14 2 15 3 16 4 17 5 18 6 19 7 20 8 21 9 22 10 23 11
REMARK SMILES IDX 24 12 25 13 26 14 12 15 11 16 10 17 9 18 8 19 7 20 6 21 5 22
REMARK SMILES IDX 4 23 3 24 2 25 1 26
REMARK H PARENT
REMARK Flexibility Score: inf
ROOT
ATOM      1  C   UNL     1      35.146  13.598  42.692  1.00  0.00     0.000 C 
ENDROOT
BRANCH   1   2
ATOM      2  C   UNL     1      35.366  12.930  41.321  1.00  0.00     0.000 C 
BRANCH   2   3
ATOM      3  C   UNL     1      34.345  13.319  40.233  1.00  0.00     0.000 C 
BRANCH   3   4
ATOM      4  C   UNL     1      33.066  12.463  40.209  1.00  0.00     0.000 C 
BRANCH   4   5
ATOM      5  C   UNL     1      33.194  11.176  41.038  1.00  0.00     0.000 C 
BRANCH   5   6
ATOM      6  C   UNL     1      33.787  10.037  40.197  1.00  0.00     0.000 C 
BRANCH   6   7
ATOM      7  C   UNL     1      32.768   8.925  39.885  1.00  0.00     0.000 C 
BRANCH   7   8
ATOM      8  C   UNL     1      31.622   8.787  40.905  1.00  0.00     0.000 C 
BRANCH   8   9
ATOM      9  C   UNL     1      30.319   8.277  40.275  1.00  0.00     0.000 C 
BRANCH   9  10
ATOM     10  C   UNL     1      29.287   7.927  41.358  1.00  0.00     0.006 C 
BRANCH  10  11
ATOM     11  C   UNL     1      28.834   6.464  41.279  1.00  0.00     0.053 C 
BRANCH  11  12
ATOM     12  C   UNL     1      29.636   5.581  42.186  1.00  0.00     0.041 C 
ATOM     13  O   UNL     1      29.124   5.127  43.243  1.00  0.00    -0.550 OA
ATOM     14  O   UNL     1      30.956   5.279  41.874  1.00  0.00    -0.550 OA
ENDBRANCH  11  12
ENDBRANCH  10  11
ENDBRANCH   9  10
ENDBRANCH   8   9
ENDBRANCH   7   8
ENDBRANCH   6   7
ENDBRANCH   5   6
ENDBRANCH   4   5
ENDBRANCH   3   4
ENDBRANCH   2   3
ENDBRANCH   1   2
BRANCH   1  15
ATOM     15  C   UNL     1      36.429  14.088  43.388  1.00  0.00     0.000 C 
BRANCH  15  16
ATOM     16  C   UNL     1      36.231  15.414  44.137  1.00  0.00     0.000 C 
BRANCH  16  17
ATOM     17  C   UNL     1      34.802  15.944  43.946  1.00  0.00     0.000 C 
BRANCH  17  18
ATOM     18  C   UNL     1      34.762  17.376  43.381  1.00  0.00    -0.000 C 
BRANCH  18  19
ATOM     19  C   UNL     1      33.542  17.696  42.497  1.00  0.00    -0.000 C 
BRANCH  19  20
ATOM     20  C   UNL     1      33.711  17.212  41.047  1.00  0.00    -0.000 C 
BRANCH  20  21
ATOM     21  C   UNL     1      34.461  18.228  40.170  1.00  0.00    -0.000 C 
BRANCH  21  22
ATOM     22  C   UNL     1      33.890  18.315  38.746  1.00  0.00    -0.000 C 
BRANCH  22  23
ATOM     23  C   UNL     1      32.429  17.850  38.710  1.00  0.00    -0.000 C 
BRANCH  23  24
ATOM     24  C   UNL     1      31.809  18.091  37.325  1.00  0.00    -0.000 C 
BRANCH  24  25
ATOM     25  C   UNL     1      31.069  19.434  37.236  1.00  0.00    -0.003 C 
ATOM     26  C   UNL     1      31.020  20.172  38.574  1.00  0.00     0.004 C 
ENDBRANCH  24  25
ENDBRANCH  23  24
ENDBRANCH  22  23
ENDBRANCH  21  22
ENDBRANCH  20  21
ENDBRANCH  19  20
ENDBRANCH  18  19
ENDBRANCH  17  18
ENDBRANCH  16  17
ENDBRANCH  15  16
ENDBRANCH   1  15
TORSDOF 22
ENDMDL
MODEL 4
REMARK VINA RESULT:    12.513      3.617     10.563
REMARK INTER + INTRA:          26.875
REMARK INTER:                  28.625
REMARK INTRA:                  -1.750
REMARK UNBOUND:                -1.732
REMARK SMILES CCCCCCCCCCCCCCCCCCCCCCCC(=O)[O-]
REMARK SMILES IDX 13 1 14 2 15 3 16 4 17 5 18 6 19 7 20 8 21 9 22 10 23 11
REMARK SMILES IDX 24 12 25 13 26 14 12 15 11 16 10 17 9 18 8 19 7 20 6 21 5 22
REMARK SMILES IDX 4 23 3 24 2 25 1 26
REMARK H PARENT
REMARK Flexibility Score: inf
ROOT
ATOM      1  C   UNL     1      34.256  13.282  40.409  1.00  0.00     0.000 C 
ENDROOT
BRANCH   1   2
ATOM      2  C   UNL     1      35.247  12.826  41.497  1.00  0.00     0.000 C 
BRANCH   2   3
ATOM      3  C   UNL     1      35.079  13.516  42.866  1.00  0.00     0.000 C 
BRANCH   3   4
ATOM      4  C   UNL     1      36.362  14.145  43.437  1.00  0.00     0.000 C 
BRANCH   4   5
ATOM      5  C   UNL     1      36.185  15.624  43.812  1.00  0.00     0.000 C 
BRANCH   5   6
ATOM      6  C   UNL     1      34.698  16.000  43.883  1.00  0.00     0.000 C 
BRANCH   6   7
ATOM      7  C   UNL     1      34.344  17.221  43.014  1.00  0.00     0.000 C 
BRANCH   7   8
ATOM      8  C   UNL     1      33.825  16.887  41.603  1.00  0.00     0.000 C 
BRANCH   8   9
ATOM      9  C   UNL     1      34.185  17.958  40.564  1.00  0.00     0.000 C 
BRANCH   9  10
ATOM     10  C   UNL     1      33.394  17.749  39.264  1.00  0.00     0.006 C 
BRANCH  10  11
ATOM     11  C   UNL     1      32.683  19.027  38.803  1.00  0.00     0.053 C 
BRANCH  11  12
ATOM     12  C   UNL     1      31.560  18.732  37.856  1.00  0.00     0.041 C 
ATOM     13  O   UNL     1      30.814  19.661  37.449  1.00  0.00    -0.550 OA
ATOM     14  O   UNL     1      31.324  17.426  37.442  1.00  0.00    -0.550 OA
ENDBRANCH  11  12
ENDBRANCH  10  11
ENDBRANCH   9  10
ENDBRANCH   8   9
ENDBRANCH   7   8
ENDBRANCH   6   7
ENDBRANCH   5   6
ENDBRANCH   4   5
ENDBRANCH   3   4
ENDBRANCH   2   3
ENDBRANCH   1   2
BRANCH   1  15
ATOM     15  C   UNL     1      33.200  12.234  40.012  1.00  0.00     0.000 C 
BRANCH  15  16
ATOM     16  C   UNL     1      32.909  11.227  41.135  1.00  0.00     0.000 C 
BRANCH  16  17
ATOM     17  C   UNL     1      32.834   9.796  40.583  1.00  0.00     0.000 C 
BRANCH  17  18
ATOM     18  C   UNL     1      34.032   9.435  39.685  1.00  0.00    -0.000 C 
BRANCH  18  19
ATOM     19  C   UNL     1      34.379   7.936  39.631  1.00  0.00    -0.000 C 
BRANCH  19  20
ATOM     20  C   UNL     1      34.046   7.197  40.938  1.00  0.00    -0.000 C 
BRANCH  20  21
ATOM     21  C   UNL     1      33.558   5.760  40.695  1.00  0.00    -0.000 C 
BRANCH  21  22
ATOM     22  C   UNL     1      32.581   5.276  41.778  1.00  0.00    -0.000 C 
BRANCH  22  23
ATOM     23  C   UNL     1      31.184   5.035  41.190  1.00  0.00    -0.000 C 
BRANCH  23  24
ATOM     24  C   UNL     1      30.125   4.962  42.301  1.00  0.00    -0.000 C 
BRANCH  24  25
ATOM     25  C   UNL     1      29.066   6.069  42.180  1.00  0.00    -0.003 C 
ATOM     26  C   UNL     1      29.499   7.202  41.251  1.00  0.00     0.004 C 
ENDBRANCH  24  25
ENDBRANCH  23  24
ENDBRANCH  22  23
ENDBRANCH  21  22
ENDBRANCH  20  21
ENDBRANCH  19  20
ENDBRANCH  18  19
ENDBRANCH  17  18
ENDBRANCH  16  17
ENDBRANCH  15  16
ENDBRANCH   1  15
TORSDOF 22
ENDMDL
MODEL 5
REMARK VINA RESULT:    12.525      2.958      3.402
REMARK INTER + INTRA:          26.902
REMARK INTER:                  28.366
REMARK INTRA:                  -1.464
REMARK UNBOUND:                -1.732
REMARK SMILES CCCCCCCCCCCCCCCCCCCCCCCC(=O)[O-]
REMARK SMILES IDX 13 1 14 2 15 3 16 4 17 5 18 6 19 7 20 8 21 9 22 10 23 11
REMARK SMILES IDX 24 12 25 13 26 14 12 15 11 16 10 17 9 18 8 19 7 20 6 21 5 22
REMARK SMILES IDX 4 23 3 24 2 25 1 26
REMARK H PARENT
REMARK Flexibility Score: inf
ROOT
ATOM      1  C   UNL     1      35.281  12.943  41.155  1.00  0.00     0.000 C 
ENDROOT
BRANCH   1   2
ATOM      2  C   UNL     1      34.037  12.707  40.275  1.00  0.00     0.000 C 
BRANCH   2   3
ATOM      3  C   UNL     1      33.158  11.511  40.693  1.00  0.00     0.000 C 
BRANCH   3   4
ATOM      4  C   UNL     1      33.831  10.134  40.559  1.00  0.00     0.000 C 
BRANCH   4   5
ATOM      5  C   UNL     1      33.085   9.197  39.597  1.00  0.00     0.000 C 
BRANCH   5   6
ATOM      6  C   UNL     1      31.566   9.297  39.797  1.00  0.00     0.000 C 
BRANCH   6   7
ATOM      7  C   UNL     1      30.797   9.512  38.480  1.00  0.00     0.000 C 
BRANCH   7   8
ATOM      8  C   UNL     1      29.617   8.549  38.251  1.00  0.00     0.000 C 
BRANCH   8   9
ATOM      9  C   UNL     1      28.519   9.150  37.362  1.00  0.00     0.000 C 
BRANCH   9  10
ATOM     10  C   UNL     1      27.596   8.051  36.814  1.00  0.00     0.006 C 
BRANCH  10  11
ATOM     11  C   UNL     1      28.361   6.766  36.471  1.00  0.00     0.053 C 
BRANCH  11  12
ATOM     12  C   UNL     1      27.582   5.538  36.834  1.00  0.00     0.041 C 
ATOM     13  O   UNL     1      28.181   4.456  37.069  1.00  0.00    -0.550 OA
ATOM     14  O   UNL     1      26.195   5.585  36.890  1.00  0.00    -0.550 OA
ENDBRANCH  11  12
ENDBRANCH  10  11
ENDBRANCH   9  10
ENDBRANCH   8   9
ENDBRANCH   7   8
ENDBRANCH   6   7
ENDBRANCH   5   6
ENDBRANCH   4   5
ENDBRANCH   3   4
ENDBRANCH   2   3
ENDBRANCH   1   2
BRANCH   1  15
ATOM     15  C   UNL     1      34.982  13.224  42.639  1.00  0.00     0.000 C 
BRANCH  15  16
ATOM     16  C   UNL     1      36.187  13.811  43.388  1.00  0.00     0.000 C 
BRANCH  16  17
ATOM     17  C   UNL     1      36.029  15.326  43.580  1.00  0.00     0.000 C 
BRANCH  17  18
ATOM     18  C   UNL     1      34.575  15.805  43.411  1.00  0.00    -0.000 C 
BRANCH  18  19
ATOM     19  C   UNL     1      34.391  17.333  43.374  1.00  0.00    -0.000 C 
BRANCH  19  20
ATOM     20  C   UNL     1      33.644  17.816  42.119  1.00  0.00    -0.000 C 
BRANCH  20  21
ATOM     21  C   UNL     1      33.842  16.878  40.917  1.00  0.00    -0.000 C 
BRANCH  21  22
ATOM     22  C   UNL     1      34.153  17.638  39.618  1.00  0.00    -0.000 C 
BRANCH  22  23
ATOM     23  C   UNL     1      32.977  18.535  39.212  1.00  0.00    -0.000 C 
BRANCH  23  24
ATOM     24  C   UNL     1      32.229  17.948  38.004  1.00  0.00    -0.000 C 
BRANCH  24  25
ATOM     25  C   UNL     1      31.142  18.892  37.468  1.00  0.00    -0.003 C 
ATOM     26  C   UNL     1      31.108  20.233  38.201  1.00  0.00     0.004 C 
ENDBRANCH  24  25
ENDBRANCH  23  24
ENDBRANCH  22  23
ENDBRANCH  21  22
ENDBRANCH  20  21
ENDBRANCH  19  20
ENDBRANCH  18  19
ENDBRANCH  17  18
ENDBRANCH  16  17
ENDBRANCH  15  16
ENDBRANCH   1  15
TORSDOF 22
ENDMDL
MODEL 6
REMARK VINA RESULT:    12.993      3.899     10.964
REMARK INTER + INTRA:          27.971
REMARK INTER:                  29.209
REMARK INTRA:                  -1.238
REMARK UNBOUND:                -1.732
REMARK SMILES CCCCCCCCCCCCCCCCCCCCCCCC(=O)[O-]
REMARK SMILES IDX 13 1 14 2 15 3 16 4 17 5 18 6 19 7 20 8 21 9 22 10 23 11
REMARK SMILES IDX 24 12 25 13 26 14 12 15 11 16 10 17 9 18 8 19 7 20 6 21 5 22
REMARK SMILES IDX 4 23 3 24 2 25 1 26
REMARK H PARENT
REMARK Flexibility Score: inf
ROOT
ATOM      1  C   UNL     1      34.476  13.247  40.280  1.00  0.00     0.000 C 
ENDROOT
BRANCH   1   2
ATOM      2  C   UNL     1      35.440  12.918  41.436  1.00  0.00     0.000 C 
BRANCH   2   3
ATOM      3  C   UNL     1      35.124  13.620  42.772  1.00  0.00     0.000 C 
BRANCH   3   4
ATOM      4  C   UNL     1      36.336  14.264  43.468  1.00  0.00     0.000 C 
BRANCH   4   5
ATOM      5  C   UNL     1      35.985  15.579  44.179  1.00  0.00     0.000 C 
BRANCH   5   6
ATOM      6  C   UNL     1      34.597  16.081  43.756  1.00  0.00     0.000 C 
BRANCH   6   7
ATOM      7  C   UNL     1      34.656  17.329  42.856  1.00  0.00     0.000 C 
BRANCH   7   8
ATOM      8  C   UNL     1      33.482  17.476  41.869  1.00  0.00     0.000 C 
BRANCH   8   9
ATOM      9  C   UNL     1      33.942  17.698  40.421  1.00  0.00     0.000 C 
BRANCH   9  10
ATOM     10  C   UNL     1      32.965  18.616  39.671  1.00  0.00     0.006 C 
BRANCH  10  11
ATOM     11  C   UNL     1      32.661  18.109  38.255  1.00  0.00     0.053 C 
BRANCH  11  12
ATOM     12  C   UNL     1      31.395  18.697  37.711  1.00  0.00     0.041 C 
ATOM     13  O   UNL     1      30.491  17.946  37.260  1.00  0.00    -0.550 OA
ATOM     14  O   UNL     1      31.224  20.076  37.683  1.00  0.00    -0.550 OA
ENDBRANCH  11  12
ENDBRANCH  10  11
ENDBRANCH   9  10
ENDBRANCH   8   9
ENDBRANCH   7   8
ENDBRANCH   6   7
ENDBRANCH   5   6
ENDBRANCH   4   5
ENDBRANCH   3   4
ENDBRANCH   2   3
ENDBRANCH   1   2
BRANCH   1  15
ATOM     15  C   UNL     1      33.131  12.498  40.323  1.00  0.00     0.000 C 
BRANCH  15  16
ATOM     16  C   UNL     1      33.169  11.258  41.228  1.00  0.00     0.000 C 
BRANCH  16  17
ATOM     17  C   UNL     1      33.406   9.984  40.403  1.00  0.00     0.000 C 
BRANCH  17  18
ATOM     18  C   UNL     1      32.098   9.311  39.948  1.00  0.00    -0.000 C 
BRANCH  18  19
ATOM     19  C   UNL     1      31.535   8.255  40.915  1.00  0.00    -0.000 C 
BRANCH  19  20
ATOM     20  C   UNL     1      30.006   8.330  41.060  1.00  0.00    -0.000 C 
BRANCH  20  21
ATOM     21  C   UNL     1      29.342   6.944  41.046  1.00  0.00    -0.000 C 
BRANCH  21  22
ATOM     22  C   UNL     1      30.083   5.924  41.923  1.00  0.00    -0.000 C 
BRANCH  22  23
ATOM     23  C   UNL     1      29.102   4.937  42.568  1.00  0.00    -0.000 C 
BRANCH  23  24
ATOM     24  C   UNL     1      27.649   5.310  42.236  1.00  0.00    -0.000 C 
BRANCH  24  25
ATOM     25  C   UNL     1      26.803   4.092  41.835  1.00  0.00    -0.003 C 
ATOM     26  C   UNL     1      25.360   4.461  41.493  1.00  0.00     0.004 C 
ENDBRANCH  24  25
ENDBRANCH  23  24
ENDBRANCH  22  23
ENDBRANCH  21  22
ENDBRANCH  20  21
ENDBRANCH  19  20
ENDBRANCH  18  19
ENDBRANCH  17  18
ENDBRANCH  16  17
ENDBRANCH  15  16
ENDBRANCH   1  15
TORSDOF 22
ENDMDL
MODEL 7
REMARK VINA RESULT:    13.089      4.084     10.429
REMARK INTER + INTRA:          28.190
REMARK INTER:                  29.668
REMARK INTRA:                  -1.478
REMARK UNBOUND:                -1.732
REMARK SMILES CCCCCCCCCCCCCCCCCCCCCCCC(=O)[O-]
REMARK SMILES IDX 13 1 14 2 15 3 16 4 17 5 18 6 19 7 20 8 21 9 22 10 23 11
REMARK SMILES IDX 24 12 25 13 26 14 12 15 11 16 10 17 9 18 8 19 7 20 6 21 5 22
REMARK SMILES IDX 4 23 3 24 2 25 1 26
REMARK H PARENT
REMARK Flexibility Score: inf
ROOT
ATOM      1  C   UNL     1      35.042  13.512  42.249  1.00  0.00     0.000 C 
ENDROOT
BRANCH   1   2
ATOM      2  C   UNL     1      36.515  13.629  42.689  1.00  0.00     0.000 C 
BRANCH   2   3
ATOM      3  C   UNL     1      36.801  14.728  43.731  1.00  0.00     0.000 C 
BRANCH   3   4
ATOM      4  C   UNL     1      35.550  15.365  44.362  1.00  0.00     0.000 C 
BRANCH   4   5
ATOM      5  C   UNL     1      35.111  16.652  43.647  1.00  0.00     0.000 C 
BRANCH   5   6
ATOM      6  C   UNL     1      33.591  16.673  43.436  1.00  0.00     0.000 C 
BRANCH   6   7
ATOM      7  C   UNL     1      33.136  17.750  42.434  1.00  0.00     0.000 C 
BRANCH   7   8
ATOM      8  C   UNL     1      34.078  17.961  41.234  1.00  0.00     0.000 C 
BRANCH   8   9
ATOM      9  C   UNL     1      33.522  17.381  39.926  1.00  0.00     0.000 C 
BRANCH   9  10
ATOM     10  C   UNL     1      33.328  18.485  38.876  1.00  0.00     0.006 C 
BRANCH  10  11
ATOM     11  C   UNL     1      32.262  18.117  37.835  1.00  0.00     0.053 C 
BRANCH  11  12
ATOM     12  C   UNL     1      31.195  19.165  37.734  1.00  0.00     0.041 C 
ATOM     13  O   UNL     1      30.026  18.846  37.392  1.00  0.00    -0.550 OA
ATOM     14  O   UNL     1      31.499  20.495  37.995  1.00  0.00    -0.550 OA
ENDBRANCH  11  12
ENDBRANCH  10  11
ENDBRANCH   9  10
ENDBRANCH   8   9
ENDBRANCH   7   8
ENDBRANCH   6   7
ENDBRANCH   5   6
ENDBRANCH   4   5
ENDBRANCH   3   4
ENDBRANCH   2   3
ENDBRANCH   1   2
BRANCH   1  15
ATOM     15  C   UNL     1      34.813  13.565  40.727  1.00  0.00     0.000 C 
BRANCH  15  16
ATOM     16  C   UNL     1      33.654  12.669  40.268  1.00  0.00     0.000 C 
BRANCH  16  17
ATOM     17  C   UNL     1      33.185  11.752  41.407  1.00  0.00     0.000 C 
BRANCH  17  18
ATOM     18  C   UNL     1      33.913  10.396  41.426  1.00  0.00    -0.000 C 
BRANCH  18  19
ATOM     19  C   UNL     1      33.785   9.567  40.134  1.00  0.00    -0.000 C 
BRANCH  19  20
ATOM     20  C   UNL     1      32.326   9.374  39.689  1.00  0.00    -0.000 C 
BRANCH  20  21
ATOM     21  C   UNL     1      31.532   8.468  40.644  1.00  0.00    -0.000 C 
BRANCH  21  22
ATOM     22  C   UNL     1      30.018   8.525  40.392  1.00  0.00    -0.000 C 
BRANCH  22  23
ATOM     23  C   UNL     1      29.274   7.526  41.288  1.00  0.00    -0.000 C 
BRANCH  23  24
ATOM     24  C   UNL     1      30.145   6.295  41.581  1.00  0.00    -0.000 C 
BRANCH  24  25
ATOM     25  C   UNL     1      29.510   5.356  42.618  1.00  0.00    -0.003 C 
ATOM     26  C   UNL     1      28.061   5.003  42.286  1.00  0.00     0.004 C 
ENDBRANCH  24  25
ENDBRANCH  23  24
ENDBRANCH  22  23
ENDBRANCH  21  22
ENDBRANCH  20  21
ENDBRANCH  19  20
ENDBRANCH  18  19
ENDBRANCH  17  18
ENDBRANCH  16  17
ENDBRANCH  15  16
ENDBRANCH   1  15
TORSDOF 22
ENDMDL
MODEL 8
REMARK VINA RESULT:    13.594      3.784     10.770
REMARK INTER + INTRA:          29.345
REMARK INTER:                  30.773
REMARK INTRA:                  -1.428
REMARK UNBOUND:                -1.732
REMARK SMILES CCCCCCCCCCCCCCCCCCCCCCCC(=O)[O-]
REMARK SMILES IDX 13 1 14 2 15 3 16 4 17 5 18 6 19 7 20 8 21 9 22 10 23 11
REMARK SMILES IDX 24 12 25 13 26 14 12 15 11 16 10 17 9 18 8 19 7 20 6 21 5 22
REMARK SMILES IDX 4 23 3 24 2 25 1 26
REMARK H PARENT
REMARK Flexibility Score: inf
ROOT
ATOM      1  C   UNL     1      34.161  13.363  40.408  1.00  0.00     0.000 C 
ENDROOT
BRANCH   1   2
ATOM      2  C   UNL     1      35.391  13.072  41.289  1.00  0.00     0.000 C 
BRANCH   2   3
ATOM      3  C   UNL     1      35.215  13.392  42.786  1.00  0.00     0.000 C 
BRANCH   3   4
ATOM      4  C   UNL     1      36.245  14.380  43.364  1.00  0.00     0.000 C 
BRANCH   4   5
ATOM      5  C   UNL     1      35.591  15.587  44.053  1.00  0.00     0.000 C 
BRANCH   5   6
ATOM      6  C   UNL     1      34.298  15.998  43.334  1.00  0.00     0.000 C 
BRANCH   6   7
ATOM      7  C   UNL     1      34.267  17.490  42.957  1.00  0.00     0.000 C 
BRANCH   7   8
ATOM      8  C   UNL     1      33.559  17.811  41.628  1.00  0.00     0.000 C 
BRANCH   8   9
ATOM      9  C   UNL     1      34.193  17.100  40.424  1.00  0.00     0.000 C 
BRANCH   9  10
ATOM     10  C   UNL     1      33.766  17.765  39.107  1.00  0.00     0.006 C 
BRANCH  10  11
ATOM     11  C   UNL     1      32.554  18.687  39.287  1.00  0.00     0.053 C 
BRANCH  11  12
ATOM     12  C   UNL     1      31.730  18.778  38.039  1.00  0.00     0.041 C 
ATOM     13  O   UNL     1      31.686  17.808  37.238  1.00  0.00    -0.550 OA
ATOM     14  O   UNL     1      31.031  19.944  37.749  1.00  0.00    -0.550 OA
ENDBRANCH  11  12
ENDBRANCH  10  11
ENDBRANCH   9  10
ENDBRANCH   8   9
ENDBRANCH   7   8
ENDBRANCH   6   7
ENDBRANCH   5   6
ENDBRANCH   4   5
ENDBRANCH   3   4
ENDBRANCH   2   3
ENDBRANCH   1   2
BRANCH   1  15
ATOM     15  C   UNL     1      33.370  12.118  39.966  1.00  0.00     0.000 C 
BRANCH  15  16
ATOM     16  C   UNL     1      33.432  10.978  40.992  1.00  0.00     0.000 C 
BRANCH  16  17
ATOM     17  C   UNL     1      33.292   9.612  40.303  1.00  0.00     0.000 C 
BRANCH  17  18
ATOM     18  C   UNL     1      31.833   9.255  39.967  1.00  0.00    -0.000 C 
BRANCH  18  19
ATOM     19  C   UNL     1      31.082   8.475  41.060  1.00  0.00    -0.000 C 
BRANCH  19  20
ATOM     20  C   UNL     1      29.881   7.683  40.514  1.00  0.00    -0.000 C 
BRANCH  20  21
ATOM     21  C   UNL     1      28.927   7.215  41.624  1.00  0.00    -0.000 C 
BRANCH  21  22
ATOM     22  C   UNL     1      29.260   5.804  42.134  1.00  0.00    -0.000 C 
BRANCH  22  23
ATOM     23  C   UNL     1      30.774   5.556  42.115  1.00  0.00    -0.000 C 
BRANCH  23  24
ATOM     24  C   UNL     1      31.132   4.420  41.144  1.00  0.00    -0.000 C 
BRANCH  24  25
ATOM     25  C   UNL     1      32.649   4.227  40.996  1.00  0.00    -0.003 C 
ATOM     26  C   UNL     1      33.436   5.513  41.249  1.00  0.00     0.004 C 
ENDBRANCH  24  25
ENDBRANCH  23  24
ENDBRANCH  22  23
ENDBRANCH  21  22
ENDBRANCH  20  21
ENDBRANCH  19  20
ENDBRANCH  18  19
ENDBRANCH  17  18
ENDBRANCH  16  17
ENDBRANCH  15  16
ENDBRANCH   1  15
TORSDOF 22
ENDMDL
MODEL 9
REMARK VINA RESULT:    14.907      4.559     10.525
REMARK INTER + INTRA:          32.347
REMARK INTER:                  33.684
REMARK INTRA:                  -1.338
REMARK UNBOUND:                -1.732
REMARK SMILES CCCCCCCCCCCCCCCCCCCCCCCC(=O)[O-]
REMARK SMILES IDX 13 1 14 2 15 3 16 4 17 5 18 6 19 7 20 8 21 9 22 10 23 11
REMARK SMILES IDX 24 12 25 13 26 14 12 15 11 16 10 17 9 18 8 19 7 20 6 21 5 22
REMARK SMILES IDX 4 23 3 24 2 25 1 26
REMARK H PARENT
REMARK Flexibility Score: inf
ROOT
ATOM      1  C   UNL     1      30.307   8.213  40.517  1.00  0.00     0.000 C 
ENDROOT
BRANCH   1   2
ATOM      2  C   UNL     1      31.501   9.068  40.982  1.00  0.00     0.000 C 
BRANCH   2   3
ATOM      3  C   UNL     1      32.565   9.349  39.901  1.00  0.00     0.000 C 
BRANCH   3   4
ATOM      4  C   UNL     1      33.804  10.115  40.395  1.00  0.00     0.000 C 
BRANCH   4   5
ATOM      5  C   UNL     1      33.446  11.402  41.152  1.00  0.00     0.000 C 
BRANCH   5   6
ATOM      6  C   UNL     1      33.842  12.646  40.342  1.00  0.00     0.000 C 
BRANCH   6   7
ATOM      7  C   UNL     1      34.939  13.484  41.023  1.00  0.00     0.000 C 
BRANCH   7   8
ATOM      8  C   UNL     1      35.012  13.341  42.555  1.00  0.00     0.000 C 
BRANCH   8   9
ATOM      9  C   UNL     1      36.347  13.823  43.138  1.00  0.00     0.000 C 
BRANCH   9  10
ATOM     10  C   UNL     1      36.163  15.133  43.919  1.00  0.00     0.006 C 
BRANCH  10  11
ATOM     11  C   UNL     1      34.720  15.651  43.854  1.00  0.00     0.053 C 
BRANCH  11  12
ATOM     12  C   UNL     1      34.647  17.029  43.270  1.00  0.00     0.041 C 
ATOM     13  O   UNL     1      35.425  17.931  43.678  1.00  0.00    -0.550 OA
ATOM     14  O   UNL     1      33.705  17.321  42.292  1.00  0.00    -0.550 OA
ENDBRANCH  11  12
ENDBRANCH  10  11
ENDBRANCH   9  10
ENDBRANCH   8   9
ENDBRANCH   7   8
ENDBRANCH   6   7
ENDBRANCH   5   6
ENDBRANCH   4   5
ENDBRANCH   3   4
ENDBRANCH   2   3
ENDBRANCH   1   2
BRANCH   1  15
ATOM     15  C   UNL     1      29.471   7.593  41.652  1.00  0.00     0.000 C 
BRANCH  15  16
ATOM     16  C   UNL     1      29.996   6.221  42.098  1.00  0.00     0.000 C 
BRANCH  16  17
ATOM     17  C   UNL     1      28.845   5.317  42.562  1.00  0.00     0.000 C 
BRANCH  17  18
ATOM     18  C   UNL     1      27.868   4.957  41.428  1.00  0.00    -0.000 C 
BRANCH  18  19
ATOM     19  C   UNL     1      28.443   5.084  40.005  1.00  0.00    -0.000 C 
BRANCH  19  20
ATOM     20  C   UNL     1      27.446   4.652  38.916  1.00  0.00    -0.000 C 
BRANCH  20  21
ATOM     21  C   UNL     1      28.097   4.546  37.528  1.00  0.00    -0.000 C 
BRANCH  21  22
ATOM     22  C   UNL     1      27.223   5.148  36.417  1.00  0.00    -0.000 C 
BRANCH  22  23
ATOM     23  C   UNL     1      27.886   6.390  35.808  1.00  0.00    -0.000 C 
BRANCH  23  24
ATOM     24  C   UNL     1      27.521   7.653  36.604  1.00  0.00    -0.000 C 
BRANCH  24  25
ATOM     25  C   UNL     1      28.755   8.359  37.187  1.00  0.00    -0.003 C 
ATOM     26  C   UNL     1      28.493   9.828  37.521  1.00  0.00     0.004 C 
ENDBRANCH  24  25
ENDBRANCH  23  24
ENDBRANCH  22  23
ENDBRANCH  21  22
ENDBRANCH  20  21
ENDBRANCH  19  20
ENDBRANCH  18  19
ENDBRANCH  17  18
ENDBRANCH  16  17
ENDBRANCH  15  16
ENDBRANCH   1  15
TORSDOF 22
ENDMDL
