MODEL 1
REMARK VINA RESULT:    -4.263      0.000      0.000
REMARK INTER + INTRA:          -7.414
REMARK INTER:                  -6.132
REMARK INTRA:                  -1.282
REMARK UNBOUND:                -1.282
REMARK SMILES O=C(CO)[C@H](O)[C@@H](O)[C@@H](O)CO
REMARK SMILES IDX 7 1 9 2 11 3 12 4 10 6 5 8 2 9 1 10 3 11 4 12 6 14 8 16
REMARK H PARENT 12 5 10 7 4 13 6 15 8 17
REMARK Flexibility Score: inf
ROOT
ATOM      1  C   UNL     1      41.222   2.145  -6.850  1.00  0.00     0.181 C 
ENDROOT
BRANCH   1   2
ATOM      2  C   UNL     1      42.075   1.757  -5.607  1.00  0.00     0.171 C 
BRANCH   2   3
ATOM      3  C   UNL     1      42.890   0.461  -5.799  1.00  0.00     0.190 C 
BRANCH   3   4
ATOM      4  O   UNL     1      43.712   0.565  -6.932  1.00  0.00    -0.394 OA
ATOM      5  H   UNL     1      43.117   0.506  -7.725  1.00  0.00     0.210 HD
ENDBRANCH   3   4
ENDBRANCH   2   3
BRANCH   2   6
ATOM      6  O   UNL     1      41.253   1.662  -4.470  1.00  0.00    -0.388 OA
ATOM      7  H   UNL     1      41.831   1.438  -3.695  1.00  0.00     0.211 HD
ENDBRANCH   2   6
ENDBRANCH   1   2
BRANCH   1   8
ATOM      8  C   UNL     1      41.867   3.251  -7.726  1.00  0.00     0.214 C 
BRANCH   8   9
ATOM      9  C   UNL     1      41.901   2.899  -9.201  1.00  0.00     0.189 C 
ATOM     10  O   UNL     1      40.851   2.671  -9.783  1.00  0.00    -0.294 OA
BRANCH   9  11
ATOM     11  C   UNL     1      43.188   2.829  -9.977  1.00  0.00     0.234 C 
BRANCH  11  12
ATOM     12  O   UNL     1      44.013   1.844  -9.421  1.00  0.00    -0.388 OA
ATOM     13  H   UNL     1      44.048   2.030  -8.447  1.00  0.00     0.211 HD
ENDBRANCH  11  12
ENDBRANCH   9  11
ENDBRANCH   8   9
BRANCH   8  14
ATOM     14  O   UNL     1      43.162   3.564  -7.275  1.00  0.00    -0.382 OA
ATOM     15  H   UNL     1      43.815   3.137  -7.887  1.00  0.00     0.211 HD
ENDBRANCH   8  14
ENDBRANCH   1   8
BRANCH   1  16
ATOM     16  O   UNL     1      40.994   1.012  -7.652  1.00  0.00    -0.387 OA
ATOM     17  H   UNL     1      41.878   0.689  -7.966  1.00  0.00     0.211 HD
ENDBRANCH   1  16
TORSDOF 10
ENDMDL
MODEL 2
REMARK VINA RESULT:    -4.203      1.792      2.500
REMARK INTER + INTRA:          -7.327
REMARK INTER:                  -5.845
REMARK INTRA:                  -1.482
REMARK UNBOUND:                -1.282
REMARK SMILES O=C(CO)[C@H](O)[C@@H](O)[C@@H](O)CO
REMARK SMILES IDX 7 1 9 2 11 3 12 4 10 6 5 8 2 9 1 10 3 11 4 12 6 14 8 16
REMARK H PARENT 12 5 10 7 4 13 6 15 8 17
REMARK Flexibility Score: inf
ROOT
ATOM      1  C   UNL     1      41.638   2.696  -6.455  1.00  0.00     0.181 C 
ENDROOT
BRANCH   1   2
ATOM      2  C   UNL     1      42.995   1.973  -6.215  1.00  0.00     0.171 C 
BRANCH   2   3
ATOM      3  C   UNL     1      42.839   0.513  -5.741  1.00  0.00     0.190 C 
BRANCH   3   4
ATOM      4  O   UNL     1      42.292  -0.276  -6.764  1.00  0.00    -0.394 OA
ATOM      5  H   UNL     1      41.624   0.288  -7.236  1.00  0.00     0.210 HD
ENDBRANCH   3   4
ENDBRANCH   2   3
BRANCH   2   6
ATOM      6  O   UNL     1      43.777   2.709  -5.306  1.00  0.00    -0.388 OA
ATOM      7  H   UNL     1      43.396   2.574  -4.399  1.00  0.00     0.211 HD
ENDBRANCH   2   6
ENDBRANCH   1   2
BRANCH   1   8
ATOM      8  C   UNL     1      41.285   2.872  -7.956  1.00  0.00     0.214 C 
BRANCH   8   9
ATOM      9  C   UNL     1      39.824   2.598  -8.261  1.00  0.00     0.189 C 
ATOM     10  O   UNL     1      38.977   3.387  -7.870  1.00  0.00    -0.294 OA
BRANCH   9  11
ATOM     11  C   UNL     1      39.383   1.389  -9.039  1.00  0.00     0.234 C 
BRANCH  11  12
ATOM     12  O   UNL     1      39.822   0.230  -8.385  1.00  0.00    -0.388 OA
ATOM     13  H   UNL     1      39.212  -0.497  -8.675  1.00  0.00     0.211 HD
ENDBRANCH  11  12
ENDBRANCH   9  11
ENDBRANCH   8   9
BRANCH   8  14
ATOM     14  O   UNL     1      42.106   2.068  -8.767  1.00  0.00    -0.382 OA
ATOM     15  H   UNL     1      42.109   2.452  -9.683  1.00  0.00     0.211 HD
ENDBRANCH   8  14
ENDBRANCH   1   8
BRANCH   1  16
ATOM     16  O   UNL     1      40.596   1.990  -5.828  1.00  0.00    -0.387 OA
ATOM     17  H   UNL     1      40.820   1.025  -5.880  1.00  0.00     0.211 HD
ENDBRANCH   1  16
TORSDOF 10
ENDMDL
MODEL 3
REMARK VINA RESULT:    -4.198     14.513     16.633
REMARK INTER + INTRA:          -7.320
REMARK INTER:                  -6.053
REMARK INTRA:                  -1.268
REMARK UNBOUND:                -1.282
REMARK SMILES O=C(CO)[C@H](O)[C@@H](O)[C@@H](O)CO
REMARK SMILES IDX 7 1 9 2 11 3 12 4 10 6 5 8 2 9 1 10 3 11 4 12 6 14 8 16
REMARK H PARENT 12 5 10 7 4 13 6 15 8 17
REMARK Flexibility Score: inf
ROOT
ATOM      1  C   UNL     1      34.368   9.029   3.233  1.00  0.00     0.181 C 
ENDROOT
BRANCH   1   2
ATOM      2  C   UNL     1      33.980   9.886   1.993  1.00  0.00     0.171 C 
BRANCH   2   3
ATOM      3  C   UNL     1      32.692  10.711   2.193  1.00  0.00     0.190 C 
BRANCH   3   4
ATOM      4  O   UNL     1      32.809  11.531   3.325  1.00  0.00    -0.394 OA
ATOM      5  H   UNL     1      32.919  12.462   2.996  1.00  0.00     0.210 HD
ENDBRANCH   3   4
ENDBRANCH   2   3
BRANCH   2   6
ATOM      6  O   UNL     1      33.872   9.065   0.856  1.00  0.00    -0.388 OA
ATOM      7  H   UNL     1      34.784   8.933   0.488  1.00  0.00     0.211 HD
ENDBRANCH   2   6
ENDBRANCH   1   2
BRANCH   1   8
ATOM      8  C   UNL     1      35.462   9.679   4.121  1.00  0.00     0.214 C 
BRANCH   8   9
ATOM      9  C   UNL     1      35.087   9.727   5.590  1.00  0.00     0.189 C 
ATOM     10  O   UNL     1      34.859   8.680   6.179  1.00  0.00    -0.294 OA
BRANCH   9  11
ATOM     11  C   UNL     1      34.995  11.020   6.351  1.00  0.00     0.234 C 
BRANCH  11  12
ATOM     12  O   UNL     1      33.982  11.814   5.797  1.00  0.00    -0.388 OA
ATOM     13  H   UNL     1      33.775  11.418   4.911  1.00  0.00     0.211 HD
ENDBRANCH  11  12
ENDBRANCH   9  11
ENDBRANCH   8   9
BRANCH   8  14
ATOM     14  O   UNL     1      35.784  10.970   3.663  1.00  0.00    -0.382 OA
ATOM     15  H   UNL     1      34.953  11.512   3.653  1.00  0.00     0.211 HD
ENDBRANCH   8  14
ENDBRANCH   1   8
BRANCH   1  16
ATOM     16  O   UNL     1      33.232   8.785   4.025  1.00  0.00    -0.387 OA
ATOM     17  H   UNL     1      33.045   7.812   3.983  1.00  0.00     0.211 HD
ENDBRANCH   1  16
TORSDOF 10
ENDMDL
MODEL 4
REMARK VINA RESULT:    -4.156     14.595     16.125
REMARK INTER + INTRA:          -7.259
REMARK INTER:                  -5.826
REMARK INTRA:                  -1.433
REMARK UNBOUND:                -1.282
REMARK SMILES O=C(CO)[C@H](O)[C@@H](O)[C@@H](O)CO
REMARK SMILES IDX 7 1 9 2 11 3 12 4 10 6 5 8 2 9 1 10 3 11 4 12 6 14 8 16
REMARK H PARENT 12 5 10 7 4 13 6 15 8 17
REMARK Flexibility Score: inf
ROOT
ATOM      1  C   UNL     1      34.652   9.938   2.586  1.00  0.00     0.181 C 
ENDROOT
BRANCH   1   2
ATOM      2  C   UNL     1      33.753  11.205   2.496  1.00  0.00     0.171 C 
BRANCH   2   3
ATOM      3  C   UNL     1      32.287  10.896   2.129  1.00  0.00     0.190 C 
BRANCH   3   4
ATOM      4  O   UNL     1      31.664  10.185   3.166  1.00  0.00    -0.394 OA
ATOM      5  H   UNL     1      30.685  10.286   3.037  1.00  0.00     0.210 HD
ENDBRANCH   3   4
ENDBRANCH   2   3
BRANCH   2   6
ATOM      6  O   UNL     1      34.308  12.125   1.589  1.00  0.00    -0.388 OA
ATOM      7  H   UNL     1      34.088  11.817   0.671  1.00  0.00     0.211 HD
ENDBRANCH   2   6
ENDBRANCH   1   2
BRANCH   1   8
ATOM      8  C   UNL     1      35.062   9.567   4.036  1.00  0.00     0.214 C 
BRANCH   8   9
ATOM      9  C   UNL     1      35.060   8.072   4.292  1.00  0.00     0.189 C 
ATOM     10  O   UNL     1      35.911   7.376   3.758  1.00  0.00    -0.294 OA
BRANCH   9  11
ATOM     11  C   UNL     1      34.049   7.416   5.191  1.00  0.00     0.234 C 
BRANCH  11  12
ATOM     12  O   UNL     1      32.758   7.750   4.761  1.00  0.00    -0.388 OA
ATOM     13  H   UNL     1      32.679   8.733   4.866  1.00  0.00     0.211 HD
ENDBRANCH  11  12
ENDBRANCH   9  11
ENDBRANCH   8   9
BRANCH   8  14
ATOM     14  O   UNL     1      34.242  10.218   4.976  1.00  0.00    -0.382 OA
ATOM     15  H   UNL     1      33.297  10.001   4.766  1.00  0.00     0.211 HD
ENDBRANCH   8  14
ENDBRANCH   1   8
BRANCH   1  16
ATOM     16  O   UNL     1      33.994   8.837   2.009  1.00  0.00    -0.387 OA
ATOM     17  H   UNL     1      34.362   8.018   2.431  1.00  0.00     0.211 HD
ENDBRANCH   1  16
TORSDOF 10
ENDMDL
MODEL 5
REMARK VINA RESULT:    -4.083      1.714      2.551
REMARK INTER + INTRA:          -7.155
REMARK INTER:                  -6.574
REMARK INTRA:                  -0.582
REMARK UNBOUND:                -1.282
REMARK SMILES O=C(CO)[C@H](O)[C@@H](O)[C@@H](O)CO
REMARK SMILES IDX 7 1 9 2 11 3 12 4 10 6 5 8 2 9 1 10 3 11 4 12 6 14 8 16
REMARK H PARENT 12 5 10 7 4 13 6 15 8 17
REMARK Flexibility Score: inf
ROOT
ATOM      1  C   UNL     1      41.971   2.042  -6.993  1.00  0.00     0.181 C 
ENDROOT
BRANCH   1   2
ATOM      2  C   UNL     1      42.306   1.696  -5.514  1.00  0.00     0.171 C 
BRANCH   2   3
ATOM      3  C   UNL     1      43.002   0.330  -5.343  1.00  0.00     0.190 C 
BRANCH   3   4
ATOM      4  O   UNL     1      42.647  -0.533  -6.391  1.00  0.00    -0.394 OA
ATOM      5  H   UNL     1      42.394   0.040  -7.161  1.00  0.00     0.210 HD
ENDBRANCH   3   4
ENDBRANCH   2   3
BRANCH   2   6
ATOM      6  O   UNL     1      41.140   1.760  -4.729  1.00  0.00    -0.388 OA
ATOM      7  H   UNL     1      40.388   2.021  -5.323  1.00  0.00     0.211 HD
ENDBRANCH   2   6
ENDBRANCH   1   2
BRANCH   1   8
ATOM      8  C   UNL     1      40.453   2.222  -7.261  1.00  0.00     0.214 C 
BRANCH   8   9
ATOM      9  C   UNL     1      40.059   1.915  -8.694  1.00  0.00     0.189 C 
ATOM     10  O   UNL     1      40.645   2.482  -9.605  1.00  0.00    -0.294 OA
BRANCH   9  11
ATOM     11  C   UNL     1      38.977   0.928  -9.032  1.00  0.00     0.234 C 
BRANCH  11  12
ATOM     12  O   UNL     1      39.405  -0.363  -8.698  1.00  0.00    -0.388 OA
ATOM     13  H   UNL     1      38.815  -0.987  -9.195  1.00  0.00     0.211 HD
ENDBRANCH  11  12
ENDBRANCH   9  11
ENDBRANCH   8   9
BRANCH   8  14
ATOM     14  O   UNL     1      40.027   3.517  -6.912  1.00  0.00    -0.382 OA
ATOM     15  H   UNL     1      40.331   4.144  -7.618  1.00  0.00     0.211 HD
ENDBRANCH   8  14
ENDBRANCH   1   8
BRANCH   1  16
ATOM     16  O   UNL     1      42.638   3.219  -7.377  1.00  0.00    -0.387 OA
ATOM     17  H   UNL     1      42.745   3.191  -8.363  1.00  0.00     0.211 HD
ENDBRANCH   1  16
TORSDOF 10
ENDMDL
MODEL 6
REMARK VINA RESULT:    -4.054      1.026      1.645
REMARK INTER + INTRA:          -7.113
REMARK INTER:                  -6.568
REMARK INTRA:                  -0.545
REMARK UNBOUND:                -1.282
REMARK SMILES O=C(CO)[C@H](O)[C@@H](O)[C@@H](O)CO
REMARK SMILES IDX 7 1 9 2 11 3 12 4 10 6 5 8 2 9 1 10 3 11 4 12 6 14 8 16
REMARK H PARENT 12 5 10 7 4 13 6 15 8 17
REMARK Flexibility Score: inf
ROOT
ATOM      1  C   UNL     1      41.828   2.213  -6.730  1.00  0.00     0.181 C 
ENDROOT
BRANCH   1   2
ATOM      2  C   UNL     1      42.293   1.716  -5.331  1.00  0.00     0.171 C 
BRANCH   2   3
ATOM      3  C   UNL     1      43.164   0.444  -5.387  1.00  0.00     0.190 C 
BRANCH   3   4
ATOM      4  O   UNL     1      42.618  -0.481  -6.290  1.00  0.00    -0.394 OA
ATOM      5  H   UNL     1      41.702  -0.165  -6.507  1.00  0.00     0.210 HD
ENDBRANCH   3   4
ENDBRANCH   2   3
BRANCH   2   6
ATOM      6  O   UNL     1      41.178   1.516  -4.497  1.00  0.00    -0.388 OA
ATOM      7  H   UNL     1      41.455   0.916  -3.757  1.00  0.00     0.211 HD
ENDBRANCH   2   6
ENDBRANCH   1   2
BRANCH   1   8
ATOM      8  C   UNL     1      42.996   2.658  -7.651  1.00  0.00     0.214 C 
BRANCH   8   9
ATOM      9  C   UNL     1      42.597   3.739  -8.638  1.00  0.00     0.189 C 
ATOM     10  O   UNL     1      42.623   4.908  -8.282  1.00  0.00    -0.294 OA
BRANCH   9  11
ATOM     11  C   UNL     1      42.179   3.421 -10.047  1.00  0.00     0.234 C 
BRANCH  11  12
ATOM     12  O   UNL     1      41.194   2.427 -10.026  1.00  0.00    -0.388 OA
ATOM     13  H   UNL     1      41.079   2.132 -10.967  1.00  0.00     0.211 HD
ENDBRANCH  11  12
ENDBRANCH   9  11
ENDBRANCH   8   9
BRANCH   8  14
ATOM     14  O   UNL     1      43.548   1.560  -8.335  1.00  0.00    -0.382 OA
ATOM     15  H   UNL     1      43.922   1.887  -9.195  1.00  0.00     0.211 HD
ENDBRANCH   8  14
ENDBRANCH   1   8
BRANCH   1  16
ATOM     16  O   UNL     1      41.100   1.203  -7.385  1.00  0.00    -0.387 OA
ATOM     17  H   UNL     1      41.068   1.438  -8.348  1.00  0.00     0.211 HD
ENDBRANCH   1  16
TORSDOF 10
ENDMDL
MODEL 7
REMARK VINA RESULT:    -3.943     15.826     17.039
REMARK INTER + INTRA:          -6.954
REMARK INTER:                  -5.825
REMARK INTRA:                  -1.129
REMARK UNBOUND:                -1.282
REMARK SMILES O=C(CO)[C@H](O)[C@@H](O)[C@@H](O)CO
REMARK SMILES IDX 7 1 9 2 11 3 12 4 10 6 5 8 2 9 1 10 3 11 4 12 6 14 8 16
REMARK H PARENT 12 5 10 7 4 13 6 15 8 17
REMARK Flexibility Score: inf
ROOT
ATOM      1  C   UNL     1      34.769  10.938   4.761  1.00  0.00     0.181 C 
ENDROOT
BRANCH   1   2
ATOM      2  C   UNL     1      35.000  10.068   6.031  1.00  0.00     0.171 C 
BRANCH   2   3
ATOM      3  C   UNL     1      35.659  10.839   7.194  1.00  0.00     0.190 C 
BRANCH   3   4
ATOM      4  O   UNL     1      34.893  11.968   7.526  1.00  0.00    -0.394 OA
ATOM      5  H   UNL     1      33.971  11.795   7.200  1.00  0.00     0.210 HD
ENDBRANCH   3   4
ENDBRANCH   2   3
BRANCH   2   6
ATOM      6  O   UNL     1      35.755   8.928   5.702  1.00  0.00    -0.388 OA
ATOM      7  H   UNL     1      35.430   8.592   4.825  1.00  0.00     0.211 HD
ENDBRANCH   2   6
ENDBRANCH   1   2
BRANCH   1   8
ATOM      8  C   UNL     1      34.406  10.110   3.499  1.00  0.00     0.214 C 
BRANCH   8   9
ATOM      9  C   UNL     1      33.798  10.949   2.390  1.00  0.00     0.189 C 
ATOM     10  O   UNL     1      34.476  11.819   1.864  1.00  0.00    -0.294 OA
BRANCH   9  11
ATOM     11  C   UNL     1      32.388  10.741   1.911  1.00  0.00     0.234 C 
BRANCH  11  12
ATOM     12  O   UNL     1      31.499  10.964   2.970  1.00  0.00    -0.388 OA
ATOM     13  H   UNL     1      30.707  10.395   2.789  1.00  0.00     0.211 HD
ENDBRANCH  11  12
ENDBRANCH   9  11
ENDBRANCH   8   9
BRANCH   8  14
ATOM     14  O   UNL     1      33.547   9.044   3.822  1.00  0.00    -0.382 OA
ATOM     15  H   UNL     1      33.315   9.114   4.785  1.00  0.00     0.211 HD
ENDBRANCH   8  14
ENDBRANCH   1   8
BRANCH   1  16
ATOM     16  O   UNL     1      33.745  11.873   4.995  1.00  0.00    -0.387 OA
ATOM     17  H   UNL     1      33.497  11.806   5.953  1.00  0.00     0.211 HD
ENDBRANCH   1  16
TORSDOF 10
ENDMDL
MODEL 8
REMARK VINA RESULT:    -3.907     14.482     16.194
REMARK INTER + INTRA:          -6.902
REMARK INTER:                  -6.321
REMARK INTRA:                  -0.581
REMARK UNBOUND:                -1.282
REMARK SMILES O=C(CO)[C@H](O)[C@@H](O)[C@@H](O)CO
REMARK SMILES IDX 7 1 9 2 11 3 12 4 10 6 5 8 2 9 1 10 3 11 4 12 6 14 8 16
REMARK H PARENT 12 5 10 7 4 13 6 15 8 17
REMARK Flexibility Score: inf
ROOT
ATOM      1  C   UNL     1      34.288   9.767   3.398  1.00  0.00     0.181 C 
ENDROOT
BRANCH   1   2
ATOM      2  C   UNL     1      33.937  10.058   1.910  1.00  0.00     0.171 C 
BRANCH   2   3
ATOM      3  C   UNL     1      32.626  10.852   1.730  1.00  0.00     0.190 C 
BRANCH   3   4
ATOM      4  O   UNL     1      31.727  10.547   2.763  1.00  0.00    -0.394 OA
ATOM      5  H   UNL     1      31.629   9.559   2.777  1.00  0.00     0.210 HD
ENDBRANCH   3   4
ENDBRANCH   2   3
BRANCH   2   6
ATOM      6  O   UNL     1      33.893   8.855   1.182  1.00  0.00    -0.388 OA
ATOM      7  H   UNL     1      34.223   8.130   1.774  1.00  0.00     0.211 HD
ENDBRANCH   2   6
ENDBRANCH   1   2
BRANCH   1   8
ATOM      8  C   UNL     1      34.472   8.258   3.709  1.00  0.00     0.214 C 
BRANCH   8   9
ATOM      9  C   UNL     1      34.223   7.914   5.166  1.00  0.00     0.189 C 
ATOM     10  O   UNL     1      34.787   8.565   6.034  1.00  0.00    -0.294 OA
BRANCH   9  11
ATOM     11  C   UNL     1      33.299   6.803   5.579  1.00  0.00     0.234 C 
BRANCH  11  12
ATOM     12  O   UNL     1      31.991   7.118   5.189  1.00  0.00    -0.388 OA
ATOM     13  H   UNL     1      31.809   6.579   4.376  1.00  0.00     0.211 HD
ENDBRANCH  11  12
ENDBRANCH   9  11
ENDBRANCH   8   9
BRANCH   8  14
ATOM     14  O   UNL     1      35.748   7.812   3.319  1.00  0.00    -0.382 OA
ATOM     15  H   UNL     1      36.255   8.591   2.970  1.00  0.00     0.211 HD
ENDBRANCH   8  14
ENDBRANCH   1   8
BRANCH   1  16
ATOM     16  O   UNL     1      35.465  10.447   3.758  1.00  0.00    -0.387 OA
ATOM     17  H   UNL     1      35.234  11.406   3.860  1.00  0.00     0.211 HD
ENDBRANCH   1  16
TORSDOF 10
ENDMDL
MODEL 9
REMARK VINA RESULT:    -3.805      1.386      4.210
REMARK INTER + INTRA:          -6.754
REMARK INTER:                  -5.880
REMARK INTRA:                  -0.874
REMARK UNBOUND:                -1.282
REMARK SMILES O=C(CO)[C@H](O)[C@@H](O)[C@@H](O)CO
REMARK SMILES IDX 7 1 9 2 11 3 12 4 10 6 5 8 2 9 1 10 3 11 4 12 6 14 8 16
REMARK H PARENT 12 5 10 7 4 13 6 15 8 17
REMARK Flexibility Score: inf
ROOT
ATOM      1  C   UNL     1      42.564   2.901  -8.056  1.00  0.00     0.181 C 
ENDROOT
BRANCH   1   2
ATOM      2  C   UNL     1      41.509   3.367  -9.101  1.00  0.00     0.171 C 
BRANCH   2   3
ATOM      3  C   UNL     1      40.302   4.097  -8.474  1.00  0.00     0.190 C 
BRANCH   3   4
ATOM      4  O   UNL     1      39.168   3.270  -8.496  1.00  0.00    -0.394 OA
ATOM      5  H   UNL     1      38.383   3.855  -8.331  1.00  0.00     0.210 HD
ENDBRANCH   3   4
ENDBRANCH   2   3
BRANCH   2   6
ATOM      6  O   UNL     1      41.080   2.272  -9.873  1.00  0.00    -0.388 OA
ATOM      7  H   UNL     1      41.182   2.517 -10.830  1.00  0.00     0.211 HD
ENDBRANCH   2   6
ENDBRANCH   1   2
BRANCH   1   8
ATOM      8  C   UNL     1      41.953   2.129  -6.857  1.00  0.00     0.214 C 
BRANCH   8   9
ATOM      9  C   UNL     1      42.999   1.565  -5.915  1.00  0.00     0.189 C 
ATOM     10  O   UNL     1      43.916   2.284  -5.546  1.00  0.00    -0.294 OA
BRANCH   9  11
ATOM     11  C   UNL     1      42.942   0.150  -5.410  1.00  0.00     0.234 C 
BRANCH  11  12
ATOM     12  O   UNL     1      42.928  -0.731  -6.499  1.00  0.00    -0.388 OA
ATOM     13  H   UNL     1      42.052  -0.603  -6.946  1.00  0.00     0.211 HD
ENDBRANCH  11  12
ENDBRANCH   9  11
ENDBRANCH   8   9
BRANCH   8  14
ATOM     14  O   UNL     1      41.098   1.102  -7.298  1.00  0.00    -0.382 OA
ATOM     15  H   UNL     1      40.972   0.461  -6.551  1.00  0.00     0.211 HD
ENDBRANCH   8  14
ENDBRANCH   1   8
BRANCH   1  16
ATOM     16  O   UNL     1      43.526   2.082  -8.674  1.00  0.00    -0.387 OA
ATOM     17  H   UNL     1      43.075   1.236  -8.930  1.00  0.00     0.211 HD
ENDBRANCH   1  16
TORSDOF 10
ENDMDL
