MODEL 1
REMARK VINA RESULT:    -3.924      0.000      0.000
REMARK INTER + INTRA:          -5.540
REMARK INTER:                  -5.301
REMARK INTRA:                  -0.240
REMARK UNBOUND:                -0.240
REMARK SMILES CCCCCCCC(=O)[O-]
REMARK SMILES IDX 5 1 6 2 7 3 8 4 9 5 10 6 4 7 3 8 2 9 1 10
REMARK H PARENT
REMARK Flexibility Score: inf
ROOT
ATOM      1  C   UNL     1      35.184  23.860  15.751  1.00  0.00     0.000 C 
ENDROOT
BRANCH   1   2
ATOM      2  C   UNL     1      35.015  23.496  17.236  1.00  0.00     0.006 C 
BRANCH   2   3
ATOM      3  C   UNL     1      33.835  24.235  17.882  1.00  0.00     0.053 C 
BRANCH   3   4
ATOM      4  C   UNL     1      33.788  25.675  17.469  1.00  0.00     0.041 C 
ATOM      5  O   UNL     1      34.676  26.477  17.862  1.00  0.00    -0.550 OA
ATOM      6  O   UNL     1      32.747  26.136  16.674  1.00  0.00    -0.550 OA
ENDBRANCH   3   4
ENDBRANCH   2   3
ENDBRANCH   1   2
BRANCH   1   7
ATOM      7  C   UNL     1      36.046  22.843  14.986  1.00  0.00     0.000 C 
BRANCH   7   8
ATOM      8  C   UNL     1      35.434  22.448  13.631  1.00  0.00    -0.000 C 
BRANCH   8   9
ATOM      9  C   UNL     1      35.445  20.929  13.400  1.00  0.00    -0.003 C 
ATOM     10  C   UNL     1      35.782  20.138  14.663  1.00  0.00     0.004 C 
ENDBRANCH   8   9
ENDBRANCH   7   8
ENDBRANCH   1   7
TORSDOF 6
ENDMDL
MODEL 2
REMARK VINA RESULT:    -3.763     17.768     18.773
REMARK INTER + INTRA:          -5.323
REMARK INTER:                  -4.900
REMARK INTRA:                  -0.423
REMARK UNBOUND:                -0.240
REMARK SMILES CCCCCCCC(=O)[O-]
REMARK SMILES IDX 5 1 6 2 7 3 8 4 9 5 10 6 4 7 3 8 2 9 1 10
REMARK H PARENT
REMARK Flexibility Score: inf
ROOT
ATOM      1  C   UNL     1      27.093  33.657   3.678  1.00  0.00     0.000 C 
ENDROOT
BRANCH   1   2
ATOM      2  C   UNL     1      27.067  32.926   2.325  1.00  0.00     0.006 C 
BRANCH   2   3
ATOM      3  C   UNL     1      26.555  33.826   1.191  1.00  0.00     0.053 C 
BRANCH   3   4
ATOM      4  C   UNL     1      25.062  33.775   1.073  1.00  0.00     0.041 C 
ATOM      5  O   UNL     1      24.374  34.810   1.278  1.00  0.00    -0.550 OA
ATOM      6  O   UNL     1      24.428  32.578   0.765  1.00  0.00    -0.550 OA
ENDBRANCH   3   4
ENDBRANCH   2   3
ENDBRANCH   1   2
BRANCH   1   7
ATOM      7  C   UNL     1      28.493  34.179   4.042  1.00  0.00     0.000 C 
BRANCH   7   8
ATOM      8  C   UNL     1      29.580  33.099   3.912  1.00  0.00    -0.000 C 
BRANCH   8   9
ATOM      9  C   UNL     1      30.734  33.532   2.995  1.00  0.00    -0.003 C 
ATOM     10  C   UNL     1      30.699  32.844   1.630  1.00  0.00     0.004 C 
ENDBRANCH   8   9
ENDBRANCH   7   8
ENDBRANCH   1   7
TORSDOF 6
ENDMDL
MODEL 3
REMARK VINA RESULT:    -3.746     17.037     18.031
REMARK INTER + INTRA:          -5.300
REMARK INTER:                  -5.033
REMARK INTRA:                  -0.267
REMARK UNBOUND:                -0.240
REMARK SMILES CCCCCCCC(=O)[O-]
REMARK SMILES IDX 5 1 6 2 7 3 8 4 9 5 10 6 4 7 3 8 2 9 1 10
REMARK H PARENT
REMARK Flexibility Score: inf
ROOT
ATOM      1  C   UNL     1      28.663  34.078   4.003  1.00  0.00     0.000 C 
ENDROOT
BRANCH   1   2
ATOM      2  C   UNL     1      29.634  32.891   3.887  1.00  0.00     0.006 C 
BRANCH   2   3
ATOM      3  C   UNL     1      31.059  33.340   3.539  1.00  0.00     0.053 C 
BRANCH   3   4
ATOM      4  C   UNL     1      31.482  32.848   2.187  1.00  0.00     0.041 C 
ATOM      5  O   UNL     1      32.653  32.420   2.007  1.00  0.00    -0.550 OA
ATOM      6  O   UNL     1      30.593  32.891   1.122  1.00  0.00    -0.550 OA
ENDBRANCH   3   4
ENDBRANCH   2   3
ENDBRANCH   1   2
BRANCH   1   7
ATOM      7  C   UNL     1      27.216  33.698   3.647  1.00  0.00     0.000 C 
BRANCH   7   8
ATOM      8  C   UNL     1      27.115  32.941   2.311  1.00  0.00    -0.000 C 
BRANCH   8   9
ATOM      9  C   UNL     1      26.363  33.741   1.236  1.00  0.00    -0.003 C 
ATOM     10  C   UNL     1      25.015  33.121   0.868  1.00  0.00     0.004 C 
ENDBRANCH   8   9
ENDBRANCH   7   8
ENDBRANCH   1   7
TORSDOF 6
ENDMDL
MODEL 4
REMARK VINA RESULT:    -3.744     17.231     18.142
REMARK INTER + INTRA:          -5.297
REMARK INTER:                  -5.127
REMARK INTRA:                  -0.171
REMARK UNBOUND:                -0.240
REMARK SMILES CCCCCCCC(=O)[O-]
REMARK SMILES IDX 5 1 6 2 7 3 8 4 9 5 10 6 4 7 3 8 2 9 1 10
REMARK H PARENT
REMARK Flexibility Score: inf
ROOT
ATOM      1  C   UNL     1      28.516  34.259   3.845  1.00  0.00     0.000 C 
ENDROOT
BRANCH   1   2
ATOM      2  C   UNL     1      27.156  33.582   3.601  1.00  0.00     0.006 C 
BRANCH   2   3
ATOM      3  C   UNL     1      27.004  33.093   2.155  1.00  0.00     0.053 C 
BRANCH   3   4
ATOM      4  C   UNL     1      25.778  33.659   1.503  1.00  0.00     0.041 C 
ATOM      5  O   UNL     1      25.546  34.896   1.553  1.00  0.00    -0.550 OA
ATOM      6  O   UNL     1      24.877  32.815   0.867  1.00  0.00    -0.550 OA
ENDBRANCH   3   4
ENDBRANCH   2   3
ENDBRANCH   1   2
BRANCH   1   7
ATOM      7  C   UNL     1      29.668  33.248   3.969  1.00  0.00     0.000 C 
BRANCH   7   8
ATOM      8  C   UNL     1      30.612  33.275   2.755  1.00  0.00    -0.000 C 
BRANCH   8   9
ATOM      9  C   UNL     1      32.094  33.261   3.160  1.00  0.00    -0.003 C 
ATOM     10  C   UNL     1      32.981  32.543   2.143  1.00  0.00     0.004 C 
ENDBRANCH   8   9
ENDBRANCH   7   8
ENDBRANCH   1   7
TORSDOF 6
ENDMDL
MODEL 5
REMARK VINA RESULT:    -3.670     16.924     18.001
REMARK INTER + INTRA:          -5.196
REMARK INTER:                  -4.877
REMARK INTRA:                  -0.320
REMARK UNBOUND:                -0.240
REMARK SMILES CCCCCCCC(=O)[O-]
REMARK SMILES IDX 5 1 6 2 7 3 8 4 9 5 10 6 4 7 3 8 2 9 1 10
REMARK H PARENT
REMARK Flexibility Score: inf
ROOT
ATOM      1  C   UNL     1      29.668  33.188   4.015  1.00  0.00     0.000 C 
ENDROOT
BRANCH   1   2
ATOM      2  C   UNL     1      30.864  33.579   3.130  1.00  0.00     0.006 C 
BRANCH   2   3
ATOM      3  C   UNL     1      30.852  32.843   1.783  1.00  0.00     0.053 C 
BRANCH   3   4
ATOM      4  C   UNL     1      32.218  32.786   1.168  1.00  0.00     0.041 C 
ATOM      5  O   UNL     1      33.202  32.385   1.845  1.00  0.00    -0.550 OA
ATOM      6  O   UNL     1      32.408  33.205  -0.142  1.00  0.00    -0.550 OA
ENDBRANCH   3   4
ENDBRANCH   2   3
ENDBRANCH   1   2
BRANCH   1   7
ATOM      7  C   UNL     1      28.541  34.233   3.983  1.00  0.00     0.000 C 
BRANCH   7   8
ATOM      8  C   UNL     1      27.158  33.605   3.735  1.00  0.00    -0.000 C 
BRANCH   8   9
ATOM      9  C   UNL     1      27.077  32.875   2.385  1.00  0.00    -0.003 C 
ATOM     10  C   UNL     1      26.046  33.490   1.439  1.00  0.00     0.004 C 
ENDBRANCH   8   9
ENDBRANCH   7   8
ENDBRANCH   1   7
TORSDOF 6
ENDMDL
MODEL 6
REMARK VINA RESULT:    -3.657     18.227     19.108
REMARK INTER + INTRA:          -5.179
REMARK INTER:                  -4.985
REMARK INTRA:                  -0.195
REMARK UNBOUND:                -0.240
REMARK SMILES CCCCCCCC(=O)[O-]
REMARK SMILES IDX 5 1 6 2 7 3 8 4 9 5 10 6 4 7 3 8 2 9 1 10
REMARK H PARENT
REMARK Flexibility Score: inf
ROOT
ATOM      1  C   UNL     1      26.389  34.429   2.256  1.00  0.00     0.000 C 
ENDROOT
BRANCH   1   2
ATOM      2  C   UNL     1      26.904  33.548   3.407  1.00  0.00     0.006 C 
BRANCH   2   3
ATOM      3  C   UNL     1      28.250  34.041   3.955  1.00  0.00     0.053 C 
BRANCH   3   4
ATOM      4  C   UNL     1      29.383  33.162   3.520  1.00  0.00     0.041 C 
ATOM      5  O   UNL     1      30.351  32.944   4.295  1.00  0.00    -0.550 OA
ATOM      6  O   UNL     1      29.384  32.609   2.246  1.00  0.00    -0.550 OA
ENDBRANCH   3   4
ENDBRANCH   2   3
ENDBRANCH   1   2
BRANCH   1   7
ATOM      7  C   UNL     1      25.981  33.611   1.020  1.00  0.00     0.000 C 
BRANCH   7   8
ATOM      8  C   UNL     1      24.507  33.817   0.633  1.00  0.00    -0.000 C 
BRANCH   8   9
ATOM      9  C   UNL     1      23.740  32.492   0.505  1.00  0.00    -0.003 C 
ATOM     10  C   UNL     1      22.715  32.507  -0.629  1.00  0.00     0.004 C 
ENDBRANCH   8   9
ENDBRANCH   7   8
ENDBRANCH   1   7
TORSDOF 6
ENDMDL
MODEL 7
REMARK VINA RESULT:    -3.551     16.769     17.487
REMARK INTER + INTRA:          -5.037
REMARK INTER:                  -4.699
REMARK INTRA:                  -0.338
REMARK UNBOUND:                -0.240
REMARK SMILES CCCCCCCC(=O)[O-]
REMARK SMILES IDX 5 1 6 2 7 3 8 4 9 5 10 6 4 7 3 8 2 9 1 10
REMARK H PARENT
REMARK Flexibility Score: inf
ROOT
ATOM      1  C   UNL     1      30.236  33.943   2.535  1.00  0.00     0.000 C 
ENDROOT
BRANCH   1   2
ATOM      2  C   UNL     1      29.632  33.312   3.801  1.00  0.00     0.006 C 
BRANCH   2   3
ATOM      3  C   UNL     1      28.277  33.933   4.167  1.00  0.00     0.053 C 
BRANCH   3   4
ATOM      4  C   UNL     1      27.277  33.775   3.062  1.00  0.00     0.041 C 
ATOM      5  O   UNL     1      26.970  32.628   2.642  1.00  0.00    -0.550 OA
ATOM      6  O   UNL     1      26.706  34.898   2.476  1.00  0.00    -0.550 OA
ENDBRANCH   3   4
ENDBRANCH   2   3
ENDBRANCH   1   2
BRANCH   1   7
ATOM      7  C   UNL     1      30.666  32.893   1.497  1.00  0.00     0.000 C 
BRANCH   7   8
ATOM      8  C   UNL     1      32.145  33.027   1.097  1.00  0.00    -0.000 C 
BRANCH   8   9
ATOM      9  C   UNL     1      33.098  32.494   2.178  1.00  0.00    -0.003 C 
ATOM     10  C   UNL     1      33.772  33.609   2.978  1.00  0.00     0.004 C 
ENDBRANCH   8   9
ENDBRANCH   7   8
ENDBRANCH   1   7
TORSDOF 6
ENDMDL
MODEL 8
REMARK VINA RESULT:    -3.365      3.004      5.093
REMARK INTER + INTRA:          -4.785
REMARK INTER:                  -4.396
REMARK INTRA:                  -0.389
REMARK UNBOUND:                -0.240
REMARK SMILES CCCCCCCC(=O)[O-]
REMARK SMILES IDX 5 1 6 2 7 3 8 4 9 5 10 6 4 7 3 8 2 9 1 10
REMARK H PARENT
REMARK Flexibility Score: inf
ROOT
ATOM      1  C   UNL     1      35.115  23.637  17.730  1.00  0.00     0.000 C 
ENDROOT
BRANCH   1   2
ATOM      2  C   UNL     1      35.789  22.608  16.806  1.00  0.00     0.006 C 
BRANCH   2   3
ATOM      3  C   UNL     1      35.930  23.126  15.369  1.00  0.00     0.053 C 
BRANCH   3   4
ATOM      4  C   UNL     1      35.838  22.016  14.366  1.00  0.00     0.041 C 
ATOM      5  O   UNL     1      35.536  22.266  13.169  1.00  0.00    -0.550 OA
ATOM      6  O   UNL     1      36.056  20.702  14.761  1.00  0.00    -0.550 OA
ENDBRANCH   3   4
ENDBRANCH   2   3
ENDBRANCH   1   2
BRANCH   1   7
ATOM      7  C   UNL     1      35.865  24.979  17.768  1.00  0.00     0.000 C 
BRANCH   7   8
ATOM      8  C   UNL     1      34.976  26.164  17.354  1.00  0.00    -0.000 C 
BRANCH   8   9
ATOM      9  C   UNL     1      33.478  25.827  17.413  1.00  0.00    -0.003 C 
ATOM     10  C   UNL     1      32.768  26.040  16.076  1.00  0.00     0.004 C 
ENDBRANCH   8   9
ENDBRANCH   7   8
ENDBRANCH   1   7
TORSDOF 6
ENDMDL
MODEL 9
REMARK VINA RESULT:    -3.331     17.813     18.786
REMARK INTER + INTRA:          -4.740
REMARK INTER:                  -4.093
REMARK INTRA:                  -0.647
REMARK UNBOUND:                -0.240
REMARK SMILES CCCCCCCC(=O)[O-]
REMARK SMILES IDX 5 1 6 2 7 3 8 4 9 5 10 6 4 7 3 8 2 9 1 10
REMARK H PARENT
REMARK Flexibility Score: inf
ROOT
ATOM      1  C   UNL     1      27.153  32.915   3.023  1.00  0.00     0.000 C 
ENDROOT
BRANCH   1   2
ATOM      2  C   UNL     1      28.033  33.834   3.888  1.00  0.00     0.006 C 
BRANCH   2   3
ATOM      3  C   UNL     1      29.493  33.364   3.930  1.00  0.00     0.053 C 
BRANCH   3   4
ATOM      4  C   UNL     1      30.221  33.696   2.663  1.00  0.00     0.041 C 
ATOM      5  O   UNL     1      30.616  34.873   2.448  1.00  0.00    -0.550 OA
ATOM      6  O   UNL     1      30.438  32.712   1.707  1.00  0.00    -0.550 OA
ENDBRANCH   3   4
ENDBRANCH   2   3
ENDBRANCH   1   2
BRANCH   1   7
ATOM      7  C   UNL     1      26.630  33.614   1.758  1.00  0.00     0.000 C 
BRANCH   7   8
ATOM      8  C   UNL     1      26.578  35.145   1.905  1.00  0.00    -0.000 C 
BRANCH   8   9
ATOM      9  C   UNL     1      27.519  35.863   0.926  1.00  0.00    -0.003 C 
ATOM     10  C   UNL     1      28.066  34.937  -0.160  1.00  0.00     0.004 C 
ENDBRANCH   8   9
ENDBRANCH   7   8
ENDBRANCH   1   7
TORSDOF 6
ENDMDL
