MODEL 1
REMARK VINA RESULT:    -4.482      0.000      0.000
REMARK INTER + INTRA:          -6.824
REMARK INTER:                  -6.841
REMARK INTRA:                   0.017
REMARK UNBOUND:                 0.017
REMARK SMILES CC1=CCC[C@@H](C)C(=O)C[C@H](C(C)C)C(=O)C1
REMARK SMILES IDX 8 1 9 2 6 3 7 4 5 5 4 6 3 7 2 8 1 9 10 11 11 12 15 13 16 14
REMARK SMILES IDX 17 15 12 17 13 18 14 19
REMARK H PARENT
REMARK Flexibility Score: 70.00
ROOT
ATOM      1  C   UNL     1      33.247  20.790  21.832  1.00  0.00     0.136 C 
ATOM      2  O   UNL     1      33.311  22.008  21.881  1.00  0.00    -0.299 OA
ENDROOT
BRANCH   1   3
ATOM      3  C   UNL     1      32.376  20.144  20.765  1.00  0.00     0.053 C 
ATOM      4  C   UNL     1      32.614  20.815  19.408  1.00  0.00     0.016 C 
BRANCH   3   5
ATOM      5  C   UNL     1      30.876  20.165  21.131  1.00  0.00     0.015 C 
BRANCH   5   6
ATOM      6  C   UNL     1      30.514  19.043  22.119  1.00  0.00     0.028 C 
BRANCH   6   7
ATOM      7  C   UNL     1      29.752  19.531  23.328  1.00  0.00    -0.028 C 
ATOM      8  C   UNL     1      30.229  19.636  24.596  1.00  0.00    -0.070 CG0
ATOM      9  C   UNL     1      29.243  20.029  25.669  1.00  0.00     0.039 C 
ATOM     10  G   UNL     1      31.694  19.467  24.991  1.00  0.00     0.000 G0
ENDBRANCH   6   7
ENDBRANCH   5   6
ENDBRANCH   3   5
ENDBRANCH   1   3
BRANCH   1  11
ATOM     11  C   UNL     1      33.970  19.968  22.877  1.00  0.00     0.087 C 
BRANCH  11  12
ATOM     12  C   UNL     1      33.968  20.587  24.305  1.00  0.00     0.066 C 
BRANCH  12  13
ATOM     13  C   UNL     1      32.545  20.709  24.847  1.00  0.00     0.140 C 
ATOM     14  O   UNL     1      32.065  21.810  25.085  1.00  0.00    -0.299 OA
BRANCH  13  15
ATOM     15  C   UNL     1      31.688  19.479  25.011  1.00  0.00     0.106 CG0
ATOM     16  G   UNL     1      30.229  19.647  24.590  1.00  0.00     0.000 G0
ENDBRANCH  13  15
ENDBRANCH  12  13
BRANCH  12  17
ATOM     17  C   UNL     1      34.940  19.892  25.323  1.00  0.00    -0.006 C 
ATOM     18  C   UNL     1      35.809  18.797  24.677  1.00  0.00     0.008 C 
ATOM     19  C   UNL     1      35.872  20.926  25.984  1.00  0.00     0.008 C 
ENDBRANCH  12  17
ENDBRANCH  11  12
ENDBRANCH   1  11
TORSDOF 1
ENDMDL
MODEL 2
REMARK VINA RESULT:    -4.321      1.977      4.558
REMARK INTER + INTRA:          -6.578
REMARK INTER:                  -6.201
REMARK INTRA:                  -0.377
REMARK UNBOUND:                 0.017
REMARK SMILES CC1=CCC[C@@H](C)C(=O)C[C@H](C(C)C)C(=O)C1
REMARK SMILES IDX 8 1 9 2 6 3 7 4 5 5 4 6 3 7 2 8 1 9 10 11 11 12 15 13 16 14
REMARK SMILES IDX 17 15 12 17 13 18 14 19
REMARK H PARENT
REMARK Flexibility Score: 70.00
ROOT
ATOM      1  C   UNL     1      33.374  18.822  24.929  1.00  0.00     0.136 C 
ATOM      2  O   UNL     1      33.564  19.426  25.972  1.00  0.00    -0.299 OA
ENDROOT
BRANCH   1   3
ATOM      3  C   UNL     1      34.489  18.777  23.894  1.00  0.00     0.053 C 
ATOM      4  C   UNL     1      35.685  17.989  24.437  1.00  0.00     0.016 C 
BRANCH   3   5
ATOM      5  C   UNL     1      34.924  20.184  23.431  1.00  0.00     0.015 C 
BRANCH   5   6
ATOM      6  C   UNL     1      33.717  21.060  23.053  1.00  0.00     0.028 C 
BRANCH   6   7
ATOM      7  C   UNL     1      33.128  20.718  21.705  1.00  0.00    -0.028 C 
ATOM      8  C   UNL     1      31.826  20.436  21.440  1.00  0.00    -0.070 CG0
ATOM      9  C   UNL     1      31.491  19.997  20.036  1.00  0.00     0.039 C 
ATOM     10  G   UNL     1      30.678  20.610  22.433  1.00  0.00     0.000 G0
ENDBRANCH   6   7
ENDBRANCH   5   6
ENDBRANCH   3   5
ENDBRANCH   1   3
BRANCH   1  11
ATOM     11  C   UNL     1      32.016  18.208  24.665  1.00  0.00     0.087 C 
BRANCH  11  12
ATOM     12  C   UNL     1      30.835  19.223  24.657  1.00  0.00     0.066 C 
BRANCH  12  13
ATOM     13  C   UNL     1      30.286  19.410  23.244  1.00  0.00     0.140 C 
ATOM     14  O   UNL     1      29.485  18.610  22.779  1.00  0.00    -0.299 OA
BRANCH  13  15
ATOM     15  C   UNL     1      30.660  20.631  22.441  1.00  0.00     0.106 CG0
ATOM     16  G   UNL     1      31.814  20.431  21.461  1.00  0.00     0.000 G0
ENDBRANCH  13  15
ENDBRANCH  12  13
BRANCH  12  17
ATOM     17  C   UNL     1      29.707  18.924  25.705  1.00  0.00    -0.006 C 
ATOM     18  C   UNL     1      30.214  18.152  26.936  1.00  0.00     0.008 C 
ATOM     19  C   UNL     1      29.049  20.231  26.188  1.00  0.00     0.008 C 
ENDBRANCH  12  17
ENDBRANCH  11  12
ENDBRANCH   1  11
TORSDOF 1
ENDMDL
MODEL 3
REMARK VINA RESULT:    -4.303      4.016      6.615
REMARK INTER + INTRA:          -6.550
REMARK INTER:                  -6.142
REMARK INTRA:                  -0.408
REMARK UNBOUND:                 0.017
REMARK SMILES CC1=CCC[C@@H](C)C(=O)C[C@H](C(C)C)C(=O)C1
REMARK SMILES IDX 8 1 9 2 6 3 7 4 5 5 4 6 3 7 2 8 1 9 10 11 11 12 15 13 16 14
REMARK SMILES IDX 17 15 12 17 13 18 14 19
REMARK H PARENT
REMARK Flexibility Score: 70.00
ROOT
ATOM      1  C   UNL     1      39.161  18.995  27.403  1.00  0.00     0.136 C 
ATOM      2  O   UNL     1      40.279  19.182  27.858  1.00  0.00    -0.299 OA
ENDROOT
BRANCH   1   3
ATOM      3  C   UNL     1      38.973  17.927  26.336  1.00  0.00     0.053 C 
ATOM      4  C   UNL     1      39.605  18.379  25.015  1.00  0.00     0.016 C 
BRANCH   3   5
ATOM      5  C   UNL     1      37.490  17.548  26.132  1.00  0.00     0.015 C 
BRANCH   5   6
ATOM      6  C   UNL     1      36.956  18.040  24.776  1.00  0.00     0.028 C 
BRANCH   6   7
ATOM      7  C   UNL     1      35.641  18.773  24.880  1.00  0.00    -0.028 C 
ATOM      8  C   UNL     1      35.471  20.094  25.151  1.00  0.00    -0.070 CG0
ATOM      9  C   UNL     1      34.054  20.581  25.333  1.00  0.00     0.039 C 
ATOM     10  G   UNL     1      36.598  21.124  25.201  1.00  0.00     0.000 G0
ENDBRANCH   6   7
ENDBRANCH   5   6
ENDBRANCH   3   5
ENDBRANCH   1   3
BRANCH   1  11
ATOM     11  C   UNL     1      38.021  19.882  27.854  1.00  0.00     0.087 C 
BRANCH  11  12
ATOM     12  C   UNL     1      38.105  21.354  27.353  1.00  0.00     0.066 C 
BRANCH  12  13
ATOM     13  C   UNL     1      36.853  21.736  26.566  1.00  0.00     0.140 C 
ATOM     14  O   UNL     1      36.082  22.582  27.000  1.00  0.00    -0.299 OA
BRANCH  13  15
ATOM     15  C   UNL     1      36.601  21.138  25.204  1.00  0.00     0.106 CG0
ATOM     16  G   UNL     1      35.478  20.104  25.152  1.00  0.00     0.000 G0
ENDBRANCH  13  15
ENDBRANCH  12  13
BRANCH  12  17
ATOM     17  C   UNL     1      38.461  22.405  28.463  1.00  0.00    -0.006 C 
ATOM     18  C   UNL     1      38.251  21.870  29.891  1.00  0.00     0.008 C 
ATOM     19  C   UNL     1      39.925  22.869  28.328  1.00  0.00     0.008 C 
ENDBRANCH  12  17
ENDBRANCH  11  12
ENDBRANCH   1  11
TORSDOF 1
ENDMDL
MODEL 4
REMARK VINA RESULT:    -4.267      4.507      8.144
REMARK INTER + INTRA:          -6.496
REMARK INTER:                  -6.256
REMARK INTRA:                  -0.239
REMARK UNBOUND:                 0.017
REMARK SMILES CC1=CCC[C@@H](C)C(=O)C[C@H](C(C)C)C(=O)C1
REMARK SMILES IDX 8 1 9 2 6 3 7 4 5 5 4 6 3 7 2 8 1 9 10 11 11 12 15 13 16 14
REMARK SMILES IDX 17 15 12 17 13 18 14 19
REMARK H PARENT
REMARK Flexibility Score: 70.00
ROOT
ATOM      1  C   UNL     1      37.482  20.947  27.091  1.00  0.00     0.136 C 
ATOM      2  O   UNL     1      37.605  21.786  26.213  1.00  0.00    -0.299 OA
ENDROOT
BRANCH   1   3
ATOM      3  C   UNL     1      38.300  21.094  28.366  1.00  0.00     0.053 C 
ATOM      4  C   UNL     1      37.887  22.364  29.117  1.00  0.00     0.016 C 
BRANCH   3   5
ATOM      5  C   UNL     1      39.821  21.084  28.098  1.00  0.00     0.015 C 
BRANCH   5   6
ATOM      6  C   UNL     1      40.385  19.654  28.059  1.00  0.00     0.028 C 
BRANCH   6   7
ATOM      7  C   UNL     1      40.683  19.166  26.661  1.00  0.00    -0.028 C 
ATOM      8  C   UNL     1      39.979  18.239  25.961  1.00  0.00    -0.070 CG0
ATOM      9  C   UNL     1      40.540  17.814  24.626  1.00  0.00     0.039 C 
ATOM     10  G   UNL     1      38.630  17.665  26.390  1.00  0.00     0.000 G0
ENDBRANCH   6   7
ENDBRANCH   5   6
ENDBRANCH   3   5
ENDBRANCH   1   3
BRANCH   1  11
ATOM     11  C   UNL     1      36.586  19.751  26.852  1.00  0.00     0.087 C 
BRANCH  11  12
ATOM     12  C   UNL     1      36.677  19.148  25.419  1.00  0.00     0.066 C 
BRANCH  12  13
ATOM     13  C   UNL     1      37.488  17.853  25.422  1.00  0.00     0.140 C 
ATOM     14  O   UNL     1      37.273  16.986  24.585  1.00  0.00    -0.299 OA
BRANCH  13  15
ATOM     15  C   UNL     1      38.619  17.669  26.402  1.00  0.00     0.106 CG0
ATOM     16  G   UNL     1      39.960  18.249  25.957  1.00  0.00     0.000 G0
ENDBRANCH  13  15
ENDBRANCH  12  13
BRANCH  12  17
ATOM     17  C   UNL     1      35.299  18.992  24.685  1.00  0.00    -0.006 C 
ATOM     18  C   UNL     1      34.115  18.813  25.653  1.00  0.00     0.008 C 
ATOM     19  C   UNL     1      35.015  20.214  23.789  1.00  0.00     0.008 C 
ENDBRANCH  12  17
ENDBRANCH  11  12
ENDBRANCH   1  11
TORSDOF 1
ENDMDL
MODEL 5
REMARK VINA RESULT:    -4.150      5.179      7.584
REMARK INTER + INTRA:          -6.317
REMARK INTER:                  -6.017
REMARK INTRA:                  -0.300
REMARK UNBOUND:                 0.017
REMARK SMILES CC1=CCC[C@@H](C)C(=O)C[C@H](C(C)C)C(=O)C1
REMARK SMILES IDX 8 1 9 2 6 3 7 4 5 5 4 6 3 7 2 8 1 9 10 11 11 12 15 13 16 14
REMARK SMILES IDX 17 15 12 17 13 18 14 19
REMARK H PARENT
REMARK Flexibility Score: 70.00
ROOT
ATOM      1  C   UNL     1      37.304  17.900  25.404  1.00  0.00     0.136 C 
ATOM      2  O   UNL     1      37.385  17.080  24.503  1.00  0.00    -0.299 OA
ENDROOT
BRANCH   1   3
ATOM      3  C   UNL     1      36.189  18.934  25.357  1.00  0.00     0.053 C 
ATOM      4  C   UNL     1      35.263  18.661  24.167  1.00  0.00     0.016 C 
BRANCH   3   5
ATOM      5  C   UNL     1      36.725  20.382  25.313  1.00  0.00     0.015 C 
BRANCH   5   6
ATOM      6  C   UNL     1      36.371  21.160  26.591  1.00  0.00     0.028 C 
BRANCH   6   7
ATOM      7  C   UNL     1      37.480  22.067  27.068  1.00  0.00    -0.028 C 
ATOM      8  C   UNL     1      38.506  21.726  27.892  1.00  0.00    -0.070 CG0
ATOM      9  C   UNL     1      39.428  22.834  28.336  1.00  0.00     0.039 C 
ATOM     10  G   UNL     1      38.834  20.298  28.327  1.00  0.00     0.000 G0
ENDBRANCH   6   7
ENDBRANCH   5   6
ENDBRANCH   3   5
ENDBRANCH   1   3
BRANCH   1  11
ATOM     11  C   UNL     1      38.356  17.910  26.492  1.00  0.00     0.087 C 
BRANCH  11  12
ATOM     12  C   UNL     1      39.554  18.870  26.227  1.00  0.00     0.066 C 
BRANCH  12  13
ATOM     13  C   UNL     1      39.933  19.634  27.495  1.00  0.00     0.140 C 
ATOM     14  O   UNL     1      41.108  19.765  27.810  1.00  0.00    -0.299 OA
BRANCH  13  15
ATOM     15  C   UNL     1      38.866  20.306  28.322  1.00  0.00     0.106 CG0
ATOM     16  G   UNL     1      38.510  21.726  27.884  1.00  0.00     0.000 G0
ENDBRANCH  13  15
ENDBRANCH  12  13
BRANCH  12  17
ATOM     17  C   UNL     1      40.793  18.197  25.538  1.00  0.00    -0.006 C 
ATOM     18  C   UNL     1      40.878  16.681  25.794  1.00  0.00     0.008 C 
ATOM     19  C   UNL     1      40.767  18.432  24.015  1.00  0.00     0.008 C 
ENDBRANCH  12  17
ENDBRANCH  11  12
ENDBRANCH   1  11
TORSDOF 1
ENDMDL
MODEL 6
REMARK VINA RESULT:    -4.148      4.202      7.552
REMARK INTER + INTRA:          -6.313
REMARK INTER:                  -6.261
REMARK INTRA:                  -0.052
REMARK UNBOUND:                 0.017
REMARK SMILES CC1=CCC[C@@H](C)C(=O)C[C@H](C(C)C)C(=O)C1
REMARK SMILES IDX 8 1 9 2 6 3 7 4 5 5 4 6 3 7 2 8 1 9 10 11 11 12 15 13 16 14
REMARK SMILES IDX 17 15 12 17 13 18 14 19
REMARK H PARENT
REMARK Flexibility Score: 70.00
ROOT
ATOM      1  C   UNL     1      38.089  18.521  25.382  1.00  0.00     0.136 C 
ATOM      2  O   UNL     1      37.556  17.513  25.818  1.00  0.00    -0.299 OA
ENDROOT
BRANCH   1   3
ATOM      3  C   UNL     1      39.603  18.648  25.473  1.00  0.00     0.053 C 
ATOM      4  C   UNL     1      40.277  17.606  24.575  1.00  0.00     0.016 C 
BRANCH   3   5
ATOM      5  C   UNL     1      40.121  18.539  26.924  1.00  0.00     0.015 C 
BRANCH   5   6
ATOM      6  C   UNL     1      40.618  19.894  27.456  1.00  0.00     0.028 C 
BRANCH   6   7
ATOM      7  C   UNL     1      39.663  20.542  28.429  1.00  0.00    -0.028 C 
ATOM      8  C   UNL     1      38.659  21.405  28.125  1.00  0.00    -0.070 CG0
ATOM      9  C   UNL     1      37.913  22.026  29.280  1.00  0.00     0.039 C 
ATOM     10  G   UNL     1      38.185  21.723  26.707  1.00  0.00     0.000 G0
ENDBRANCH   6   7
ENDBRANCH   5   6
ENDBRANCH   3   5
ENDBRANCH   1   3
BRANCH   1  11
ATOM     11  C   UNL     1      37.226  19.640  24.842  1.00  0.00     0.087 C 
BRANCH  11  12
ATOM     12  C   UNL     1      36.203  20.222  25.862  1.00  0.00     0.066 C 
BRANCH  12  13
ATOM     13  C   UNL     1      36.705  21.539  26.449  1.00  0.00     0.140 C 
ATOM     14  O   UNL     1      35.913  22.413  26.777  1.00  0.00    -0.299 OA
BRANCH  13  15
ATOM     15  C   UNL     1      38.177  21.740  26.711  1.00  0.00     0.106 CG0
ATOM     16  G   UNL     1      38.629  21.415  28.134  1.00  0.00     0.000 G0
ENDBRANCH  13  15
ENDBRANCH  12  13
BRANCH  12  17
ATOM     17  C   UNL     1      34.731  20.325  25.327  1.00  0.00    -0.006 C 
ATOM     18  C   UNL     1      34.646  20.344  23.790  1.00  0.00     0.008 C 
ATOM     19  C   UNL     1      33.877  19.151  25.847  1.00  0.00     0.008 C 
ENDBRANCH  12  17
ENDBRANCH  11  12
ENDBRANCH   1  11
TORSDOF 1
ENDMDL
MODEL 7
REMARK VINA RESULT:    -4.084      1.947      4.245
REMARK INTER + INTRA:          -6.215
REMARK INTER:                  -6.223
REMARK INTRA:                   0.007
REMARK UNBOUND:                 0.017
REMARK SMILES CC1=CCC[C@@H](C)C(=O)C[C@H](C(C)C)C(=O)C1
REMARK SMILES IDX 8 1 9 2 6 3 7 4 5 5 4 6 3 7 2 8 1 9 10 11 11 12 15 13 16 14
REMARK SMILES IDX 17 15 12 17 13 18 14 19
REMARK H PARENT
REMARK Flexibility Score: 70.00
ROOT
ATOM      1  C   UNL     1      30.277  19.663  22.613  1.00  0.00     0.136 C 
ATOM      2  O   UNL     1      29.469  18.793  22.328  1.00  0.00    -0.299 OA
ENDROOT
BRANCH   1   3
ATOM      3  C   UNL     1      31.191  20.201  21.522  1.00  0.00     0.053 C 
ATOM      4  C   UNL     1      30.713  19.723  20.147  1.00  0.00     0.016 C 
BRANCH   3   5
ATOM      5  C   UNL     1      32.671  19.824  21.749  1.00  0.00     0.015 C 
BRANCH   5   6
ATOM      6  C   UNL     1      33.429  20.923  22.513  1.00  0.00     0.028 C 
BRANCH   6   7
ATOM      7  C   UNL     1      34.527  20.388  23.400  1.00  0.00    -0.028 C 
ATOM      8  C   UNL     1      34.424  20.079  24.719  1.00  0.00    -0.070 CG0
ATOM      9  C   UNL     1      35.692  19.679  25.432  1.00  0.00     0.039 C 
ATOM     10  G   UNL     1      33.112  20.029  25.500  1.00  0.00     0.000 G0
ENDBRANCH   6   7
ENDBRANCH   5   6
ENDBRANCH   3   5
ENDBRANCH   1   3
BRANCH   1  11
ATOM     11  C   UNL     1      30.398  20.119  24.051  1.00  0.00     0.087 C 
BRANCH  11  12
ATOM     12  C   UNL     1      30.735  18.987  25.065  1.00  0.00     0.066 C 
BRANCH  12  13
ATOM     13  C   UNL     1      32.246  18.820  25.215  1.00  0.00     0.140 C 
ATOM     14  O   UNL     1      32.770  17.730  25.028  1.00  0.00    -0.299 OA
BRANCH  13  15
ATOM     15  C   UNL     1      33.115  20.017  25.512  1.00  0.00     0.106 CG0
ATOM     16  G   UNL     1      34.419  20.079  24.717  1.00  0.00     0.000 G0
ENDBRANCH  13  15
ENDBRANCH  12  13
BRANCH  12  17
ATOM     17  C   UNL     1      30.004  19.107  26.449  1.00  0.00    -0.006 C 
ATOM     18  C   UNL     1      28.552  19.603  26.324  1.00  0.00     0.008 C 
ATOM     19  C   UNL     1      29.994  17.751  27.182  1.00  0.00     0.008 C 
ENDBRANCH  12  17
ENDBRANCH  11  12
ENDBRANCH   1  11
TORSDOF 1
ENDMDL
MODEL 8
REMARK VINA RESULT:    -4.069      1.619      3.911
REMARK INTER + INTRA:          -6.193
REMARK INTER:                  -6.095
REMARK INTRA:                  -0.098
REMARK UNBOUND:                 0.017
REMARK SMILES CC1=CCC[C@@H](C)C(=O)C[C@H](C(C)C)C(=O)C1
REMARK SMILES IDX 8 1 9 2 6 3 7 4 5 5 4 6 3 7 2 8 1 9 10 11 11 12 15 13 16 14
REMARK SMILES IDX 17 15 12 17 13 18 14 19
REMARK H PARENT
REMARK Flexibility Score: 70.00
ROOT
ATOM      1  C   UNL     1      31.186  19.656  25.450  1.00  0.00     0.136 C 
ATOM      2  O   UNL     1      31.564  18.575  25.875  1.00  0.00    -0.299 OA
ENDROOT
BRANCH   1   3
ATOM      3  C   UNL     1      29.700  19.981  25.492  1.00  0.00     0.053 C 
ATOM      4  C   UNL     1      28.976  19.031  26.450  1.00  0.00     0.016 C 
BRANCH   3   5
ATOM      5  C   UNL     1      29.047  19.951  24.092  1.00  0.00     0.015 C 
BRANCH   5   6
ATOM      6  C   UNL     1      29.756  18.960  23.153  1.00  0.00     0.028 C 
BRANCH   6   7
ATOM      7  C   UNL     1      29.916  19.479  21.745  1.00  0.00    -0.028 C 
ATOM      8  C   UNL     1      31.087  19.684  21.086  1.00  0.00    -0.070 CG0
ATOM      9  C   UNL     1      31.006  20.332  19.726  1.00  0.00     0.039 C 
ATOM     10  G   UNL     1      32.458  19.232  21.587  1.00  0.00     0.000 G0
ENDBRANCH   6   7
ENDBRANCH   5   6
ENDBRANCH   3   5
ENDBRANCH   1   3
BRANCH   1  11
ATOM     11  C   UNL     1      32.192  20.599  24.827  1.00  0.00     0.087 C 
BRANCH  11  12
ATOM     12  C   UNL     1      33.304  19.901  23.990  1.00  0.00     0.066 C 
BRANCH  12  13
ATOM     13  C   UNL     1      33.152  20.220  22.503  1.00  0.00     0.140 C 
ATOM     14  O   UNL     1      33.644  21.237  22.034  1.00  0.00    -0.299 OA
BRANCH  13  15
ATOM     15  C   UNL     1      32.468  19.239  21.584  1.00  0.00     0.106 CG0
ATOM     16  G   UNL     1      31.090  19.673  21.088  1.00  0.00     0.000 G0
ENDBRANCH  13  15
ENDBRANCH  12  13
BRANCH  12  17
ATOM     17  C   UNL     1      34.765  20.144  24.509  1.00  0.00    -0.006 C 
ATOM     18  C   UNL     1      34.819  20.556  25.991  1.00  0.00     0.008 C 
ATOM     19  C   UNL     1      35.630  18.882  24.323  1.00  0.00     0.008 C 
ENDBRANCH  12  17
ENDBRANCH  11  12
ENDBRANCH   1  11
TORSDOF 1
ENDMDL
MODEL 9
REMARK VINA RESULT:    -4.063      4.706      6.764
REMARK INTER + INTRA:          -6.184
REMARK INTER:                  -6.285
REMARK INTRA:                   0.101
REMARK UNBOUND:                 0.017
REMARK SMILES CC1=CCC[C@@H](C)C(=O)C[C@H](C(C)C)C(=O)C1
REMARK SMILES IDX 8 1 9 2 6 3 7 4 5 5 4 6 3 7 2 8 1 9 10 11 11 12 15 13 16 14
REMARK SMILES IDX 17 15 12 17 13 18 14 19
REMARK H PARENT
REMARK Flexibility Score: 70.00
ROOT
ATOM      1  C   UNL     1      36.785  21.216  25.301  1.00  0.00     0.136 C 
ATOM      2  O   UNL     1      37.727  21.034  24.546  1.00  0.00    -0.299 OA
ENDROOT
BRANCH   1   3
ATOM      3  C   UNL     1      35.403  20.743  24.876  1.00  0.00     0.053 C 
ATOM      4  C   UNL     1      34.375  21.060  25.968  1.00  0.00     0.016 C 
BRANCH   3   5
ATOM      5  C   UNL     1      35.374  19.242  24.516  1.00  0.00     0.015 C 
BRANCH   5   6
ATOM      6  C   UNL     1      35.858  18.365  25.684  1.00  0.00     0.028 C 
BRANCH   6   7
ATOM      7  C   UNL     1      37.214  17.746  25.446  1.00  0.00    -0.028 C 
ATOM      8  C   UNL     1      38.332  17.934  26.196  1.00  0.00    -0.070 CG0
ATOM      9  C   UNL     1      39.610  17.310  25.692  1.00  0.00     0.039 C 
ATOM     10  G   UNL     1      38.366  18.658  27.541  1.00  0.00     0.000 G0
ENDBRANCH   6   7
ENDBRANCH   5   6
ENDBRANCH   3   5
ENDBRANCH   1   3
BRANCH   1  11
ATOM     11  C   UNL     1      37.007  21.972  26.593  1.00  0.00     0.087 C 
BRANCH  11  12
ATOM     12  C   UNL     1      37.374  21.079  27.814  1.00  0.00     0.066 C 
BRANCH  12  13
ATOM     13  C   UNL     1      38.544  20.154  27.483  1.00  0.00     0.140 C 
ATOM     14  O   UNL     1      39.648  20.618  27.229  1.00  0.00    -0.299 OA
BRANCH  13  15
ATOM     15  C   UNL     1      38.370  18.657  27.551  1.00  0.00     0.106 CG0
ATOM     16  G   UNL     1      38.342  17.949  26.198  1.00  0.00     0.000 G0
ENDBRANCH  13  15
ENDBRANCH  12  13
BRANCH  12  17
ATOM     17  C   UNL     1      37.589  21.861  29.157  1.00  0.00    -0.006 C 
ATOM     18  C   UNL     1      37.875  20.937  30.356  1.00  0.00     0.008 C 
ATOM     19  C   UNL     1      38.753  22.863  29.027  1.00  0.00     0.008 C 
ENDBRANCH  12  17
ENDBRANCH  11  12
ENDBRANCH   1  11
TORSDOF 1
ENDMDL
