MODEL 1
REMARK VINA RESULT:    19.878      0.000      0.000
REMARK INTER + INTRA:          21.369
REMARK INTER:                  21.621
REMARK INTRA:                  -0.252
REMARK UNBOUND:                -0.252
REMARK SMILES CC1(C)CC[C@@]2(C(=O)[O-])CC[C@@]3(C)C(=CC[C@@H]4[C@@]5(C)CC[C@@H](O)C(C)(C)[C@H]5CC[C@]43C)[C@H]2C1
REMARK SMILES IDX 6 1 5 2 10 3 32 4 4 5 11 6 14 7 33 8 2 9 12 10 15 11 1 12
REMARK SMILES IDX 3 13 13 14 30 15 16 16 17 17 29 18 31 19 18 20 28 21 27 22
REMARK SMILES IDX 20 23 19 24 24 25 21 26 22 27 25 28 26 29 7 30 8 31 9 32
REMARK SMILES IDX 23 33
REMARK H PARENT 23 34
REMARK Flexibility Score: inf
ROOT
ATOM      1  C   UNL     1      14.469 -15.340  15.025  1.00  0.00     0.017 C 
ATOM      2  C   UNL     1      15.808 -14.628  15.435  1.00  0.00     0.014 C 
ATOM      3  C   UNL     1      14.527 -16.796  15.546  1.00  0.00     0.014 C 
ATOM      4  C   UNL     1      13.230 -14.599  15.648  1.00  0.00     0.028 C 
ATOM      5  C   UNL     1      15.622 -13.123  15.664  1.00  0.00     0.007 C 
ATOM      6  C   UNL     1      13.269 -17.585  15.178  1.00  0.00     0.013 C 
ATOM      7  C   UNL     1      11.951 -15.439  15.748  1.00  0.00    -0.064 C 
ATOM      8  C   UNL     1      13.596 -13.966  17.015  1.00  0.00     0.015 C 
ATOM      9  C   UNL     1      14.667 -12.839  16.865  1.00  0.00    -0.035 C 
ATOM     10  C   UNL     1      11.942 -16.985  15.768  1.00  0.00    -0.006 C 
ATOM     11  C   UNL     1      10.798 -14.782  16.018  1.00  0.00    -0.027 C 
ATOM     12  C   UNL     1      15.484 -12.744  18.172  1.00  0.00     0.011 C 
ATOM     13  C   UNL     1      13.966 -11.480  16.638  1.00  0.00     0.011 C 
ATOM     14  C   UNL     1      11.979 -17.331  17.301  1.00  0.00     0.017 C 
ATOM     15  C   UNL     1      10.605 -17.589  15.012  1.00  0.00    -0.020 C 
ATOM     16  C   UNL     1       9.482 -15.508  16.063  1.00  0.00     0.032 C 
ATOM     17  C   UNL     1       9.463 -16.502  14.891  1.00  0.00     0.006 C 
ATOM     18  C   UNL     1      10.862 -18.003  13.519  1.00  0.00     0.008 C 
ATOM     19  C   UNL     1      10.158 -18.868  15.785  1.00  0.00     0.012 C 
ATOM     20  C   UNL     1       8.038 -16.999  14.376  1.00  0.00    -0.025 C 
ATOM     21  C   UNL     1       9.625 -18.020  12.566  1.00  0.00     0.005 C 
ATOM     22  C   UNL     1       8.221 -18.118  13.240  1.00  0.00     0.003 C 
ATOM     23  C   UNL     1       7.290 -15.734  13.819  1.00  0.00     0.010 C 
ATOM     24  C   UNL     1       7.208 -17.560  15.571  1.00  0.00     0.012 C 
ATOM     25  C   UNL     1       7.020 -18.270  12.195  1.00  0.00    -0.006 C 
ATOM     26  C   UNL     1       6.074 -16.024  12.943  1.00  0.00     0.033 C 
ATOM     27  C   UNL     1       6.458 -16.893  11.746  1.00  0.00     0.120 C 
ATOM     28  C   UNL     1       7.441 -19.053  10.918  1.00  0.00     0.014 C 
ATOM     29  C   UNL     1       5.875 -19.125  12.813  1.00  0.00     0.014 C 
ENDROOT
BRANCH   1  30
ATOM     30  C   UNL     1      14.370 -15.354  13.499  1.00  0.00     0.048 C 
ATOM     31  O   UNL     1      13.525 -14.624  12.914  1.00  0.00    -0.550 OA
ATOM     32  O   UNL     1      15.247 -16.106  12.727  1.00  0.00    -0.550 OA
ENDBRANCH   1  30
BRANCH  27  33
ATOM     33  O   UNL     1       7.398 -16.213  10.949  1.00  0.00    -0.393 OA
ATOM     34  H   UNL     1       7.167 -16.402  10.002  1.00  0.00     0.210 HD
ENDBRANCH  27  33
TORSDOF 2
ENDMDL
MODEL 2
REMARK VINA RESULT:    21.735      4.903      7.981
REMARK INTER + INTRA:          23.389
REMARK INTER:                  22.848
REMARK INTRA:                   0.541
REMARK UNBOUND:                -0.252
REMARK SMILES CC1(C)CC[C@@]2(C(=O)[O-])CC[C@@]3(C)C(=CC[C@@H]4[C@@]5(C)CC[C@@H](O)C(C)(C)[C@H]5CC[C@]43C)[C@H]2C1
REMARK SMILES IDX 6 1 5 2 10 3 32 4 4 5 11 6 14 7 33 8 2 9 12 10 15 11 1 12
REMARK SMILES IDX 3 13 13 14 30 15 16 16 17 17 29 18 31 19 18 20 28 21 27 22
REMARK SMILES IDX 20 23 19 24 24 25 21 26 22 27 25 28 26 29 7 30 8 31 9 32
REMARK SMILES IDX 23 33
REMARK H PARENT 23 34
REMARK Flexibility Score: inf
ROOT
ATOM      1  C   UNL     1      15.420 -15.621  15.742  1.00  0.00     0.017 C 
ATOM      2  C   UNL     1      15.095 -15.397  17.262  1.00  0.00     0.014 C 
ATOM      3  C   UNL     1      14.131 -16.129  15.052  1.00  0.00     0.014 C 
ATOM      4  C   UNL     1      15.895 -14.282  15.069  1.00  0.00     0.028 C 
ATOM      5  C   UNL     1      15.940 -14.275  17.880  1.00  0.00     0.007 C 
ATOM      6  C   UNL     1      14.350 -16.398  13.561  1.00  0.00     0.013 C 
ATOM      7  C   UNL     1      15.764 -14.238  13.542  1.00  0.00    -0.064 C 
ATOM      8  C   UNL     1      15.207 -13.059  15.728  1.00  0.00     0.015 C 
ATOM      9  C   UNL     1      15.626 -12.894  17.224  1.00  0.00    -0.035 C 
ATOM     10  C   UNL     1      14.792 -15.133  12.740  1.00  0.00    -0.006 C 
ATOM     11  C   UNL     1      16.401 -13.233  12.894  1.00  0.00    -0.027 C 
ATOM     12  C   UNL     1      14.482 -12.198  17.993  1.00  0.00     0.011 C 
ATOM     13  C   UNL     1      16.881 -11.997  17.318  1.00  0.00     0.011 C 
ATOM     14  C   UNL     1      13.497 -14.250  12.617  1.00  0.00     0.017 C 
ATOM     15  C   UNL     1      15.424 -15.544  11.272  1.00  0.00    -0.020 C 
ATOM     16  C   UNL     1      16.392 -13.147  11.394  1.00  0.00     0.032 C 
ATOM     17  C   UNL     1      16.595 -14.571  10.849  1.00  0.00     0.006 C 
ATOM     18  C   UNL     1      16.111 -16.955  11.257  1.00  0.00     0.008 C 
ATOM     19  C   UNL     1      14.252 -15.580  10.242  1.00  0.00     0.012 C 
ATOM     20  C   UNL     1      17.158 -14.712   9.363  1.00  0.00    -0.025 C 
ATOM     21  C   UNL     1      17.209 -17.198  10.174  1.00  0.00     0.005 C 
ATOM     22  C   UNL     1      17.185 -16.256   8.928  1.00  0.00     0.003 C 
ATOM     23  C   UNL     1      18.601 -14.090   9.363  1.00  0.00     0.010 C 
ATOM     24  C   UNL     1      16.277 -13.880   8.381  1.00  0.00     0.012 C 
ATOM     25  C   UNL     1      18.250 -16.657   7.805  1.00  0.00    -0.006 C 
ATOM     26  C   UNL     1      19.468 -14.446   8.158  1.00  0.00     0.033 C 
ATOM     27  C   UNL     1      19.621 -15.961   8.024  1.00  0.00     0.120 C 
ATOM     28  C   UNL     1      18.499 -18.192   7.745  1.00  0.00     0.014 C 
ATOM     29  C   UNL     1      17.702 -16.299   6.392  1.00  0.00     0.014 C 
ENDROOT
BRANCH   1  30
ATOM     30  C   UNL     1      16.508 -16.690  15.627  1.00  0.00     0.048 C 
ATOM     31  O   UNL     1      16.904 -17.070  14.492  1.00  0.00    -0.550 OA
ATOM     32  O   UNL     1      17.131 -17.208  16.757  1.00  0.00    -0.550 OA
ENDBRANCH   1  30
BRANCH  27  33
ATOM     33  O   UNL     1      20.260 -16.476   9.167  1.00  0.00    -0.393 OA
ATOM     34  H   UNL     1      19.868 -16.011   9.953  1.00  0.00     0.210 HD
ENDBRANCH  27  33
TORSDOF 2
ENDMDL
