MODEL 1
REMARK VINA RESULT:    -2.888      0.000      0.000
REMARK INTER + INTRA:          -7.130
REMARK INTER:                  -4.408
REMARK INTRA:                  -2.722
REMARK UNBOUND:                -2.722
REMARK SMILES CC(=O)CCC=C(C)CCC=C(C)CCC=C(C)C
REMARK SMILES IDX 10 1 11 2 12 3 13 4 14 5 15 6 16 7 18 8 17 9 19 10 9 11 7 12
REMARK SMILES IDX 6 13 8 14 5 15 4 16 2 17 3 18 1 19
REMARK H PARENT
REMARK Flexibility Score: inf
ROOT
ATOM      1  C   UNL     1      80.803   1.865  68.698  1.00  0.00     0.032 C 
ENDROOT
BRANCH   1   2
ATOM      2  C   UNL     1      81.697   0.658  68.547  1.00  0.00    -0.028 C 
ATOM      3  C   UNL     1      81.263  -0.618  68.434  1.00  0.00    -0.077 C 
ATOM      4  C   UNL     1      82.291  -1.714  68.318  1.00  0.00     0.039 C 
BRANCH   3   5
ATOM      5  C   UNL     1      79.796  -0.988  68.346  1.00  0.00     0.034 C 
BRANCH   5   6
ATOM      6  C   UNL     1      79.539  -1.885  67.131  1.00  0.00     0.032 C 
BRANCH   6   7
ATOM      7  C   UNL     1      78.618  -1.204  66.149  1.00  0.00    -0.028 C 
ATOM      8  C   UNL     1      80.500  -0.313  64.757  1.00  0.00     0.039 C 
ATOM      9  C   UNL     1      79.035  -0.514  65.064  1.00  0.00    -0.080 C 
ATOM     10  C   UNL     1      77.995   0.079  64.148  1.00  0.00     0.039 C 
ENDBRANCH   6   7
ENDBRANCH   5   6
ENDBRANCH   3   5
ENDBRANCH   1   2
BRANCH   1  11
ATOM     11  C   UNL     1      80.721   2.682  67.399  1.00  0.00     0.034 C 
BRANCH  11  12
ATOM     12  C   UNL     1      79.308   2.726  66.846  1.00  0.00    -0.077 C 
ATOM     13  C   UNL     1      79.028   3.133  65.587  1.00  0.00    -0.028 C 
ATOM     14  C   UNL     1      78.163   2.321  67.740  1.00  0.00     0.039 C 
BRANCH  13  15
ATOM     15  C   UNL     1      80.081   3.533  64.581  1.00  0.00     0.035 C 
BRANCH  15  16
ATOM     16  C   UNL     1      79.484   4.406  63.473  1.00  0.00     0.079 C 
BRANCH  16  17
ATOM     17  C   UNL     1      79.950   3.944  62.119  1.00  0.00     0.130 C 
ATOM     18  O   UNL     1      80.496   4.733  61.363  1.00  0.00    -0.300 OA
ATOM     19  C   UNL     1      79.769   2.517  61.700  1.00  0.00     0.087 C 
ENDBRANCH  16  17
ENDBRANCH  15  16
ENDBRANCH  13  15
ENDBRANCH  11  12
ENDBRANCH   1  11
TORSDOF 9
ENDMDL
MODEL 2
REMARK VINA RESULT:    -2.769      3.059      5.936
REMARK INTER + INTRA:          -6.947
REMARK INTER:                  -4.013
REMARK INTRA:                  -2.934
REMARK UNBOUND:                -2.722
REMARK SMILES CC(=O)CCC=C(C)CCC=C(C)CCC=C(C)C
REMARK SMILES IDX 10 1 11 2 12 3 13 4 14 5 15 6 16 7 18 8 17 9 19 10 9 11 7 12
REMARK SMILES IDX 6 13 8 14 5 15 4 16 2 17 3 18 1 19
REMARK H PARENT
REMARK Flexibility Score: inf
ROOT
ATOM      1  C   UNL     1      78.932  -0.580  65.546  1.00  0.00     0.032 C 
ENDROOT
BRANCH   1   2
ATOM      2  C   UNL     1      80.303  -0.646  66.173  1.00  0.00    -0.028 C 
ATOM      3  C   UNL     1      80.641  -0.092  67.360  1.00  0.00    -0.077 C 
ATOM      4  C   UNL     1      82.066  -0.227  67.831  1.00  0.00     0.039 C 
BRANCH   3   5
ATOM      5  C   UNL     1      79.638   0.593  68.267  1.00  0.00     0.034 C 
BRANCH   5   6
ATOM      6  C   UNL     1      79.763   2.116  68.155  1.00  0.00     0.032 C 
BRANCH   6   7
ATOM      7  C   UNL     1      78.675   2.677  67.275  1.00  0.00    -0.028 C 
ATOM      8  C   UNL     1      80.212   3.039  65.331  1.00  0.00     0.039 C 
ATOM      9  C   UNL     1      78.855   3.074  65.996  1.00  0.00    -0.080 C 
ATOM     10  C   UNL     1      77.662   3.578  65.224  1.00  0.00     0.039 C 
ENDBRANCH   6   7
ENDBRANCH   5   6
ENDBRANCH   3   5
ENDBRANCH   1   2
BRANCH   1  11
ATOM     11  C   UNL     1      78.160  -1.898  65.720  1.00  0.00     0.034 C 
BRANCH  11  12
ATOM     12  C   UNL     1      77.448  -1.965  67.059  1.00  0.00    -0.077 C 
ATOM     13  C   UNL     1      77.723  -2.910  67.987  1.00  0.00    -0.028 C 
ATOM     14  C   UNL     1      76.373  -0.953  67.363  1.00  0.00     0.039 C 
BRANCH  13  15
ATOM     15  C   UNL     1      78.796  -3.960  67.823  1.00  0.00     0.035 C 
BRANCH  15  16
ATOM     16  C   UNL     1      80.054  -3.594  68.617  1.00  0.00     0.079 C 
BRANCH  16  17
ATOM     17  C   UNL     1      81.293  -3.854  67.803  1.00  0.00     0.130 C 
ATOM     18  O   UNL     1      82.393  -3.740  68.320  1.00  0.00    -0.300 OA
ATOM     19  C   UNL     1      81.185  -4.274  66.369  1.00  0.00     0.087 C 
ENDBRANCH  16  17
ENDBRANCH  15  16
ENDBRANCH  13  15
ENDBRANCH  11  12
ENDBRANCH   1  11
TORSDOF 9
ENDMDL
MODEL 3
REMARK VINA RESULT:    -2.669      2.733      5.427
REMARK INTER + INTRA:          -6.796
REMARK INTER:                  -3.715
REMARK INTRA:                  -3.081
REMARK UNBOUND:                -2.722
REMARK SMILES CC(=O)CCC=C(C)CCC=C(C)CCC=C(C)C
REMARK SMILES IDX 10 1 11 2 12 3 13 4 14 5 15 6 16 7 18 8 17 9 19 10 9 11 7 12
REMARK SMILES IDX 6 13 8 14 5 15 4 16 2 17 3 18 1 19
REMARK H PARENT
REMARK Flexibility Score: inf
ROOT
ATOM      1  C   UNL     1      79.522   2.530  64.479  1.00  0.00     0.032 C 
ENDROOT
BRANCH   1   2
ATOM      2  C   UNL     1      80.460   2.735  65.644  1.00  0.00    -0.028 C 
ATOM      3  C   UNL     1      80.080   2.822  66.939  1.00  0.00    -0.077 C 
ATOM      4  C   UNL     1      81.143   3.057  67.981  1.00  0.00     0.039 C 
BRANCH   3   5
ATOM      5  C   UNL     1      78.649   2.622  67.395  1.00  0.00     0.034 C 
BRANCH   5   6
ATOM      6  C   UNL     1      78.611   1.979  68.786  1.00  0.00     0.032 C 
BRANCH   6   7
ATOM      7  C   UNL     1      78.584   0.476  68.678  1.00  0.00    -0.028 C 
ATOM      8  C   UNL     1      76.082   0.359  68.700  1.00  0.00     0.039 C 
ATOM      9  C   UNL     1      77.456  -0.265  68.614  1.00  0.00    -0.080 C 
ATOM     10  C   UNL     1      77.585  -1.760  68.467  1.00  0.00     0.039 C 
ENDBRANCH   6   7
ENDBRANCH   5   6
ENDBRANCH   3   5
ENDBRANCH   1   2
BRANCH   1  11
ATOM     11  C   UNL     1      79.624   1.107  63.908  1.00  0.00     0.034 C 
BRANCH  11  12
ATOM     12  C   UNL     1      78.914   0.092  64.787  1.00  0.00    -0.077 C 
ATOM     13  C   UNL     1      79.576  -0.842  65.505  1.00  0.00    -0.028 C 
ATOM     14  C   UNL     1      77.408   0.108  64.846  1.00  0.00     0.039 C 
BRANCH  13  15
ATOM     15  C   UNL     1      81.082  -0.948  65.560  1.00  0.00     0.035 C 
BRANCH  15  16
ATOM     16  C   UNL     1      81.597  -0.770  66.992  1.00  0.00     0.079 C 
BRANCH  16  17
ATOM     17  C   UNL     1      81.676  -2.095  67.700  1.00  0.00     0.130 C 
ATOM     18  O   UNL     1      82.125  -3.070  67.115  1.00  0.00    -0.300 OA
ATOM     19  C   UNL     1      81.230  -2.223  69.125  1.00  0.00     0.087 C 
ENDBRANCH  16  17
ENDBRANCH  15  16
ENDBRANCH  13  15
ENDBRANCH  11  12
ENDBRANCH   1  11
TORSDOF 9
ENDMDL
MODEL 4
REMARK VINA RESULT:    -2.659      5.873      9.193
REMARK INTER + INTRA:          -6.779
REMARK INTER:                  -4.061
REMARK INTRA:                  -2.719
REMARK UNBOUND:                -2.722
REMARK SMILES CC(=O)CCC=C(C)CCC=C(C)CCC=C(C)C
REMARK SMILES IDX 10 1 11 2 12 3 13 4 14 5 15 6 16 7 18 8 17 9 19 10 9 11 7 12
REMARK SMILES IDX 6 13 8 14 5 15 4 16 2 17 3 18 1 19
REMARK H PARENT
REMARK Flexibility Score: inf
ROOT
ATOM      1  C   UNL     1      82.985   5.276  59.357  1.00  0.00     0.032 C 
ENDROOT
BRANCH   1   2
ATOM      2  C   UNL     1      82.862   6.327  58.280  1.00  0.00    -0.028 C 
ATOM      3  C   UNL     1      82.562   6.079  56.985  1.00  0.00    -0.077 C 
ATOM      4  C   UNL     1      82.505   7.243  56.030  1.00  0.00     0.039 C 
BRANCH   3   5
ATOM      5  C   UNL     1      82.211   4.698  56.468  1.00  0.00     0.034 C 
BRANCH   5   6
ATOM      6  C   UNL     1      80.814   4.697  55.840  1.00  0.00     0.032 C 
BRANCH   6   7
ATOM      7  C   UNL     1      79.845   3.918  56.694  1.00  0.00    -0.028 C 
ATOM      8  C   UNL     1      78.981   5.960  57.859  1.00  0.00     0.039 C 
ATOM      9  C   UNL     1      78.998   4.474  57.588  1.00  0.00    -0.080 C 
ATOM     10  C   UNL     1      78.056   3.570  58.343  1.00  0.00     0.039 C 
ENDBRANCH   6   7
ENDBRANCH   5   6
ENDBRANCH   3   5
ENDBRANCH   1   2
BRANCH   1  11
ATOM     11  C   UNL     1      81.769   5.276  60.297  1.00  0.00     0.034 C 
BRANCH  11  12
ATOM     12  C   UNL     1      81.182   3.885  60.464  1.00  0.00    -0.077 C 
ATOM     13  C   UNL     1      80.227   3.600  61.377  1.00  0.00    -0.028 C 
ATOM     14  C   UNL     1      81.700   2.768  59.594  1.00  0.00     0.039 C 
BRANCH  13  15
ATOM     15  C   UNL     1      79.600   4.630  62.286  1.00  0.00     0.035 C 
BRANCH  15  16
ATOM     16  C   UNL     1      78.220   5.053  61.775  1.00  0.00     0.079 C 
BRANCH  16  17
ATOM     17  C   UNL     1      77.296   5.358  62.922  1.00  0.00     0.130 C 
ATOM     18  O   UNL     1      76.303   4.670  63.102  1.00  0.00    -0.300 OA
ATOM     19  C   UNL     1      77.597   6.487  63.861  1.00  0.00     0.087 C 
ENDBRANCH  16  17
ENDBRANCH  15  16
ENDBRANCH  13  15
ENDBRANCH  11  12
ENDBRANCH   1  11
TORSDOF 9
ENDMDL
MODEL 5
REMARK VINA RESULT:    -2.652      2.540      5.173
REMARK INTER + INTRA:          -6.769
REMARK INTER:                  -3.949
REMARK INTRA:                  -2.821
REMARK UNBOUND:                -2.722
REMARK SMILES CC(=O)CCC=C(C)CCC=C(C)CCC=C(C)C
REMARK SMILES IDX 10 1 11 2 12 3 13 4 14 5 15 6 16 7 18 8 17 9 19 10 9 11 7 12
REMARK SMILES IDX 6 13 8 14 5 15 4 16 2 17 3 18 1 19
REMARK H PARENT
REMARK Flexibility Score: inf
ROOT
ATOM      1  C   UNL     1      80.731   2.356  68.092  1.00  0.00     0.032 C 
ENDROOT
BRANCH   1   2
ATOM      2  C   UNL     1      79.385   2.735  67.523  1.00  0.00    -0.028 C 
ATOM      3  C   UNL     1      79.121   2.912  66.209  1.00  0.00    -0.077 C 
ATOM      4  C   UNL     1      77.726   3.318  65.809  1.00  0.00     0.039 C 
BRANCH   3   5
ATOM      5  C   UNL     1      80.141   2.651  65.118  1.00  0.00     0.034 C 
BRANCH   5   6
ATOM      6  C   UNL     1      79.655   1.540  64.181  1.00  0.00     0.032 C 
BRANCH   6   7
ATOM      7  C   UNL     1      80.174   0.198  64.629  1.00  0.00    -0.028 C 
ATOM      8  C   UNL     1      81.179  -0.338  62.398  1.00  0.00     0.039 C 
ATOM      9  C   UNL     1      80.882  -0.648  63.847  1.00  0.00    -0.080 C 
ATOM     10  C   UNL     1      81.372  -1.941  64.447  1.00  0.00     0.039 C 
ENDBRANCH   6   7
ENDBRANCH   5   6
ENDBRANCH   3   5
ENDBRANCH   1   2
BRANCH   1  11
ATOM     11  C   UNL     1      80.637   1.129  69.012  1.00  0.00     0.034 C 
BRANCH  11  12
ATOM     12  C   UNL     1      80.809  -0.169  68.245  1.00  0.00    -0.077 C 
ATOM     13  C   UNL     1      79.790  -1.031  68.027  1.00  0.00    -0.028 C 
ATOM     14  C   UNL     1      82.176  -0.529  67.721  1.00  0.00     0.039 C 
BRANCH  13  15
ATOM     15  C   UNL     1      78.368  -0.777  68.468  1.00  0.00     0.035 C 
BRANCH  15  16
ATOM     16  C   UNL     1      77.495  -0.328  67.292  1.00  0.00     0.079 C 
BRANCH  16  17
ATOM     17  C   UNL     1      76.331   0.494  67.774  1.00  0.00     0.130 C 
ATOM     18  O   UNL     1      75.292   0.511  67.132  1.00  0.00    -0.300 OA
ATOM     19  C   UNL     1      76.430   1.276  69.049  1.00  0.00     0.087 C 
ENDBRANCH  16  17
ENDBRANCH  15  16
ENDBRANCH  13  15
ENDBRANCH  11  12
ENDBRANCH   1  11
TORSDOF 9
ENDMDL
MODEL 6
REMARK VINA RESULT:    -2.631     16.542     18.975
REMARK INTER + INTRA:          -6.737
REMARK INTER:                  -3.759
REMARK INTRA:                  -2.979
REMARK UNBOUND:                -2.722
REMARK SMILES CC(=O)CCC=C(C)CCC=C(C)CCC=C(C)C
REMARK SMILES IDX 10 1 11 2 12 3 13 4 14 5 15 6 16 7 18 8 17 9 19 10 9 11 7 12
REMARK SMILES IDX 6 13 8 14 5 15 4 16 2 17 3 18 1 19
REMARK H PARENT
REMARK Flexibility Score: inf
ROOT
ATOM      1  C   UNL     1      65.147   6.485  52.963  1.00  0.00     0.032 C 
ENDROOT
BRANCH   1   2
ATOM      2  C   UNL     1      64.741   5.419  51.976  1.00  0.00    -0.028 C 
ATOM      3  C   UNL     1      65.572   4.824  51.090  1.00  0.00    -0.077 C 
ATOM      4  C   UNL     1      64.998   3.794  50.152  1.00  0.00     0.039 C 
BRANCH   3   5
ATOM      5  C   UNL     1      67.063   5.092  51.048  1.00  0.00     0.034 C 
BRANCH   5   6
ATOM      6  C   UNL     1      67.841   3.784  50.867  1.00  0.00     0.032 C 
BRANCH   6   7
ATOM      7  C   UNL     1      68.388   3.301  52.186  1.00  0.00    -0.028 C 
ATOM      8  C   UNL     1      66.776   1.390  52.338  1.00  0.00     0.039 C 
ATOM      9  C   UNL     1      67.937   2.213  52.848  1.00  0.00    -0.080 C 
ATOM     10  C   UNL     1      68.610   1.827  54.140  1.00  0.00     0.039 C 
ENDBRANCH   6   7
ENDBRANCH   5   6
ENDBRANCH   3   5
ENDBRANCH   1   2
BRANCH   1  11
ATOM     11  C   UNL     1      64.872   6.056  54.413  1.00  0.00     0.034 C 
BRANCH  11  12
ATOM     12  C   UNL     1      65.781   4.920  54.850  1.00  0.00    -0.077 C 
ATOM     13  C   UNL     1      67.094   5.096  55.116  1.00  0.00    -0.028 C 
ATOM     14  C   UNL     1      65.204   3.532  54.970  1.00  0.00     0.039 C 
BRANCH  13  15
ATOM     15  C   UNL     1      67.789   6.436  55.066  1.00  0.00     0.035 C 
BRANCH  15  16
ATOM     16  C   UNL     1      68.957   6.417  54.076  1.00  0.00     0.079 C 
BRANCH  16  17
ATOM     17  C   UNL     1      69.192   7.787  53.499  1.00  0.00     0.130 C 
ATOM     18  O   UNL     1      70.206   8.403  53.790  1.00  0.00    -0.300 OA
ATOM     19  C   UNL     1      68.200   8.392  52.553  1.00  0.00     0.087 C 
ENDBRANCH  16  17
ENDBRANCH  15  16
ENDBRANCH  13  15
ENDBRANCH  11  12
ENDBRANCH   1  11
TORSDOF 9
ENDMDL
MODEL 7
REMARK VINA RESULT:    -2.618     17.011     19.520
REMARK INTER + INTRA:          -6.718
REMARK INTER:                  -4.036
REMARK INTRA:                  -2.682
REMARK UNBOUND:                -2.722
REMARK SMILES CC(=O)CCC=C(C)CCC=C(C)CCC=C(C)C
REMARK SMILES IDX 10 1 11 2 12 3 13 4 14 5 15 6 16 7 18 8 17 9 19 10 9 11 7 12
REMARK SMILES IDX 6 13 8 14 5 15 4 16 2 17 3 18 1 19
REMARK H PARENT
REMARK Flexibility Score: inf
ROOT
ATOM      1  C   UNL     1      67.573   4.208  50.480  1.00  0.00     0.032 C 
ENDROOT
BRANCH   1   2
ATOM      2  C   UNL     1      66.268   4.624  49.845  1.00  0.00    -0.028 C 
ATOM      3  C   UNL     1      65.067   4.056  50.098  1.00  0.00    -0.077 C 
ATOM      4  C   UNL     1      63.862   4.573  49.356  1.00  0.00     0.039 C 
BRANCH   3   5
ATOM      5  C   UNL     1      64.867   2.977  51.144  1.00  0.00     0.034 C 
BRANCH   5   6
ATOM      6  C   UNL     1      64.069   3.521  52.333  1.00  0.00     0.032 C 
BRANCH   6   7
ATOM      7  C   UNL     1      64.979   3.814  53.499  1.00  0.00    -0.028 C 
ATOM      8  C   UNL     1      64.936   6.289  53.116  1.00  0.00     0.039 C 
ATOM      9  C   UNL     1      65.359   5.055  53.878  1.00  0.00    -0.080 C 
ATOM     10  C   UNL     1      66.242   5.196  55.091  1.00  0.00     0.039 C 
ENDBRANCH   6   7
ENDBRANCH   5   6
ENDBRANCH   3   5
ENDBRANCH   1   2
BRANCH   1  11
ATOM     11  C   UNL     1      68.074   5.252  51.491  1.00  0.00     0.034 C 
BRANCH  11  12
ATOM     12  C   UNL     1      69.042   4.650  52.494  1.00  0.00    -0.077 C 
ATOM     13  C   UNL     1      70.203   5.250  52.839  1.00  0.00    -0.028 C 
ATOM     14  C   UNL     1      68.710   3.318  53.116  1.00  0.00     0.039 C 
BRANCH  13  15
ATOM     15  C   UNL     1      70.640   6.598  52.316  1.00  0.00     0.035 C 
BRANCH  15  16
ATOM     16  C   UNL     1      70.603   7.658  53.420  1.00  0.00     0.079 C 
BRANCH  16  17
ATOM     17  C   UNL     1      69.196   8.136  53.655  1.00  0.00     0.130 C 
ATOM     18  O   UNL     1      68.551   8.605  52.730  1.00  0.00    -0.300 OA
ATOM     19  C   UNL     1      68.570   8.018  55.012  1.00  0.00     0.087 C 
ENDBRANCH  16  17
ENDBRANCH  15  16
ENDBRANCH  13  15
ENDBRANCH  11  12
ENDBRANCH   1  11
TORSDOF 9
ENDMDL
MODEL 8
REMARK VINA RESULT:    -2.588      2.899      5.648
REMARK INTER + INTRA:          -6.672
REMARK INTER:                  -4.388
REMARK INTRA:                  -2.284
REMARK UNBOUND:                -2.722
REMARK SMILES CC(=O)CCC=C(C)CCC=C(C)CCC=C(C)C
REMARK SMILES IDX 10 1 11 2 12 3 13 4 14 5 15 6 16 7 18 8 17 9 19 10 9 11 7 12
REMARK SMILES IDX 6 13 8 14 5 15 4 16 2 17 3 18 1 19
REMARK H PARENT
REMARK Flexibility Score: inf
ROOT
ATOM      1  C   UNL     1      78.635   1.825  67.261  1.00  0.00     0.032 C 
ENDROOT
BRANCH   1   2
ATOM      2  C   UNL     1      79.111   1.141  66.002  1.00  0.00    -0.028 C 
ATOM      3  C   UNL     1      79.807   1.741  65.010  1.00  0.00    -0.077 C 
ATOM      4  C   UNL     1      80.182   0.919  63.804  1.00  0.00     0.039 C 
BRANCH   3   5
ATOM      5  C   UNL     1      80.287   3.176  65.088  1.00  0.00     0.034 C 
BRANCH   5   6
ATOM      6  C   UNL     1      79.578   4.040  64.039  1.00  0.00     0.032 C 
BRANCH   6   7
ATOM      7  C   UNL     1      78.227   4.484  64.538  1.00  0.00    -0.028 C 
ATOM      8  C   UNL     1      76.976   2.997  62.957  1.00  0.00     0.039 C 
ATOM      9  C   UNL     1      77.048   4.007  64.079  1.00  0.00    -0.080 C 
ATOM     10  C   UNL     1      75.775   4.516  64.704  1.00  0.00     0.039 C 
ENDBRANCH   6   7
ENDBRANCH   5   6
ENDBRANCH   3   5
ENDBRANCH   1   2
BRANCH   1  11
ATOM     11  C   UNL     1      79.205   1.159  68.523  1.00  0.00     0.034 C 
BRANCH  11  12
ATOM     12  C   UNL     1      80.598   1.668  68.852  1.00  0.00    -0.077 C 
ATOM     13  C   UNL     1      81.647   0.841  69.064  1.00  0.00    -0.028 C 
ATOM     14  C   UNL     1      80.821   3.154  68.972  1.00  0.00     0.039 C 
BRANCH  13  15
ATOM     15  C   UNL     1      81.569  -0.662  68.944  1.00  0.00     0.035 C 
BRANCH  15  16
ATOM     16  C   UNL     1      82.075  -1.135  67.578  1.00  0.00     0.079 C 
BRANCH  16  17
ATOM     17  C   UNL     1      81.257  -2.295  67.077  1.00  0.00     0.130 C 
ATOM     18  O   UNL     1      81.127  -3.291  67.772  1.00  0.00    -0.300 OA
ATOM     19  C   UNL     1      80.581  -2.227  65.741  1.00  0.00     0.087 C 
ENDBRANCH  16  17
ENDBRANCH  15  16
ENDBRANCH  13  15
ENDBRANCH  11  12
ENDBRANCH   1  11
TORSDOF 9
ENDMDL
MODEL 9
REMARK VINA RESULT:    -2.556      1.220      3.042
REMARK INTER + INTRA:          -6.623
REMARK INTER:                  -3.872
REMARK INTRA:                  -2.751
REMARK UNBOUND:                -2.722
REMARK SMILES CC(=O)CCC=C(C)CCC=C(C)CCC=C(C)C
REMARK SMILES IDX 10 1 11 2 12 3 13 4 14 5 15 6 16 7 18 8 17 9 19 10 9 11 7 12
REMARK SMILES IDX 6 13 8 14 5 15 4 16 2 17 3 18 1 19
REMARK H PARENT
REMARK Flexibility Score: inf
ROOT
ATOM      1  C   UNL     1      80.735  -1.206  65.374  1.00  0.00     0.032 C 
ENDROOT
BRANCH   1   2
ATOM      2  C   UNL     1      81.593  -1.010  66.601  1.00  0.00    -0.028 C 
ATOM      3  C   UNL     1      81.124  -0.751  67.842  1.00  0.00    -0.077 C 
ATOM      4  C   UNL     1      82.120  -0.554  68.956  1.00  0.00     0.039 C 
BRANCH   3   5
ATOM      5  C   UNL     1      79.646  -0.723  68.177  1.00  0.00     0.034 C 
BRANCH   5   6
ATOM      6  C   UNL     1      79.268   0.608  68.836  1.00  0.00     0.032 C 
BRANCH   6   7
ATOM      7  C   UNL     1      78.505   1.482  67.873  1.00  0.00    -0.028 C 
ATOM      8  C   UNL     1      80.534   2.786  67.198  1.00  0.00     0.039 C 
ATOM      9  C   UNL     1      79.064   2.450  67.112  1.00  0.00    -0.080 C 
ATOM     10  C   UNL     1      78.180   3.217  66.163  1.00  0.00     0.039 C 
ENDBRANCH   6   7
ENDBRANCH   5   6
ENDBRANCH   3   5
ENDBRANCH   1   2
BRANCH   1  11
ATOM     11  C   UNL     1      80.535   0.107  64.602  1.00  0.00     0.034 C 
BRANCH  11  12
ATOM     12  C   UNL     1      79.102   0.274  64.130  1.00  0.00    -0.077 C 
ATOM     13  C   UNL     1      78.745   1.167  63.179  1.00  0.00    -0.028 C 
ATOM     14  C   UNL     1      78.025  -0.572  64.760  1.00  0.00     0.039 C 
BRANCH  13  15
ATOM     15  C   UNL     1      79.726   2.050  62.445  1.00  0.00     0.035 C 
BRANCH  15  16
ATOM     16  C   UNL     1      79.035   3.297  61.884  1.00  0.00     0.079 C 
BRANCH  16  17
ATOM     17  C   UNL     1      79.172   4.456  62.833  1.00  0.00     0.130 C 
ATOM     18  O   UNL     1      80.236   4.656  63.399  1.00  0.00    -0.300 OA
ATOM     19  C   UNL     1      78.017   5.381  63.073  1.00  0.00     0.087 C 
ENDBRANCH  16  17
ENDBRANCH  15  16
ENDBRANCH  13  15
ENDBRANCH  11  12
ENDBRANCH   1  11
TORSDOF 9
ENDMDL
