MODEL 1
REMARK VINA RESULT:    16.640      0.000      0.000
REMARK INTER + INTRA:          27.643
REMARK INTER:                  24.422
REMARK INTRA:                   3.220
REMARK UNBOUND:                 3.220
REMARK SMILES CC(C)(O)CC[C@H](O)[C@@](C)(O)[C@@H]1CC[C@@]2(O)C3=CC(=O)[C@@H]4C[C@@H](O)[C@H](O)C[C@@]4(C)[C@@H]3CC[C@@]12C
REMARK SMILES IDX 6 1 7 2 9 3 10 4 12 5 34 6 33 7 32 8 15 9 31 10 17 11 14 12
REMARK SMILES IDX 13 13 30 14 18 15 28 16 19 17 21 18 27 19 29 20 20 21 22 22
REMARK SMILES IDX 25 23 23 24 16 25 26 27 24 29 11 31 8 33 5 35 2 36 1 37 3 38
REMARK SMILES IDX 4 39
REMARK H PARENT 16 26 26 28 24 30 11 32 8 34 4 40
REMARK Flexibility Score: inf
ROOT
ATOM      1  C   UNL     1      13.397  13.726  27.939  1.00  0.00     0.038 C 
ENDROOT
BRANCH   1   2
ATOM      2  C   UNL     1      14.347  14.959  28.091  1.00  0.00     0.146 C 
BRANCH   2   3
ATOM      3  C   UNL     1      15.650  14.974  27.189  1.00  0.00     0.091 C 
ATOM      4  C   UNL     1      16.834  14.622  28.125  1.00  0.00     0.045 C 
BRANCH   3   5
ATOM      5  C   UNL     1      15.960  16.379  26.497  1.00  0.00     0.032 C 
ATOM      6  C   UNL     1      13.550  17.286  26.796  1.00  0.00     0.015 C 
ATOM      7  C   UNL     1      14.812  17.283  25.890  1.00  0.00     0.006 C 
ATOM      8  C   UNL     1      14.387  16.747  24.489  1.00  0.00     0.011 C 
ATOM      9  C   UNL     1      15.462  18.744  25.834  1.00  0.00     0.092 C 
ATOM     10  C   UNL     1      13.787  17.840  23.613  1.00  0.00     0.009 C 
ATOM     11  C   UNL     1      15.627  19.368  24.428  1.00  0.00    -0.031 C 
ATOM     12  C   UNL     1      16.851  18.578  26.486  1.00  0.00     0.041 C 
ATOM     13  C   UNL     1      16.776  17.345  27.346  1.00  0.00     0.010 C 
ATOM     14  C   UNL     1      14.889  18.828  23.202  1.00  0.00     0.025 C 
ATOM     15  C   UNL     1      16.373  20.493  24.303  1.00  0.00     0.050 C 
ATOM     16  C   UNL     1      14.397  19.995  22.264  1.00  0.00    -0.013 C 
ATOM     17  C   UNL     1      16.479  21.222  23.028  1.00  0.00     0.159 C 
ATOM     18  C   UNL     1      15.690  20.758  21.822  1.00  0.00     0.070 C 
ATOM     19  C   UNL     1      13.704  19.428  20.982  1.00  0.00     0.042 C 
ATOM     20  C   UNL     1      13.404  20.921  23.034  1.00  0.00     0.013 C 
ATOM     21  O   UNL     1      17.313  22.163  22.916  1.00  0.00    -0.295 OA
ATOM     22  C   UNL     1      15.381  21.895  20.838  1.00  0.00     0.047 C 
ATOM     23  C   UNL     1      13.452  20.464  19.858  1.00  0.00     0.143 C 
ATOM     24  C   UNL     1      14.685  21.366  19.567  1.00  0.00     0.143 C 
BRANCH   9  25
ATOM     25  O   UNL     1      14.747  19.662  26.638  1.00  0.00    -0.385 OA
ATOM     26  H   UNL     1      15.404  20.156  27.197  1.00  0.00     0.211 HD
ENDBRANCH   9  25
BRANCH  23  27
ATOM     27  O   UNL     1      12.334  21.273  20.157  1.00  0.00    -0.390 OA
ATOM     28  H   UNL     1      12.689  22.160  20.437  1.00  0.00     0.211 HD
ENDBRANCH  23  27
BRANCH  24  29
ATOM     29  O   UNL     1      15.615  20.722  18.730  1.00  0.00    -0.390 OA
ATOM     30  H   UNL     1      16.418  20.476  19.263  1.00  0.00     0.211 HD
ENDBRANCH  24  29
ENDBRANCH   3   5
BRANCH   3  31
ATOM     31  O   UNL     1      15.547  13.926  26.255  1.00  0.00    -0.387 OA
ATOM     32  H   UNL     1      16.002  14.182  25.418  1.00  0.00     0.211 HD
ENDBRANCH   3  31
ENDBRANCH   2   3
BRANCH   2  33
ATOM     33  O   UNL     1      13.671  16.195  28.054  1.00  0.00    -0.390 OA
ATOM     34  H   UNL     1      13.123  16.283  28.868  1.00  0.00     0.211 HD
ENDBRANCH   2  33
ENDBRANCH   1   2
BRANCH   1  35
ATOM     35  C   UNL     1      11.940  14.025  27.482  1.00  0.00     0.037 C 
BRANCH  35  36
ATOM     36  C   UNL     1      11.687  14.026  25.944  1.00  0.00     0.059 C 
ATOM     37  C   UNL     1      10.875  15.284  25.592  1.00  0.00     0.042 C 
ATOM     38  C   UNL     1      10.875  12.791  25.476  1.00  0.00     0.042 C 
BRANCH  36  39
ATOM     39  O   UNL     1      12.920  14.118  25.259  1.00  0.00    -0.390 OA
ATOM     40  H   UNL     1      13.416  13.257  25.351  1.00  0.00     0.211 HD
ENDBRANCH  36  39
ENDBRANCH  35  36
ENDBRANCH   1  35
TORSDOF 11
ENDMDL
MODEL 2
REMARK VINA RESULT:    17.688      2.299      8.525
REMARK INTER + INTRA:          29.181
REMARK INTER:                  28.856
REMARK INTRA:                   0.324
REMARK UNBOUND:                 3.220
REMARK SMILES CC(C)(O)CC[C@H](O)[C@@](C)(O)[C@@H]1CC[C@@]2(O)C3=CC(=O)[C@@H]4C[C@@H](O)[C@H](O)C[C@@]4(C)[C@@H]3CC[C@@]12C
REMARK SMILES IDX 6 1 7 2 9 3 10 4 12 5 34 6 33 7 32 8 15 9 31 10 17 11 14 12
REMARK SMILES IDX 13 13 30 14 18 15 28 16 19 17 21 18 27 19 29 20 20 21 22 22
REMARK SMILES IDX 25 23 23 24 16 25 26 27 24 29 11 31 8 33 5 35 2 36 1 37 3 38
REMARK SMILES IDX 4 39
REMARK H PARENT 16 26 26 28 24 30 11 32 8 34 4 40
REMARK Flexibility Score: inf
ROOT
ATOM      1  C   UNL     1      11.618  22.615  19.882  1.00  0.00     0.038 C 
ENDROOT
BRANCH   1   2
ATOM      2  C   UNL     1      12.354  21.252  19.653  1.00  0.00     0.146 C 
BRANCH   2   3
ATOM      3  C   UNL     1      13.905  21.215  19.975  1.00  0.00     0.091 C 
ATOM      4  C   UNL     1      14.511  20.102  19.081  1.00  0.00     0.045 C 
BRANCH   3   5
ATOM      5  C   UNL     1      14.257  20.881  21.497  1.00  0.00     0.032 C 
ATOM      6  C   UNL     1      16.128  19.187  20.902  1.00  0.00     0.015 C 
ATOM      7  C   UNL     1      15.000  19.546  21.908  1.00  0.00     0.006 C 
ATOM      8  C   UNL     1      13.995  18.354  21.935  1.00  0.00     0.011 C 
ATOM      9  C   UNL     1      15.620  19.878  23.345  1.00  0.00     0.092 C 
ATOM     10  C   UNL     1      14.448  17.241  22.871  1.00  0.00     0.009 C 
ATOM     11  C   UNL     1      15.096  19.033  24.531  1.00  0.00    -0.031 C 
ATOM     12  C   UNL     1      15.273  21.363  23.585  1.00  0.00     0.041 C 
ATOM     13  C   UNL     1      15.029  21.971  22.229  1.00  0.00     0.010 C 
ATOM     14  C   UNL     1      14.337  17.720  24.326  1.00  0.00     0.025 C 
ATOM     15  C   UNL     1      15.411  19.420  25.791  1.00  0.00     0.050 C 
ATOM     16  C   UNL     1      14.750  16.642  25.398  1.00  0.00    -0.013 C 
ATOM     17  C   UNL     1      15.062  18.607  26.968  1.00  0.00     0.159 C 
ATOM     18  C   UNL     1      14.388  17.263  26.788  1.00  0.00     0.070 C 
ATOM     19  C   UNL     1      13.920  15.330  25.220  1.00  0.00     0.042 C 
ATOM     20  C   UNL     1      16.273  16.322  25.278  1.00  0.00     0.013 C 
ATOM     21  O   UNL     1      15.226  19.085  28.125  1.00  0.00    -0.295 OA
ATOM     22  C   UNL     1      14.671  16.294  27.945  1.00  0.00     0.047 C 
ATOM     23  C   UNL     1      14.025  14.320  26.391  1.00  0.00     0.143 C 
ATOM     24  C   UNL     1      13.873  14.984  27.789  1.00  0.00     0.143 C 
BRANCH   9  25
ATOM     25  O   UNL     1      17.031  19.790  23.336  1.00  0.00    -0.385 OA
ATOM     26  H   UNL     1      17.372  20.418  22.644  1.00  0.00     0.211 HD
ENDBRANCH   9  25
BRANCH  23  27
ATOM     27  O   UNL     1      15.244  13.608  26.336  1.00  0.00    -0.390 OA
ATOM     28  H   UNL     1      15.876  14.164  25.806  1.00  0.00     0.211 HD
ENDBRANCH  23  27
BRANCH  24  29
ATOM     29  O   UNL     1      12.520  15.190  28.122  1.00  0.00    -0.390 OA
ATOM     30  H   UNL     1      11.958  14.548  27.611  1.00  0.00     0.211 HD
ENDBRANCH  24  29
ENDBRANCH   3   5
BRANCH   3  31
ATOM     31  O   UNL     1      14.470  22.430  19.547  1.00  0.00    -0.387 OA
ATOM     32  H   UNL     1      14.839  22.916  20.323  1.00  0.00     0.211 HD
ENDBRANCH   3  31
ENDBRANCH   2   3
BRANCH   2  33
ATOM     33  O   UNL     1      11.677  20.150  20.211  1.00  0.00    -0.390 OA
ATOM     34  H   UNL     1      11.788  20.168  21.190  1.00  0.00     0.211 HD
ENDBRANCH   2  33
ENDBRANCH   1   2
BRANCH   1  35
ATOM     35  C   UNL     1      10.966  23.269  18.631  1.00  0.00     0.037 C 
BRANCH  35  36
ATOM     36  C   UNL     1      11.524  24.663  18.214  1.00  0.00     0.059 C 
ATOM     37  C   UNL     1      11.206  25.663  19.338  1.00  0.00     0.042 C 
ATOM     38  C   UNL     1      10.877  25.196  16.910  1.00  0.00     0.042 C 
BRANCH  36  39
ATOM     39  O   UNL     1      12.931  24.597  18.097  1.00  0.00    -0.390 OA
ATOM     40  H   UNL     1      13.350  24.925  18.942  1.00  0.00     0.211 HD
ENDBRANCH  36  39
ENDBRANCH  35  36
ENDBRANCH   1  35
TORSDOF 11
ENDMDL
MODEL 3
REMARK VINA RESULT:    18.116      1.824      8.232
REMARK INTER + INTRA:          29.809
REMARK INTER:                  29.475
REMARK INTRA:                   0.334
REMARK UNBOUND:                 3.220
REMARK SMILES CC(C)(O)CC[C@H](O)[C@@](C)(O)[C@@H]1CC[C@@]2(O)C3=CC(=O)[C@@H]4C[C@@H](O)[C@H](O)C[C@@]4(C)[C@@H]3CC[C@@]12C
REMARK SMILES IDX 6 1 7 2 9 3 10 4 12 5 34 6 33 7 32 8 15 9 31 10 17 11 14 12
REMARK SMILES IDX 13 13 30 14 18 15 28 16 19 17 21 18 27 19 29 20 20 21 22 22
REMARK SMILES IDX 25 23 23 24 16 25 26 27 24 29 11 31 8 33 5 35 2 36 1 37 3 38
REMARK SMILES IDX 4 39
REMARK H PARENT 16 26 26 28 24 30 11 32 8 34 4 40
REMARK Flexibility Score: inf
ROOT
ATOM      1  C   UNL     1      13.542  21.341  20.568  1.00  0.00     0.038 C 
ENDROOT
BRANCH   1   2
ATOM      2  C   UNL     1      14.779  20.388  20.668  1.00  0.00     0.146 C 
BRANCH   2   3
ATOM      3  C   UNL     1      15.560  20.372  22.047  1.00  0.00     0.091 C 
ATOM      4  C   UNL     1      16.851  19.547  21.810  1.00  0.00     0.045 C 
BRANCH   3   5
ATOM      5  C   UNL     1      14.755  19.705  23.255  1.00  0.00     0.032 C 
ATOM      6  C   UNL     1      16.861  19.346  24.724  1.00  0.00     0.015 C 
ATOM      7  C   UNL     1      15.467  18.784  24.325  1.00  0.00     0.006 C 
ATOM      8  C   UNL     1      15.684  17.352  23.748  1.00  0.00     0.011 C 
ATOM      9  C   UNL     1      14.475  18.814  25.580  1.00  0.00     0.092 C 
ATOM     10  C   UNL     1      15.772  16.298  24.844  1.00  0.00     0.009 C 
ATOM     11  C   UNL     1      13.841  17.462  25.985  1.00  0.00    -0.031 C 
ATOM     12  C   UNL     1      13.359  19.798  25.170  1.00  0.00     0.041 C 
ATOM     13  C   UNL     1      13.937  20.678  24.093  1.00  0.00     0.010 C 
ATOM     14  C   UNL     1      14.393  16.121  25.496  1.00  0.00     0.025 C 
ATOM     15  C   UNL     1      12.826  17.466  26.884  1.00  0.00     0.050 C 
ATOM     16  C   UNL     1      14.346  15.029  26.631  1.00  0.00    -0.013 C 
ATOM     17  C   UNL     1      12.252  16.220  27.419  1.00  0.00     0.159 C 
ATOM     18  C   UNL     1      12.836  14.882  27.018  1.00  0.00     0.070 C 
ATOM     19  C   UNL     1      14.849  13.648  26.100  1.00  0.00     0.042 C 
ATOM     20  C   UNL     1      15.221  15.477  27.844  1.00  0.00     0.013 C 
ATOM     21  O   UNL     1      11.204  16.269  28.122  1.00  0.00    -0.295 OA
ATOM     22  C   UNL     1      12.615  13.793  28.077  1.00  0.00     0.047 C 
ATOM     23  C   UNL     1      14.568  12.442  27.032  1.00  0.00     0.143 C 
ATOM     24  C   UNL     1      13.115  12.420  27.584  1.00  0.00     0.143 C 
BRANCH   9  25
ATOM     25  O   UNL     1      15.098  19.364  26.723  1.00  0.00    -0.385 OA
ATOM     26  H   UNL     1      15.997  19.693  26.453  1.00  0.00     0.211 HD
ENDBRANCH   9  25
BRANCH  23  27
ATOM     27  O   UNL     1      15.483  12.410  28.107  1.00  0.00    -0.390 OA
ATOM     28  H   UNL     1      16.384  12.580  27.722  1.00  0.00     0.211 HD
ENDBRANCH  23  27
BRANCH  24  29
ATOM     29  O   UNL     1      12.212  11.875  26.650  1.00  0.00    -0.390 OA
ATOM     30  H   UNL     1      11.283  12.007  26.981  1.00  0.00     0.211 HD
ENDBRANCH  24  29
ENDBRANCH   3   5
BRANCH   3  31
ATOM     31  O   UNL     1      15.967  21.688  22.335  1.00  0.00    -0.387 OA
ATOM     32  H   UNL     1      16.553  21.688  23.128  1.00  0.00     0.211 HD
ENDBRANCH   3  31
ENDBRANCH   2   3
BRANCH   2  33
ATOM     33  O   UNL     1      14.522  19.086  20.196  1.00  0.00    -0.390 OA
ATOM     34  H   UNL     1      13.594  18.842  20.421  1.00  0.00     0.211 HD
ENDBRANCH   2  33
ENDBRANCH   1   2
BRANCH   1  35
ATOM     35  C   UNL     1      13.086  21.737  19.135  1.00  0.00     0.037 C 
BRANCH  35  36
ATOM     36  C   UNL     1      11.641  22.308  19.005  1.00  0.00     0.059 C 
ATOM     37  C   UNL     1      11.730  23.688  18.332  1.00  0.00     0.042 C 
ATOM     38  C   UNL     1      10.951  22.495  20.380  1.00  0.00     0.042 C 
BRANCH  36  39
ATOM     39  O   UNL     1      10.875  21.477  18.156  1.00  0.00    -0.390 OA
ATOM     40  H   UNL     1      11.483  20.992  17.530  1.00  0.00     0.211 HD
ENDBRANCH  36  39
ENDBRANCH  35  36
ENDBRANCH   1  35
TORSDOF 11
ENDMDL
MODEL 4
REMARK VINA RESULT:    18.623      0.963      1.154
REMARK INTER + INTRA:          30.554
REMARK INTER:                  24.447
REMARK INTRA:                   6.107
REMARK UNBOUND:                 3.220
REMARK SMILES CC(C)(O)CC[C@H](O)[C@@](C)(O)[C@@H]1CC[C@@]2(O)C3=CC(=O)[C@@H]4C[C@@H](O)[C@H](O)C[C@@]4(C)[C@@H]3CC[C@@]12C
REMARK SMILES IDX 6 1 7 2 9 3 10 4 12 5 34 6 33 7 32 8 15 9 31 10 17 11 14 12
REMARK SMILES IDX 13 13 30 14 18 15 28 16 19 17 21 18 27 19 29 20 20 21 22 22
REMARK SMILES IDX 25 23 23 24 16 25 26 27 24 29 11 31 8 33 5 35 2 36 1 37 3 38
REMARK SMILES IDX 4 39
REMARK H PARENT 16 26 26 28 24 30 11 32 8 34 4 40
REMARK Flexibility Score: inf
ROOT
ATOM      1  C   UNL     1      13.664  14.803  27.960  1.00  0.00     0.038 C 
ENDROOT
BRANCH   1   2
ATOM      2  C   UNL     1      14.573  13.996  26.974  1.00  0.00     0.146 C 
BRANCH   2   3
ATOM      3  C   UNL     1      16.046  14.538  26.755  1.00  0.00     0.091 C 
ATOM      4  C   UNL     1      16.762  14.425  28.125  1.00  0.00     0.045 C 
BRANCH   3   5
ATOM      5  C   UNL     1      16.127  16.058  26.272  1.00  0.00     0.032 C 
ATOM      6  C   UNL     1      13.559  16.411  26.291  1.00  0.00     0.015 C 
ATOM      7  C   UNL     1      14.897  16.786  25.595  1.00  0.00     0.006 C 
ATOM      8  C   UNL     1      14.782  16.373  24.096  1.00  0.00     0.011 C 
ATOM      9  C   UNL     1      15.212  18.342  25.796  1.00  0.00     0.092 C 
ATOM     10  C   UNL     1      14.075  17.431  23.260  1.00  0.00     0.009 C 
ATOM     11  C   UNL     1      15.416  19.173  24.507  1.00  0.00    -0.031 C 
ATOM     12  C   UNL     1      16.509  18.371  26.633  1.00  0.00     0.041 C 
ATOM     13  C   UNL     1      16.596  17.043  27.335  1.00  0.00     0.010 C 
ATOM     14  C   UNL     1      14.977  18.667  23.131  1.00  0.00     0.025 C 
ATOM     15  C   UNL     1      15.907  20.431  24.618  1.00  0.00     0.050 C 
ATOM     16  C   UNL     1      14.366  19.828  22.258  1.00  0.00    -0.013 C 
ATOM     17  C   UNL     1      16.013  21.334  23.460  1.00  0.00     0.159 C 
ATOM     18  C   UNL     1      15.507  20.890  22.104  1.00  0.00     0.070 C 
ATOM     19  C   UNL     1      13.984  19.314  20.832  1.00  0.00     0.042 C 
ATOM     20  C   UNL     1      13.104  20.422  22.960  1.00  0.00     0.013 C 
ATOM     21  O   UNL     1      16.629  22.430  23.579  1.00  0.00    -0.295 OA
ATOM     22  C   UNL     1      15.085  22.065  21.211  1.00  0.00     0.047 C 
ATOM     23  C   UNL     1      13.657  20.422  19.798  1.00  0.00     0.143 C 
ATOM     24  C   UNL     1      14.690  21.584  19.799  1.00  0.00     0.143 C 
BRANCH   9  25
ATOM     25  O   UNL     1      14.217  18.978  26.573  1.00  0.00    -0.385 OA
ATOM     26  H   UNL     1      13.650  19.520  25.961  1.00  0.00     0.211 HD
ENDBRANCH   9  25
BRANCH  23  27
ATOM     27  O   UNL     1      12.361  20.941  20.006  1.00  0.00    -0.390 OA
ATOM     28  H   UNL     1      12.452  21.931  20.050  1.00  0.00     0.211 HD
ENDBRANCH  23  27
BRANCH  24  29
ATOM     29  O   UNL     1      15.838  21.262  19.051  1.00  0.00    -0.390 OA
ATOM     30  H   UNL     1      15.936  21.914  18.307  1.00  0.00     0.211 HD
ENDBRANCH  24  29
ENDBRANCH   3   5
BRANCH   3  31
ATOM     31  O   UNL     1      16.709  13.660  25.878  1.00  0.00    -0.387 OA
ATOM     32  H   UNL     1      16.989  12.850  26.367  1.00  0.00     0.211 HD
ENDBRANCH   3  31
ENDBRANCH   2   3
BRANCH   2  33
ATOM     33  O   UNL     1      14.555  12.607  27.206  1.00  0.00    -0.390 OA
ATOM     34  H   UNL     1      14.113  12.433  28.070  1.00  0.00     0.211 HD
ENDBRANCH   2  33
ENDBRANCH   1   2
BRANCH   1  35
ATOM     35  C   UNL     1      12.202  14.298  28.125  1.00  0.00     0.037 C 
BRANCH  35  36
ATOM     36  C   UNL     1      11.792  13.076  27.248  1.00  0.00     0.059 C 
ATOM     37  C   UNL     1      11.013  13.600  26.030  1.00  0.00     0.042 C 
ATOM     38  C   UNL     1      10.875  12.082  28.005  1.00  0.00     0.042 C 
BRANCH  36  39
ATOM     39  O   UNL     1      12.952  12.433  26.758  1.00  0.00    -0.390 OA
ATOM     40  H   UNL     1      13.219  11.706  27.388  1.00  0.00     0.211 HD
ENDBRANCH  36  39
ENDBRANCH  35  36
ENDBRANCH   1  35
TORSDOF 11
ENDMDL
