MODEL 1
REMARK VINA RESULT:    -3.488      0.000      0.000
REMARK INTER + INTRA:          -5.567
REMARK INTER:                  -5.120
REMARK INTRA:                  -0.447
REMARK UNBOUND:                -0.447
REMARK SMILES O=C([O-])CCCCCCCC(=O)[O-]
REMARK SMILES IDX 7 1 6 2 5 3 4 4 2 5 1 6 3 7 8 8 9 9 10 10 11 11 12 12 13 13
REMARK H PARENT
REMARK Flexibility Score: inf
ROOT
ATOM      1  C   UNL     1      42.249  30.556  87.626  1.00  0.00     0.000 C 
ENDROOT
BRANCH   1   2
ATOM      2  C   UNL     1      40.869  31.214  87.743  1.00  0.00     0.000 C 
BRANCH   2   3
ATOM      3  C   UNL     1      40.000  30.488  88.780  1.00  0.00     0.006 C 
BRANCH   3   4
ATOM      4  C   UNL     1      39.941  28.975  88.532  1.00  0.00     0.053 C 
BRANCH   4   5
ATOM      5  C   UNL     1      39.025  28.633  87.399  1.00  0.00     0.041 C 
ATOM      6  O   UNL     1      39.436  27.926  86.440  1.00  0.00    -0.550 OA
ATOM      7  O   UNL     1      37.725  29.123  87.383  1.00  0.00    -0.550 OA
ENDBRANCH   4   5
ENDBRANCH   3   4
ENDBRANCH   2   3
ENDBRANCH   1   2
BRANCH   1   8
ATOM      8  C   UNL     1      43.278  31.277  88.503  1.00  0.00     0.000 C 
BRANCH   8   9
ATOM      9  C   UNL     1      43.609  30.456  89.755  1.00  0.00     0.006 C 
BRANCH   9  10
ATOM     10  C   UNL     1      44.690  31.141  90.594  1.00  0.00     0.053 C 
BRANCH  10  11
ATOM     11  C   UNL     1      44.370  31.033  92.052  1.00  0.00     0.041 C 
ATOM     12  O   UNL     1      44.154  29.907  92.570  1.00  0.00    -0.550 OA
ATOM     13  O   UNL     1      44.358  32.172  92.847  1.00  0.00    -0.550 OA
ENDBRANCH  10  11
ENDBRANCH   9  10
ENDBRANCH   8   9
ENDBRANCH   1   8
TORSDOF 8
ENDMDL
MODEL 2
REMARK VINA RESULT:    -3.426      1.324      5.795
REMARK INTER + INTRA:          -5.476
REMARK INTER:                  -4.936
REMARK INTRA:                  -0.540
REMARK UNBOUND:                -0.447
REMARK SMILES O=C([O-])CCCCCCCC(=O)[O-]
REMARK SMILES IDX 7 1 6 2 5 3 4 4 2 5 1 6 3 7 8 8 9 9 10 10 11 11 12 12 13 13
REMARK H PARENT
REMARK Flexibility Score: inf
ROOT
ATOM      1  C   UNL     1      43.807  30.109  87.859  1.00  0.00     0.000 C 
ENDROOT
BRANCH   1   2
ATOM      2  C   UNL     1      45.169  30.277  88.542  1.00  0.00     0.000 C 
BRANCH   2   3
ATOM      3  C   UNL     1      45.134  31.421  89.566  1.00  0.00     0.006 C 
BRANCH   3   4
ATOM      4  C   UNL     1      45.518  30.950  90.976  1.00  0.00     0.053 C 
BRANCH   4   5
ATOM      5  C   UNL     1      44.346  30.971  91.906  1.00  0.00     0.041 C 
ATOM      6  O   UNL     1      44.311  31.788  92.865  1.00  0.00    -0.550 OA
ATOM      7  O   UNL     1      43.306  30.067  91.736  1.00  0.00    -0.550 OA
ENDBRANCH   4   5
ENDBRANCH   3   4
ENDBRANCH   2   3
ENDBRANCH   1   2
BRANCH   1   8
ATOM      8  C   UNL     1      42.801  31.143  88.377  1.00  0.00     0.000 C 
BRANCH   8   9
ATOM      9  C   UNL     1      41.586  31.245  87.446  1.00  0.00     0.006 C 
BRANCH   9  10
ATOM     10  C   UNL     1      40.299  30.854  88.177  1.00  0.00     0.053 C 
BRANCH  10  11
ATOM     11  C   UNL     1      40.149  29.366  88.214  1.00  0.00     0.041 C 
ATOM     12  O   UNL     1      40.199  28.698  87.148  1.00  0.00    -0.550 OA
ATOM     13  O   UNL     1      40.005  28.712  89.430  1.00  0.00    -0.550 OA
ENDBRANCH  10  11
ENDBRANCH   9  10
ENDBRANCH   8   9
ENDBRANCH   1   8
TORSDOF 8
ENDMDL
MODEL 3
REMARK VINA RESULT:    -3.404      1.822      5.549
REMARK INTER + INTRA:          -5.442
REMARK INTER:                  -4.874
REMARK INTRA:                  -0.569
REMARK UNBOUND:                -0.447
REMARK SMILES O=C([O-])CCCCCCCC(=O)[O-]
REMARK SMILES IDX 7 1 6 2 5 3 4 4 2 5 1 6 3 7 8 8 9 9 10 10 11 11 12 12 13 13
REMARK H PARENT
REMARK Flexibility Score: inf
ROOT
ATOM      1  C   UNL     1      45.442  31.210  89.148  1.00  0.00     0.000 C 
ENDROOT
BRANCH   1   2
ATOM      2  C   UNL     1      45.793  30.956  90.619  1.00  0.00     0.000 C 
BRANCH   2   3
ATOM      3  C   UNL     1      44.795  31.658  91.551  1.00  0.00     0.006 C 
BRANCH   3   4
ATOM      4  C   UNL     1      44.310  30.739  92.681  1.00  0.00     0.053 C 
BRANCH   4   5
ATOM      5  C   UNL     1      43.646  29.508  92.148  1.00  0.00     0.041 C 
ATOM      6  O   UNL     1      42.568  29.596  91.502  1.00  0.00    -0.550 OA
ATOM      7  O   UNL     1      44.201  28.258  92.392  1.00  0.00    -0.550 OA
ENDBRANCH   4   5
ENDBRANCH   3   4
ENDBRANCH   2   3
ENDBRANCH   1   2
BRANCH   1   8
ATOM      8  C   UNL     1      43.976  31.629  88.996  1.00  0.00     0.000 C 
BRANCH   8   9
ATOM      9  C   UNL     1      43.181  30.580  88.209  1.00  0.00     0.006 C 
BRANCH   9  10
ATOM     10  C   UNL     1      41.949  31.205  87.549  1.00  0.00     0.053 C 
BRANCH  10  11
ATOM     11  C   UNL     1      40.731  30.381  87.825  1.00  0.00     0.041 C 
ATOM     12  O   UNL     1      40.711  29.160  87.521  1.00  0.00    -0.550 OA
ATOM     13  O   UNL     1      39.637  30.951  88.464  1.00  0.00    -0.550 OA
ENDBRANCH  10  11
ENDBRANCH   9  10
ENDBRANCH   8   9
ENDBRANCH   1   8
TORSDOF 8
ENDMDL
MODEL 4
REMARK VINA RESULT:    -3.382      2.067      6.642
REMARK INTER + INTRA:          -5.411
REMARK INTER:                  -5.052
REMARK INTRA:                  -0.359
REMARK UNBOUND:                -0.447
REMARK SMILES O=C([O-])CCCCCCCC(=O)[O-]
REMARK SMILES IDX 7 1 6 2 5 3 4 4 2 5 1 6 3 7 8 8 9 9 10 10 11 11 12 12 13 13
REMARK H PARENT
REMARK Flexibility Score: inf
ROOT
ATOM      1  C   UNL     1      43.425  31.388  88.566  1.00  0.00     0.000 C 
ENDROOT
BRANCH   1   2
ATOM      2  C   UNL     1      43.639  30.527  89.816  1.00  0.00     0.000 C 
BRANCH   2   3
ATOM      3  C   UNL     1      44.657  31.178  90.764  1.00  0.00     0.006 C 
BRANCH   3   4
ATOM      4  C   UNL     1      45.978  30.400  90.821  1.00  0.00     0.053 C 
BRANCH   4   5
ATOM      5  C   UNL     1      47.090  31.145  90.149  1.00  0.00     0.041 C 
ATOM      6  O   UNL     1      48.287  30.925  90.472  1.00  0.00    -0.550 OA
ATOM      7  O   UNL     1      46.802  32.107  89.190  1.00  0.00    -0.550 OA
ENDBRANCH   4   5
ENDBRANCH   3   4
ENDBRANCH   2   3
ENDBRANCH   1   2
BRANCH   1   8
ATOM      8  C   UNL     1      42.117  31.015  87.858  1.00  0.00     0.000 C 
BRANCH   8   9
ATOM      9  C   UNL     1      41.130  30.362  88.833  1.00  0.00     0.006 C 
BRANCH   9  10
ATOM     10  C   UNL     1      39.690  30.497  88.331  1.00  0.00     0.053 C 
BRANCH  10  11
ATOM     11  C   UNL     1      39.163  29.168  87.887  1.00  0.00     0.041 C 
ATOM     12  O   UNL     1      39.837  28.123  88.081  1.00  0.00    -0.550 OA
ATOM     13  O   UNL     1      37.905  29.079  87.304  1.00  0.00    -0.550 OA
ENDBRANCH  10  11
ENDBRANCH   9  10
ENDBRANCH   8   9
ENDBRANCH   1   8
TORSDOF 8
ENDMDL
MODEL 5
REMARK VINA RESULT:    -3.375      0.701      1.443
REMARK INTER + INTRA:          -5.401
REMARK INTER:                  -4.814
REMARK INTRA:                  -0.587
REMARK UNBOUND:                -0.447
REMARK SMILES O=C([O-])CCCCCCCC(=O)[O-]
REMARK SMILES IDX 7 1 6 2 5 3 4 4 2 5 1 6 3 7 8 8 9 9 10 10 11 11 12 12 13 13
REMARK H PARENT
REMARK Flexibility Score: inf
ROOT
ATOM      1  C   UNL     1      42.398  30.566  87.611  1.00  0.00     0.000 C 
ENDROOT
BRANCH   1   2
ATOM      2  C   UNL     1      41.087  31.358  87.536  1.00  0.00     0.000 C 
BRANCH   2   3
ATOM      3  C   UNL     1      40.014  30.734  88.440  1.00  0.00     0.006 C 
BRANCH   3   4
ATOM      4  C   UNL     1      40.045  29.200  88.404  1.00  0.00     0.053 C 
BRANCH   4   5
ATOM      5  C   UNL     1      39.122  28.651  87.360  1.00  0.00     0.041 C 
ATOM      6  O   UNL     1      37.886  28.888  87.418  1.00  0.00    -0.550 OA
ATOM      7  O   UNL     1      39.622  27.851  86.341  1.00  0.00    -0.550 OA
ENDBRANCH   4   5
ENDBRANCH   3   4
ENDBRANCH   2   3
ENDBRANCH   1   2
BRANCH   1   8
ATOM      8  C   UNL     1      43.349  31.175  88.647  1.00  0.00     0.000 C 
BRANCH   8   9
ATOM      9  C   UNL     1      43.913  30.095  89.579  1.00  0.00     0.006 C 
BRANCH   9  10
ATOM     10  C   UNL     1      43.142  30.051  90.900  1.00  0.00     0.053 C 
BRANCH  10  11
ATOM     11  C   UNL     1      44.075  30.214  92.059  1.00  0.00     0.041 C 
ATOM     12  O   UNL     1      44.057  31.270  92.742  1.00  0.00    -0.550 OA
ATOM     13  O   UNL     1      44.930  29.178  92.413  1.00  0.00    -0.550 OA
ENDBRANCH  10  11
ENDBRANCH   9  10
ENDBRANCH   8   9
ENDBRANCH   1   8
TORSDOF 8
ENDMDL
MODEL 6
REMARK VINA RESULT:    -3.365      1.706      2.721
REMARK INTER + INTRA:          -5.387
REMARK INTER:                  -4.733
REMARK INTRA:                  -0.654
REMARK UNBOUND:                -0.447
REMARK SMILES O=C([O-])CCCCCCCC(=O)[O-]
REMARK SMILES IDX 7 1 6 2 5 3 4 4 2 5 1 6 3 7 8 8 9 9 10 10 11 11 12 12 13 13
REMARK H PARENT
REMARK Flexibility Score: inf
ROOT
ATOM      1  C   UNL     1      45.375  30.313  88.360  1.00  0.00     0.000 C 
ENDROOT
BRANCH   1   2
ATOM      2  C   UNL     1      43.893  29.971  88.162  1.00  0.00     0.000 C 
BRANCH   2   3
ATOM      3  C   UNL     1      43.013  31.216  88.347  1.00  0.00     0.006 C 
BRANCH   3   4
ATOM      4  C   UNL     1      41.852  31.260  87.343  1.00  0.00     0.053 C 
BRANCH   4   5
ATOM      5  C   UNL     1      40.710  30.395  87.777  1.00  0.00     0.041 C 
ATOM      6  O   UNL     1      39.889  30.811  88.637  1.00  0.00    -0.550 OA
ATOM      7  O   UNL     1      40.571  29.115  87.257  1.00  0.00    -0.550 OA
ENDBRANCH   4   5
ENDBRANCH   3   4
ENDBRANCH   2   3
ENDBRANCH   1   2
BRANCH   1   8
ATOM      8  C   UNL     1      45.539  31.596  89.182  1.00  0.00     0.000 C 
BRANCH   8   9
ATOM      9  C   UNL     1      46.009  31.282  90.608  1.00  0.00     0.006 C 
BRANCH   9  10
ATOM     10  C   UNL     1      44.866  31.444  91.612  1.00  0.00     0.053 C 
BRANCH  10  11
ATOM     11  C   UNL     1      44.253  30.116  91.927  1.00  0.00     0.041 C 
ATOM     12  O   UNL     1      43.008  29.957  91.836  1.00  0.00    -0.550 OA
ATOM     13  O   UNL     1      45.061  29.041  92.273  1.00  0.00    -0.550 OA
ENDBRANCH  10  11
ENDBRANCH   9  10
ENDBRANCH   8   9
ENDBRANCH   1   8
TORSDOF 8
ENDMDL
MODEL 7
REMARK VINA RESULT:    -3.363     14.191     15.878
REMARK INTER + INTRA:          -5.383
REMARK INTER:                  -5.214
REMARK INTRA:                  -0.169
REMARK UNBOUND:                -0.447
REMARK SMILES O=C([O-])CCCCCCCC(=O)[O-]
REMARK SMILES IDX 7 1 6 2 5 3 4 4 2 5 1 6 3 7 8 8 9 9 10 10 11 11 12 12 13 13
REMARK H PARENT
REMARK Flexibility Score: inf
ROOT
ATOM      1  C   UNL     1      42.750  20.419  78.986  1.00  0.00     0.000 C 
ENDROOT
BRANCH   1   2
ATOM      2  C   UNL     1      41.268  20.355  78.595  1.00  0.00     0.000 C 
BRANCH   2   3
ATOM      3  C   UNL     1      40.406  19.893  79.779  1.00  0.00     0.006 C 
BRANCH   3   4
ATOM      4  C   UNL     1      39.023  20.556  79.784  1.00  0.00     0.053 C 
BRANCH   4   5
ATOM      5  C   UNL     1      37.952  19.603  80.216  1.00  0.00     0.041 C 
ATOM      6  O   UNL     1      37.984  18.401  79.841  1.00  0.00    -0.550 OA
ATOM      7  O   UNL     1      36.900  20.049  81.005  1.00  0.00    -0.550 OA
ENDBRANCH   4   5
ENDBRANCH   3   4
ENDBRANCH   2   3
ENDBRANCH   1   2
BRANCH   1   8
ATOM      8  C   UNL     1      43.641  20.546  77.746  1.00  0.00     0.000 C 
BRANCH   8   9
ATOM      9  C   UNL     1      44.904  19.687  77.884  1.00  0.00     0.006 C 
BRANCH   9  10
ATOM     10  C   UNL     1      45.802  19.827  76.653  1.00  0.00     0.053 C 
BRANCH  10  11
ATOM     11  C   UNL     1      46.077  18.486  76.049  1.00  0.00     0.041 C 
ATOM     12  O   UNL     1      46.042  17.451  76.763  1.00  0.00    -0.550 OA
ATOM     13  O   UNL     1      46.323  18.375  74.686  1.00  0.00    -0.550 OA
ENDBRANCH  10  11
ENDBRANCH   9  10
ENDBRANCH   8   9
ENDBRANCH   1   8
TORSDOF 8
ENDMDL
MODEL 8
REMARK VINA RESULT:    -3.354      0.748      6.075
REMARK INTER + INTRA:          -5.370
REMARK INTER:                  -4.789
REMARK INTRA:                  -0.581
REMARK UNBOUND:                -0.447
REMARK SMILES O=C([O-])CCCCCCCC(=O)[O-]
REMARK SMILES IDX 7 1 6 2 5 3 4 4 2 5 1 6 3 7 8 8 9 9 10 10 11 11 12 12 13 13
REMARK H PARENT
REMARK Flexibility Score: inf
ROOT
ATOM      1  C   UNL     1      42.622  30.119  88.004  1.00  0.00     0.000 C 
ENDROOT
BRANCH   1   2
ATOM      2  C   UNL     1      43.936  30.844  88.322  1.00  0.00     0.000 C 
BRANCH   2   3
ATOM      3  C   UNL     1      44.042  31.156  89.822  1.00  0.00     0.006 C 
BRANCH   3   4
ATOM      4  C   UNL     1      43.400  30.065  90.689  1.00  0.00     0.053 C 
BRANCH   4   5
ATOM      5  C   UNL     1      43.887  30.122  92.104  1.00  0.00     0.041 C 
ATOM      6  O   UNL     1      44.101  31.233  92.657  1.00  0.00    -0.550 OA
ATOM      7  O   UNL     1      44.136  28.948  92.802  1.00  0.00    -0.550 OA
ENDBRANCH   4   5
ENDBRANCH   3   4
ENDBRANCH   2   3
ENDBRANCH   1   2
BRANCH   1   8
ATOM      8  C   UNL     1      41.546  31.109  87.543  1.00  0.00     0.000 C 
BRANCH   8   9
ATOM      9  C   UNL     1      40.233  30.889  88.304  1.00  0.00     0.006 C 
BRANCH   9  10
ATOM     10  C   UNL     1      39.998  29.402  88.578  1.00  0.00     0.053 C 
BRANCH  10  11
ATOM     11  C   UNL     1      39.158  28.795  87.498  1.00  0.00     0.041 C 
ATOM     12  O   UNL     1      37.914  28.983  87.484  1.00  0.00    -0.550 OA
ATOM     13  O   UNL     1      39.756  28.064  86.480  1.00  0.00    -0.550 OA
ENDBRANCH  10  11
ENDBRANCH   9  10
ENDBRANCH   8   9
ENDBRANCH   1   8
TORSDOF 8
ENDMDL
MODEL 9
REMARK VINA RESULT:    -3.320     14.256     16.128
REMARK INTER + INTRA:          -5.320
REMARK INTER:                  -4.966
REMARK INTRA:                  -0.354
REMARK UNBOUND:                -0.447
REMARK SMILES O=C([O-])CCCCCCCC(=O)[O-]
REMARK SMILES IDX 7 1 6 2 5 3 4 4 2 5 1 6 3 7 8 8 9 9 10 10 11 11 12 12 13 13
REMARK H PARENT
REMARK Flexibility Score: inf
ROOT
ATOM      1  C   UNL     1      42.219  21.183  77.716  1.00  0.00     0.000 C 
ENDROOT
BRANCH   1   2
ATOM      2  C   UNL     1      43.164  20.288  78.526  1.00  0.00     0.000 C 
BRANCH   2   3
ATOM      3  C   UNL     1      44.629  20.548  78.146  1.00  0.00     0.006 C 
BRANCH   3   4
ATOM      4  C   UNL     1      45.267  19.348  77.434  1.00  0.00     0.053 C 
BRANCH   4   5
ATOM      5  C   UNL     1      45.634  19.672  76.020  1.00  0.00     0.041 C 
ATOM      6  O   UNL     1      44.958  20.508  75.364  1.00  0.00    -0.550 OA
ATOM      7  O   UNL     1      46.704  19.026  75.413  1.00  0.00    -0.550 OA
ENDBRANCH   4   5
ENDBRANCH   3   4
ENDBRANCH   2   3
ENDBRANCH   1   2
BRANCH   1   8
ATOM      8  C   UNL     1      40.767  20.714  77.851  1.00  0.00     0.000 C 
BRANCH   8   9
ATOM      9  C   UNL     1      40.513  20.093  79.230  1.00  0.00     0.006 C 
BRANCH   9  10
ATOM     10  C   UNL     1      39.139  20.494  79.770  1.00  0.00     0.053 C 
BRANCH  10  11
ATOM     11  C   UNL     1      38.403  19.294  80.276  1.00  0.00     0.041 C 
ATOM     12  O   UNL     1      37.728  19.366  81.336  1.00  0.00    -0.550 OA
ATOM     13  O   UNL     1      38.422  18.110  79.550  1.00  0.00    -0.550 OA
ENDBRANCH  10  11
ENDBRANCH   9  10
ENDBRANCH   8   9
ENDBRANCH   1   8
TORSDOF 8
ENDMDL
