MODEL 1
REMARK VINA RESULT:    -2.733      0.000      0.000
REMARK INTER + INTRA:         -11.917
REMARK INTER:                  -6.886
REMARK INTRA:                  -5.031
REMARK UNBOUND:                -5.031
REMARK SMILES CCCCCCCCCCCCCCCCCCCCCCCCCCCC(=O)[O-]
REMARK SMILES IDX 15 1 16 2 17 3 18 4 19 5 20 6 21 7 22 8 23 9 24 10 25 11
REMARK SMILES IDX 26 12 27 13 28 14 29 15 30 16 14 17 13 18 12 19 11 20 10 21
REMARK SMILES IDX 9 22 8 23 7 24 6 25 5 26 4 27 3 28 2 29 1 30
REMARK H PARENT
REMARK Flexibility Score: inf
ROOT
ATOM      1  C   UNL     1       7.506   1.136   4.427  1.00  0.00     0.000 C 
ENDROOT
BRANCH   1   2
ATOM      2  C   UNL     1       9.023   1.380   4.376  1.00  0.00     0.000 C 
BRANCH   2   3
ATOM      3  C   UNL     1       9.820   0.098   4.071  1.00  0.00     0.000 C 
BRANCH   3   4
ATOM      4  C   UNL     1       8.977  -1.178   4.280  1.00  0.00     0.000 C 
BRANCH   4   5
ATOM      5  C   UNL     1       9.252  -1.901   5.610  1.00  0.00     0.000 C 
BRANCH   5   6
ATOM      6  C   UNL     1       8.176  -1.631   6.673  1.00  0.00     0.000 C 
BRANCH   6   7
ATOM      7  C   UNL     1       8.671  -1.894   8.108  1.00  0.00     0.000 C 
BRANCH   7   8
ATOM      8  C   UNL     1       7.561  -2.090   9.159  1.00  0.00     0.000 C 
BRANCH   8   9
ATOM      9  C   UNL     1       7.371  -3.559   9.564  1.00  0.00     0.000 C 
BRANCH   9  10
ATOM     10  C   UNL     1       8.684  -4.340   9.440  1.00  0.00     0.000 C 
BRANCH  10  11
ATOM     11  C   UNL     1       8.483  -5.626   8.626  1.00  0.00     0.000 C 
BRANCH  11  12
ATOM     12  C   UNL     1       9.108  -5.548   7.220  1.00  0.00     0.006 C 
BRANCH  12  13
ATOM     13  C   UNL     1       8.087  -5.544   6.071  1.00  0.00     0.053 C 
BRANCH  13  14
ATOM     14  C   UNL     1       7.969  -6.885   5.416  1.00  0.00     0.041 C 
ATOM     15  O   UNL     1       7.635  -7.894   6.092  1.00  0.00    -0.550 OA
ATOM     16  O   UNL     1       8.271  -7.031   4.069  1.00  0.00    -0.550 OA
ENDBRANCH  13  14
ENDBRANCH  12  13
ENDBRANCH  11  12
ENDBRANCH  10  11
ENDBRANCH   9  10
ENDBRANCH   8   9
ENDBRANCH   7   8
ENDBRANCH   6   7
ENDBRANCH   5   6
ENDBRANCH   4   5
ENDBRANCH   3   4
ENDBRANCH   2   3
ENDBRANCH   1   2
BRANCH   1  17
ATOM     17  C   UNL     1       6.694   2.443   4.450  1.00  0.00     0.000 C 
BRANCH  17  18
ATOM     18  C   UNL     1       7.543   3.653   4.875  1.00  0.00     0.000 C 
BRANCH  18  19
ATOM     19  C   UNL     1       6.718   4.949   4.968  1.00  0.00     0.000 C 
BRANCH  19  20
ATOM     20  C   UNL     1       7.325   5.961   5.964  1.00  0.00     0.000 C 
BRANCH  20  21
ATOM     21  C   UNL     1       8.084   5.303   7.131  1.00  0.00     0.000 C 
BRANCH  21  22
ATOM     22  C   UNL     1       7.340   5.320   8.477  1.00  0.00    -0.000 C 
BRANCH  22  23
ATOM     23  C   UNL     1       5.909   5.890   8.421  1.00  0.00    -0.000 C 
BRANCH  23  24
ATOM     24  C   UNL     1       4.817   4.810   8.260  1.00  0.00    -0.000 C 
BRANCH  24  25
ATOM     25  C   UNL     1       5.227   3.467   8.881  1.00  0.00    -0.000 C 
BRANCH  25  26
ATOM     26  C   UNL     1       5.312   2.366   7.814  1.00  0.00    -0.000 C 
BRANCH  26  27
ATOM     27  C   UNL     1       6.469   1.385   8.064  1.00  0.00    -0.000 C 
BRANCH  27  28
ATOM     28  C   UNL     1       7.214   1.671   9.380  1.00  0.00    -0.000 C 
BRANCH  28  29
ATOM     29  C   UNL     1       8.733   1.490   9.248  1.00  0.00    -0.003 C 
ATOM     30  C   UNL     1       9.265   1.917   7.879  1.00  0.00     0.004 C 
ENDBRANCH  28  29
ENDBRANCH  27  28
ENDBRANCH  26  27
ENDBRANCH  25  26
ENDBRANCH  24  25
ENDBRANCH  23  24
ENDBRANCH  22  23
ENDBRANCH  21  22
ENDBRANCH  20  21
ENDBRANCH  19  20
ENDBRANCH  18  19
ENDBRANCH  17  18
ENDBRANCH   1  17
TORSDOF 26
ENDMDL
MODEL 2
REMARK VINA RESULT:    -2.729      3.341      7.714
REMARK INTER + INTRA:         -11.909
REMARK INTER:                  -8.052
REMARK INTRA:                  -3.856
REMARK UNBOUND:                -5.031
REMARK SMILES CCCCCCCCCCCCCCCCCCCCCCCCCCCC(=O)[O-]
REMARK SMILES IDX 15 1 16 2 17 3 18 4 19 5 20 6 21 7 22 8 23 9 24 10 25 11
REMARK SMILES IDX 26 12 27 13 28 14 29 15 30 16 14 17 13 18 12 19 11 20 10 21
REMARK SMILES IDX 9 22 8 23 7 24 6 25 5 26 4 27 3 28 2 29 1 30
REMARK H PARENT
REMARK Flexibility Score: inf
ROOT
ATOM      1  C   UNL     1       6.374   2.571   5.085  1.00  0.00     0.000 C 
ENDROOT
BRANCH   1   2
ATOM      2  C   UNL     1       6.878   3.996   4.806  1.00  0.00     0.000 C 
BRANCH   2   3
ATOM      3  C   UNL     1       6.681   4.940   6.007  1.00  0.00     0.000 C 
BRANCH   3   4
ATOM      4  C   UNL     1       6.357   4.174   7.307  1.00  0.00     0.000 C 
BRANCH   4   5
ATOM      5  C   UNL     1       7.398   4.365   8.423  1.00  0.00     0.000 C 
BRANCH   5   6
ATOM      6  C   UNL     1       8.705   3.600   8.162  1.00  0.00     0.000 C 
BRANCH   6   7
ATOM      7  C   UNL     1       8.741   2.221   8.849  1.00  0.00     0.000 C 
BRANCH   7   8
ATOM      8  C   UNL     1       8.707   1.012   7.894  1.00  0.00     0.000 C 
BRANCH   8   9
ATOM      9  C   UNL     1       7.338   0.317   7.852  1.00  0.00     0.000 C 
BRANCH   9  10
ATOM     10  C   UNL     1       6.738   0.198   9.258  1.00  0.00     0.000 C 
BRANCH  10  11
ATOM     11  C   UNL     1       5.212   0.048   9.192  1.00  0.00     0.000 C 
BRANCH  11  12
ATOM     12  C   UNL     1       4.514   1.276   8.575  1.00  0.00     0.006 C 
BRANCH  12  13
ATOM     13  C   UNL     1       3.242   1.721   9.314  1.00  0.00     0.053 C 
BRANCH  13  14
ATOM     14  C   UNL     1       2.007   1.489   8.501  1.00  0.00     0.041 C 
ATOM     15  O   UNL     1       2.098   1.098   7.306  1.00  0.00    -0.550 OA
ATOM     16  O   UNL     1       0.756   1.746   9.046  1.00  0.00    -0.550 OA
ENDBRANCH  13  14
ENDBRANCH  12  13
ENDBRANCH  11  12
ENDBRANCH  10  11
ENDBRANCH   9  10
ENDBRANCH   8   9
ENDBRANCH   7   8
ENDBRANCH   6   7
ENDBRANCH   5   6
ENDBRANCH   4   5
ENDBRANCH   3   4
ENDBRANCH   2   3
ENDBRANCH   1   2
BRANCH   1  17
ATOM     17  C   UNL     1       7.227   1.492   4.393  1.00  0.00     0.000 C 
BRANCH  17  18
ATOM     18  C   UNL     1       8.733   1.785   4.489  1.00  0.00     0.000 C 
BRANCH  18  19
ATOM     19  C   UNL     1       9.595   0.613   3.989  1.00  0.00     0.000 C 
BRANCH  19  20
ATOM     20  C   UNL     1       8.879  -0.747   4.134  1.00  0.00     0.000 C 
BRANCH  20  21
ATOM     21  C   UNL     1       9.806  -1.891   4.586  1.00  0.00     0.000 C 
BRANCH  21  22
ATOM     22  C   UNL     1       9.831  -2.140   6.105  1.00  0.00    -0.000 C 
BRANCH  22  23
ATOM     23  C   UNL     1       8.537  -2.746   6.683  1.00  0.00    -0.000 C 
BRANCH  23  24
ATOM     24  C   UNL     1       8.783  -3.759   7.823  1.00  0.00    -0.000 C 
BRANCH  24  25
ATOM     25  C   UNL     1       8.270  -5.165   7.478  1.00  0.00    -0.000 C 
BRANCH  25  26
ATOM     26  C   UNL     1       8.595  -5.531   6.022  1.00  0.00    -0.000 C 
BRANCH  26  27
ATOM     27  C   UNL     1       7.623  -6.571   5.441  1.00  0.00    -0.000 C 
BRANCH  27  28
ATOM     28  C   UNL     1       7.661  -7.907   6.202  1.00  0.00    -0.000 C 
BRANCH  28  29
ATOM     29  C   UNL     1       6.380  -8.159   7.012  1.00  0.00    -0.003 C 
ATOM     30  C   UNL     1       6.655  -8.813   8.368  1.00  0.00     0.004 C 
ENDBRANCH  28  29
ENDBRANCH  27  28
ENDBRANCH  26  27
ENDBRANCH  25  26
ENDBRANCH  24  25
ENDBRANCH  23  24
ENDBRANCH  22  23
ENDBRANCH  21  22
ENDBRANCH  20  21
ENDBRANCH  19  20
ENDBRANCH  18  19
ENDBRANCH  17  18
ENDBRANCH   1  17
TORSDOF 26
ENDMDL
MODEL 3
REMARK VINA RESULT:    -2.666      2.785      7.282
REMARK INTER + INTRA:         -11.749
REMARK INTER:                  -6.972
REMARK INTRA:                  -4.777
REMARK UNBOUND:                -5.031
REMARK SMILES CCCCCCCCCCCCCCCCCCCCCCCCCCCC(=O)[O-]
REMARK SMILES IDX 15 1 16 2 17 3 18 4 19 5 20 6 21 7 22 8 23 9 24 10 25 11
REMARK SMILES IDX 26 12 27 13 28 14 29 15 30 16 14 17 13 18 12 19 11 20 10 21
REMARK SMILES IDX 9 22 8 23 7 24 6 25 5 26 4 27 3 28 2 29 1 30
REMARK H PARENT
REMARK Flexibility Score: inf
ROOT
ATOM      1  C   UNL     1       6.462   2.486   5.220  1.00  0.00     0.000 C 
ENDROOT
BRANCH   1   2
ATOM      2  C   UNL     1       6.310   3.472   4.051  1.00  0.00     0.000 C 
BRANCH   2   3
ATOM      3  C   UNL     1       6.408   4.942   4.499  1.00  0.00     0.000 C 
BRANCH   3   4
ATOM      4  C   UNL     1       7.038   5.086   5.900  1.00  0.00     0.000 C 
BRANCH   4   5
ATOM      5  C   UNL     1       8.457   5.679   5.891  1.00  0.00     0.000 C 
BRANCH   5   6
ATOM      6  C   UNL     1       9.551   4.620   6.102  1.00  0.00     0.000 C 
BRANCH   6   7
ATOM      7  C   UNL     1       9.605   4.092   7.549  1.00  0.00     0.000 C 
BRANCH   7   8
ATOM      8  C   UNL     1       9.287   2.594   7.712  1.00  0.00     0.000 C 
BRANCH   8   9
ATOM      9  C   UNL     1       8.069   2.333   8.611  1.00  0.00     0.000 C 
BRANCH   9  10
ATOM     10  C   UNL     1       7.611   3.619   9.307  1.00  0.00     0.000 C 
BRANCH  10  11
ATOM     11  C   UNL     1       6.147   3.512   9.752  1.00  0.00     0.000 C 
BRANCH  11  12
ATOM     12  C   UNL     1       5.170   3.366   8.569  1.00  0.00     0.006 C 
BRANCH  12  13
ATOM     13  C   UNL     1       3.789   2.809   8.952  1.00  0.00     0.053 C 
BRANCH  13  14
ATOM     14  C   UNL     1       3.586   1.412   8.455  1.00  0.00     0.041 C 
ATOM     15  O   UNL     1       2.569   1.124   7.770  1.00  0.00    -0.550 OA
ATOM     16  O   UNL     1       4.496   0.417   8.786  1.00  0.00    -0.550 OA
ENDBRANCH  13  14
ENDBRANCH  12  13
ENDBRANCH  11  12
ENDBRANCH  10  11
ENDBRANCH   9  10
ENDBRANCH   8   9
ENDBRANCH   7   8
ENDBRANCH   6   7
ENDBRANCH   5   6
ENDBRANCH   4   5
ENDBRANCH   3   4
ENDBRANCH   2   3
ENDBRANCH   1   2
BRANCH   1  17
ATOM     17  C   UNL     1       7.299   1.248   4.849  1.00  0.00     0.000 C 
BRANCH  17  18
ATOM     18  C   UNL     1       8.662   1.622   4.244  1.00  0.00     0.000 C 
BRANCH  18  19
ATOM     19  C   UNL     1       9.579   0.401   4.056  1.00  0.00     0.000 C 
BRANCH  19  20
ATOM     20  C   UNL     1       8.838  -0.933   4.290  1.00  0.00     0.000 C 
BRANCH  20  21
ATOM     21  C   UNL     1       9.357  -1.725   5.505  1.00  0.00     0.000 C 
BRANCH  21  22
ATOM     22  C   UNL     1       9.151  -1.033   6.864  1.00  0.00    -0.000 C 
BRANCH  22  23
ATOM     23  C   UNL     1       7.753  -1.225   7.485  1.00  0.00    -0.000 C 
BRANCH  23  24
ATOM     24  C   UNL     1       7.783  -1.506   9.003  1.00  0.00    -0.000 C 
BRANCH  24  25
ATOM     25  C   UNL     1       8.676  -2.704   9.359  1.00  0.00    -0.000 C 
BRANCH  25  26
ATOM     26  C   UNL     1       8.111  -4.008   8.778  1.00  0.00    -0.000 C 
BRANCH  26  27
ATOM     27  C   UNL     1       9.044  -4.646   7.735  1.00  0.00    -0.000 C 
BRANCH  27  28
ATOM     28  C   UNL     1       8.279  -5.229   6.534  1.00  0.00    -0.000 C 
BRANCH  28  29
ATOM     29  C   UNL     1       9.213  -5.646   5.388  1.00  0.00    -0.003 C 
ATOM     30  C   UNL     1       8.705  -6.868   4.622  1.00  0.00     0.004 C 
ENDBRANCH  28  29
ENDBRANCH  27  28
ENDBRANCH  26  27
ENDBRANCH  25  26
ENDBRANCH  24  25
ENDBRANCH  23  24
ENDBRANCH  22  23
ENDBRANCH  21  22
ENDBRANCH  20  21
ENDBRANCH  19  20
ENDBRANCH  18  19
ENDBRANCH  17  18
ENDBRANCH   1  17
TORSDOF 26
ENDMDL
MODEL 4
REMARK VINA RESULT:    -2.659     13.166     16.968
REMARK INTER + INTRA:         -11.733
REMARK INTER:                  -8.637
REMARK INTRA:                  -3.095
REMARK UNBOUND:                -5.031
REMARK SMILES CCCCCCCCCCCCCCCCCCCCCCCCCCCC(=O)[O-]
REMARK SMILES IDX 15 1 16 2 17 3 18 4 19 5 20 6 21 7 22 8 23 9 24 10 25 11
REMARK SMILES IDX 26 12 27 13 28 14 29 15 30 16 14 17 13 18 12 19 11 20 10 21
REMARK SMILES IDX 9 22 8 23 7 24 6 25 5 26 4 27 3 28 2 29 1 30
REMARK H PARENT
REMARK Flexibility Score: inf
ROOT
ATOM      1  C   UNL     1      -5.413  -9.781   6.030  1.00  0.00     0.000 C 
ENDROOT
BRANCH   1   2
ATOM      2  C   UNL     1      -5.140  -8.413   6.675  1.00  0.00     0.000 C 
BRANCH   2   3
ATOM      3  C   UNL     1      -3.870  -8.411   7.546  1.00  0.00     0.000 C 
BRANCH   3   4
ATOM      4  C   UNL     1      -4.110  -7.766   8.928  1.00  0.00     0.000 C 
BRANCH   4   5
ATOM      5  C   UNL     1      -5.207  -6.688   8.935  1.00  0.00     0.000 C 
BRANCH   5   6
ATOM      6  C   UNL     1      -6.279  -6.929  10.008  1.00  0.00     0.000 C 
BRANCH   6   7
ATOM      7  C   UNL     1      -7.466  -5.952   9.902  1.00  0.00     0.000 C 
BRANCH   7   8
ATOM      8  C   UNL     1      -7.084  -4.459   9.869  1.00  0.00     0.000 C 
BRANCH   8   9
ATOM      9  C   UNL     1      -7.543  -3.750   8.587  1.00  0.00     0.000 C 
BRANCH   9  10
ATOM     10  C   UNL     1      -9.070  -3.784   8.455  1.00  0.00     0.000 C 
BRANCH  10  11
ATOM     11  C   UNL     1      -9.635  -2.372   8.251  1.00  0.00     0.000 C 
BRANCH  11  12
ATOM     12  C   UNL     1      -8.773  -1.280   8.914  1.00  0.00     0.006 C 
BRANCH  12  13
ATOM     13  C   UNL     1      -8.949   0.122   8.308  1.00  0.00     0.053 C 
BRANCH  13  14
ATOM     14  C   UNL     1      -7.668   0.896   8.296  1.00  0.00     0.041 C 
ATOM     15  O   UNL     1      -7.323   1.536   7.267  1.00  0.00    -0.550 OA
ATOM     16  O   UNL     1      -6.831   0.875   9.404  1.00  0.00    -0.550 OA
ENDBRANCH  13  14
ENDBRANCH  12  13
ENDBRANCH  11  12
ENDBRANCH  10  11
ENDBRANCH   9  10
ENDBRANCH   8   9
ENDBRANCH   7   8
ENDBRANCH   6   7
ENDBRANCH   5   6
ENDBRANCH   4   5
ENDBRANCH   3   4
ENDBRANCH   2   3
ENDBRANCH   1   2
BRANCH   1  17
ATOM     17  C   UNL     1      -6.619 -10.504   6.656  1.00  0.00     0.000 C 
BRANCH  17  18
ATOM     18  C   UNL     1      -7.187  -9.751   7.870  1.00  0.00     0.000 C 
BRANCH  18  19
ATOM     19  C   UNL     1      -6.912 -10.478   9.198  1.00  0.00     0.000 C 
BRANCH  19  20
ATOM     20  C   UNL     1      -5.914 -11.645   9.033  1.00  0.00     0.000 C 
BRANCH  20  21
ATOM     21  C   UNL     1      -4.657 -11.515   9.913  1.00  0.00     0.000 C 
BRANCH  21  22
ATOM     22  C   UNL     1      -3.324 -11.703   9.167  1.00  0.00    -0.000 C 
BRANCH  22  23
ATOM     23  C   UNL     1      -2.124 -10.962   9.788  1.00  0.00    -0.000 C 
BRANCH  23  24
ATOM     24  C   UNL     1      -1.017 -10.611   8.769  1.00  0.00    -0.000 C 
BRANCH  24  25
ATOM     25  C   UNL     1      -0.613  -9.131   8.832  1.00  0.00    -0.000 C 
BRANCH  25  26
ATOM     26  C   UNL     1       0.901  -8.979   9.041  1.00  0.00    -0.000 C 
BRANCH  26  27
ATOM     27  C   UNL     1       1.722  -9.573   7.884  1.00  0.00    -0.000 C 
BRANCH  27  28
ATOM     28  C   UNL     1       3.214  -9.720   8.232  1.00  0.00    -0.000 C 
BRANCH  28  29
ATOM     29  C   UNL     1       4.126  -9.000   7.227  1.00  0.00    -0.003 C 
ATOM     30  C   UNL     1       4.923  -7.859   7.861  1.00  0.00     0.004 C 
ENDBRANCH  28  29
ENDBRANCH  27  28
ENDBRANCH  26  27
ENDBRANCH  25  26
ENDBRANCH  24  25
ENDBRANCH  23  24
ENDBRANCH  22  23
ENDBRANCH  21  22
ENDBRANCH  20  21
ENDBRANCH  19  20
ENDBRANCH  18  19
ENDBRANCH  17  18
ENDBRANCH   1  17
TORSDOF 26
ENDMDL
MODEL 5
REMARK VINA RESULT:    -2.635      1.897      3.094
REMARK INTER + INTRA:         -11.672
REMARK INTER:                  -8.104
REMARK INTRA:                  -3.568
REMARK UNBOUND:                -5.031
REMARK SMILES CCCCCCCCCCCCCCCCCCCCCCCCCCCC(=O)[O-]
REMARK SMILES IDX 15 1 16 2 17 3 18 4 19 5 20 6 21 7 22 8 23 9 24 10 25 11
REMARK SMILES IDX 26 12 27 13 28 14 29 15 30 16 14 17 13 18 12 19 11 20 10 21
REMARK SMILES IDX 9 22 8 23 7 24 6 25 5 26 4 27 3 28 2 29 1 30
REMARK H PARENT
REMARK Flexibility Score: inf
ROOT
ATOM      1  C   UNL     1       6.604   2.230   4.267  1.00  0.00     0.000 C 
ENDROOT
BRANCH   1   2
ATOM      2  C   UNL     1       8.038   1.678   4.296  1.00  0.00     0.000 C 
BRANCH   2   3
ATOM      3  C   UNL     1       8.080   0.139   4.331  1.00  0.00     0.000 C 
BRANCH   3   4
ATOM      4  C   UNL     1       9.497  -0.414   4.069  1.00  0.00     0.000 C 
BRANCH   4   5
ATOM      5  C   UNL     1       9.718  -1.844   4.588  1.00  0.00     0.000 C 
BRANCH   5   6
ATOM      6  C   UNL     1       9.738  -1.930   6.123  1.00  0.00     0.000 C 
BRANCH   6   7
ATOM      7  C   UNL     1       8.512  -2.665   6.699  1.00  0.00     0.000 C 
BRANCH   7   8
ATOM      8  C   UNL     1       8.746  -4.145   7.058  1.00  0.00     0.000 C 
BRANCH   8   9
ATOM      9  C   UNL     1       9.105  -5.009   5.840  1.00  0.00     0.000 C 
BRANCH   9  10
ATOM     10  C   UNL     1       8.641  -6.457   6.035  1.00  0.00     0.000 C 
BRANCH  10  11
ATOM     11  C   UNL     1       7.110  -6.553   5.996  1.00  0.00     0.000 C 
BRANCH  11  12
ATOM     12  C   UNL     1       6.529  -7.355   7.176  1.00  0.00     0.006 C 
BRANCH  12  13
ATOM     13  C   UNL     1       4.993  -7.384   7.230  1.00  0.00     0.053 C 
BRANCH  13  14
ATOM     14  C   UNL     1       4.454  -8.781   7.241  1.00  0.00     0.041 C 
ATOM     15  O   UNL     1       5.238  -9.763   7.151  1.00  0.00    -0.550 OA
ATOM     16  O   UNL     1       3.084  -8.998   7.305  1.00  0.00    -0.550 OA
ENDBRANCH  13  14
ENDBRANCH  12  13
ENDBRANCH  11  12
ENDBRANCH  10  11
ENDBRANCH   9  10
ENDBRANCH   8   9
ENDBRANCH   7   8
ENDBRANCH   6   7
ENDBRANCH   5   6
ENDBRANCH   4   5
ENDBRANCH   3   4
ENDBRANCH   2   3
ENDBRANCH   1   2
BRANCH   1  17
ATOM     17  C   UNL     1       6.393   3.390   5.256  1.00  0.00     0.000 C 
BRANCH  17  18
ATOM     18  C   UNL     1       6.497   4.766   4.577  1.00  0.00     0.000 C 
BRANCH  18  19
ATOM     19  C   UNL     1       7.532   5.681   5.255  1.00  0.00     0.000 C 
BRANCH  19  20
ATOM     20  C   UNL     1       8.822   4.926   5.639  1.00  0.00     0.000 C 
BRANCH  20  21
ATOM     21  C   UNL     1       9.221   5.093   7.117  1.00  0.00     0.000 C 
BRANCH  21  22
ATOM     22  C   UNL     1       8.077   4.877   8.123  1.00  0.00    -0.000 C 
BRANCH  22  23
ATOM     23  C   UNL     1       7.854   3.412   8.548  1.00  0.00    -0.000 C 
BRANCH  23  24
ATOM     24  C   UNL     1       8.977   2.456   8.090  1.00  0.00    -0.000 C 
BRANCH  24  25
ATOM     25  C   UNL     1       8.595   0.979   8.267  1.00  0.00    -0.000 C 
BRANCH  25  26
ATOM     26  C   UNL     1       7.164   0.714   7.777  1.00  0.00    -0.000 C 
BRANCH  26  27
ATOM     27  C   UNL     1       6.365  -0.183   8.738  1.00  0.00    -0.000 C 
BRANCH  27  28
ATOM     28  C   UNL     1       5.321   0.602   9.550  1.00  0.00    -0.000 C 
BRANCH  28  29
ATOM     29  C   UNL     1       4.203   1.181   8.669  1.00  0.00    -0.003 C 
ATOM     30  C   UNL     1       4.181   2.710   8.665  1.00  0.00     0.004 C 
ENDBRANCH  28  29
ENDBRANCH  27  28
ENDBRANCH  26  27
ENDBRANCH  25  26
ENDBRANCH  24  25
ENDBRANCH  23  24
ENDBRANCH  22  23
ENDBRANCH  21  22
ENDBRANCH  20  21
ENDBRANCH  19  20
ENDBRANCH  18  19
ENDBRANCH  17  18
ENDBRANCH   1  17
TORSDOF 26
ENDMDL
MODEL 6
REMARK VINA RESULT:    -2.624      3.083      8.102
REMARK INTER + INTRA:         -11.643
REMARK INTER:                  -7.594
REMARK INTRA:                  -4.050
REMARK UNBOUND:                -5.031
REMARK SMILES CCCCCCCCCCCCCCCCCCCCCCCCCCCC(=O)[O-]
REMARK SMILES IDX 15 1 16 2 17 3 18 4 19 5 20 6 21 7 22 8 23 9 24 10 25 11
REMARK SMILES IDX 26 12 27 13 28 14 29 15 30 16 14 17 13 18 12 19 11 20 10 21
REMARK SMILES IDX 9 22 8 23 7 24 6 25 5 26 4 27 3 28 2 29 1 30
REMARK H PARENT
REMARK Flexibility Score: inf
ROOT
ATOM      1  C   UNL     1       7.585   1.298   4.642  1.00  0.00     0.000 C 
ENDROOT
BRANCH   1   2
ATOM      2  C   UNL     1       6.622   2.363   4.095  1.00  0.00     0.000 C 
BRANCH   2   3
ATOM      3  C   UNL     1       6.379   3.511   5.093  1.00  0.00     0.000 C 
BRANCH   3   4
ATOM      4  C   UNL     1       6.486   4.899   4.426  1.00  0.00     0.000 C 
BRANCH   4   5
ATOM      5  C   UNL     1       7.405   5.882   5.170  1.00  0.00     0.000 C 
BRANCH   5   6
ATOM      6  C   UNL     1       8.271   5.202   6.242  1.00  0.00     0.000 C 
BRANCH   6   7
ATOM      7  C   UNL     1       7.924   5.660   7.672  1.00  0.00     0.000 C 
BRANCH   7   8
ATOM      8  C   UNL     1       6.972   6.869   7.761  1.00  0.00     0.000 C 
BRANCH   8   9
ATOM      9  C   UNL     1       5.687   6.564   8.543  1.00  0.00     0.000 C 
BRANCH   9  10
ATOM     10  C   UNL     1       4.897   5.426   7.886  1.00  0.00     0.000 C 
BRANCH  10  11
ATOM     11  C   UNL     1       4.548   4.338   8.909  1.00  0.00     0.000 C 
BRANCH  11  12
ATOM     12  C   UNL     1       5.390   3.059   8.735  1.00  0.00     0.006 C 
BRANCH  12  13
ATOM     13  C   UNL     1       4.714   1.964   7.894  1.00  0.00     0.053 C 
BRANCH  13  14
ATOM     14  C   UNL     1       3.464   1.449   8.537  1.00  0.00     0.041 C 
ATOM     15  O   UNL     1       3.437   1.217   9.775  1.00  0.00    -0.550 OA
ATOM     16  O   UNL     1       2.343   1.182   7.764  1.00  0.00    -0.550 OA
ENDBRANCH  13  14
ENDBRANCH  12  13
ENDBRANCH  11  12
ENDBRANCH  10  11
ENDBRANCH   9  10
ENDBRANCH   8   9
ENDBRANCH   7   8
ENDBRANCH   6   7
ENDBRANCH   5   6
ENDBRANCH   4   5
ENDBRANCH   3   4
ENDBRANCH   2   3
ENDBRANCH   1   2
BRANCH   1  17
ATOM     17  C   UNL     1       9.034   1.807   4.755  1.00  0.00     0.000 C 
BRANCH  17  18
ATOM     18  C   UNL     1       9.592   1.675   6.181  1.00  0.00     0.000 C 
BRANCH  18  19
ATOM     19  C   UNL     1       8.487   1.702   7.252  1.00  0.00     0.000 C 
BRANCH  19  20
ATOM     20  C   UNL     1       8.911   0.987   8.553  1.00  0.00     0.000 C 
BRANCH  20  21
ATOM     21  C   UNL     1       9.014  -0.544   8.412  1.00  0.00     0.000 C 
BRANCH  21  22
ATOM     22  C   UNL     1       7.829  -1.207   7.687  1.00  0.00    -0.000 C 
BRANCH  22  23
ATOM     23  C   UNL     1       8.198  -1.948   6.387  1.00  0.00    -0.000 C 
BRANCH  23  24
ATOM     24  C   UNL     1       9.468  -2.818   6.507  1.00  0.00    -0.000 C 
BRANCH  24  25
ATOM     25  C   UNL     1       9.302  -4.190   5.838  1.00  0.00    -0.000 C 
BRANCH  25  26
ATOM     26  C   UNL     1       8.340  -5.083   6.634  1.00  0.00    -0.000 C 
BRANCH  26  27
ATOM     27  C   UNL     1       7.965  -6.371   5.882  1.00  0.00    -0.000 C 
BRANCH  27  28
ATOM     28  C   UNL     1       7.847  -7.589   6.816  1.00  0.00    -0.000 C 
BRANCH  28  29
ATOM     29  C   UNL     1       6.453  -8.231   6.770  1.00  0.00    -0.003 C 
ATOM     30  C   UNL     1       5.339  -7.261   7.166  1.00  0.00     0.004 C 
ENDBRANCH  28  29
ENDBRANCH  27  28
ENDBRANCH  26  27
ENDBRANCH  25  26
ENDBRANCH  24  25
ENDBRANCH  23  24
ENDBRANCH  22  23
ENDBRANCH  21  22
ENDBRANCH  20  21
ENDBRANCH  19  20
ENDBRANCH  18  19
ENDBRANCH  17  18
ENDBRANCH   1  17
TORSDOF 26
ENDMDL
MODEL 7
REMARK VINA RESULT:    -2.618      9.973     13.988
REMARK INTER + INTRA:         -11.629
REMARK INTER:                  -7.773
REMARK INTRA:                  -3.856
REMARK UNBOUND:                -5.031
REMARK SMILES CCCCCCCCCCCCCCCCCCCCCCCCCCCC(=O)[O-]
REMARK SMILES IDX 15 1 16 2 17 3 18 4 19 5 20 6 21 7 22 8 23 9 24 10 25 11
REMARK SMILES IDX 26 12 27 13 28 14 29 15 30 16 14 17 13 18 12 19 11 20 10 21
REMARK SMILES IDX 9 22 8 23 7 24 6 25 5 26 4 27 3 28 2 29 1 30
REMARK H PARENT
REMARK Flexibility Score: inf
ROOT
ATOM      1  C   UNL     1      -0.065  -9.127   8.659  1.00  0.00     0.000 C 
ENDROOT
BRANCH   1   2
ATOM      2  C   UNL     1       1.242  -9.388   9.424  1.00  0.00     0.000 C 
BRANCH   2   3
ATOM      3  C   UNL     1       1.762 -10.825   9.237  1.00  0.00     0.000 C 
BRANCH   3   4
ATOM      4  C   UNL     1       1.436 -11.387   7.837  1.00  0.00     0.000 C 
BRANCH   4   5
ATOM      5  C   UNL     1       2.640 -12.021   7.120  1.00  0.00     0.000 C 
BRANCH   5   6
ATOM      6  C   UNL     1       3.901 -12.076   7.996  1.00  0.00     0.000 C 
BRANCH   6   7
ATOM      7  C   UNL     1       5.044 -11.193   7.458  1.00  0.00     0.000 C 
BRANCH   7   8
ATOM      8  C   UNL     1       5.135  -9.787   8.081  1.00  0.00     0.000 C 
BRANCH   8   9
ATOM      9  C   UNL     1       4.347  -8.730   7.295  1.00  0.00     0.000 C 
BRANCH   9  10
ATOM     10  C   UNL     1       5.017  -7.355   7.394  1.00  0.00     0.000 C 
BRANCH  10  11
ATOM     11  C   UNL     1       6.158  -7.373   8.421  1.00  0.00     0.000 C 
BRANCH  11  12
ATOM     12  C   UNL     1       7.477  -6.809   7.860  1.00  0.00     0.006 C 
BRANCH  12  13
ATOM     13  C   UNL     1       7.395  -6.334   6.400  1.00  0.00     0.053 C 
BRANCH  13  14
ATOM     14  C   UNL     1       8.538  -5.440   6.032  1.00  0.00     0.041 C 
ATOM     15  O   UNL     1       9.649  -5.933   5.704  1.00  0.00    -0.550 OA
ATOM     16  O   UNL     1       8.389  -4.061   6.094  1.00  0.00    -0.550 OA
ENDBRANCH  13  14
ENDBRANCH  12  13
ENDBRANCH  11  12
ENDBRANCH  10  11
ENDBRANCH   9  10
ENDBRANCH   8   9
ENDBRANCH   7   8
ENDBRANCH   6   7
ENDBRANCH   5   6
ENDBRANCH   4   5
ENDBRANCH   3   4
ENDBRANCH   2   3
ENDBRANCH   1   2
BRANCH   1  17
ATOM     17  C   UNL     1      -1.203  -8.637   9.573  1.00  0.00     0.000 C 
BRANCH  17  18
ATOM     18  C   UNL     1      -2.309  -9.691   9.747  1.00  0.00     0.000 C 
BRANCH  18  19
ATOM     19  C   UNL     1      -2.205 -10.831   8.719  1.00  0.00     0.000 C 
BRANCH  19  20
ATOM     20  C   UNL     1      -3.194 -11.980   9.013  1.00  0.00     0.000 C 
BRANCH  20  21
ATOM     21  C   UNL     1      -4.360 -11.572   9.932  1.00  0.00     0.000 C 
BRANCH  21  22
ATOM     22  C   UNL     1      -5.759 -11.737   9.313  1.00  0.00    -0.000 C 
BRANCH  22  23
ATOM     23  C   UNL     1      -6.565 -10.431   9.173  1.00  0.00    -0.000 C 
BRANCH  23  24
ATOM     24  C   UNL     1      -6.918 -10.074   7.712  1.00  0.00    -0.000 C 
BRANCH  24  25
ATOM     25  C   UNL     1      -5.748 -10.326   6.749  1.00  0.00    -0.000 C 
BRANCH  25  26
ATOM     26  C   UNL     1      -5.249  -9.013   6.128  1.00  0.00    -0.000 C 
BRANCH  26  27
ATOM     27  C   UNL     1      -4.199  -8.305   7.001  1.00  0.00    -0.000 C 
BRANCH  27  28
ATOM     28  C   UNL     1      -4.750  -7.039   7.681  1.00  0.00    -0.000 C 
BRANCH  28  29
ATOM     29  C   UNL     1      -4.799  -7.167   9.211  1.00  0.00    -0.003 C 
ATOM     30  C   UNL     1      -6.160  -6.788   9.796  1.00  0.00     0.004 C 
ENDBRANCH  28  29
ENDBRANCH  27  28
ENDBRANCH  26  27
ENDBRANCH  25  26
ENDBRANCH  24  25
ENDBRANCH  23  24
ENDBRANCH  22  23
ENDBRANCH  21  22
ENDBRANCH  20  21
ENDBRANCH  19  20
ENDBRANCH  18  19
ENDBRANCH  17  18
ENDBRANCH   1  17
TORSDOF 26
ENDMDL
MODEL 8
REMARK VINA RESULT:    -2.600      1.068      2.264
REMARK INTER + INTRA:         -11.584
REMARK INTER:                  -6.862
REMARK INTRA:                  -4.722
REMARK UNBOUND:                -5.031
REMARK SMILES CCCCCCCCCCCCCCCCCCCCCCCCCCCC(=O)[O-]
REMARK SMILES IDX 15 1 16 2 17 3 18 4 19 5 20 6 21 7 22 8 23 9 24 10 25 11
REMARK SMILES IDX 26 12 27 13 28 14 29 15 30 16 14 17 13 18 12 19 11 20 10 21
REMARK SMILES IDX 9 22 8 23 7 24 6 25 5 26 4 27 3 28 2 29 1 30
REMARK H PARENT
REMARK Flexibility Score: inf
ROOT
ATOM      1  C   UNL     1       7.124   1.432   5.117  1.00  0.00     0.000 C 
ENDROOT
BRANCH   1   2
ATOM      2  C   UNL     1       8.454   1.558   4.357  1.00  0.00     0.000 C 
BRANCH   2   3
ATOM      3  C   UNL     1       9.513   0.551   4.844  1.00  0.00     0.000 C 
BRANCH   3   4
ATOM      4  C   UNL     1       9.375  -0.823   4.154  1.00  0.00     0.000 C 
BRANCH   4   5
ATOM      5  C   UNL     1       9.398  -2.017   5.124  1.00  0.00     0.000 C 
BRANCH   5   6
ATOM      6  C   UNL     1       8.452  -1.837   6.321  1.00  0.00     0.000 C 
BRANCH   6   7
ATOM      7  C   UNL     1       9.100  -2.232   7.663  1.00  0.00     0.000 C 
BRANCH   7   8
ATOM      8  C   UNL     1       8.173  -2.975   8.644  1.00  0.00     0.000 C 
BRANCH   8   9
ATOM      9  C   UNL     1       8.923  -3.969   9.542  1.00  0.00     0.000 C 
BRANCH   9  10
ATOM     10  C   UNL     1       8.347  -5.383   9.400  1.00  0.00     0.000 C 
BRANCH  10  11
ATOM     11  C   UNL     1       8.666  -5.969   8.018  1.00  0.00     0.000 C 
BRANCH  11  12
ATOM     12  C   UNL     1       7.454  -6.664   7.368  1.00  0.00     0.006 C 
BRANCH  12  13
ATOM     13  C   UNL     1       7.238  -6.311   5.887  1.00  0.00     0.053 C 
BRANCH  13  14
ATOM     14  C   UNL     1       8.363  -6.791   5.024  1.00  0.00     0.041 C 
ATOM     15  O   UNL     1       8.493  -8.019   4.776  1.00  0.00    -0.550 OA
ATOM     16  O   UNL     1       9.294  -5.888   4.528  1.00  0.00    -0.550 OA
ENDBRANCH  13  14
ENDBRANCH  12  13
ENDBRANCH  11  12
ENDBRANCH  10  11
ENDBRANCH   9  10
ENDBRANCH   8   9
ENDBRANCH   7   8
ENDBRANCH   6   7
ENDBRANCH   5   6
ENDBRANCH   4   5
ENDBRANCH   3   4
ENDBRANCH   2   3
ENDBRANCH   1   2
BRANCH   1  17
ATOM     17  C   UNL     1       6.240   2.684   4.978  1.00  0.00     0.000 C 
BRANCH  17  18
ATOM     18  C   UNL     1       7.041   3.922   4.544  1.00  0.00     0.000 C 
BRANCH  18  19
ATOM     19  C   UNL     1       6.721   5.162   5.398  1.00  0.00     0.000 C 
BRANCH  19  20
ATOM     20  C   UNL     1       7.704   5.332   6.577  1.00  0.00     0.000 C 
BRANCH  20  21
ATOM     21  C   UNL     1       9.059   4.633   6.359  1.00  0.00     0.000 C 
BRANCH  21  22
ATOM     22  C   UNL     1       9.468   3.657   7.477  1.00  0.00    -0.000 C 
BRANCH  22  23
ATOM     23  C   UNL     1       8.295   2.947   8.180  1.00  0.00    -0.000 C 
BRANCH  23  24
ATOM     24  C   UNL     1       8.580   1.467   8.518  1.00  0.00    -0.000 C 
BRANCH  24  25
ATOM     25  C   UNL     1       7.482   0.846   9.396  1.00  0.00    -0.000 C 
BRANCH  25  26
ATOM     26  C   UNL     1       6.363   0.239   8.536  1.00  0.00    -0.000 C 
BRANCH  26  27
ATOM     27  C   UNL     1       4.960   0.635   9.024  1.00  0.00    -0.000 C 
BRANCH  27  28
ATOM     28  C   UNL     1       4.327   1.746   8.169  1.00  0.00    -0.000 C 
BRANCH  28  29
ATOM     29  C   UNL     1       4.001   3.005   8.987  1.00  0.00    -0.003 C 
ATOM     30  C   UNL     1       4.862   4.207   8.596  1.00  0.00     0.004 C 
ENDBRANCH  28  29
ENDBRANCH  27  28
ENDBRANCH  26  27
ENDBRANCH  25  26
ENDBRANCH  24  25
ENDBRANCH  23  24
ENDBRANCH  22  23
ENDBRANCH  21  22
ENDBRANCH  20  21
ENDBRANCH  19  20
ENDBRANCH  18  19
ENDBRANCH  17  18
ENDBRANCH   1  17
TORSDOF 26
ENDMDL
MODEL 9
REMARK VINA RESULT:    -2.547      3.013      8.215
REMARK INTER + INTRA:         -11.449
REMARK INTER:                  -7.080
REMARK INTRA:                  -4.369
REMARK UNBOUND:                -5.031
REMARK SMILES CCCCCCCCCCCCCCCCCCCCCCCCCCCC(=O)[O-]
REMARK SMILES IDX 15 1 16 2 17 3 18 4 19 5 20 6 21 7 22 8 23 9 24 10 25 11
REMARK SMILES IDX 26 12 27 13 28 14 29 15 30 16 14 17 13 18 12 19 11 20 10 21
REMARK SMILES IDX 9 22 8 23 7 24 6 25 5 26 4 27 3 28 2 29 1 30
REMARK H PARENT
REMARK Flexibility Score: inf
ROOT
ATOM      1  C   UNL     1       5.917   1.320   8.388  1.00  0.00     0.000 C 
ENDROOT
BRANCH   1   2
ATOM      2  C   UNL     1       4.825   2.266   7.862  1.00  0.00     0.000 C 
BRANCH   2   3
ATOM      3  C   UNL     1       4.062   2.978   8.994  1.00  0.00     0.000 C 
BRANCH   3   4
ATOM      4  C   UNL     1       4.636   4.379   9.296  1.00  0.00     0.000 C 
BRANCH   4   5
ATOM      5  C   UNL     1       4.847   5.252   8.047  1.00  0.00     0.000 C 
BRANCH   5   6
ATOM      6  C   UNL     1       6.112   6.121   8.129  1.00  0.00     0.000 C 
BRANCH   6   7
ATOM      7  C   UNL     1       7.058   5.698   9.270  1.00  0.00     0.000 C 
BRANCH   7   8
ATOM      8  C   UNL     1       8.445   5.201   8.820  1.00  0.00     0.000 C 
BRANCH   8   9
ATOM      9  C   UNL     1       8.514   3.675   8.662  1.00  0.00     0.000 C 
BRANCH   9  10
ATOM     10  C   UNL     1       8.820   3.283   7.212  1.00  0.00     0.000 C 
BRANCH  10  11
ATOM     11  C   UNL     1       8.882   4.524   6.310  1.00  0.00     0.000 C 
BRANCH  11  12
ATOM     12  C   UNL     1       8.081   4.356   5.005  1.00  0.00     0.006 C 
BRANCH  12  13
ATOM     13  C   UNL     1       7.296   3.037   4.906  1.00  0.00     0.053 C 
BRANCH  13  14
ATOM     14  C   UNL     1       6.140   3.138   3.960  1.00  0.00     0.041 C 
ATOM     15  O   UNL     1       5.865   4.237   3.410  1.00  0.00    -0.550 OA
ATOM     16  O   UNL     1       5.339   2.029   3.720  1.00  0.00    -0.550 OA
ENDBRANCH  13  14
ENDBRANCH  12  13
ENDBRANCH  11  12
ENDBRANCH  10  11
ENDBRANCH   9  10
ENDBRANCH   8   9
ENDBRANCH   7   8
ENDBRANCH   6   7
ENDBRANCH   5   6
ENDBRANCH   4   5
ENDBRANCH   3   4
ENDBRANCH   2   3
ENDBRANCH   1   2
BRANCH   1  17
ATOM     17  C   UNL     1       5.343   0.131   9.180  1.00  0.00     0.000 C 
BRANCH  17  18
ATOM     18  C   UNL     1       6.442  -0.805   9.710  1.00  0.00     0.000 C 
BRANCH  18  19
ATOM     19  C   UNL     1       7.284  -1.425   8.580  1.00  0.00     0.000 C 
BRANCH  19  20
ATOM     20  C   UNL     1       8.757  -0.966   8.625  1.00  0.00     0.000 C 
BRANCH  20  21
ATOM     21  C   UNL     1       9.242  -0.310   7.318  1.00  0.00     0.000 C 
BRANCH  21  22
ATOM     22  C   UNL     1       8.239  -0.374   6.153  1.00  0.00    -0.000 C 
BRANCH  22  23
ATOM     23  C   UNL     1       8.821  -0.891   4.823  1.00  0.00    -0.000 C 
BRANCH  23  24
ATOM     24  C   UNL     1      10.084  -1.763   4.997  1.00  0.00    -0.000 C 
BRANCH  24  25
ATOM     25  C   UNL     1       9.757  -3.262   5.053  1.00  0.00    -0.000 C 
BRANCH  25  26
ATOM     26  C   UNL     1       9.852  -3.797   6.490  1.00  0.00    -0.000 C 
BRANCH  26  27
ATOM     27  C   UNL     1       8.575  -4.527   6.937  1.00  0.00    -0.000 C 
BRANCH  27  28
ATOM     28  C   UNL     1       8.185  -5.673   5.986  1.00  0.00    -0.000 C 
BRANCH  28  29
ATOM     29  C   UNL     1       7.921  -6.990   6.731  1.00  0.00    -0.003 C 
ATOM     30  C   UNL     1       6.724  -6.907   7.679  1.00  0.00     0.004 C 
ENDBRANCH  28  29
ENDBRANCH  27  28
ENDBRANCH  26  27
ENDBRANCH  25  26
ENDBRANCH  24  25
ENDBRANCH  23  24
ENDBRANCH  22  23
ENDBRANCH  21  22
ENDBRANCH  20  21
ENDBRANCH  19  20
ENDBRANCH  18  19
ENDBRANCH  17  18
ENDBRANCH   1  17
TORSDOF 26
ENDMDL
