MODEL 1
REMARK VINA RESULT:    -4.616      0.000      0.000
REMARK INTER + INTRA:          -6.938
REMARK INTER:                  -6.640
REMARK INTRA:                  -0.297
REMARK UNBOUND:                -0.297
REMARK SMILES O=C(CO)[C@@H](O)[C@@H](O)[C@H](O)CO
REMARK SMILES IDX 7 1 9 2 11 3 12 4 10 6 5 8 2 9 1 10 3 11 4 12 6 14 8 16
REMARK H PARENT 12 5 10 7 4 13 6 15 8 17
REMARK Flexibility Score: inf
ROOT
ATOM      1  C   UNL     1      85.319 -68.137  14.559  1.00  0.00     0.181 C 
ENDROOT
BRANCH   1   2
ATOM      2  C   UNL     1      84.570 -68.349  15.902  1.00  0.00     0.171 C 
BRANCH   2   3
ATOM      3  C   UNL     1      83.226 -67.598  15.988  1.00  0.00     0.190 C 
BRANCH   3   4
ATOM      4  O   UNL     1      83.147 -66.621  14.986  1.00  0.00    -0.394 OA
ATOM      5  H   UNL     1      82.575 -65.892  15.343  1.00  0.00     0.210 HD
ENDBRANCH   3   4
ENDBRANCH   2   3
BRANCH   2   6
ATOM      6  O   UNL     1      84.360 -69.724  16.108  1.00  0.00    -0.388 OA
ATOM      7  H   UNL     1      83.815 -70.053  15.346  1.00  0.00     0.211 HD
ENDBRANCH   2   6
ENDBRANCH   1   2
BRANCH   1   8
ATOM      8  C   UNL     1      86.798 -68.609  14.563  1.00  0.00     0.214 C 
BRANCH   8   9
ATOM      9  C   UNL     1      86.868 -70.121  14.579  1.00  0.00     0.189 C 
ATOM     10  O   UNL     1      86.073 -70.768  13.912  1.00  0.00    -0.294 OA
BRANCH   9  11
ATOM     11  C   UNL     1      87.901 -70.846  15.397  1.00  0.00     0.234 C 
BRANCH  11  12
ATOM     12  O   UNL     1      88.686 -69.927  16.106  1.00  0.00    -0.388 OA
ATOM     13  H   UNL     1      88.443 -70.027  17.064  1.00  0.00     0.211 HD
ENDBRANCH  11  12
ENDBRANCH   9  11
ENDBRANCH   8   9
BRANCH   8  14
ATOM     14  O   UNL     1      87.459 -68.128  13.421  1.00  0.00    -0.382 OA
ATOM     15  H   UNL     1      87.952 -68.897  13.030  1.00  0.00     0.211 HD
ENDBRANCH   8  14
ENDBRANCH   1   8
BRANCH   1  16
ATOM     16  O   UNL     1      84.600 -68.721  13.498  1.00  0.00    -0.387 OA
ATOM     17  H   UNL     1      85.201 -68.773  12.711  1.00  0.00     0.211 HD
ENDBRANCH   1  16
TORSDOF 10
ENDMDL
MODEL 2
REMARK VINA RESULT:    -4.216      9.490     11.983
REMARK INTER + INTRA:          -6.362
REMARK INTER:                  -5.162
REMARK INTRA:                  -1.200
REMARK UNBOUND:                -0.297
REMARK SMILES O=C(CO)[C@@H](O)[C@@H](O)[C@H](O)CO
REMARK SMILES IDX 7 1 9 2 11 3 12 4 10 6 5 8 2 9 1 10 3 11 4 12 6 14 8 16
REMARK H PARENT 12 5 10 7 4 13 6 15 8 17
REMARK Flexibility Score: inf
ROOT
ATOM      1  C   UNL     1      75.792 -66.633  11.815  1.00  0.00     0.181 C 
ENDROOT
BRANCH   1   2
ATOM      2  C   UNL     1      75.992 -65.888  13.162  1.00  0.00     0.171 C 
BRANCH   2   3
ATOM      3  C   UNL     1      77.296 -65.067  13.230  1.00  0.00     0.190 C 
BRANCH   3   4
ATOM      4  O   UNL     1      78.085 -65.310  12.098  1.00  0.00    -0.394 OA
ATOM      5  H   UNL     1      79.011 -65.463  12.423  1.00  0.00     0.210 HD
ENDBRANCH   3   4
ENDBRANCH   2   3
BRANCH   2   6
ATOM      6  O   UNL     1      74.889 -65.049  13.400  1.00  0.00    -0.388 OA
ATOM      7  H   UNL     1      74.697 -65.089  14.374  1.00  0.00     0.211 HD
ENDBRANCH   2   6
ENDBRANCH   1   2
BRANCH   1   8
ATOM      8  C   UNL     1      74.897 -67.898  11.902  1.00  0.00     0.214 C 
BRANCH   8   9
ATOM      9  C   UNL     1      73.510 -67.599  11.376  1.00  0.00     0.189 C 
ATOM     10  O   UNL     1      72.786 -66.827  11.989  1.00  0.00    -0.294 OA
BRANCH   9  11
ATOM     11  C   UNL     1      73.003 -68.230  10.108  1.00  0.00     0.234 C 
BRANCH  11  12
ATOM     12  O   UNL     1      73.612 -67.633   8.996  1.00  0.00    -0.388 OA
ATOM     13  H   UNL     1      73.802 -68.365   8.352  1.00  0.00     0.211 HD
ENDBRANCH  11  12
ENDBRANCH   9  11
ENDBRANCH   8   9
BRANCH   8  14
ATOM     14  O   UNL     1      75.462 -68.939  11.149  1.00  0.00    -0.382 OA
ATOM     15  H   UNL     1      75.656 -68.569  10.248  1.00  0.00     0.211 HD
ENDBRANCH   8  14
ENDBRANCH   1   8
BRANCH   1  16
ATOM     16  O   UNL     1      75.324 -65.744  10.828  1.00  0.00    -0.387 OA
ATOM     17  H   UNL     1      74.660 -65.139  11.248  1.00  0.00     0.211 HD
ENDBRANCH   1  16
TORSDOF 10
ENDMDL
MODEL 3
REMARK VINA RESULT:    -4.203      9.065     11.183
REMARK INTER + INTRA:          -6.342
REMARK INTER:                  -4.895
REMARK INTRA:                  -1.448
REMARK UNBOUND:                -0.297
REMARK SMILES O=C(CO)[C@@H](O)[C@@H](O)[C@H](O)CO
REMARK SMILES IDX 7 1 9 2 11 3 12 4 10 6 5 8 2 9 1 10 3 11 4 12 6 14 8 16
REMARK H PARENT 12 5 10 7 4 13 6 15 8 17
REMARK Flexibility Score: inf
ROOT
ATOM      1  C   UNL     1      74.447 -66.273  12.106  1.00  0.00     0.181 C 
ENDROOT
BRANCH   1   2
ATOM      2  C   UNL     1      73.384 -67.386  11.905  1.00  0.00     0.171 C 
BRANCH   2   3
ATOM      3  C   UNL     1      73.429 -68.044  10.511  1.00  0.00     0.190 C 
BRANCH   3   4
ATOM      4  O   UNL     1      74.514 -68.927  10.423  1.00  0.00    -0.394 OA
ATOM      5  H   UNL     1      74.376 -69.619  11.122  1.00  0.00     0.210 HD
ENDBRANCH   3   4
ENDBRANCH   2   3
BRANCH   2   6
ATOM      6  O   UNL     1      73.542 -68.368  12.899  1.00  0.00    -0.388 OA
ATOM      7  H   UNL     1      73.516 -69.250  12.444  1.00  0.00     0.211 HD
ENDBRANCH   2   6
ENDBRANCH   1   2
BRANCH   1   8
ATOM      8  C   UNL     1      75.460 -66.546  13.250  1.00  0.00     0.214 C 
BRANCH   8   9
ATOM      9  C   UNL     1      76.740 -67.129  12.691  1.00  0.00     0.189 C 
ATOM     10  O   UNL     1      76.721 -68.236  12.172  1.00  0.00    -0.294 OA
BRANCH   9  11
ATOM     11  C   UNL     1      78.038 -66.372  12.758  1.00  0.00     0.234 C 
BRANCH  11  12
ATOM     12  O   UNL     1      77.920 -65.153  12.076  1.00  0.00    -0.388 OA
ATOM     13  H   UNL     1      78.103 -64.439  12.742  1.00  0.00     0.211 HD
ENDBRANCH  11  12
ENDBRANCH   9  11
ENDBRANCH   8   9
BRANCH   8  14
ATOM     14  O   UNL     1      75.754 -65.352  13.927  1.00  0.00    -0.382 OA
ATOM     15  H   UNL     1      75.255 -65.379  14.786  1.00  0.00     0.211 HD
ENDBRANCH   8  14
ENDBRANCH   1   8
BRANCH   1  16
ATOM     16  O   UNL     1      75.108 -66.000  10.893  1.00  0.00    -0.387 OA
ATOM     17  H   UNL     1      74.423 -65.774  10.213  1.00  0.00     0.211 HD
ENDBRANCH   1  16
TORSDOF 10
ENDMDL
MODEL 4
REMARK VINA RESULT:    -4.198     13.104     14.789
REMARK INTER + INTRA:          -6.337
REMARK INTER:                  -5.739
REMARK INTRA:                  -0.597
REMARK UNBOUND:                -0.297
REMARK SMILES O=C(CO)[C@@H](O)[C@@H](O)[C@H](O)CO
REMARK SMILES IDX 7 1 9 2 11 3 12 4 10 6 5 8 2 9 1 10 3 11 4 12 6 14 8 16
REMARK H PARENT 12 5 10 7 4 13 6 15 8 17
REMARK Flexibility Score: inf
ROOT
ATOM      1  C   UNL     1      87.563 -76.726   2.574  1.00  0.00     0.181 C 
ENDROOT
BRANCH   1   2
ATOM      2  C   UNL     1      87.988 -78.213   2.709  1.00  0.00     0.171 C 
BRANCH   2   3
ATOM      3  C   UNL     1      86.813 -79.206   2.610  1.00  0.00     0.190 C 
BRANCH   3   4
ATOM      4  O   UNL     1      85.830 -78.715   1.740  1.00  0.00    -0.394 OA
ATOM      5  H   UNL     1      85.311 -79.500   1.423  1.00  0.00     0.210 HD
ENDBRANCH   3   4
ENDBRANCH   2   3
BRANCH   2   6
ATOM      6  O   UNL     1      88.948 -78.514   1.728  1.00  0.00    -0.388 OA
ATOM      7  H   UNL     1      89.199 -79.468   1.847  1.00  0.00     0.211 HD
ENDBRANCH   2   6
ENDBRANCH   1   2
BRANCH   1   8
ATOM      8  C   UNL     1      88.152 -75.784   3.658  1.00  0.00     0.214 C 
BRANCH   8   9
ATOM      9  C   UNL     1      88.152 -74.352   3.168  1.00  0.00     0.189 C 
ATOM     10  O   UNL     1      89.124 -73.921   2.567  1.00  0.00    -0.294 OA
BRANCH   9  11
ATOM     11  C   UNL     1      86.973 -73.447   3.403  1.00  0.00     0.234 C 
BRANCH  11  12
ATOM     12  O   UNL     1      85.791 -74.198   3.453  1.00  0.00    -0.388 OA
ATOM     13  H   UNL     1      85.995 -75.010   3.987  1.00  0.00     0.211 HD
ENDBRANCH  11  12
ENDBRANCH   9  11
ENDBRANCH   8   9
BRANCH   8  14
ATOM     14  O   UNL     1      87.390 -75.870   4.835  1.00  0.00    -0.382 OA
ATOM     15  H   UNL     1      87.597 -76.750   5.247  1.00  0.00     0.211 HD
ENDBRANCH   8  14
ENDBRANCH   1   8
BRANCH   1  16
ATOM     16  O   UNL     1      87.843 -76.251   1.279  1.00  0.00    -0.387 OA
ATOM     17  H   UNL     1      86.983 -76.146   0.796  1.00  0.00     0.211 HD
ENDBRANCH   1  16
TORSDOF 10
ENDMDL
MODEL 5
REMARK VINA RESULT:    -4.151      9.496     11.479
REMARK INTER + INTRA:          -6.269
REMARK INTER:                  -5.219
REMARK INTRA:                  -1.049
REMARK UNBOUND:                -0.297
REMARK SMILES O=C(CO)[C@@H](O)[C@@H](O)[C@H](O)CO
REMARK SMILES IDX 7 1 9 2 11 3 12 4 10 6 5 8 2 9 1 10 3 11 4 12 6 14 8 16
REMARK H PARENT 12 5 10 7 4 13 6 15 8 17
REMARK Flexibility Score: inf
ROOT
ATOM      1  C   UNL     1      75.416 -67.337  11.588  1.00  0.00     0.181 C 
ENDROOT
BRANCH   1   2
ATOM      2  C   UNL     1      74.215 -67.887  10.772  1.00  0.00     0.171 C 
BRANCH   2   3
ATOM      3  C   UNL     1      72.881 -67.876  11.546  1.00  0.00     0.190 C 
BRANCH   3   4
ATOM      4  O   UNL     1      72.984 -68.656  12.707  1.00  0.00    -0.394 OA
ATOM      5  H   UNL     1      73.626 -69.386  12.504  1.00  0.00     0.210 HD
ENDBRANCH   3   4
ENDBRANCH   2   3
BRANCH   2   6
ATOM      6  O   UNL     1      74.080 -67.147   9.584  1.00  0.00    -0.388 OA
ATOM      7  H   UNL     1      74.997 -66.956   9.254  1.00  0.00     0.211 HD
ENDBRANCH   2   6
ENDBRANCH   1   2
BRANCH   1   8
ATOM      8  C   UNL     1      75.177 -65.946  12.234  1.00  0.00     0.214 C 
BRANCH   8   9
ATOM      9  C   UNL     1      76.188 -65.694  13.330  1.00  0.00     0.189 C 
ATOM     10  O   UNL     1      76.060 -66.254  14.410  1.00  0.00    -0.294 OA
BRANCH   9  11
ATOM     11  C   UNL     1      77.356 -64.769  13.118  1.00  0.00     0.234 C 
BRANCH  11  12
ATOM     12  O   UNL     1      78.197 -65.277  12.119  1.00  0.00    -0.388 OA
ATOM     13  H   UNL     1      78.329 -64.544  11.463  1.00  0.00     0.211 HD
ENDBRANCH  11  12
ENDBRANCH   9  11
ENDBRANCH   8   9
BRANCH   8  14
ATOM     14  O   UNL     1      75.289 -64.940  11.261  1.00  0.00    -0.382 OA
ATOM     15  H   UNL     1      74.735 -65.226  10.487  1.00  0.00     0.211 HD
ENDBRANCH   8  14
ENDBRANCH   1   8
BRANCH   1  16
ATOM     16  O   UNL     1      75.830 -68.281  12.548  1.00  0.00    -0.387 OA
ATOM     17  H   UNL     1      75.323 -69.119  12.394  1.00  0.00     0.211 HD
ENDBRANCH   1  16
TORSDOF 10
ENDMDL
MODEL 6
REMARK VINA RESULT:    -4.101     18.486     19.790
REMARK INTER + INTRA:          -6.197
REMARK INTER:                  -5.050
REMARK INTRA:                  -1.147
REMARK UNBOUND:                -0.297
REMARK SMILES O=C(CO)[C@@H](O)[C@@H](O)[C@H](O)CO
REMARK SMILES IDX 7 1 9 2 11 3 12 4 10 6 5 8 2 9 1 10 3 11 4 12 6 14 8 16
REMARK H PARENT 12 5 10 7 4 13 6 15 8 17
REMARK Flexibility Score: inf
ROOT
ATOM      1  C   UNL     1      72.587 -69.816   2.249  1.00  0.00     0.181 C 
ENDROOT
BRANCH   1   2
ATOM      2  C   UNL     1      73.561 -69.729   1.043  1.00  0.00     0.171 C 
BRANCH   2   3
ATOM      3  C   UNL     1      73.355 -70.844  -0.003  1.00  0.00     0.190 C 
BRANCH   3   4
ATOM      4  O   UNL     1      71.997 -70.958  -0.333  1.00  0.00    -0.394 OA
ATOM      5  H   UNL     1      71.885 -70.541  -1.228  1.00  0.00     0.210 HD
ENDBRANCH   3   4
ENDBRANCH   2   3
BRANCH   2   6
ATOM      6  O   UNL     1      73.431 -68.471   0.428  1.00  0.00    -0.388 OA
ATOM      7  H   UNL     1      73.902 -68.523  -0.444  1.00  0.00     0.211 HD
ENDBRANCH   2   6
ENDBRANCH   1   2
BRANCH   1   8
ATOM      8  C   UNL     1      71.457 -68.752   2.245  1.00  0.00     0.214 C 
BRANCH   8   9
ATOM      9  C   UNL     1      70.209 -69.307   2.896  1.00  0.00     0.189 C 
ATOM     10  O   UNL     1      70.174 -69.450   4.110  1.00  0.00    -0.294 OA
BRANCH   9  11
ATOM     11  C   UNL     1      69.004 -69.685   2.079  1.00  0.00     0.234 C 
BRANCH  11  12
ATOM     12  O   UNL     1      69.404 -70.341   0.907  1.00  0.00    -0.388 OA
ATOM     13  H   UNL     1      69.156 -71.296   1.019  1.00  0.00     0.211 HD
ENDBRANCH  11  12
ENDBRANCH   9  11
ENDBRANCH   8   9
BRANCH   8  14
ATOM     14  O   UNL     1      71.873 -67.607   2.945  1.00  0.00    -0.382 OA
ATOM     15  H   UNL     1      71.525 -66.823   2.444  1.00  0.00     0.211 HD
ENDBRANCH   8  14
ENDBRANCH   1   8
BRANCH   1  16
ATOM     16  O   UNL     1      72.061 -71.118   2.363  1.00  0.00    -0.387 OA
ATOM     17  H   UNL     1      72.777 -71.709   2.712  1.00  0.00     0.211 HD
ENDBRANCH   1  16
TORSDOF 10
ENDMDL
MODEL 7
REMARK VINA RESULT:    -4.095     16.641     18.056
REMARK INTER + INTRA:          -6.187
REMARK INTER:                  -5.374
REMARK INTRA:                  -0.813
REMARK UNBOUND:                -0.297
REMARK SMILES O=C(CO)[C@@H](O)[C@@H](O)[C@H](O)CO
REMARK SMILES IDX 7 1 9 2 11 3 12 4 10 6 5 8 2 9 1 10 3 11 4 12 6 14 8 16
REMARK H PARENT 12 5 10 7 4 13 6 15 8 17
REMARK Flexibility Score: inf
ROOT
ATOM      1  C   UNL     1      71.783 -69.902   3.735  1.00  0.00     0.181 C 
ENDROOT
BRANCH   1   2
ATOM      2  C   UNL     1      71.426 -68.836   4.806  1.00  0.00     0.171 C 
BRANCH   2   3
ATOM      3  C   UNL     1      71.712 -69.288   6.252  1.00  0.00     0.190 C 
BRANCH   3   4
ATOM      4  O   UNL     1      73.011 -68.919   6.630  1.00  0.00    -0.394 OA
ATOM      5  H   UNL     1      73.169 -69.314   7.528  1.00  0.00     0.210 HD
ENDBRANCH   3   4
ENDBRANCH   2   3
BRANCH   2   6
ATOM      6  O   UNL     1      72.125 -67.647   4.532  1.00  0.00    -0.388 OA
ATOM      7  H   UNL     1      71.778 -66.955   5.153  1.00  0.00     0.211 HD
ENDBRANCH   2   6
ENDBRANCH   1   2
BRANCH   1   8
ATOM      8  C   UNL     1      72.334 -69.322   2.405  1.00  0.00     0.214 C 
BRANCH   8   9
ATOM      9  C   UNL     1      72.427 -70.409   1.356  1.00  0.00     0.189 C 
ATOM     10  O   UNL     1      71.613 -71.321   1.359  1.00  0.00    -0.294 OA
BRANCH   9  11
ATOM     11  C   UNL     1      73.502 -70.389   0.303  1.00  0.00     0.234 C 
BRANCH  11  12
ATOM     12  O   UNL     1      74.276 -69.227   0.428  1.00  0.00    -0.388 OA
ATOM     13  H   UNL     1      74.638 -69.031  -0.476  1.00  0.00     0.211 HD
ENDBRANCH  11  12
ENDBRANCH   9  11
ENDBRANCH   8   9
BRANCH   8  14
ATOM     14  O   UNL     1      71.491 -68.301   1.939  1.00  0.00    -0.382 OA
ATOM     15  H   UNL     1      71.861 -67.445   2.281  1.00  0.00     0.211 HD
ENDBRANCH   8  14
ENDBRANCH   1   8
BRANCH   1  16
ATOM     16  O   UNL     1      72.657 -70.865   4.274  1.00  0.00    -0.387 OA
ATOM     17  H   UNL     1      72.761 -70.679   5.242  1.00  0.00     0.211 HD
ENDBRANCH   1  16
TORSDOF 10
ENDMDL
MODEL 8
REMARK VINA RESULT:    -4.050     16.294     17.963
REMARK INTER + INTRA:          -6.122
REMARK INTER:                  -4.714
REMARK INTRA:                  -1.409
REMARK UNBOUND:                -0.297
REMARK SMILES O=C(CO)[C@@H](O)[C@@H](O)[C@H](O)CO
REMARK SMILES IDX 7 1 9 2 11 3 12 4 10 6 5 8 2 9 1 10 3 11 4 12 6 14 8 16
REMARK H PARENT 12 5 10 7 4 13 6 15 8 17
REMARK Flexibility Score: inf
ROOT
ATOM      1  C   UNL     1      71.022 -68.289   3.592  1.00  0.00     0.181 C 
ENDROOT
BRANCH   1   2
ATOM      2  C   UNL     1      70.925 -69.150   2.304  1.00  0.00     0.171 C 
BRANCH   2   3
ATOM      3  C   UNL     1      72.266 -69.312   1.562  1.00  0.00     0.190 C 
BRANCH   3   4
ATOM      4  O   UNL     1      73.031 -70.329   2.151  1.00  0.00    -0.394 OA
ATOM      5  H   UNL     1      72.973 -71.115   1.548  1.00  0.00     0.210 HD
ENDBRANCH   3   4
ENDBRANCH   2   3
BRANCH   2   6
ATOM      6  O   UNL     1      70.405 -70.416   2.627  1.00  0.00    -0.388 OA
ATOM      7  H   UNL     1      70.286 -70.909   1.774  1.00  0.00     0.211 HD
ENDBRANCH   2   6
ENDBRANCH   1   2
BRANCH   1   8
ATOM      8  C   UNL     1      70.687 -69.048   4.904  1.00  0.00     0.214 C 
BRANCH   8   9
ATOM      9  C   UNL     1      71.954 -69.558   5.555  1.00  0.00     0.189 C 
ATOM     10  O   UNL     1      72.606 -70.433   5.003  1.00  0.00    -0.294 OA
BRANCH   9  11
ATOM     11  C   UNL     1      72.433 -69.007   6.871  1.00  0.00     0.234 C 
BRANCH  11  12
ATOM     12  O   UNL     1      72.931 -67.709   6.696  1.00  0.00    -0.388 OA
ATOM     13  H   UNL     1      72.174 -67.090   6.870  1.00  0.00     0.211 HD
ENDBRANCH  11  12
ENDBRANCH   9  11
ENDBRANCH   8   9
BRANCH   8  14
ATOM     14  O   UNL     1      70.021 -68.193   5.797  1.00  0.00    -0.382 OA
ATOM     15  H   UNL     1      70.437 -67.296   5.700  1.00  0.00     0.211 HD
ENDBRANCH   8  14
ENDBRANCH   1   8
BRANCH   1  16
ATOM     16  O   UNL     1      72.282 -67.665   3.671  1.00  0.00    -0.387 OA
ATOM     17  H   UNL     1      72.878 -68.243   4.214  1.00  0.00     0.211 HD
ENDBRANCH   1  16
TORSDOF 10
ENDMDL
MODEL 9
REMARK VINA RESULT:    -3.986     19.273     20.507
REMARK INTER + INTRA:          -6.031
REMARK INTER:                  -4.876
REMARK INTRA:                  -1.156
REMARK UNBOUND:                -0.297
REMARK SMILES O=C(CO)[C@@H](O)[C@@H](O)[C@H](O)CO
REMARK SMILES IDX 7 1 9 2 11 3 12 4 10 6 5 8 2 9 1 10 3 11 4 12 6 14 8 16
REMARK H PARENT 12 5 10 7 4 13 6 15 8 17
REMARK Flexibility Score: inf
ROOT
ATOM      1  C   UNL     1      77.083 -75.104  -2.292  1.00  0.00     0.181 C 
ENDROOT
BRANCH   1   2
ATOM      2  C   UNL     1      77.191 -76.163  -1.161  1.00  0.00     0.171 C 
BRANCH   2   3
ATOM      3  C   UNL     1      78.320 -77.190  -1.379  1.00  0.00     0.190 C 
BRANCH   3   4
ATOM      4  O   UNL     1      79.343 -76.633  -2.160  1.00  0.00    -0.394 OA
ATOM      5  H   UNL     1      79.347 -77.129  -3.020  1.00  0.00     0.210 HD
ENDBRANCH   3   4
ENDBRANCH   2   3
BRANCH   2   6
ATOM      6  O   UNL     1      77.373 -75.512   0.072  1.00  0.00    -0.388 OA
ATOM      7  H   UNL     1      77.609 -74.569  -0.128  1.00  0.00     0.211 HD
ENDBRANCH   2   6
ENDBRANCH   1   2
BRANCH   1   8
ATOM      8  C   UNL     1      75.630 -74.705  -2.666  1.00  0.00     0.214 C 
BRANCH   8   9
ATOM      9  C   UNL     1      75.255 -73.399  -2.001  1.00  0.00     0.189 C 
ATOM     10  O   UNL     1      75.189 -73.340  -0.782  1.00  0.00    -0.294 OA
BRANCH   9  11
ATOM     11  C   UNL     1      74.964 -72.165  -2.811  1.00  0.00     0.234 C 
BRANCH  11  12
ATOM     12  O   UNL     1      76.080 -71.823  -3.586  1.00  0.00    -0.388 OA
ATOM     13  H   UNL     1      75.923 -72.203  -4.490  1.00  0.00     0.211 HD
ENDBRANCH  11  12
ENDBRANCH   9  11
ENDBRANCH   8   9
BRANCH   8  14
ATOM     14  O   UNL     1      75.514 -74.564  -4.059  1.00  0.00    -0.382 OA
ATOM     15  H   UNL     1      74.544 -74.597  -4.270  1.00  0.00     0.211 HD
ENDBRANCH   8  14
ENDBRANCH   1   8
BRANCH   1  16
ATOM     16  O   UNL     1      77.858 -73.971  -1.979  1.00  0.00    -0.387 OA
ATOM     17  H   UNL     1      77.250 -73.267  -1.635  1.00  0.00     0.211 HD
ENDBRANCH   1  16
TORSDOF 10
ENDMDL
