MODEL 1
REMARK VINA RESULT:    -3.825      0.000      0.000
REMARK INTER + INTRA:          -5.052
REMARK INTER:                  -4.720
REMARK INTRA:                  -0.332
REMARK UNBOUND:                -0.332
REMARK SMILES COC(=O)c1ccccc1C(=O)OC
REMARK SMILES IDX 5 1 6 2 7 3 8 4 9 5 10 6 3 7 4 8 2 9 1 10 11 11 12 12 13 13
REMARK SMILES IDX 14 14
REMARK H PARENT
REMARK Flexibility Score: inf
ROOT
ATOM      1  C   UNL     1      39.155 181.058 173.067  1.00  0.00     0.074 A 
ATOM      2  C   UNL     1      39.904 179.875 172.928  1.00  0.00     0.016 A 
ATOM      3  C   UNL     1      41.055 179.665 173.688  1.00  0.00     0.001 A 
ATOM      4  C   UNL     1      41.475 180.631 174.599  1.00  0.00     0.001 A 
ATOM      5  C   UNL     1      40.735 181.801 174.771  1.00  0.00     0.016 A 
ATOM      6  C   UNL     1      39.559 182.024 174.030  1.00  0.00     0.074 A 
ENDROOT
BRANCH   1   7
ATOM      7  C   UNL     1      38.013 181.277 172.150  1.00  0.00     0.338 C 
ATOM      8  O   UNL     1      38.227 181.618 170.954  1.00  0.00    -0.246 OA
BRANCH   7   9
ATOM      9  O   UNL     1      36.702 181.158 172.622  1.00  0.00    -0.465 OA
ATOM     10  C   UNL     1      35.582 181.690 171.924  1.00  0.00     0.282 C 
ENDBRANCH   7   9
ENDBRANCH   1   7
BRANCH   6  11
ATOM     11  C   UNL     1      38.762 183.232 174.343  1.00  0.00     0.338 C 
ATOM     12  O   UNL     1      39.119 184.361 173.906  1.00  0.00    -0.246 OA
BRANCH  11  13
ATOM     13  O   UNL     1      37.581 183.107 175.082  1.00  0.00    -0.465 OA
ATOM     14  C   UNL     1      36.457 183.954 174.879  1.00  0.00     0.282 C 
ENDBRANCH  11  13
ENDBRANCH   6  11
TORSDOF 4
ENDMDL
MODEL 2
REMARK VINA RESULT:    -3.805      0.624      3.232
REMARK INTER + INTRA:          -5.027
REMARK INTER:                  -4.750
REMARK INTRA:                  -0.277
REMARK UNBOUND:                -0.332
REMARK SMILES COC(=O)c1ccccc1C(=O)OC
REMARK SMILES IDX 5 1 6 2 7 3 8 4 9 5 10 6 3 7 4 8 2 9 1 10 11 11 12 12 13 13
REMARK SMILES IDX 14 14
REMARK H PARENT
REMARK Flexibility Score: inf
ROOT
ATOM      1  C   UNL     1      39.334 182.234 173.971  1.00  0.00     0.074 A 
ATOM      2  C   UNL     1      40.603 182.081 174.560  1.00  0.00     0.016 A 
ATOM      3  C   UNL     1      41.350 180.920 174.356  1.00  0.00     0.001 A 
ATOM      4  C   UNL     1      40.843 179.895 173.561  1.00  0.00     0.001 A 
ATOM      5  C   UNL     1      39.597 180.036 172.948  1.00  0.00     0.016 A 
ATOM      6  C   UNL     1      38.837 181.207 173.122  1.00  0.00     0.074 A 
ENDROOT
BRANCH   1   7
ATOM      7  C   UNL     1      38.540 183.434 174.319  1.00  0.00     0.338 C 
ATOM      8  O   UNL     1      38.956 184.580 173.988  1.00  0.00    -0.246 OA
BRANCH   7   9
ATOM      9  O   UNL     1      37.361 183.304 175.061  1.00  0.00    -0.465 OA
ATOM     10  C   UNL     1      36.248 184.173 174.894  1.00  0.00     0.282 C 
ENDBRANCH   7   9
ENDBRANCH   1   7
BRANCH   6  11
ATOM     11  C   UNL     1      37.579 181.336 172.353  1.00  0.00     0.338 C 
ATOM     12  O   UNL     1      36.483 180.963 172.856  1.00  0.00    -0.246 OA
BRANCH  11  13
ATOM     13  O   UNL     1      37.603 181.926 171.085  1.00  0.00    -0.465 OA
ATOM     14  C   UNL     1      36.441 182.468 170.468  1.00  0.00     0.282 C 
ENDBRANCH  11  13
ENDBRANCH   6  11
TORSDOF 4
ENDMDL
MODEL 3
REMARK VINA RESULT:    -3.706      1.917      3.912
REMARK INTER + INTRA:          -4.905
REMARK INTER:                  -4.624
REMARK INTRA:                  -0.280
REMARK UNBOUND:                -0.332
REMARK SMILES COC(=O)c1ccccc1C(=O)OC
REMARK SMILES IDX 5 1 6 2 7 3 8 4 9 5 10 6 3 7 4 8 2 9 1 10 11 11 12 12 13 13
REMARK SMILES IDX 14 14
REMARK H PARENT
REMARK Flexibility Score: inf
ROOT
ATOM      1  C   UNL     1      36.922 182.845 172.936  1.00  0.00     0.074 A 
ATOM      2  C   UNL     1      36.528 184.134 173.342  1.00  0.00     0.016 A 
ATOM      3  C   UNL     1      37.409 184.963 174.038  1.00  0.00     0.001 A 
ATOM      4  C   UNL     1      38.694 184.520 174.339  1.00  0.00     0.001 A 
ATOM      5  C   UNL     1      39.113 183.255 173.926  1.00  0.00     0.016 A 
ATOM      6  C   UNL     1      38.249 182.410 173.204  1.00  0.00     0.074 A 
ENDROOT
BRANCH   1   7
ATOM      7  C   UNL     1      35.907 181.969 172.308  1.00  0.00     0.338 C 
ATOM      8  O   UNL     1      35.282 181.128 173.012  1.00  0.00    -0.246 OA
BRANCH   7   9
ATOM      9  O   UNL     1      35.681 182.034 170.929  1.00  0.00    -0.465 OA
ATOM     10  C   UNL     1      36.449 182.861 170.063  1.00  0.00     0.282 C 
ENDBRANCH   7   9
ENDBRANCH   1   7
BRANCH   6  11
ATOM     11  C   UNL     1      38.795 181.130 172.699  1.00  0.00     0.338 C 
ATOM     12  O   UNL     1      39.053 180.988 171.471  1.00  0.00    -0.246 OA
BRANCH  11  13
ATOM     13  O   UNL     1      39.074 180.096 173.599  1.00  0.00    -0.465 OA
ATOM     14  C   UNL     1      40.279 179.343 173.552  1.00  0.00     0.282 C 
ENDBRANCH  11  13
ENDBRANCH   6  11
TORSDOF 4
ENDMDL
MODEL 4
REMARK VINA RESULT:    -3.696      1.926      4.214
REMARK INTER + INTRA:          -4.892
REMARK INTER:                  -4.616
REMARK INTRA:                  -0.277
REMARK UNBOUND:                -0.332
REMARK SMILES COC(=O)c1ccccc1C(=O)OC
REMARK SMILES IDX 5 1 6 2 7 3 8 4 9 5 10 6 3 7 4 8 2 9 1 10 11 11 12 12 13 13
REMARK SMILES IDX 14 14
REMARK H PARENT
REMARK Flexibility Score: inf
ROOT
ATOM      1  C   UNL     1      38.242 182.402 173.281  1.00  0.00     0.074 A 
ATOM      2  C   UNL     1      39.016 183.353 173.972  1.00  0.00     0.016 A 
ATOM      3  C   UNL     1      38.465 184.572 174.366  1.00  0.00     0.001 A 
ATOM      4  C   UNL     1      37.134 184.862 174.077  1.00  0.00     0.001 A 
ATOM      5  C   UNL     1      36.341 183.925 173.415  1.00  0.00     0.016 A 
ATOM      6  C   UNL     1      36.870 182.680 173.027  1.00  0.00     0.074 A 
ENDROOT
BRANCH   1   7
ATOM      7  C   UNL     1      38.913 181.179 172.785  1.00  0.00     0.338 C 
ATOM      8  O   UNL     1      39.137 181.044 171.550  1.00  0.00    -0.246 OA
BRANCH   7   9
ATOM      9  O   UNL     1      39.249 180.153 173.675  1.00  0.00    -0.465 OA
ATOM     10  C   UNL     1      40.284 179.214 173.411  1.00  0.00     0.282 C 
ENDBRANCH   7   9
ENDBRANCH   1   7
BRANCH   6  11
ATOM     11  C   UNL     1      35.945 181.690 172.430  1.00  0.00     0.338 C 
ATOM     12  O   UNL     1      35.489 180.743 173.129  1.00  0.00    -0.246 OA
BRANCH  11  13
ATOM     13  O   UNL     1      35.537 181.841 171.101  1.00  0.00    -0.465 OA
ATOM     14  C   UNL     1      36.362 182.437 170.108  1.00  0.00     0.282 C 
ENDBRANCH  11  13
ENDBRANCH   6  11
TORSDOF 4
ENDMDL
MODEL 5
REMARK VINA RESULT:    -3.678      2.382      3.452
REMARK INTER + INTRA:          -4.870
REMARK INTER:                  -4.531
REMARK INTRA:                  -0.339
REMARK UNBOUND:                -0.332
REMARK SMILES COC(=O)c1ccccc1C(=O)OC
REMARK SMILES IDX 5 1 6 2 7 3 8 4 9 5 10 6 3 7 4 8 2 9 1 10 11 11 12 12 13 13
REMARK SMILES IDX 14 14
REMARK H PARENT
REMARK Flexibility Score: inf
ROOT
ATOM      1  C   UNL     1      36.488 180.985 173.118  1.00  0.00     0.074 A 
ATOM      2  C   UNL     1      37.202 180.298 174.117  1.00  0.00     0.016 A 
ATOM      3  C   UNL     1      38.591 180.185 174.053  1.00  0.00     0.001 A 
ATOM      4  C   UNL     1      39.289 180.754 172.992  1.00  0.00     0.001 A 
ATOM      5  C   UNL     1      38.605 181.461 172.002  1.00  0.00     0.016 A 
ATOM      6  C   UNL     1      37.206 181.606 172.058  1.00  0.00     0.074 A 
ENDROOT
BRANCH   1   7
ATOM      7  C   UNL     1      35.009 180.970 173.177  1.00  0.00     0.338 C 
ATOM      8  O   UNL     1      34.402 181.792 173.918  1.00  0.00    -0.246 OA
BRANCH   7   9
ATOM      9  O   UNL     1      34.288 180.011 172.456  1.00  0.00    -0.465 OA
ATOM     10  C   UNL     1      33.436 180.349 171.368  1.00  0.00     0.282 C 
ENDBRANCH   7   9
ENDBRANCH   1   7
BRANCH   6  11
ATOM     11  C   UNL     1      36.557 182.462 171.039  1.00  0.00     0.338 C 
ATOM     12  O   UNL     1      36.262 181.990 169.906  1.00  0.00    -0.246 OA
BRANCH  11  13
ATOM     13  O   UNL     1      36.224 183.783 171.358  1.00  0.00    -0.465 OA
ATOM     14  C   UNL     1      36.507 184.359 172.627  1.00  0.00     0.282 C 
ENDBRANCH  11  13
ENDBRANCH   6  11
TORSDOF 4
ENDMDL
MODEL 6
REMARK VINA RESULT:    -3.664     22.028     23.567
REMARK INTER + INTRA:          -4.853
REMARK INTER:                  -4.502
REMARK INTRA:                  -0.350
REMARK UNBOUND:                -0.332
REMARK SMILES COC(=O)c1ccccc1C(=O)OC
REMARK SMILES IDX 5 1 6 2 7 3 8 4 9 5 10 6 3 7 4 8 2 9 1 10 11 11 12 12 13 13
REMARK SMILES IDX 14 14
REMARK H PARENT
REMARK Flexibility Score: inf
ROOT
ATOM      1  C   UNL     1      31.046 166.619 157.759  1.00  0.00     0.074 A 
ATOM      2  C   UNL     1      32.224 166.384 158.491  1.00  0.00     0.016 A 
ATOM      3  C   UNL     1      33.477 166.606 157.918  1.00  0.00     0.001 A 
ATOM      4  C   UNL     1      33.573 167.066 156.607  1.00  0.00     0.001 A 
ATOM      5  C   UNL     1      32.418 167.328 155.871  1.00  0.00     0.016 A 
ATOM      6  C   UNL     1      31.144 167.132 156.436  1.00  0.00     0.074 A 
ENDROOT
BRANCH   1   7
ATOM      7  C   UNL     1      29.752 166.252 158.378  1.00  0.00     0.338 C 
ATOM      8  O   UNL     1      29.273 165.098 158.194  1.00  0.00    -0.246 OA
BRANCH   7   9
ATOM      9  O   UNL     1      29.035 167.198 159.119  1.00  0.00    -0.465 OA
ATOM     10  C   UNL     1      29.277 167.436 160.500  1.00  0.00     0.282 C 
ENDBRANCH   7   9
ENDBRANCH   1   7
BRANCH   6  11
ATOM     11  C   UNL     1      29.963 167.537 155.639  1.00  0.00     0.338 C 
ATOM     12  O   UNL     1      29.391 166.705 154.881  1.00  0.00    -0.246 OA
BRANCH  11  13
ATOM     13  O   UNL     1      29.451 168.832 155.774  1.00  0.00    -0.465 OA
ATOM     14  C   UNL     1      29.838 169.901 154.920  1.00  0.00     0.282 C 
ENDBRANCH  11  13
ENDBRANCH   6  11
TORSDOF 4
ENDMDL
MODEL 7
REMARK VINA RESULT:    -3.644     22.553     23.597
REMARK INTER + INTRA:          -4.829
REMARK INTER:                  -4.430
REMARK INTRA:                  -0.399
REMARK UNBOUND:                -0.332
REMARK SMILES COC(=O)c1ccccc1C(=O)OC
REMARK SMILES IDX 5 1 6 2 7 3 8 4 9 5 10 6 3 7 4 8 2 9 1 10 11 11 12 12 13 13
REMARK SMILES IDX 14 14
REMARK H PARENT
REMARK Flexibility Score: inf
ROOT
ATOM      1  C   UNL     1      31.132 167.106 156.471  1.00  0.00     0.074 A 
ATOM      2  C   UNL     1      32.398 167.343 155.905  1.00  0.00     0.016 A 
ATOM      3  C   UNL     1      33.562 167.112 156.638  1.00  0.00     0.001 A 
ATOM      4  C   UNL     1      33.482 166.643 157.947  1.00  0.00     0.001 A 
ATOM      5  C   UNL     1      32.237 166.378 158.520  1.00  0.00     0.016 A 
ATOM      6  C   UNL     1      31.051 166.583 157.792  1.00  0.00     0.074 A 
ENDROOT
BRANCH   1   7
ATOM      7  C   UNL     1      29.933 167.481 155.688  1.00  0.00     0.338 C 
ATOM      8  O   UNL     1      29.431 166.655 154.875  1.00  0.00    -0.246 OA
BRANCH   7   9
ATOM      9  O   UNL     1      29.390 168.765 155.807  1.00  0.00    -0.465 OA
ATOM     10  C   UNL     1      29.761 169.839 154.952  1.00  0.00     0.282 C 
ENDBRANCH   7   9
ENDBRANCH   1   7
BRANCH   6  11
ATOM     11  C   UNL     1      29.773 166.175 158.420  1.00  0.00     0.338 C 
ATOM     12  O   UNL     1      29.391 164.974 158.363  1.00  0.00    -0.246 OA
BRANCH  11  13
ATOM     13  O   UNL     1      29.019 167.119 159.125  1.00  0.00    -0.465 OA
ATOM     14  C   UNL     1      27.694 167.475 158.751  1.00  0.00     0.282 C 
ENDBRANCH  11  13
ENDBRANCH   6  11
TORSDOF 4
ENDMDL
MODEL 8
REMARK VINA RESULT:    -3.609      3.653      5.626
REMARK INTER + INTRA:          -4.785
REMARK INTER:                  -4.463
REMARK INTRA:                  -0.322
REMARK UNBOUND:                -0.332
REMARK SMILES COC(=O)c1ccccc1C(=O)OC
REMARK SMILES IDX 5 1 6 2 7 3 8 4 9 5 10 6 3 7 4 8 2 9 1 10 11 11 12 12 13 13
REMARK SMILES IDX 14 14
REMARK H PARENT
REMARK Flexibility Score: inf
ROOT
ATOM      1  C   UNL     1      35.630 182.452 172.592  1.00  0.00     0.074 A 
ATOM      2  C   UNL     1      35.853 183.655 173.286  1.00  0.00     0.016 A 
ATOM      3  C   UNL     1      34.957 184.094 174.261  1.00  0.00     0.001 A 
ATOM      4  C   UNL     1      33.825 183.340 174.559  1.00  0.00     0.001 A 
ATOM      5  C   UNL     1      33.596 182.131 173.900  1.00  0.00     0.016 A 
ATOM      6  C   UNL     1      34.498 181.659 172.928  1.00  0.00     0.074 A 
ENDROOT
BRANCH   1   7
ATOM      7  C   UNL     1      36.550 182.099 171.487  1.00  0.00     0.338 C 
ATOM      8  O   UNL     1      37.689 181.618 171.748  1.00  0.00    -0.246 OA
BRANCH   7   9
ATOM      9  O   UNL     1      36.182 182.348 170.161  1.00  0.00    -0.465 OA
ATOM     10  C   UNL     1      36.469 183.575 169.501  1.00  0.00     0.282 C 
ENDBRANCH   7   9
ENDBRANCH   1   7
BRANCH   6  11
ATOM     11  C   UNL     1      34.254 180.317 172.351  1.00  0.00     0.338 C 
ATOM     12  O   UNL     1      34.633 179.281 172.965  1.00  0.00    -0.246 OA
BRANCH  11  13
ATOM     13  O   UNL     1      33.552 180.202 171.147  1.00  0.00    -0.465 OA
ATOM     14  C   UNL     1      32.749 179.071 170.833  1.00  0.00     0.282 C 
ENDBRANCH  11  13
ENDBRANCH   6  11
TORSDOF 4
ENDMDL
