MODEL 1
REMARK VINA RESULT:     2.096      0.000      0.000
REMARK INTER + INTRA:           2.096
REMARK INTER:                   2.648
REMARK INTRA:                  -0.551
REMARK UNBOUND:                -0.551
REMARK SMILES O[C@H]1OC[C@H](Cc2ccc3c(c2)OCO3)[C@@H]1Cc1ccc2c(c1)OCO2
REMARK SMILES IDX 4 1 5 2 16 3 2 4 3 5 6 6 7 7 12 8 8 9 11 10 9 11 10 12 13 13
REMARK SMILES IDX 15 14 14 15 17 16 18 17 23 18 19 19 22 20 20 21 21 22 24 23
REMARK SMILES IDX 26 24 25 25 1 26
REMARK H PARENT 1 27
REMARK Flexibility Score: inf
ROOT
ATOM      1  C   UNL     1     -21.095 -21.295 -13.012  1.00  0.00     0.168 C 
ATOM      2  C   UNL     1     -22.239 -20.519 -13.650  1.00  0.00     0.028 C 
ATOM      3  C   UNL     1     -23.194 -21.664 -13.942  1.00  0.00     0.055 C 
ATOM      4  C   UNL     1     -22.949 -22.600 -12.764  1.00  0.00     0.250 C 
ATOM      5  O   UNL     1     -21.637 -22.374 -12.279  1.00  0.00    -0.352 OA
ENDROOT
BRANCH   2   6
ATOM      6  C   UNL     1     -22.742 -19.340 -12.759  1.00  0.00     0.042 C 
BRANCH   6   7
ATOM      7  C   UNL     1     -22.667 -17.937 -13.338  1.00  0.00    -0.044 A 
ATOM      8  C   UNL     1     -23.740 -17.399 -14.089  1.00  0.00     0.054 A 
ATOM      9  C   UNL     1     -21.555 -17.101 -13.037  1.00  0.00     0.008 A 
ATOM     10  C   UNL     1     -23.623 -16.101 -14.575  1.00  0.00     0.166 A 
ATOM     11  C   UNL     1     -21.477 -15.793 -13.547  1.00  0.00     0.051 A 
ATOM     12  C   UNL     1     -22.535 -15.333 -14.320  1.00  0.00     0.165 A 
ATOM     13  O   UNL     1     -24.523 -15.384 -15.340  1.00  0.00    -0.454 OA
ATOM     14  O   UNL     1     -22.693 -14.097 -14.917  1.00  0.00    -0.454 OA
ATOM     15  C   UNL     1     -23.961 -14.088 -15.587  1.00  0.00     0.468 C 
ENDBRANCH   6   7
ENDBRANCH   2   6
BRANCH   3  16
ATOM     16  C   UNL     1     -24.680 -21.337 -14.199  1.00  0.00     0.044 C 
BRANCH  16  17
ATOM     17  C   UNL     1     -25.571 -21.787 -13.067  1.00  0.00    -0.044 A 
ATOM     18  C   UNL     1     -26.484 -22.850 -13.261  1.00  0.00     0.054 A 
ATOM     19  C   UNL     1     -25.477 -21.176 -11.788  1.00  0.00     0.008 A 
ATOM     20  C   UNL     1     -27.281 -23.235 -12.188  1.00  0.00     0.166 A 
ATOM     21  C   UNL     1     -26.302 -21.597 -10.731  1.00  0.00     0.051 A 
ATOM     22  C   UNL     1     -27.196 -22.633 -10.976  1.00  0.00     0.165 A 
ATOM     23  O   UNL     1     -28.240 -24.230 -12.142  1.00  0.00    -0.454 OA
ATOM     24  O   UNL     1     -28.096 -23.217 -10.106  1.00  0.00    -0.454 OA
ATOM     25  C   UNL     1     -28.791 -24.251 -10.817  1.00  0.00     0.468 C 
ENDBRANCH  16  17
ENDBRANCH   3  16
BRANCH   4  26
ATOM     26  O   UNL     1     -23.082 -23.935 -13.171  1.00  0.00    -0.368 OA
ATOM     27  H   UNL     1     -24.020 -24.041 -13.479  1.00  0.00     0.213 HD
ENDBRANCH   4  26
TORSDOF 5
ENDMDL
MODEL 2
REMARK VINA RESULT:     3.363      2.122      3.654
REMARK INTER + INTRA:           3.696
REMARK INTER:                   4.195
REMARK INTRA:                  -0.499
REMARK UNBOUND:                -0.551
REMARK SMILES O[C@H]1OC[C@H](Cc2ccc3c(c2)OCO3)[C@@H]1Cc1ccc2c(c1)OCO2
REMARK SMILES IDX 4 1 5 2 16 3 2 4 3 5 6 6 7 7 12 8 8 9 11 10 9 11 10 12 13 13
REMARK SMILES IDX 15 14 14 15 17 16 18 17 23 18 19 19 22 20 20 21 21 22 24 23
REMARK SMILES IDX 26 24 25 25 1 26
REMARK H PARENT 1 27
REMARK Flexibility Score: inf
ROOT
ATOM      1  C   UNL     1     -25.556 -19.753 -10.732  1.00  0.00     0.168 C 
ATOM      2  C   UNL     1     -24.281 -19.658 -11.555  1.00  0.00     0.028 C 
ATOM      3  C   UNL     1     -23.834 -21.109 -11.509  1.00  0.00     0.055 C 
ATOM      4  C   UNL     1     -25.163 -21.858 -11.519  1.00  0.00     0.250 C 
ATOM      5  O   UNL     1     -26.159 -21.007 -10.978  1.00  0.00    -0.352 OA
ENDROOT
BRANCH   2   6
ATOM      6  C   UNL     1     -24.509 -18.995 -12.951  1.00  0.00     0.042 C 
BRANCH   6   7
ATOM      7  C   UNL     1     -23.575 -17.867 -13.358  1.00  0.00    -0.044 A 
ATOM      8  C   UNL     1     -24.044 -16.774 -14.126  1.00  0.00     0.054 A 
ATOM      9  C   UNL     1     -22.237 -17.842 -12.875  1.00  0.00     0.008 A 
ATOM     10  C   UNL     1     -23.148 -15.760 -14.448  1.00  0.00     0.166 A 
ATOM     11  C   UNL     1     -21.364 -16.796 -13.224  1.00  0.00     0.051 A 
ATOM     12  C   UNL     1     -21.862 -15.774 -14.021  1.00  0.00     0.165 A 
ATOM     13  O   UNL     1     -23.372 -14.619 -15.196  1.00  0.00    -0.454 OA
ATOM     14  O   UNL     1     -21.210 -14.646 -14.483  1.00  0.00    -0.454 OA
ATOM     15  C   UNL     1     -22.147 -13.875 -15.247  1.00  0.00     0.468 C 
ENDBRANCH   6   7
ENDBRANCH   2   6
BRANCH   3  16
ATOM     16  C   UNL     1     -22.816 -21.602 -12.558  1.00  0.00     0.044 C 
BRANCH  16  17
ATOM     17  C   UNL     1     -23.422 -22.590 -13.526  1.00  0.00    -0.044 A 
ATOM     18  C   UNL     1     -22.952 -23.924 -13.567  1.00  0.00     0.054 A 
ATOM     19  C   UNL     1     -24.491 -22.203 -14.377  1.00  0.00     0.008 A 
ATOM     20  C   UNL     1     -23.544 -24.800 -14.470  1.00  0.00     0.166 A 
ATOM     21  C   UNL     1     -25.060 -23.122 -15.275  1.00  0.00     0.051 A 
ATOM     22  C   UNL     1     -24.552 -24.416 -15.290  1.00  0.00     0.165 A 
ATOM     23  O   UNL     1     -23.250 -26.133 -14.693  1.00  0.00    -0.454 OA
ATOM     24  O   UNL     1     -24.944 -25.486 -16.072  1.00  0.00    -0.454 OA
ATOM     25  C   UNL     1     -24.130 -26.613 -15.720  1.00  0.00     0.468 C 
ENDBRANCH  16  17
ENDBRANCH   3  16
BRANCH   4  26
ATOM     26  O   UNL     1     -25.066 -23.025 -10.748  1.00  0.00    -0.368 OA
ATOM     27  H   UNL     1     -24.320 -22.877 -10.110  1.00  0.00     0.213 HD
ENDBRANCH   4  26
TORSDOF 5
ENDMDL
MODEL 3
REMARK VINA RESULT:     3.858      2.386      7.146
REMARK INTER + INTRA:           4.322
REMARK INTER:                   5.376
REMARK INTRA:                  -1.054
REMARK UNBOUND:                -0.551
REMARK SMILES O[C@H]1OC[C@H](Cc2ccc3c(c2)OCO3)[C@@H]1Cc1ccc2c(c1)OCO2
REMARK SMILES IDX 4 1 5 2 16 3 2 4 3 5 6 6 7 7 12 8 8 9 11 10 9 11 10 12 13 13
REMARK SMILES IDX 15 14 14 15 17 16 18 17 23 18 19 19 22 20 20 21 21 22 24 23
REMARK SMILES IDX 26 24 25 25 1 26
REMARK H PARENT 1 27
REMARK Flexibility Score: inf
ROOT
ATOM      1  C   UNL     1     -21.835 -18.767 -12.014  1.00  0.00     0.168 C 
ATOM      2  C   UNL     1     -23.061 -18.719 -12.913  1.00  0.00     0.028 C 
ATOM      3  C   UNL     1     -22.858 -17.356 -13.554  1.00  0.00     0.055 C 
ATOM      4  C   UNL     1     -21.339 -17.273 -13.665  1.00  0.00     0.250 C 
ATOM      5  O   UNL     1     -20.772 -18.102 -12.665  1.00  0.00    -0.352 OA
ENDROOT
BRANCH   2   6
ATOM      6  C   UNL     1     -23.178 -19.968 -13.845  1.00  0.00     0.042 C 
BRANCH   6   7
ATOM      7  C   UNL     1     -24.243 -20.999 -13.511  1.00  0.00    -0.044 A 
ATOM      8  C   UNL     1     -24.896 -20.992 -12.254  1.00  0.00     0.054 A 
ATOM      9  C   UNL     1     -24.677 -21.922 -14.503  1.00  0.00     0.008 A 
ATOM     10  C   UNL     1     -25.878 -21.947 -12.014  1.00  0.00     0.166 A 
ATOM     11  C   UNL     1     -25.674 -22.871 -14.218  1.00  0.00     0.051 A 
ATOM     12  C   UNL     1     -26.247 -22.852 -12.953  1.00  0.00     0.165 A 
ATOM     13  O   UNL     1     -26.626 -22.142 -10.868  1.00  0.00    -0.454 OA
ATOM     14  O   UNL     1     -27.241 -23.665 -12.445  1.00  0.00    -0.454 OA
ATOM     15  C   UNL     1     -27.514 -23.243 -11.102  1.00  0.00     0.468 C 
ENDBRANCH   6   7
ENDBRANCH   2   6
BRANCH   3  16
ATOM     16  C   UNL     1     -23.612 -17.035 -14.861  1.00  0.00     0.044 C 
BRANCH  16  17
ATOM     17  C   UNL     1     -24.803 -16.137 -14.631  1.00  0.00    -0.044 A 
ATOM     18  C   UNL     1     -26.030 -16.685 -14.186  1.00  0.00     0.054 A 
ATOM     19  C   UNL     1     -24.697 -14.734 -14.822  1.00  0.00     0.008 A 
ATOM     20  C   UNL     1     -27.099 -15.819 -13.981  1.00  0.00     0.166 A 
ATOM     21  C   UNL     1     -25.803 -13.896 -14.604  1.00  0.00     0.051 A 
ATOM     22  C   UNL     1     -26.991 -14.483 -14.184  1.00  0.00     0.165 A 
ATOM     23  O   UNL     1     -28.381 -16.120 -13.561  1.00  0.00    -0.454 OA
ATOM     24  O   UNL     1     -28.200 -13.875 -13.903  1.00  0.00    -0.454 OA
ATOM     25  C   UNL     1     -29.125 -14.894 -13.499  1.00  0.00     0.468 C 
ENDBRANCH  16  17
ENDBRANCH   3  16
BRANCH   4  26
ATOM     26  O   UNL     1     -20.913 -15.950 -13.483  1.00  0.00    -0.368 OA
ATOM     27  H   UNL     1     -21.046 -15.491 -14.354  1.00  0.00     0.213 HD
ENDBRANCH   4  26
TORSDOF 5
ENDMDL
MODEL 4
REMARK VINA RESULT:     4.026      1.351      7.480
REMARK INTER + INTRA:           4.533
REMARK INTER:                   4.620
REMARK INTRA:                  -0.087
REMARK UNBOUND:                -0.551
REMARK SMILES O[C@H]1OC[C@H](Cc2ccc3c(c2)OCO3)[C@@H]1Cc1ccc2c(c1)OCO2
REMARK SMILES IDX 4 1 5 2 16 3 2 4 3 5 6 6 7 7 12 8 8 9 11 10 9 11 10 12 13 13
REMARK SMILES IDX 15 14 14 15 17 16 18 17 23 18 19 19 22 20 20 21 21 22 24 23
REMARK SMILES IDX 26 24 25 25 1 26
REMARK H PARENT 1 27
REMARK Flexibility Score: inf
ROOT
ATOM      1  C   UNL     1     -22.751 -23.105 -13.347  1.00  0.00     0.168 C 
ATOM      2  C   UNL     1     -22.880 -21.694 -12.791  1.00  0.00     0.028 C 
ATOM      3  C   UNL     1     -23.624 -21.032 -13.938  1.00  0.00     0.055 C 
ATOM      4  C   UNL     1     -24.516 -22.162 -14.442  1.00  0.00     0.250 C 
ATOM      5  O   UNL     1     -23.905 -23.396 -14.109  1.00  0.00    -0.352 OA
ENDROOT
BRANCH   2   6
ATOM      6  C   UNL     1     -23.526 -21.661 -11.369  1.00  0.00     0.042 C 
BRANCH   6   7
ATOM      7  C   UNL     1     -25.024 -21.897 -11.269  1.00  0.00    -0.044 A 
ATOM      8  C   UNL     1     -25.555 -23.209 -11.241  1.00  0.00     0.054 A 
ATOM      9  C   UNL     1     -25.908 -20.796 -11.091  1.00  0.00     0.008 A 
ATOM     10  C   UNL     1     -26.933 -23.363 -11.126  1.00  0.00     0.166 A 
ATOM     11  C   UNL     1     -27.295 -20.996 -10.978  1.00  0.00     0.051 A 
ATOM     12  C   UNL     1     -27.767 -22.302 -11.006  1.00  0.00     0.165 A 
ATOM     13  O   UNL     1     -27.668 -24.532 -11.099  1.00  0.00    -0.454 OA
ATOM     14  O   UNL     1     -29.070 -22.749 -10.903  1.00  0.00    -0.454 OA
ATOM     15  C   UNL     1     -29.052 -24.182 -10.960  1.00  0.00     0.468 C 
ENDBRANCH   6   7
ENDBRANCH   2   6
BRANCH   3  16
ATOM     16  C   UNL     1     -24.365 -19.706 -13.669  1.00  0.00     0.044 C 
BRANCH  16  17
ATOM     17  C   UNL     1     -23.429 -18.522 -13.636  1.00  0.00    -0.044 A 
ATOM     18  C   UNL     1     -23.794 -17.310 -14.270  1.00  0.00     0.054 A 
ATOM     19  C   UNL     1     -22.194 -18.597 -12.940  1.00  0.00     0.008 A 
ATOM     20  C   UNL     1     -22.903 -16.244 -14.208  1.00  0.00     0.166 A 
ATOM     21  C   UNL     1     -21.323 -17.495 -12.904  1.00  0.00     0.051 A 
ATOM     22  C   UNL     1     -21.718 -16.333 -13.556  1.00  0.00     0.165 A 
ATOM     23  O   UNL     1     -23.036 -14.980 -14.753  1.00  0.00    -0.454 OA
ATOM     24  O   UNL     1     -21.045 -15.130 -13.657  1.00  0.00    -0.454 OA
ATOM     25  C   UNL     1     -21.859 -14.230 -14.421  1.00  0.00     0.468 C 
ENDBRANCH  16  17
ENDBRANCH   3  16
BRANCH   4  26
ATOM     26  O   UNL     1     -24.675 -22.070 -15.832  1.00  0.00    -0.368 OA
ATOM     27  H   UNL     1     -25.097 -22.921 -16.121  1.00  0.00     0.213 HD
ENDBRANCH   4  26
TORSDOF 5
ENDMDL
MODEL 5
REMARK VINA RESULT:     4.502      2.363      7.965
REMARK INTER + INTRA:           5.135
REMARK INTER:                   5.878
REMARK INTRA:                  -0.743
REMARK UNBOUND:                -0.551
REMARK SMILES O[C@H]1OC[C@H](Cc2ccc3c(c2)OCO3)[C@@H]1Cc1ccc2c(c1)OCO2
REMARK SMILES IDX 4 1 5 2 16 3 2 4 3 5 6 6 7 7 12 8 8 9 11 10 9 11 10 12 13 13
REMARK SMILES IDX 15 14 14 15 17 16 18 17 23 18 19 19 22 20 20 21 21 22 24 23
REMARK SMILES IDX 26 24 25 25 1 26
REMARK H PARENT 1 27
REMARK Flexibility Score: inf
ROOT
ATOM      1  C   UNL     1     -25.708 -20.893 -11.539  1.00  0.00     0.168 C 
ATOM      2  C   UNL     1     -24.491 -20.501 -12.365  1.00  0.00     0.028 C 
ATOM      3  C   UNL     1     -24.075 -19.240 -11.626  1.00  0.00     0.055 C 
ATOM      4  C   UNL     1     -24.432 -19.576 -10.182  1.00  0.00     0.250 C 
ATOM      5  O   UNL     1     -25.472 -20.539 -10.192  1.00  0.00    -0.352 OA
ENDROOT
BRANCH   2   6
ATOM      6  C   UNL     1     -23.452 -21.660 -12.500  1.00  0.00     0.042 C 
BRANCH   6   7
ATOM      7  C   UNL     1     -23.750 -22.760 -13.505  1.00  0.00    -0.044 A 
ATOM      8  C   UNL     1     -23.112 -24.021 -13.417  1.00  0.00     0.054 A 
ATOM      9  C   UNL     1     -24.762 -22.571 -14.488  1.00  0.00     0.008 A 
ATOM     10  C   UNL     1     -23.443 -24.996 -14.352  1.00  0.00     0.166 A 
ATOM     11  C   UNL     1     -25.066 -23.585 -15.414  1.00  0.00     0.051 A 
ATOM     12  C   UNL     1     -24.375 -24.785 -15.313  1.00  0.00     0.165 A 
ATOM     13  O   UNL     1     -22.940 -26.278 -14.472  1.00  0.00    -0.454 OA
ATOM     14  O   UNL     1     -24.502 -25.920 -16.090  1.00  0.00    -0.454 OA
ATOM     15  C   UNL     1     -23.593 -26.907 -15.583  1.00  0.00     0.468 C 
ENDBRANCH   6   7
ENDBRANCH   2   6
BRANCH   3  16
ATOM     16  C   UNL     1     -22.638 -18.711 -11.821  1.00  0.00     0.044 C 
BRANCH  16  17
ATOM     17  C   UNL     1     -22.579 -17.554 -12.790  1.00  0.00    -0.044 A 
ATOM     18  C   UNL     1     -23.679 -17.281 -13.637  1.00  0.00     0.054 A 
ATOM     19  C   UNL     1     -21.439 -16.709 -12.835  1.00  0.00     0.008 A 
ATOM     20  C   UNL     1     -23.582 -16.201 -14.509  1.00  0.00     0.166 A 
ATOM     21  C   UNL     1     -21.384 -15.628 -13.732  1.00  0.00     0.051 A 
ATOM     22  C   UNL     1     -22.482 -15.411 -14.556  1.00  0.00     0.165 A 
ATOM     23  O   UNL     1     -24.514 -15.750 -15.426  1.00  0.00    -0.454 OA
ATOM     24  O   UNL     1     -22.664 -14.423 -15.505  1.00  0.00    -0.454 OA
ATOM     25  C   UNL     1     -23.960 -14.605 -16.091  1.00  0.00     0.468 C 
ENDBRANCH  16  17
ENDBRANCH   3  16
BRANCH   4  26
ATOM     26  O   UNL     1     -24.859 -18.423  -9.509  1.00  0.00    -0.368 OA
ATOM     27  H   UNL     1     -24.648 -17.657 -10.105  1.00  0.00     0.213 HD
ENDBRANCH   4  26
TORSDOF 5
ENDMDL
MODEL 6
REMARK VINA RESULT:     4.587      2.359      3.813
REMARK INTER + INTRA:           5.242
REMARK INTER:                   5.092
REMARK INTRA:                   0.150
REMARK UNBOUND:                -0.551
REMARK SMILES O[C@H]1OC[C@H](Cc2ccc3c(c2)OCO3)[C@@H]1Cc1ccc2c(c1)OCO2
REMARK SMILES IDX 4 1 5 2 16 3 2 4 3 5 6 6 7 7 12 8 8 9 11 10 9 11 10 12 13 13
REMARK SMILES IDX 15 14 14 15 17 16 18 17 23 18 19 19 22 20 20 21 21 22 24 23
REMARK SMILES IDX 26 24 25 25 1 26
REMARK H PARENT 1 27
REMARK Flexibility Score: inf
ROOT
ATOM      1  C   UNL     1     -22.376 -19.268 -11.518  1.00  0.00     0.168 C 
ATOM      2  C   UNL     1     -23.074 -20.132 -12.558  1.00  0.00     0.028 C 
ATOM      3  C   UNL     1     -24.253 -20.623 -11.735  1.00  0.00     0.055 C 
ATOM      4  C   UNL     1     -24.549 -19.423 -10.843  1.00  0.00     0.250 C 
ATOM      5  O   UNL     1     -23.358 -18.670 -10.696  1.00  0.00    -0.352 OA
ENDROOT
BRANCH   2   6
ATOM      6  C   UNL     1     -23.364 -19.364 -13.887  1.00  0.00     0.042 C 
BRANCH   6   7
ATOM      7  C   UNL     1     -23.046 -17.878 -13.926  1.00  0.00    -0.044 A 
ATOM      8  C   UNL     1     -21.818 -17.382 -13.425  1.00  0.00     0.054 A 
ATOM      9  C   UNL     1     -23.936 -16.976 -14.572  1.00  0.00     0.008 A 
ATOM     10  C   UNL     1     -21.573 -16.015 -13.510  1.00  0.00     0.166 A 
ATOM     11  C   UNL     1     -23.650 -15.601 -14.636  1.00  0.00     0.051 A 
ATOM     12  C   UNL     1     -22.454 -15.161 -14.084  1.00  0.00     0.165 A 
ATOM     13  O   UNL     1     -20.467 -15.312 -13.073  1.00  0.00    -0.454 OA
ATOM     14  O   UNL     1     -21.949 -13.875 -14.034  1.00  0.00    -0.454 OA
ATOM     15  C   UNL     1     -20.670 -13.927 -13.387  1.00  0.00     0.468 C 
ENDBRANCH   6   7
ENDBRANCH   2   6
BRANCH   3  16
ATOM     16  C   UNL     1     -25.483 -21.189 -12.474  1.00  0.00     0.044 C 
BRANCH  16  17
ATOM     17  C   UNL     1     -25.134 -22.362 -13.357  1.00  0.00    -0.044 A 
ATOM     18  C   UNL     1     -24.106 -23.257 -12.975  1.00  0.00     0.054 A 
ATOM     19  C   UNL     1     -25.855 -22.603 -14.557  1.00  0.00     0.008 A 
ATOM     20  C   UNL     1     -23.823 -24.328 -13.816  1.00  0.00     0.166 A 
ATOM     21  C   UNL     1     -25.535 -23.698 -15.378  1.00  0.00     0.051 A 
ATOM     22  C   UNL     1     -24.505 -24.538 -14.969  1.00  0.00     0.165 A 
ATOM     23  O   UNL     1     -22.868 -25.316 -13.659  1.00  0.00    -0.454 OA
ATOM     24  O   UNL     1     -24.015 -25.667 -15.596  1.00  0.00    -0.454 OA
ATOM     25  C   UNL     1     -22.958 -26.200 -14.786  1.00  0.00     0.468 C 
ENDBRANCH  16  17
ENDBRANCH   3  16
BRANCH   4  26
ATOM     26  O   UNL     1     -24.997 -19.853  -9.586  1.00  0.00    -0.368 OA
ATOM     27  H   UNL     1     -25.238 -20.811  -9.689  1.00  0.00     0.213 HD
ENDBRANCH   4  26
TORSDOF 5
ENDMDL
MODEL 7
REMARK VINA RESULT:     4.794      1.481      7.528
REMARK INTER + INTRA:           5.504
REMARK INTER:                   3.643
REMARK INTRA:                   1.861
REMARK UNBOUND:                -0.551
REMARK SMILES O[C@H]1OC[C@H](Cc2ccc3c(c2)OCO3)[C@@H]1Cc1ccc2c(c1)OCO2
REMARK SMILES IDX 4 1 5 2 16 3 2 4 3 5 6 6 7 7 12 8 8 9 11 10 9 11 10 12 13 13
REMARK SMILES IDX 15 14 14 15 17 16 18 17 23 18 19 19 22 20 20 21 21 22 24 23
REMARK SMILES IDX 26 24 25 25 1 26
REMARK H PARENT 1 27
REMARK Flexibility Score: inf
ROOT
ATOM      1  C   UNL     1     -20.366 -21.173 -12.676  1.00  0.00     0.168 C 
ATOM      2  C   UNL     1     -21.873 -20.996 -12.570  1.00  0.00     0.028 C 
ATOM      3  C   UNL     1     -21.946 -19.485 -12.434  1.00  0.00     0.055 C 
ATOM      4  C   UNL     1     -20.788 -19.023 -13.312  1.00  0.00     0.250 C 
ATOM      5  O   UNL     1     -19.830 -20.066 -13.372  1.00  0.00    -0.352 OA
ENDROOT
BRANCH   2   6
ATOM      6  C   UNL     1     -22.647 -21.675 -13.745  1.00  0.00     0.042 C 
BRANCH   6   7
ATOM      7  C   UNL     1     -24.032 -22.226 -13.451  1.00  0.00    -0.044 A 
ATOM      8  C   UNL     1     -24.599 -22.122 -12.158  1.00  0.00     0.054 A 
ATOM      9  C   UNL     1     -24.825 -22.759 -14.505  1.00  0.00     0.008 A 
ATOM     10  C   UNL     1     -25.881 -22.624 -11.955  1.00  0.00     0.166 A 
ATOM     11  C   UNL     1     -26.117 -23.255 -14.257  1.00  0.00     0.051 A 
ATOM     12  C   UNL     1     -26.605 -23.173 -12.959  1.00  0.00     0.165 A 
ATOM     13  O   UNL     1     -26.619 -22.650 -10.787  1.00  0.00    -0.454 OA
ATOM     14  O   UNL     1     -27.834 -23.578 -12.474  1.00  0.00    -0.454 OA
ATOM     15  C   UNL     1     -27.884 -23.261 -11.076  1.00  0.00     0.468 C 
ENDBRANCH   6   7
ENDBRANCH   2   6
BRANCH   3  16
ATOM     16  C   UNL     1     -23.288 -18.782 -12.728  1.00  0.00     0.044 C 
BRANCH  16  17
ATOM     17  C   UNL     1     -23.102 -17.462 -13.435  1.00  0.00    -0.044 A 
ATOM     18  C   UNL     1     -24.011 -17.063 -14.445  1.00  0.00     0.054 A 
ATOM     19  C   UNL     1     -22.041 -16.591 -13.072  1.00  0.00     0.008 A 
ATOM     20  C   UNL     1     -23.804 -15.835 -15.065  1.00  0.00     0.166 A 
ATOM     21  C   UNL     1     -21.869 -15.359 -13.726  1.00  0.00     0.051 A 
ATOM     22  C   UNL     1     -22.776 -15.020 -14.723  1.00  0.00     0.165 A 
ATOM     23  O   UNL     1     -24.545 -15.245 -16.072  1.00  0.00    -0.454 OA
ATOM     24  O   UNL     1     -22.818 -13.876 -15.496  1.00  0.00    -0.454 OA
ATOM     25  C   UNL     1     -23.943 -13.980 -16.381  1.00  0.00     0.468 C 
ENDBRANCH  16  17
ENDBRANCH   3  16
BRANCH   4  26
ATOM     26  O   UNL     1     -20.201 -17.870 -12.773  1.00  0.00    -0.368 OA
ATOM     27  H   UNL     1     -20.095 -17.232 -13.526  1.00  0.00     0.213 HD
ENDBRANCH   4  26
TORSDOF 5
ENDMDL
