MODEL 1
REMARK VINA RESULT:    -5.108      0.000      0.000
REMARK INTER + INTRA:          -7.008
REMARK INTER:                  -6.452
REMARK INTRA:                  -0.556
REMARK UNBOUND:                -0.556
REMARK SMILES Oc1cc(O)cc(CCc2ccccc2O)c1
REMARK SMILES IDX 9 1 10 2 12 3 13 4 11 5 14 6 15 7 16 8 8 10 7 11 6 12 17 13
REMARK SMILES IDX 4 14 2 15 3 16 5 17 1 19
REMARK H PARENT 16 9 5 18 1 20
REMARK Flexibility Score: inf
ROOT
ATOM      1  C   UNL     1      -5.863  83.470  -9.469  1.00  0.00     0.044 C 
ENDROOT
BRANCH   1   2
ATOM      2  C   UNL     1      -4.745  82.819  -8.694  1.00  0.00    -0.006 A 
ATOM      3  C   UNL     1      -3.819  82.099  -6.564  1.00  0.00     0.001 A 
ATOM      4  C   UNL     1      -2.716  81.551  -7.223  1.00  0.00     0.004 A 
ATOM      5  C   UNL     1      -4.832  82.725  -7.294  1.00  0.00     0.007 A 
ATOM      6  C   UNL     1      -2.626  81.625  -8.615  1.00  0.00     0.046 A 
ATOM      7  C   UNL     1      -3.638  82.251  -9.358  1.00  0.00     0.118 A 
BRANCH   7   8
ATOM      8  O   UNL     1      -3.548  82.309 -10.748  1.00  0.00    -0.508 OA
ATOM      9  H   UNL     1      -3.415  83.188 -11.235  1.00  0.00     0.293 HD
ENDBRANCH   7   8
ENDBRANCH   1   2
BRANCH   1  10
ATOM     10  C   UNL     1      -6.891  84.088  -8.517  1.00  0.00     0.040 C 
BRANCH  10  11
ATOM     11  C   UNL     1      -8.123  83.228  -8.437  1.00  0.00    -0.040 A 
ATOM     12  C   UNL     1      -8.748  82.776  -9.611  1.00  0.00     0.050 A 
ATOM     13  C   UNL     1      -8.691  82.919  -7.190  1.00  0.00     0.050 A 
ATOM     14  C   UNL     1      -9.915  82.002  -9.538  1.00  0.00     0.119 A 
ATOM     15  C   UNL     1      -9.857  82.145  -7.116  1.00  0.00     0.119 A 
ATOM     16  C   UNL     1     -10.464  81.686  -8.290  1.00  0.00     0.092 A 
BRANCH  14  17
ATOM     17  O   UNL     1     -10.537  81.545 -10.697  1.00  0.00    -0.508 OA
ATOM     18  H   UNL     1     -11.144  82.144 -11.244  1.00  0.00     0.293 HD
ENDBRANCH  14  17
BRANCH  15  19
ATOM     19  O   UNL     1     -10.421  81.828  -5.883  1.00  0.00    -0.508 OA
ATOM     20  H   UNL     1     -11.311  82.215  -5.592  1.00  0.00     0.293 HD
ENDBRANCH  15  19
ENDBRANCH  10  11
ENDBRANCH   1  10
TORSDOF 6
ENDMDL
MODEL 2
REMARK VINA RESULT:    -5.093      0.079      2.032
REMARK INTER + INTRA:          -6.989
REMARK INTER:                  -6.409
REMARK INTRA:                  -0.580
REMARK UNBOUND:                -0.556
REMARK SMILES Oc1cc(O)cc(CCc2ccccc2O)c1
REMARK SMILES IDX 9 1 10 2 12 3 13 4 11 5 14 6 15 7 16 8 8 10 7 11 6 12 17 13
REMARK SMILES IDX 4 14 2 15 3 16 5 17 1 19
REMARK H PARENT 16 9 5 18 1 20
REMARK Flexibility Score: inf
ROOT
ATOM      1  C   UNL     1      -5.940  83.402  -9.413  1.00  0.00     0.044 C 
ENDROOT
BRANCH   1   2
ATOM      2  C   UNL     1      -4.784  82.790  -8.663  1.00  0.00    -0.006 A 
ATOM      3  C   UNL     1      -3.784  82.109  -6.553  1.00  0.00     0.001 A 
ATOM      4  C   UNL     1      -2.682  81.591  -7.238  1.00  0.00     0.004 A 
ATOM      5  C   UNL     1      -4.833  82.700  -7.261  1.00  0.00     0.007 A 
ATOM      6  C   UNL     1      -2.629  81.660  -8.632  1.00  0.00     0.046 A 
ATOM      7  C   UNL     1      -3.677  82.252  -9.352  1.00  0.00     0.118 A 
BRANCH   7   8
ATOM      8  O   UNL     1      -3.624  82.305 -10.745  1.00  0.00    -0.508 OA
ATOM      9  H   UNL     1      -2.892  82.810 -11.229  1.00  0.00     0.293 HD
ENDBRANCH   7   8
ENDBRANCH   1   2
BRANCH   1  10
ATOM     10  C   UNL     1      -6.938  84.038  -8.440  1.00  0.00     0.040 C 
BRANCH  10  11
ATOM     11  C   UNL     1      -8.212  83.240  -8.392  1.00  0.00    -0.040 A 
ATOM     12  C   UNL     1      -8.791  82.902  -7.158  1.00  0.00     0.050 A 
ATOM     13  C   UNL     1      -8.802  82.776  -9.580  1.00  0.00     0.050 A 
ATOM     14  C   UNL     1      -9.960  82.131  -7.112  1.00  0.00     0.119 A 
ATOM     15  C   UNL     1      -9.971  82.005  -9.535  1.00  0.00     0.119 A 
ATOM     16  C   UNL     1     -10.548  81.687  -8.301  1.00  0.00     0.092 A 
BRANCH  14  17
ATOM     17  O   UNL     1     -10.543  81.798  -5.891  1.00  0.00    -0.508 OA
ATOM     18  H   UNL     1     -10.028  81.868  -5.022  1.00  0.00     0.293 HD
ENDBRANCH  14  17
BRANCH  15  19
ATOM     19  O   UNL     1     -10.566  81.549 -10.709  1.00  0.00    -0.508 OA
ATOM     20  H   UNL     1     -11.401  80.975 -10.691  1.00  0.00     0.293 HD
ENDBRANCH  15  19
ENDBRANCH  10  11
ENDBRANCH   1  10
TORSDOF 6
ENDMDL
MODEL 3
REMARK VINA RESULT:    -4.945     10.450     12.192
REMARK INTER + INTRA:          -6.803
REMARK INTER:                  -6.036
REMARK INTRA:                  -0.767
REMARK UNBOUND:                -0.556
REMARK SMILES Oc1cc(O)cc(CCc2ccccc2O)c1
REMARK SMILES IDX 9 1 10 2 12 3 13 4 11 5 14 6 15 7 16 8 8 10 7 11 6 12 17 13
REMARK SMILES IDX 4 14 2 15 3 16 5 17 1 19
REMARK H PARENT 16 9 5 18 1 20
REMARK Flexibility Score: inf
ROOT
ATOM      1  C   UNL     1      -3.379  90.675 -15.096  1.00  0.00     0.044 C 
ENDROOT
BRANCH   1   2
ATOM      2  C   UNL     1      -4.303  90.474 -13.921  1.00  0.00    -0.006 A 
ATOM      3  C   UNL     1      -5.038  91.138 -11.700  1.00  0.00     0.001 A 
ATOM      4  C   UNL     1      -6.051  90.177 -11.743  1.00  0.00     0.004 A 
ATOM      5  C   UNL     1      -4.171  91.291 -12.784  1.00  0.00     0.007 A 
ATOM      6  C   UNL     1      -6.202  89.370 -12.873  1.00  0.00     0.046 A 
ATOM      7  C   UNL     1      -5.337  89.516 -13.967  1.00  0.00     0.118 A 
BRANCH   7   8
ATOM      8  O   UNL     1      -5.502  88.716 -15.098  1.00  0.00    -0.508 OA
ATOM      9  H   UNL     1      -6.421  88.454 -15.433  1.00  0.00     0.293 HD
ENDBRANCH   7   8
ENDBRANCH   1   2
BRANCH   1  10
ATOM     10  C   UNL     1      -3.425  92.128 -15.576  1.00  0.00     0.040 C 
BRANCH  10  11
ATOM     11  C   UNL     1      -4.644  92.366 -16.426  1.00  0.00    -0.040 A 
ATOM     12  C   UNL     1      -5.588  93.337 -16.054  1.00  0.00     0.050 A 
ATOM     13  C   UNL     1      -4.877  91.579 -17.565  1.00  0.00     0.050 A 
ATOM     14  C   UNL     1      -6.740  93.536 -16.827  1.00  0.00     0.119 A 
ATOM     15  C   UNL     1      -6.029  91.777 -18.339  1.00  0.00     0.119 A 
ATOM     16  C   UNL     1      -6.956  92.757 -17.969  1.00  0.00     0.092 A 
BRANCH  14  17
ATOM     17  O   UNL     1      -7.678  94.502 -16.468  1.00  0.00    -0.508 OA
ATOM     18  H   UNL     1      -8.269  94.949 -17.160  1.00  0.00     0.293 HD
ENDBRANCH  14  17
BRANCH  15  19
ATOM     19  O   UNL     1      -6.262  91.005 -19.475  1.00  0.00    -0.508 OA
ATOM     20  H   UNL     1      -5.576  90.933 -20.217  1.00  0.00     0.293 HD
ENDBRANCH  15  19
ENDBRANCH  10  11
ENDBRANCH   1  10
TORSDOF 6
ENDMDL
MODEL 4
REMARK VINA RESULT:    -4.945     10.478     12.122
REMARK INTER + INTRA:          -6.802
REMARK INTER:                  -6.032
REMARK INTRA:                  -0.770
REMARK UNBOUND:                -0.556
REMARK SMILES Oc1cc(O)cc(CCc2ccccc2O)c1
REMARK SMILES IDX 9 1 10 2 12 3 13 4 11 5 14 6 15 7 16 8 8 10 7 11 6 12 17 13
REMARK SMILES IDX 4 14 2 15 3 16 5 17 1 19
REMARK H PARENT 16 9 5 18 1 20
REMARK Flexibility Score: inf
ROOT
ATOM      1  C   UNL     1      -3.361  90.634 -15.098  1.00  0.00     0.044 C 
ENDROOT
BRANCH   1   2
ATOM      2  C   UNL     1      -4.291  90.497 -13.919  1.00  0.00    -0.006 A 
ATOM      3  C   UNL     1      -5.016  91.260 -11.727  1.00  0.00     0.001 A 
ATOM      4  C   UNL     1      -6.048  90.318 -11.735  1.00  0.00     0.004 A 
ATOM      5  C   UNL     1      -4.145  91.354 -12.814  1.00  0.00     0.007 A 
ATOM      6  C   UNL     1      -6.212  89.471 -12.833  1.00  0.00     0.046 A 
ATOM      7  C   UNL     1      -5.343  89.557 -13.930  1.00  0.00     0.118 A 
BRANCH   7   8
ATOM      8  O   UNL     1      -5.522  88.718 -15.030  1.00  0.00    -0.508 OA
ATOM      9  H   UNL     1      -5.265  87.738 -14.996  1.00  0.00     0.293 HD
ENDBRANCH   7   8
ENDBRANCH   1   2
BRANCH   1  10
ATOM     10  C   UNL     1      -3.390  92.064 -15.645  1.00  0.00     0.040 C 
BRANCH  10  11
ATOM     11  C   UNL     1      -4.633  92.295 -16.460  1.00  0.00    -0.040 A 
ATOM     12  C   UNL     1      -4.906  91.491 -17.579  1.00  0.00     0.050 A 
ATOM     13  C   UNL     1      -5.501  93.352 -16.144  1.00  0.00     0.050 A 
ATOM     14  C   UNL     1      -6.047  91.726 -18.358  1.00  0.00     0.119 A 
ATOM     15  C   UNL     1      -6.643  93.588 -16.922  1.00  0.00     0.119 A 
ATOM     16  C   UNL     1      -6.913  92.773 -18.026  1.00  0.00     0.092 A 
BRANCH  14  17
ATOM     17  O   UNL     1      -6.326  90.928 -19.466  1.00  0.00    -0.508 OA
ATOM     18  H   UNL     1      -5.874  91.085 -20.359  1.00  0.00     0.293 HD
ENDBRANCH  14  17
BRANCH  15  19
ATOM     19  O   UNL     1      -7.512  94.631 -16.610  1.00  0.00    -0.508 OA
ATOM     20  H   UNL     1      -7.197  95.594 -16.583  1.00  0.00     0.293 HD
ENDBRANCH  15  19
ENDBRANCH  10  11
ENDBRANCH   1  10
TORSDOF 6
ENDMDL
MODEL 5
REMARK VINA RESULT:    -4.940     10.356     12.100
REMARK INTER + INTRA:          -6.797
REMARK INTER:                  -6.273
REMARK INTRA:                  -0.523
REMARK UNBOUND:                -0.556
REMARK SMILES Oc1cc(O)cc(CCc2ccccc2O)c1
REMARK SMILES IDX 9 1 10 2 12 3 13 4 11 5 14 6 15 7 16 8 8 10 7 11 6 12 17 13
REMARK SMILES IDX 4 14 2 15 3 16 5 17 1 19
REMARK H PARENT 16 9 5 18 1 20
REMARK Flexibility Score: inf
ROOT
ATOM      1  C   UNL     1      -4.979  90.952 -12.685  1.00  0.00     0.044 C 
ENDROOT
BRANCH   1   2
ATOM      2  C   UNL     1      -5.119  91.023 -14.184  1.00  0.00    -0.006 A 
ATOM      3  C   UNL     1      -6.389  91.724 -16.136  1.00  0.00     0.001 A 
ATOM      4  C   UNL     1      -5.381  91.238 -16.972  1.00  0.00     0.004 A 
ATOM      5  C   UNL     1      -6.258  91.624 -14.750  1.00  0.00     0.007 A 
ATOM      6  C   UNL     1      -4.238  90.652 -16.423  1.00  0.00     0.046 A 
ATOM      7  C   UNL     1      -4.097  90.547 -15.031  1.00  0.00     0.118 A 
BRANCH   7   8
ATOM      8  O   UNL     1      -2.946  89.974 -14.489  1.00  0.00    -0.508 OA
ATOM      9  H   UNL     1      -2.178  89.670 -15.075  1.00  0.00     0.293 HD
ENDBRANCH   7   8
ENDBRANCH   1   2
BRANCH   1  10
ATOM     10  C   UNL     1      -5.949  91.924 -12.006  1.00  0.00     0.040 C 
BRANCH  10  11
ATOM     11  C   UNL     1      -5.196  92.928 -11.176  1.00  0.00    -0.040 A 
ATOM     12  C   UNL     1      -4.089  93.605 -11.715  1.00  0.00     0.050 A 
ATOM     13  C   UNL     1      -5.558  93.155  -9.838  1.00  0.00     0.050 A 
ATOM     14  C   UNL     1      -3.368  94.517 -10.933  1.00  0.00     0.119 A 
ATOM     15  C   UNL     1      -4.837  94.067  -9.055  1.00  0.00     0.119 A 
ATOM     16  C   UNL     1      -3.746  94.747  -9.605  1.00  0.00     0.092 A 
BRANCH  14  17
ATOM     17  O   UNL     1      -2.273  95.196 -11.462  1.00  0.00    -0.508 OA
ATOM     18  H   UNL     1      -2.231  95.451 -12.442  1.00  0.00     0.293 HD
ENDBRANCH  14  17
BRANCH  15  19
ATOM     19  O   UNL     1      -5.195  94.302  -7.730  1.00  0.00    -0.508 OA
ATOM     20  H   UNL     1      -4.564  94.761  -7.084  1.00  0.00     0.293 HD
ENDBRANCH  15  19
ENDBRANCH  10  11
ENDBRANCH   1  10
TORSDOF 6
ENDMDL
MODEL 6
REMARK VINA RESULT:    -4.925     10.366     12.253
REMARK INTER + INTRA:          -6.777
REMARK INTER:                  -6.258
REMARK INTRA:                  -0.519
REMARK UNBOUND:                -0.556
REMARK SMILES Oc1cc(O)cc(CCc2ccccc2O)c1
REMARK SMILES IDX 9 1 10 2 12 3 13 4 11 5 14 6 15 7 16 8 8 10 7 11 6 12 17 13
REMARK SMILES IDX 4 14 2 15 3 16 5 17 1 19
REMARK H PARENT 16 9 5 18 1 20
REMARK Flexibility Score: inf
ROOT
ATOM      1  C   UNL     1      -5.053  90.955 -12.739  1.00  0.00     0.044 C 
ENDROOT
BRANCH   1   2
ATOM      2  C   UNL     1      -5.150  91.035 -14.241  1.00  0.00    -0.006 A 
ATOM      3  C   UNL     1      -6.355  91.763 -16.225  1.00  0.00     0.001 A 
ATOM      4  C   UNL     1      -5.331  91.266 -17.035  1.00  0.00     0.004 A 
ATOM      5  C   UNL     1      -6.264  91.654 -14.835  1.00  0.00     0.007 A 
ATOM      6  C   UNL     1      -4.212  90.662 -16.456  1.00  0.00     0.046 A 
ATOM      7  C   UNL     1      -4.111  90.548 -15.062  1.00  0.00     0.118 A 
BRANCH   7   8
ATOM      8  O   UNL     1      -2.985  89.956 -14.491  1.00  0.00    -0.508 OA
ATOM      9  H   UNL     1      -2.838  89.954 -13.488  1.00  0.00     0.293 HD
ENDBRANCH   7   8
ENDBRANCH   1   2
BRANCH   1  10
ATOM     10  C   UNL     1      -5.980  91.982 -12.083  1.00  0.00     0.040 C 
BRANCH  10  11
ATOM     11  C   UNL     1      -5.192  92.931 -11.221  1.00  0.00    -0.040 A 
ATOM     12  C   UNL     1      -5.589  93.180  -9.896  1.00  0.00     0.050 A 
ATOM     13  C   UNL     1      -4.089  93.620 -11.751  1.00  0.00     0.050 A 
ATOM     14  C   UNL     1      -4.875  94.089  -9.103  1.00  0.00     0.119 A 
ATOM     15  C   UNL     1      -3.375  94.528 -10.958  1.00  0.00     0.119 A 
ATOM     16  C   UNL     1      -3.768  94.758  -9.636  1.00  0.00     0.092 A 
BRANCH  14  17
ATOM     17  O   UNL     1      -5.259  94.336  -7.787  1.00  0.00    -0.508 OA
ATOM     18  H   UNL     1      -5.880  95.101  -7.551  1.00  0.00     0.293 HD
ENDBRANCH  14  17
BRANCH  15  19
ATOM     19  O   UNL     1      -2.275  95.209 -11.475  1.00  0.00    -0.508 OA
ATOM     20  H   UNL     1      -1.333  95.011 -11.159  1.00  0.00     0.293 HD
ENDBRANCH  15  19
ENDBRANCH  10  11
ENDBRANCH   1  10
TORSDOF 6
ENDMDL
MODEL 7
REMARK VINA RESULT:    -4.848      4.306      6.736
REMARK INTER + INTRA:          -6.680
REMARK INTER:                  -6.149
REMARK INTRA:                  -0.531
REMARK UNBOUND:                -0.556
REMARK SMILES Oc1cc(O)cc(CCc2ccccc2O)c1
REMARK SMILES IDX 9 1 10 2 12 3 13 4 11 5 14 6 15 7 16 8 8 10 7 11 6 12 17 13
REMARK SMILES IDX 4 14 2 15 3 16 5 17 1 19
REMARK H PARENT 16 9 5 18 1 20
REMARK Flexibility Score: inf
ROOT
ATOM      1  C   UNL     1      -4.031  86.705  -6.773  1.00  0.00     0.044 C 
ENDROOT
BRANCH   1   2
ATOM      2  C   UNL     1      -4.562  87.803  -7.659  1.00  0.00    -0.006 A 
ATOM      3  C   UNL     1      -6.079  88.521  -9.419  1.00  0.00     0.001 A 
ATOM      4  C   UNL     1      -5.627  89.836  -9.278  1.00  0.00     0.004 A 
ATOM      5  C   UNL     1      -5.555  87.510  -8.611  1.00  0.00     0.007 A 
ATOM      6  C   UNL     1      -4.652  90.142  -8.326  1.00  0.00     0.046 A 
ATOM      7  C   UNL     1      -4.120  89.134  -7.509  1.00  0.00     0.118 A 
BRANCH   7   8
ATOM      8  O   UNL     1      -3.156  89.449  -6.551  1.00  0.00    -0.508 OA
ATOM      9  H   UNL     1      -3.320  90.160  -5.848  1.00  0.00     0.293 HD
ENDBRANCH   7   8
ENDBRANCH   1   2
BRANCH   1  10
ATOM     10  C   UNL     1      -2.736  86.124  -7.351  1.00  0.00     0.040 C 
BRANCH  10  11
ATOM     11  C   UNL     1      -2.930  84.684  -7.741  1.00  0.00    -0.040 A 
ATOM     12  C   UNL     1      -3.638  84.356  -8.909  1.00  0.00     0.050 A 
ATOM     13  C   UNL     1      -2.456  83.656  -6.910  1.00  0.00     0.050 A 
ATOM     14  C   UNL     1      -3.847  83.014  -9.255  1.00  0.00     0.119 A 
ATOM     15  C   UNL     1      -2.665  82.314  -7.256  1.00  0.00     0.119 A 
ATOM     16  C   UNL     1      -3.357  81.997  -8.429  1.00  0.00     0.092 A 
BRANCH  14  17
ATOM     17  O   UNL     1      -4.543  82.681 -10.415  1.00  0.00    -0.508 OA
ATOM     18  H   UNL     1      -5.553  82.744 -10.464  1.00  0.00     0.293 HD
ENDBRANCH  14  17
BRANCH  15  19
ATOM     19  O   UNL     1      -2.190  81.289  -6.441  1.00  0.00    -0.508 OA
ATOM     20  H   UNL     1      -1.385  80.733  -6.703  1.00  0.00     0.293 HD
ENDBRANCH  15  19
ENDBRANCH  10  11
ENDBRANCH   1  10
TORSDOF 6
ENDMDL
MODEL 8
REMARK VINA RESULT:    -4.803      5.213      7.323
REMARK INTER + INTRA:          -6.623
REMARK INTER:                  -6.175
REMARK INTRA:                  -0.448
REMARK UNBOUND:                -0.556
REMARK SMILES Oc1cc(O)cc(CCc2ccccc2O)c1
REMARK SMILES IDX 9 1 10 2 12 3 13 4 11 5 14 6 15 7 16 8 8 10 7 11 6 12 17 13
REMARK SMILES IDX 4 14 2 15 3 16 5 17 1 19
REMARK H PARENT 16 9 5 18 1 20
REMARK Flexibility Score: inf
ROOT
ATOM      1  C   UNL     1      -5.021  88.053  -7.833  1.00  0.00     0.044 C 
ENDROOT
BRANCH   1   2
ATOM      2  C   UNL     1      -4.972  89.488  -8.292  1.00  0.00    -0.006 A 
ATOM      3  C   UNL     1      -5.780  91.239  -9.774  1.00  0.00     0.001 A 
ATOM      4  C   UNL     1      -4.961  92.169  -9.129  1.00  0.00     0.004 A 
ATOM      5  C   UNL     1      -5.791  89.907  -9.356  1.00  0.00     0.007 A 
ATOM      6  C   UNL     1      -4.155  91.769  -8.061  1.00  0.00     0.046 A 
ATOM      7  C   UNL     1      -4.159  90.434  -7.633  1.00  0.00     0.118 A 
BRANCH   7   8
ATOM      8  O   UNL     1      -3.361  90.044  -6.557  1.00  0.00    -0.508 OA
ATOM      9  H   UNL     1      -3.758  89.605  -5.735  1.00  0.00     0.293 HD
ENDBRANCH   7   8
ENDBRANCH   1   2
BRANCH   1  10
ATOM     10  C   UNL     1      -5.582  87.152  -8.937  1.00  0.00     0.040 C 
BRANCH  10  11
ATOM     11  C   UNL     1      -4.884  85.819  -8.938  1.00  0.00    -0.040 A 
ATOM     12  C   UNL     1      -5.392  84.754  -9.699  1.00  0.00     0.050 A 
ATOM     13  C   UNL     1      -3.752  85.612  -8.132  1.00  0.00     0.050 A 
ATOM     14  C   UNL     1      -4.761  83.503  -9.675  1.00  0.00     0.119 A 
ATOM     15  C   UNL     1      -3.121  84.361  -8.107  1.00  0.00     0.119 A 
ATOM     16  C   UNL     1      -3.625  83.311  -8.880  1.00  0.00     0.092 A 
BRANCH  14  17
ATOM     17  O   UNL     1      -5.256  82.443 -10.432  1.00  0.00    -0.508 OA
ATOM     18  H   UNL     1      -5.661  81.623  -9.995  1.00  0.00     0.293 HD
ENDBRANCH  14  17
BRANCH  15  19
ATOM     19  O   UNL     1      -1.994  84.151  -7.316  1.00  0.00    -0.508 OA
ATOM     20  H   UNL     1      -1.084  84.510  -7.582  1.00  0.00     0.293 HD
ENDBRANCH  15  19
ENDBRANCH  10  11
ENDBRANCH   1  10
TORSDOF 6
ENDMDL
MODEL 9
REMARK VINA RESULT:    -4.785      4.562      6.338
REMARK INTER + INTRA:          -6.600
REMARK INTER:                  -6.058
REMARK INTRA:                  -0.541
REMARK UNBOUND:                -0.556
REMARK SMILES Oc1cc(O)cc(CCc2ccccc2O)c1
REMARK SMILES IDX 9 1 10 2 12 3 13 4 11 5 14 6 15 7 16 8 8 10 7 11 6 12 17 13
REMARK SMILES IDX 4 14 2 15 3 16 5 17 1 19
REMARK H PARENT 16 9 5 18 1 20
REMARK Flexibility Score: inf
ROOT
ATOM      1  C   UNL     1      -4.875  85.371  -9.495  1.00  0.00     0.044 C 
ENDROOT
BRANCH   1   2
ATOM      2  C   UNL     1      -4.057  84.267  -8.875  1.00  0.00    -0.006 A 
ATOM      3  C   UNL     1      -2.700  83.452  -7.029  1.00  0.00     0.001 A 
ATOM      4  C   UNL     1      -2.585  82.209  -7.656  1.00  0.00     0.004 A 
ATOM      5  C   UNL     1      -3.436  84.475  -7.631  1.00  0.00     0.007 A 
ATOM      6  C   UNL     1      -3.210  81.985  -8.885  1.00  0.00     0.046 A 
ATOM      7  C   UNL     1      -3.952  83.005  -9.497  1.00  0.00     0.118 A 
BRANCH   7   8
ATOM      8  O   UNL     1      -4.585  82.770 -10.718  1.00  0.00    -0.508 OA
ATOM      9  H   UNL     1      -5.422  82.203 -10.781  1.00  0.00     0.293 HD
ENDBRANCH   7   8
ENDBRANCH   1   2
BRANCH   1  10
ATOM     10  C   UNL     1      -5.675  86.117  -8.423  1.00  0.00     0.040 C 
BRANCH  10  11
ATOM     11  C   UNL     1      -5.334  87.583  -8.433  1.00  0.00    -0.040 A 
ATOM     12  C   UNL     1      -4.390  88.096  -7.528  1.00  0.00     0.050 A 
ATOM     13  C   UNL     1      -6.000  88.459  -9.305  1.00  0.00     0.050 A 
ATOM     14  C   UNL     1      -4.096  89.466  -7.514  1.00  0.00     0.119 A 
ATOM     15  C   UNL     1      -5.707  89.829  -9.292  1.00  0.00     0.119 A 
ATOM     16  C   UNL     1      -4.754  90.329  -8.398  1.00  0.00     0.092 A 
BRANCH  14  17
ATOM     17  O   UNL     1      -3.156  89.982  -6.625  1.00  0.00    -0.508 OA
ATOM     18  H   UNL     1      -2.178  90.063  -6.877  1.00  0.00     0.293 HD
ENDBRANCH  14  17
BRANCH  15  19
ATOM     19  O   UNL     1      -6.358  90.703 -10.160  1.00  0.00    -0.508 OA
ATOM     20  H   UNL     1      -6.657  90.409 -11.083  1.00  0.00     0.293 HD
ENDBRANCH  15  19
ENDBRANCH  10  11
ENDBRANCH   1  10
TORSDOF 6
ENDMDL
