MODEL 1
REMARK VINA RESULT:    -6.682      0.000      0.000
REMARK INTER + INTRA:          -8.554
REMARK INTER:                  -8.244
REMARK INTRA:                  -0.310
REMARK UNBOUND:                -0.310
REMARK SMILES COc1cc(-c2oc3cc(O)cc(O)c3c(=O)c2O)ccc1O
REMARK SMILES IDX 6 1 18 2 16 3 17 4 15 5 13 6 12 7 10 8 9 9 8 10 7 11 5 12
REMARK SMILES IDX 3 13 22 14 4 15 21 16 20 17 2 18 1 19 23 20 19 22 14 24
REMARK SMILES IDX 11 26
REMARK H PARENT 23 21 19 23 14 25 11 27
REMARK Flexibility Score: inf
ROOT
ATOM      1  C   UNL     1      19.842  48.278  43.745  1.00  0.00     0.180 A 
ATOM      2  C   UNL     1      20.010  46.972  43.247  1.00  0.00     0.208 A 
ATOM      3  C   UNL     1      19.030  46.439  42.395  1.00  0.00     0.238 A 
ATOM      4  O   UNL     1      19.175  45.273  41.934  1.00  0.00    -0.285 OA
ATOM      5  C   UNL     1      17.894  47.209  42.073  1.00  0.00     0.111 A 
ATOM      6  C   UNL     1      16.858  46.745  41.226  1.00  0.00     0.134 A 
ATOM      7  C   UNL     1      15.754  47.568  40.960  1.00  0.00     0.093 A 
ATOM      8  C   UNL     1      15.665  48.843  41.524  1.00  0.00     0.123 A 
ATOM      9  C   UNL     1      16.684  49.307  42.361  1.00  0.00     0.094 A 
ATOM     10  C   UNL     1      17.794  48.502  42.637  1.00  0.00     0.146 A 
ATOM     11  O   UNL     1      18.749  48.969  43.432  1.00  0.00    -0.452 OA
ENDROOT
BRANCH   1  12
ATOM     12  C   UNL     1      20.840  48.916  44.634  1.00  0.00     0.025 A 
ATOM     13  C   UNL     1      21.425  49.813  46.832  1.00  0.00     0.161 A 
ATOM     14  C   UNL     1      22.684  50.182  46.338  1.00  0.00     0.157 A 
ATOM     15  C   UNL     1      20.503  49.186  45.970  1.00  0.00     0.062 A 
ATOM     16  C   UNL     1      23.016  49.934  45.000  1.00  0.00     0.051 A 
ATOM     17  C   UNL     1      22.099  49.311  44.152  1.00  0.00     0.016 A 
BRANCH  13  18
ATOM     18  O   UNL     1      21.126  50.086  48.176  1.00  0.00    -0.493 OA
ATOM     19  C   UNL     1      20.316  49.262  49.006  1.00  0.00     0.278 C 
ENDBRANCH  13  18
BRANCH  14  20
ATOM     20  O   UNL     1      23.601  50.802  47.186  1.00  0.00    -0.504 OA
ATOM     21  H   UNL     1      23.395  51.689  47.632  1.00  0.00     0.293 HD
ENDBRANCH  14  20
ENDBRANCH   1  12
BRANCH   2  22
ATOM     22  O   UNL     1      21.121  46.211  43.620  1.00  0.00    -0.502 OA
ATOM     23  H   UNL     1      21.209  45.791  44.538  1.00  0.00     0.293 HD
ENDBRANCH   2  22
BRANCH   6  24
ATOM     24  O   UNL     1      16.919  45.476  40.647  1.00  0.00    -0.507 OA
ATOM     25  H   UNL     1      16.452  45.266  39.772  1.00  0.00     0.293 HD
ENDBRANCH   6  24
BRANCH   8  26
ATOM     26  O   UNL     1      14.557  49.641  41.246  1.00  0.00    -0.508 OA
ATOM     27  H   UNL     1      13.957  49.990  41.984  1.00  0.00     0.293 HD
ENDBRANCH   8  26
TORSDOF 6
ENDMDL
MODEL 2
REMARK VINA RESULT:    -6.462      3.124      5.268
REMARK INTER + INTRA:          -8.282
REMARK INTER:                  -8.004
REMARK INTRA:                  -0.278
REMARK UNBOUND:                -0.310
REMARK SMILES COc1cc(-c2oc3cc(O)cc(O)c3c(=O)c2O)ccc1O
REMARK SMILES IDX 6 1 18 2 16 3 17 4 15 5 13 6 12 7 10 8 9 9 8 10 7 11 5 12
REMARK SMILES IDX 3 13 22 14 4 15 21 16 20 17 2 18 1 19 23 20 19 22 14 24
REMARK SMILES IDX 11 26
REMARK H PARENT 23 21 19 23 14 25 11 27
REMARK Flexibility Score: inf
ROOT
ATOM      1  C   UNL     1      18.090  45.834  40.932  1.00  0.00     0.180 A 
ATOM      2  C   UNL     1      16.835  45.201  41.004  1.00  0.00     0.208 A 
ATOM      3  C   UNL     1      16.254  44.709  39.825  1.00  0.00     0.238 A 
ATOM      4  O   UNL     1      15.134  44.130  39.879  1.00  0.00    -0.285 OA
ATOM      5  C   UNL     1      16.925  44.874  38.596  1.00  0.00     0.111 A 
ATOM      6  C   UNL     1      16.407  44.412  37.362  1.00  0.00     0.134 A 
ATOM      7  C   UNL     1      17.131  44.624  36.180  1.00  0.00     0.093 A 
ATOM      8  C   UNL     1      18.360  45.287  36.207  1.00  0.00     0.123 A 
ATOM      9  C   UNL     1      18.877  45.746  37.422  1.00  0.00     0.094 A 
ATOM     10  C   UNL     1      18.171  45.544  38.612  1.00  0.00     0.146 A 
ATOM     11  O   UNL     1      18.687  45.986  39.753  1.00  0.00    -0.452 OA
ENDROOT
BRANCH   1  12
ATOM     12  C   UNL     1      18.776  46.363  42.133  1.00  0.00     0.025 A 
ATOM     13  C   UNL     1      20.563  46.165  43.789  1.00  0.00     0.161 A 
ATOM     14  C   UNL     1      20.070  47.300  44.447  1.00  0.00     0.157 A 
ATOM     15  C   UNL     1      19.906  45.697  42.634  1.00  0.00     0.062 A 
ATOM     16  C   UNL     1      18.931  47.955  43.962  1.00  0.00     0.051 A 
ATOM     17  C   UNL     1      18.284  47.487  42.817  1.00  0.00     0.016 A 
BRANCH  13  18
ATOM     18  O   UNL     1      21.702  45.531  44.311  1.00  0.00    -0.493 OA
ATOM     19  C   UNL     1      21.994  44.146  44.160  1.00  0.00     0.278 C 
ENDBRANCH  13  18
BRANCH  14  20
ATOM     20  O   UNL     1      20.718  47.769  45.590  1.00  0.00    -0.504 OA
ATOM     21  H   UNL     1      20.376  47.551  46.519  1.00  0.00     0.293 HD
ENDBRANCH  14  20
ENDBRANCH   1  12
BRANCH   2  22
ATOM     22  O   UNL     1      16.168  45.093  42.227  1.00  0.00    -0.502 OA
ATOM     23  H   UNL     1      16.343  45.724  43.000  1.00  0.00     0.293 HD
ENDBRANCH   2  22
BRANCH   6  24
ATOM     24  O   UNL     1      15.182  43.745  37.302  1.00  0.00    -0.507 OA
ATOM     25  H   UNL     1      14.996  42.921  37.862  1.00  0.00     0.293 HD
ENDBRANCH   6  24
BRANCH   8  26
ATOM     26  O   UNL     1      19.059  45.486  35.018  1.00  0.00    -0.508 OA
ATOM     27  H   UNL     1      18.579  45.674  34.146  1.00  0.00     0.293 HD
ENDBRANCH   8  26
TORSDOF 6
ENDMDL
MODEL 3
REMARK VINA RESULT:    -6.428      1.341      2.946
REMARK INTER + INTRA:          -8.242
REMARK INTER:                  -8.012
REMARK INTRA:                  -0.230
REMARK UNBOUND:                -0.310
REMARK SMILES COc1cc(-c2oc3cc(O)cc(O)c3c(=O)c2O)ccc1O
REMARK SMILES IDX 6 1 18 2 16 3 17 4 15 5 13 6 12 7 10 8 9 9 8 10 7 11 5 12
REMARK SMILES IDX 3 13 22 14 4 15 21 16 20 17 2 18 1 19 23 20 19 22 14 24
REMARK SMILES IDX 11 26
REMARK H PARENT 23 21 19 23 14 25 11 27
REMARK Flexibility Score: inf
ROOT
ATOM      1  C   UNL     1      20.067  49.078  44.377  1.00  0.00     0.180 A 
ATOM      2  C   UNL     1      18.995  49.893  43.970  1.00  0.00     0.208 A 
ATOM      3  C   UNL     1      18.030  49.361  43.100  1.00  0.00     0.238 A 
ATOM      4  O   UNL     1      17.057  50.079  42.737  1.00  0.00    -0.285 OA
ATOM      5  C   UNL     1      18.163  48.036  42.638  1.00  0.00     0.111 A 
ATOM      6  C   UNL     1      17.238  47.426  41.756  1.00  0.00     0.134 A 
ATOM      7  C   UNL     1      17.446  46.104  41.334  1.00  0.00     0.093 A 
ATOM      8  C   UNL     1      18.559  45.384  41.774  1.00  0.00     0.123 A 
ATOM      9  C   UNL     1      19.476  45.980  42.645  1.00  0.00     0.094 A 
ATOM     10  C   UNL     1      19.286  47.296  43.078  1.00  0.00     0.146 A 
ATOM     11  O   UNL     1      20.169  47.837  43.908  1.00  0.00    -0.452 OA
ENDROOT
BRANCH   1  12
ATOM     12  C   UNL     1      21.115  49.560  45.306  1.00  0.00     0.025 A 
ATOM     13  C   UNL     1      21.736  50.400  47.516  1.00  0.00     0.161 A 
ATOM     14  C   UNL     1      23.062  50.539  47.083  1.00  0.00     0.157 A 
ATOM     15  C   UNL     1      20.764  49.916  46.618  1.00  0.00     0.062 A 
ATOM     16  C   UNL     1      23.411  50.204  45.769  1.00  0.00     0.051 A 
ATOM     17  C   UNL     1      22.444  49.724  44.884  1.00  0.00     0.016 A 
BRANCH  13  18
ATOM     18  O   UNL     1      21.423  50.754  48.838  1.00  0.00    -0.493 OA
ATOM     19  C   UNL     1      21.277  49.827  49.909  1.00  0.00     0.278 C 
ENDBRANCH  13  18
BRANCH  14  20
ATOM     20  O   UNL     1      24.029  51.016  47.968  1.00  0.00    -0.504 OA
ATOM     21  H   UNL     1      23.813  51.732  48.653  1.00  0.00     0.293 HD
ENDBRANCH  14  20
ENDBRANCH   1  12
BRANCH   2  22
ATOM     22  O   UNL     1      18.911  51.219  44.403  1.00  0.00    -0.502 OA
ATOM     23  H   UNL     1      18.436  51.483  45.258  1.00  0.00     0.293 HD
ENDBRANCH   2  22
BRANCH   6  24
ATOM     24  O   UNL     1      16.117  48.120  41.300  1.00  0.00    -0.507 OA
ATOM     25  H   UNL     1      16.134  49.123  41.154  1.00  0.00     0.293 HD
ENDBRANCH   6  24
BRANCH   8  26
ATOM     26  O   UNL     1      18.744  44.073  41.338  1.00  0.00    -0.508 OA
ATOM     27  H   UNL     1      18.188  43.681  40.587  1.00  0.00     0.293 HD
ENDBRANCH   8  26
TORSDOF 6
ENDMDL
MODEL 4
REMARK VINA RESULT:    -6.351      3.079      5.104
REMARK INTER + INTRA:          -8.147
REMARK INTER:                  -7.803
REMARK INTRA:                  -0.344
REMARK UNBOUND:                -0.310
REMARK SMILES COc1cc(-c2oc3cc(O)cc(O)c3c(=O)c2O)ccc1O
REMARK SMILES IDX 6 1 18 2 16 3 17 4 15 5 13 6 12 7 10 8 9 9 8 10 7 11 5 12
REMARK SMILES IDX 3 13 22 14 4 15 21 16 20 17 2 18 1 19 23 20 19 22 14 24
REMARK SMILES IDX 11 26
REMARK H PARENT 23 21 19 23 14 25 11 27
REMARK Flexibility Score: inf
ROOT
ATOM      1  C   UNL     1      18.092  45.807  40.895  1.00  0.00     0.180 A 
ATOM      2  C   UNL     1      16.829  45.191  40.971  1.00  0.00     0.208 A 
ATOM      3  C   UNL     1      16.235  44.714  39.792  1.00  0.00     0.238 A 
ATOM      4  O   UNL     1      15.107  44.151  39.849  1.00  0.00    -0.285 OA
ATOM      5  C   UNL     1      16.901  44.878  38.560  1.00  0.00     0.111 A 
ATOM      6  C   UNL     1      16.370  44.430  37.326  1.00  0.00     0.134 A 
ATOM      7  C   UNL     1      17.091  44.639  36.142  1.00  0.00     0.093 A 
ATOM      8  C   UNL     1      18.328  45.285  36.166  1.00  0.00     0.123 A 
ATOM      9  C   UNL     1      18.859  45.730  37.381  1.00  0.00     0.094 A 
ATOM     10  C   UNL     1      18.156  45.530  38.574  1.00  0.00     0.146 A 
ATOM     11  O   UNL     1      18.684  45.958  39.714  1.00  0.00    -0.452 OA
ENDROOT
BRANCH   1  12
ATOM     12  C   UNL     1      18.791  46.320  42.096  1.00  0.00     0.025 A 
ATOM     13  C   UNL     1      19.065  48.073  43.779  1.00  0.00     0.161 A 
ATOM     14  C   UNL     1      20.132  47.358  44.339  1.00  0.00     0.157 A 
ATOM     15  C   UNL     1      18.402  47.550  42.651  1.00  0.00     0.062 A 
ATOM     16  C   UNL     1      20.537  46.142  43.776  1.00  0.00     0.051 A 
ATOM     17  C   UNL     1      19.876  45.628  42.659  1.00  0.00     0.016 A 
BRANCH  13  18
ATOM     18  O   UNL     1      18.694  49.292  44.366  1.00  0.00    -0.493 OA
ATOM     19  C   UNL     1      18.292  50.449  43.639  1.00  0.00     0.278 C 
ENDBRANCH  13  18
BRANCH  14  20
ATOM     20  O   UNL     1      20.791  47.870  45.457  1.00  0.00    -0.504 OA
ATOM     21  H   UNL     1      20.291  48.365  46.187  1.00  0.00     0.293 HD
ENDBRANCH  14  20
ENDBRANCH   1  12
BRANCH   2  22
ATOM     22  O   UNL     1      16.167  45.085  42.197  1.00  0.00    -0.502 OA
ATOM     23  H   UNL     1      15.825  45.894  42.703  1.00  0.00     0.293 HD
ENDBRANCH   2  22
BRANCH   6  24
ATOM     24  O   UNL     1      15.136  43.780  37.270  1.00  0.00    -0.507 OA
ATOM     25  H   UNL     1      14.647  43.640  36.393  1.00  0.00     0.293 HD
ENDBRANCH   6  24
BRANCH   8  26
ATOM     26  O   UNL     1      19.024  45.482  34.974  1.00  0.00    -0.508 OA
ATOM     27  H   UNL     1      18.540  45.601  34.092  1.00  0.00     0.293 HD
ENDBRANCH   8  26
TORSDOF 6
ENDMDL
MODEL 5
REMARK VINA RESULT:    -6.284      1.356      2.230
REMARK INTER + INTRA:          -8.064
REMARK INTER:                  -7.674
REMARK INTRA:                  -0.390
REMARK UNBOUND:                -0.310
REMARK SMILES COc1cc(-c2oc3cc(O)cc(O)c3c(=O)c2O)ccc1O
REMARK SMILES IDX 6 1 18 2 16 3 17 4 15 5 13 6 12 7 10 8 9 9 8 10 7 11 5 12
REMARK SMILES IDX 3 13 22 14 4 15 21 16 20 17 2 18 1 19 23 20 19 22 14 24
REMARK SMILES IDX 11 26
REMARK H PARENT 23 21 19 23 14 25 11 27
REMARK Flexibility Score: inf
ROOT
ATOM      1  C   UNL     1      19.101  48.380  45.110  1.00  0.00     0.180 A 
ATOM      2  C   UNL     1      19.733  47.377  44.350  1.00  0.00     0.208 A 
ATOM      3  C   UNL     1      19.188  47.025  43.105  1.00  0.00     0.238 A 
ATOM      4  O   UNL     1      19.752  46.136  42.410  1.00  0.00    -0.285 OA
ATOM      5  C   UNL     1      18.017  47.664  42.651  1.00  0.00     0.111 A 
ATOM      6  C   UNL     1      17.402  47.365  41.411  1.00  0.00     0.134 A 
ATOM      7  C   UNL     1      16.231  48.039  41.034  1.00  0.00     0.093 A 
ATOM      8  C   UNL     1      15.663  49.002  41.871  1.00  0.00     0.123 A 
ATOM      9  C   UNL     1      16.266  49.302  43.097  1.00  0.00     0.094 A 
ATOM     10  C   UNL     1      17.434  48.643  43.490  1.00  0.00     0.146 A 
ATOM     11  O   UNL     1      17.988  48.950  44.657  1.00  0.00    -0.452 OA
ENDROOT
BRANCH   1  12
ATOM     12  C   UNL     1      19.624  48.819  46.424  1.00  0.00     0.025 A 
ATOM     13  C   UNL     1      21.162  50.217  47.712  1.00  0.00     0.161 A 
ATOM     14  C   UNL     1      20.687  49.636  48.896  1.00  0.00     0.157 A 
ATOM     15  C   UNL     1      20.630  49.798  46.476  1.00  0.00     0.062 A 
ATOM     16  C   UNL     1      19.699  48.645  48.847  1.00  0.00     0.051 A 
ATOM     17  C   UNL     1      19.175  48.234  47.620  1.00  0.00     0.016 A 
BRANCH  13  18
ATOM     18  O   UNL     1      22.159  51.201  47.801  1.00  0.00    -0.493 OA
ATOM     19  C   UNL     1      23.550  50.959  47.622  1.00  0.00     0.278 C 
ENDBRANCH  13  18
BRANCH  14  20
ATOM     20  O   UNL     1      21.209  50.048  50.122  1.00  0.00    -0.504 OA
ATOM     21  H   UNL     1      21.289  49.410  50.905  1.00  0.00     0.293 HD
ENDBRANCH  14  20
ENDBRANCH   1  12
BRANCH   2  22
ATOM     22  O   UNL     1      20.865  46.725  44.844  1.00  0.00    -0.502 OA
ATOM     23  H   UNL     1      21.345  47.028  45.683  1.00  0.00     0.293 HD
ENDBRANCH   2  22
BRANCH   6  24
ATOM     24  O   UNL     1      17.945  46.408  40.553  1.00  0.00    -0.507 OA
ATOM     25  H   UNL     1      18.025  46.569  39.556  1.00  0.00     0.293 HD
ENDBRANCH   6  24
BRANCH   8  26
ATOM     26  O   UNL     1      14.498  49.656  41.474  1.00  0.00    -0.508 OA
ATOM     27  H   UNL     1      14.235  50.553  41.865  1.00  0.00     0.293 HD
ENDBRANCH   8  26
TORSDOF 6
ENDMDL
MODEL 6
REMARK VINA RESULT:    -6.223      3.036      5.183
REMARK INTER + INTRA:          -7.988
REMARK INTER:                  -7.776
REMARK INTRA:                  -0.211
REMARK UNBOUND:                -0.310
REMARK SMILES COc1cc(-c2oc3cc(O)cc(O)c3c(=O)c2O)ccc1O
REMARK SMILES IDX 6 1 18 2 16 3 17 4 15 5 13 6 12 7 10 8 9 9 8 10 7 11 5 12
REMARK SMILES IDX 3 13 22 14 4 15 21 16 20 17 2 18 1 19 23 20 19 22 14 24
REMARK SMILES IDX 11 26
REMARK H PARENT 23 21 19 23 14 25 11 27
REMARK Flexibility Score: inf
ROOT
ATOM      1  C   UNL     1      21.056  50.128  47.469  1.00  0.00     0.180 A 
ATOM      2  C   UNL     1      20.120  49.414  48.240  1.00  0.00     0.208 A 
ATOM      3  C   UNL     1      19.449  48.327  47.657  1.00  0.00     0.238 A 
ATOM      4  O   UNL     1      18.615  47.672  48.341  1.00  0.00    -0.285 OA
ATOM      5  C   UNL     1      19.709  47.987  46.314  1.00  0.00     0.111 A 
ATOM      6  C   UNL     1      19.073  46.910  45.650  1.00  0.00     0.134 A 
ATOM      7  C   UNL     1      19.380  46.641  44.308  1.00  0.00     0.093 A 
ATOM      8  C   UNL     1      20.307  47.425  43.618  1.00  0.00     0.123 A 
ATOM      9  C   UNL     1      20.939  48.491  44.268  1.00  0.00     0.094 A 
ATOM     10  C   UNL     1      20.647  48.775  45.606  1.00  0.00     0.146 A 
ATOM     11  O   UNL     1      21.265  49.788  46.200  1.00  0.00    -0.452 OA
ENDROOT
BRANCH   1  12
ATOM     12  C   UNL     1      21.817  51.275  48.018  1.00  0.00     0.025 A 
ATOM     13  C   UNL     1      23.956  52.243  48.697  1.00  0.00     0.161 A 
ATOM     14  C   UNL     1      23.291  53.405  49.112  1.00  0.00     0.157 A 
ATOM     15  C   UNL     1      23.211  51.177  48.157  1.00  0.00     0.062 A 
ATOM     16  C   UNL     1      21.898  53.498  48.995  1.00  0.00     0.051 A 
ATOM     17  C   UNL     1      21.165  52.439  48.458  1.00  0.00     0.016 A 
BRANCH  13  18
ATOM     18  O   UNL     1      25.351  52.184  48.839  1.00  0.00    -0.493 OA
ATOM     19  C   UNL     1      26.027  51.552  49.921  1.00  0.00     0.278 C 
ENDBRANCH  13  18
BRANCH  14  20
ATOM     20  O   UNL     1      24.024  54.464  49.647  1.00  0.00    -0.504 OA
ATOM     21  H   UNL     1      23.683  55.418  49.605  1.00  0.00     0.293 HD
ENDBRANCH  14  20
ENDBRANCH   1  12
BRANCH   2  22
ATOM     22  O   UNL     1      19.843  49.801  49.553  1.00  0.00    -0.502 OA
ATOM     23  H   UNL     1      20.540  49.768  50.289  1.00  0.00     0.293 HD
ENDBRANCH   2  22
BRANCH   6  24
ATOM     24  O   UNL     1      18.143  46.108  46.312  1.00  0.00    -0.507 OA
ATOM     25  H   UNL     1      17.151  46.312  46.289  1.00  0.00     0.293 HD
ENDBRANCH   6  24
BRANCH   8  26
ATOM     26  O   UNL     1      20.593  47.138  42.285  1.00  0.00    -0.508 OA
ATOM     27  H   UNL     1      19.929  46.651  41.694  1.00  0.00     0.293 HD
ENDBRANCH   8  26
TORSDOF 6
ENDMDL
MODEL 7
REMARK VINA RESULT:    -6.206      2.506      7.463
REMARK INTER + INTRA:          -7.967
REMARK INTER:                  -7.692
REMARK INTRA:                  -0.275
REMARK UNBOUND:                -0.310
REMARK SMILES COc1cc(-c2oc3cc(O)cc(O)c3c(=O)c2O)ccc1O
REMARK SMILES IDX 6 1 18 2 16 3 17 4 15 5 13 6 12 7 10 8 9 9 8 10 7 11 5 12
REMARK SMILES IDX 3 13 22 14 4 15 21 16 20 17 2 18 1 19 23 20 19 22 14 24
REMARK SMILES IDX 11 26
REMARK H PARENT 23 21 19 23 14 25 11 27
REMARK Flexibility Score: inf
ROOT
ATOM      1  C   UNL     1      20.251  48.731  46.015  1.00  0.00     0.180 A 
ATOM      2  C   UNL     1      19.255  49.000  46.972  1.00  0.00     0.208 A 
ATOM      3  C   UNL     1      19.543  49.889  48.020  1.00  0.00     0.238 A 
ATOM      4  O   UNL     1      18.655  50.147  48.878  1.00  0.00    -0.285 OA
ATOM      5  C   UNL     1      20.822  50.476  48.103  1.00  0.00     0.111 A 
ATOM      6  C   UNL     1      21.196  51.378  49.129  1.00  0.00     0.134 A 
ATOM      7  C   UNL     1      22.493  51.912  49.149  1.00  0.00     0.093 A 
ATOM      8  C   UNL     1      23.421  51.562  48.166  1.00  0.00     0.123 A 
ATOM      9  C   UNL     1      23.059  50.672  47.150  1.00  0.00     0.094 A 
ATOM     10  C   UNL     1      21.771  50.129  47.113  1.00  0.00     0.146 A 
ATOM     11  O   UNL     1      21.451  49.290  46.135  1.00  0.00    -0.452 OA
ENDROOT
BRANCH   1  12
ATOM     12  C   UNL     1      20.017  47.818  44.872  1.00  0.00     0.025 A 
ATOM     13  C   UNL     1      20.574  45.756  43.683  1.00  0.00     0.161 A 
ATOM     14  C   UNL     1      19.648  46.089  42.685  1.00  0.00     0.157 A 
ATOM     15  C   UNL     1      20.759  46.630  44.772  1.00  0.00     0.062 A 
ATOM     16  C   UNL     1      18.921  47.283  42.770  1.00  0.00     0.051 A 
ATOM     17  C   UNL     1      19.108  48.145  43.852  1.00  0.00     0.016 A 
BRANCH  13  18
ATOM     18  O   UNL     1      21.290  44.555  43.558  1.00  0.00    -0.493 OA
ATOM     19  C   UNL     1      22.275  44.103  44.481  1.00  0.00     0.278 C 
ENDBRANCH  13  18
BRANCH  14  20
ATOM     20  O   UNL     1      19.460  45.227  41.606  1.00  0.00    -0.504 OA
ATOM     21  H   UNL     1      19.398  44.223  41.734  1.00  0.00     0.293 HD
ENDBRANCH  14  20
ENDBRANCH   1  12
BRANCH   2  22
ATOM     22  O   UNL     1      18.011  48.369  46.895  1.00  0.00    -0.502 OA
ATOM     23  H   UNL     1      17.537  48.207  46.014  1.00  0.00     0.293 HD
ENDBRANCH   2  22
BRANCH   6  24
ATOM     24  O   UNL     1      20.290  51.747  50.125  1.00  0.00    -0.507 OA
ATOM     25  H   UNL     1      20.158  52.715  50.394  1.00  0.00     0.293 HD
ENDBRANCH   6  24
BRANCH   8  26
ATOM     26  O   UNL     1      24.704  52.105  48.209  1.00  0.00    -0.508 OA
ATOM     27  H   UNL     1      25.310  51.971  49.010  1.00  0.00     0.293 HD
ENDBRANCH   8  26
TORSDOF 6
ENDMDL
MODEL 8
REMARK VINA RESULT:    -6.166      1.426      7.015
REMARK INTER + INTRA:          -7.917
REMARK INTER:                  -7.666
REMARK INTRA:                  -0.252
REMARK UNBOUND:                -0.310
REMARK SMILES COc1cc(-c2oc3cc(O)cc(O)c3c(=O)c2O)ccc1O
REMARK SMILES IDX 6 1 18 2 16 3 17 4 15 5 13 6 12 7 10 8 9 9 8 10 7 11 5 12
REMARK SMILES IDX 3 13 22 14 4 15 21 16 20 17 2 18 1 19 23 20 19 22 14 24
REMARK SMILES IDX 11 26
REMARK H PARENT 23 21 19 23 14 25 11 27
REMARK Flexibility Score: inf
ROOT
ATOM      1  C   UNL     1      20.407  48.356  44.412  1.00  0.00     0.180 A 
ATOM      2  C   UNL     1      21.674  48.895  44.118  1.00  0.00     0.208 A 
ATOM      3  C   UNL     1      22.360  49.600  45.120  1.00  0.00     0.238 A 
ATOM      4  O   UNL     1      23.501  50.079  44.872  1.00  0.00    -0.285 OA
ATOM      5  C   UNL     1      21.762  49.770  46.386  1.00  0.00     0.111 A 
ATOM      6  C   UNL     1      22.384  50.471  47.448  1.00  0.00     0.134 A 
ATOM      7  C   UNL     1      21.719  50.605  48.676  1.00  0.00     0.093 A 
ATOM      8  C   UNL     1      20.449  50.055  48.862  1.00  0.00     0.123 A 
ATOM      9  C   UNL     1      19.830  49.362  47.817  1.00  0.00     0.094 A 
ATOM     10  C   UNL     1      20.476  49.216  46.586  1.00  0.00     0.146 A 
ATOM     11  O   UNL     1      19.868  48.550  45.612  1.00  0.00    -0.452 OA
ENDROOT
BRANCH   1  12
ATOM     12  C   UNL     1      19.630  47.585  43.414  1.00  0.00     0.025 A 
ATOM     13  C   UNL     1      17.602  47.331  42.072  1.00  0.00     0.161 A 
ATOM     14  C   UNL     1      18.095  46.120  41.568  1.00  0.00     0.157 A 
ATOM     15  C   UNL     1      18.373  48.057  43.003  1.00  0.00     0.062 A 
ATOM     16  C   UNL     1      19.339  45.636  41.992  1.00  0.00     0.051 A 
ATOM     17  C   UNL     1      20.099  46.359  42.913  1.00  0.00     0.016 A 
BRANCH  13  18
ATOM     18  O   UNL     1      16.347  47.779  41.631  1.00  0.00    -0.493 OA
ATOM     19  C   UNL     1      15.962  49.147  41.547  1.00  0.00     0.278 C 
ENDBRANCH  13  18
BRANCH  14  20
ATOM     20  O   UNL     1      17.337  45.399  40.647  1.00  0.00    -0.504 OA
ATOM     21  H   UNL     1      16.323  45.419  40.663  1.00  0.00     0.293 HD
ENDBRANCH  14  20
ENDBRANCH   1  12
BRANCH   2  22
ATOM     22  O   UNL     1      22.223  48.754  42.842  1.00  0.00    -0.502 OA
ATOM     23  H   UNL     1      23.127  48.325  42.683  1.00  0.00     0.293 HD
ENDBRANCH   2  22
BRANCH   6  24
ATOM     24  O   UNL     1      23.652  51.031  47.293  1.00  0.00    -0.507 OA
ATOM     25  H   UNL     1      24.421  50.507  46.890  1.00  0.00     0.293 HD
ENDBRANCH   6  24
BRANCH   8  26
ATOM     26  O   UNL     1      19.810  50.205  50.092  1.00  0.00    -0.508 OA
ATOM     27  H   UNL     1      19.495  49.404  50.626  1.00  0.00     0.293 HD
ENDBRANCH   8  26
TORSDOF 6
ENDMDL
MODEL 9
REMARK VINA RESULT:    -6.131      3.151      6.995
REMARK INTER + INTRA:          -7.875
REMARK INTER:                  -7.469
REMARK INTRA:                  -0.405
REMARK UNBOUND:                -0.310
REMARK SMILES COc1cc(-c2oc3cc(O)cc(O)c3c(=O)c2O)ccc1O
REMARK SMILES IDX 6 1 18 2 16 3 17 4 15 5 13 6 12 7 10 8 9 9 8 10 7 11 5 12
REMARK SMILES IDX 3 13 22 14 4 15 21 16 20 17 2 18 1 19 23 20 19 22 14 24
REMARK SMILES IDX 11 26
REMARK H PARENT 23 21 19 23 14 25 11 27
REMARK Flexibility Score: inf
ROOT
ATOM      1  C   UNL     1      17.099  48.749  44.715  1.00  0.00     0.180 A 
ATOM      2  C   UNL     1      17.833  49.795  45.305  1.00  0.00     0.208 A 
ATOM      3  C   UNL     1      19.230  49.681  45.389  1.00  0.00     0.238 A 
ATOM      4  O   UNL     1      19.899  50.617  45.906  1.00  0.00    -0.285 OA
ATOM      5  C   UNL     1      19.864  48.520  44.903  1.00  0.00     0.111 A 
ATOM      6  C   UNL     1      21.266  48.324  44.953  1.00  0.00     0.134 A 
ATOM      7  C   UNL     1      21.821  47.136  44.457  1.00  0.00     0.093 A 
ATOM      8  C   UNL     1      21.005  46.142  43.912  1.00  0.00     0.123 A 
ATOM      9  C   UNL     1      19.620  46.329  43.859  1.00  0.00     0.094 A 
ATOM     10  C   UNL     1      19.047  47.507  44.348  1.00  0.00     0.146 A 
ATOM     11  O   UNL     1      17.730  47.661  44.281  1.00  0.00    -0.452 OA
ENDROOT
BRANCH   1  12
ATOM     12  C   UNL     1      15.626  48.803  44.574  1.00  0.00     0.025 A 
ATOM     13  C   UNL     1      13.411  48.211  45.425  1.00  0.00     0.161 A 
ATOM     14  C   UNL     1      12.826  48.830  44.312  1.00  0.00     0.157 A 
ATOM     15  C   UNL     1      14.815  48.195  45.546  1.00  0.00     0.062 A 
ATOM     16  C   UNL     1      13.632  49.419  43.330  1.00  0.00     0.051 A 
ATOM     17  C   UNL     1      15.022  49.401  43.456  1.00  0.00     0.016 A 
BRANCH  13  18
ATOM     18  O   UNL     1      12.571  47.623  46.383  1.00  0.00    -0.493 OA
ATOM     19  C   UNL     1      12.411  48.098  47.716  1.00  0.00     0.278 C 
ENDBRANCH  13  18
BRANCH  14  20
ATOM     20  O   UNL     1      11.437  48.850  44.187  1.00  0.00    -0.504 OA
ATOM     21  H   UNL     1      10.965  49.559  43.637  1.00  0.00     0.293 HD
ENDBRANCH  14  20
ENDBRANCH   1  12
BRANCH   2  22
ATOM     22  O   UNL     1      17.176  50.913  45.824  1.00  0.00    -0.502 OA
ATOM     23  H   UNL     1      17.520  51.420  46.632  1.00  0.00     0.293 HD
ENDBRANCH   2  22
BRANCH   6  24
ATOM     24  O   UNL     1      22.108  49.298  45.491  1.00  0.00    -0.507 OA
ATOM     25  H   UNL     1      22.454  49.238  46.442  1.00  0.00     0.293 HD
ENDBRANCH   6  24
BRANCH   8  26
ATOM     26  O   UNL     1      21.581  44.970  43.426  1.00  0.00    -0.508 OA
ATOM     27  H   UNL     1      21.217  44.058  43.675  1.00  0.00     0.293 HD
ENDBRANCH   8  26
TORSDOF 6
ENDMDL
