MODEL 1
REMARK VINA RESULT:     5.979      0.000      0.000
REMARK INTER + INTRA:           9.031
REMARK INTER:                   9.824
REMARK INTRA:                  -0.793
REMARK UNBOUND:                -0.793
REMARK SMILES C[C@@H]1O[C@H](OC[C@@H]2O[C@H](Oc3c(-c4ccc(O)c(O)c4)oc4cc(O)cc(O)c4c3=O)[C@@H](O)[C@H](O)[C@@H]2O)[C@@H](O)[C@@H](O)[C@@H]1O
REMARK SMILES IDX 7 1 36 2 34 3 32 4 9 5 8 6 6 7 5 8 4 9 1 10 2 11 42 12 3 13
REMARK SMILES IDX 40 14 38 15 43 16 41 18 39 20 37 22 35 24 10 26 11 27 12 28
REMARK SMILES IDX 30 29 21 30 29 31 31 32 22 33 27 34 23 35 26 36 24 37 13 38
REMARK SMILES IDX 20 39 14 40 18 41 15 42 16 43 19 44 17 46 28 48 25 50 33 52
REMARK H PARENT 43 17 41 19 39 21 37 23 35 25 19 45 17 47 28 49 25 51 33 53
REMARK Flexibility Score: inf
ROOT
ATOM      1  C   UNL     1     -13.253  10.843   5.975  1.00  0.00     0.180 C 
ATOM      2  C   UNL     1     -13.389  11.853   7.144  1.00  0.00     0.177 C 
ATOM      3  C   UNL     1     -12.652  11.376   8.396  1.00  0.00     0.180 C 
ATOM      4  C   UNL     1     -11.213  10.960   8.066  1.00  0.00     0.214 C 
ATOM      5  C   UNL     1     -11.124  10.057   6.811  1.00  0.00     0.339 C 
ATOM      6  O   UNL     1     -11.908  10.483   5.694  1.00  0.00    -0.332 OA
ENDROOT
BRANCH   1   7
ATOM      7  C   UNL     1     -14.201   9.615   6.057  1.00  0.00     0.198 C 
BRANCH   7   8
ATOM      8  O   UNL     1     -14.468   9.106   4.763  1.00  0.00    -0.347 OA
BRANCH   8   9
ATOM      9  C   UNL     1     -13.274   8.947   4.010  1.00  0.00     0.281 C 
ATOM     10  C   UNL     1     -14.837   6.271   4.315  1.00  0.00     0.041 C 
ATOM     11  C   UNL     1     -13.595   6.626   3.473  1.00  0.00     0.150 C 
ATOM     12  C   UNL     1     -13.908   6.963   1.995  1.00  0.00     0.174 C 
ATOM     13  O   UNL     1     -12.770   7.615   4.095  1.00  0.00    -0.344 OA
ATOM     14  C   UNL     1     -14.470   8.387   1.880  1.00  0.00     0.179 C 
ATOM     15  C   UNL     1     -13.501   9.387   2.553  1.00  0.00     0.202 C 
BRANCH  12  16
ATOM     16  O   UNL     1     -14.824   6.044   1.450  1.00  0.00    -0.388 OA
ATOM     17  H   UNL     1     -15.400   5.731   2.206  1.00  0.00     0.211 HD
ENDBRANCH  12  16
BRANCH  14  18
ATOM     18  O   UNL     1     -14.667   8.737   0.532  1.00  0.00    -0.387 OA
ATOM     19  H   UNL     1     -15.206   8.013   0.121  1.00  0.00     0.211 HD
ENDBRANCH  14  18
BRANCH  15  20
ATOM     20  O   UNL     1     -12.251   9.464   1.908  1.00  0.00    -0.385 OA
ATOM     21  H   UNL     1     -12.389   9.706   0.948  1.00  0.00     0.211 HD
ENDBRANCH  15  20
ENDBRANCH   8   9
ENDBRANCH   7   8
ENDBRANCH   1   7
BRANCH   2  22
ATOM     22  O   UNL     1     -14.728  12.117   7.468  1.00  0.00    -0.387 OA
ATOM     23  H   UNL     1     -15.284  11.707   6.752  1.00  0.00     0.211 HD
ENDBRANCH   2  22
BRANCH   3  24
ATOM     24  O   UNL     1     -13.365  10.376   9.088  1.00  0.00    -0.387 OA
ATOM     25  H   UNL     1     -13.679  10.753   9.945  1.00  0.00     0.211 HD
ENDBRANCH   3  24
BRANCH   5  26
ATOM     26  O   UNL     1     -11.385   8.679   7.142  1.00  0.00    -0.454 OA
BRANCH  26  27
ATOM     27  C   UNL     1     -10.830   7.573   6.475  1.00  0.00     0.214 A 
ATOM     28  C   UNL     1      -9.592   7.705   5.801  1.00  0.00     0.180 A 
ATOM     29  C   UNL     1     -11.468   6.314   6.454  1.00  0.00     0.239 A 
ATOM     30  O   UNL     1      -9.134   6.695   5.066  1.00  0.00    -0.452 OA
ATOM     31  C   UNL     1     -10.951   5.276   5.649  1.00  0.00     0.111 A 
ATOM     32  O   UNL     1     -12.465   6.112   7.196  1.00  0.00    -0.285 OA
ATOM     33  C   UNL     1      -9.752   5.526   4.955  1.00  0.00     0.146 A 
ATOM     34  C   UNL     1     -11.573   4.013   5.527  1.00  0.00     0.134 A 
ATOM     35  C   UNL     1      -9.184   4.522   4.160  1.00  0.00     0.094 A 
ATOM     36  C   UNL     1     -10.996   3.029   4.715  1.00  0.00     0.093 A 
ATOM     37  C   UNL     1      -9.809   3.281   4.036  1.00  0.00     0.123 A 
BRANCH  28  38
ATOM     38  C   UNL     1      -8.720   8.911   5.882  1.00  0.00     0.025 A 
ATOM     39  C   UNL     1      -7.982   9.217   7.046  1.00  0.00     0.062 A 
ATOM     40  C   UNL     1      -8.498   9.685   4.726  1.00  0.00     0.016 A 
ATOM     41  C   UNL     1      -7.084  10.293   7.060  1.00  0.00     0.158 A 
ATOM     42  C   UNL     1      -7.600  10.758   4.736  1.00  0.00     0.051 A 
ATOM     43  C   UNL     1      -6.889  11.065   5.896  1.00  0.00     0.157 A 
BRANCH  41  44
ATOM     44  O   UNL     1      -6.376  10.555   8.235  1.00  0.00    -0.504 OA
ATOM     45  H   UNL     1      -5.553  11.151   8.244  1.00  0.00     0.293 HD
ENDBRANCH  41  44
BRANCH  43  46
ATOM     46  O   UNL     1      -5.965  12.117   5.892  1.00  0.00    -0.504 OA
ATOM     47  H   UNL     1      -6.033  12.895   6.537  1.00  0.00     0.293 HD
ENDBRANCH  43  46
ENDBRANCH  28  38
BRANCH  34  48
ATOM     48  O   UNL     1     -12.752   3.731   6.211  1.00  0.00    -0.507 OA
ATOM     49  H   UNL     1     -12.733   3.261   7.094  1.00  0.00     0.293 HD
ENDBRANCH  34  48
BRANCH  37  50
ATOM     50  O   UNL     1      -9.241   2.282   3.245  1.00  0.00    -0.508 OA
ATOM     51  H   UNL     1      -8.717   2.507   2.404  1.00  0.00     0.293 HD
ENDBRANCH  37  50
ENDBRANCH  26  27
ENDBRANCH   5  26
BRANCH   4  52
ATOM     52  O   UNL     1     -10.437  12.125   7.869  1.00  0.00    -0.384 OA
ATOM     53  H   UNL     1      -9.741  11.894   7.202  1.00  0.00     0.211 HD
ENDBRANCH   4  52
TORSDOF 16
ENDMDL
MODEL 2
REMARK VINA RESULT:     6.499      1.922      5.970
REMARK INTER + INTRA:           9.885
REMARK INTER:                   9.733
REMARK INTRA:                   0.152
REMARK UNBOUND:                -0.793
REMARK SMILES C[C@@H]1O[C@H](OC[C@@H]2O[C@H](Oc3c(-c4ccc(O)c(O)c4)oc4cc(O)cc(O)c4c3=O)[C@@H](O)[C@H](O)[C@@H]2O)[C@@H](O)[C@@H](O)[C@@H]1O
REMARK SMILES IDX 7 1 36 2 34 3 32 4 9 5 8 6 6 7 5 8 4 9 1 10 2 11 42 12 3 13
REMARK SMILES IDX 40 14 38 15 43 16 41 18 39 20 37 22 35 24 10 26 11 27 12 28
REMARK SMILES IDX 30 29 21 30 29 31 31 32 22 33 27 34 23 35 26 36 24 37 13 38
REMARK SMILES IDX 20 39 14 40 18 41 15 42 16 43 19 44 17 46 28 48 25 50 33 52
REMARK H PARENT 43 17 41 19 39 21 37 23 35 25 19 45 17 47 28 49 25 51 33 53
REMARK Flexibility Score: inf
ROOT
ATOM      1  C   UNL     1     -13.923   7.568   5.701  1.00  0.00     0.180 C 
ATOM      2  C   UNL     1     -14.200   6.045   5.604  1.00  0.00     0.177 C 
ATOM      3  C   UNL     1     -12.916   5.247   5.372  1.00  0.00     0.180 C 
ATOM      4  C   UNL     1     -11.830   5.643   6.381  1.00  0.00     0.214 C 
ATOM      5  C   UNL     1     -11.687   7.177   6.536  1.00  0.00     0.339 C 
ATOM      6  O   UNL     1     -12.916   7.899   6.647  1.00  0.00    -0.332 OA
ENDROOT
BRANCH   1   7
ATOM      7  C   UNL     1     -13.729   8.287   4.338  1.00  0.00     0.198 C 
BRANCH   7   8
ATOM      8  O   UNL     1     -14.897   9.005   3.984  1.00  0.00    -0.347 OA
BRANCH   8   9
ATOM      9  C   UNL     1     -14.593  10.122   3.162  1.00  0.00     0.281 C 
ATOM     10  C   UNL     1     -14.945  10.922   6.151  1.00  0.00     0.041 C 
ATOM     11  C   UNL     1     -14.467  11.741   4.936  1.00  0.00     0.150 C 
ATOM     12  C   UNL     1     -12.927  11.835   4.803  1.00  0.00     0.174 C 
ATOM     13  O   UNL     1     -15.095  11.337   3.716  1.00  0.00    -0.344 OA
ATOM     14  C   UNL     1     -12.360  10.532   4.226  1.00  0.00     0.179 C 
ATOM     15  C   UNL     1     -13.078  10.191   2.899  1.00  0.00     0.202 C 
BRANCH  12  16
ATOM     16  O   UNL     1     -12.328  12.106   6.047  1.00  0.00    -0.388 OA
ATOM     17  H   UNL     1     -11.357  12.267   5.869  1.00  0.00     0.211 HD
ENDBRANCH  12  16
BRANCH  14  18
ATOM     18  O   UNL     1     -10.975  10.643   4.011  1.00  0.00    -0.387 OA
ATOM     19  H   UNL     1     -10.548   9.872   4.466  1.00  0.00     0.211 HD
ENDBRANCH  14  18
BRANCH  15  20
ATOM     20  O   UNL     1     -12.842  11.140   1.885  1.00  0.00    -0.385 OA
ATOM     21  H   UNL     1     -11.862  11.327   1.829  1.00  0.00     0.211 HD
ENDBRANCH  15  20
ENDBRANCH   8   9
ENDBRANCH   7   8
ENDBRANCH   1   7
BRANCH   2  22
ATOM     22  O   UNL     1     -15.125   5.735   4.595  1.00  0.00    -0.387 OA
ATOM     23  H   UNL     1     -15.303   4.758   4.657  1.00  0.00     0.211 HD
ENDBRANCH   2  22
BRANCH   3  24
ATOM     24  O   UNL     1     -12.473   5.321   4.037  1.00  0.00    -0.387 OA
ATOM     25  H   UNL     1     -13.184   5.742   3.495  1.00  0.00     0.211 HD
ENDBRANCH   3  24
BRANCH   5  26
ATOM     26  O   UNL     1     -10.845   7.727   5.502  1.00  0.00    -0.454 OA
BRANCH  26  27
ATOM     27  C   UNL     1      -9.576   8.291   5.716  1.00  0.00     0.214 A 
ATOM     28  C   UNL     1      -8.413   7.568   5.355  1.00  0.00     0.180 A 
ATOM     29  C   UNL     1      -9.413   9.575   6.281  1.00  0.00     0.239 A 
ATOM     30  O   UNL     1      -7.215   8.051   5.675  1.00  0.00    -0.452 OA
ATOM     31  C   UNL     1      -8.121  10.039   6.614  1.00  0.00     0.111 A 
ATOM     32  O   UNL     1     -10.419  10.316   6.435  1.00  0.00    -0.285 OA
ATOM     33  C   UNL     1      -7.029   9.215   6.284  1.00  0.00     0.146 A 
ATOM     34  C   UNL     1      -7.889  11.282   7.242  1.00  0.00     0.134 A 
ATOM     35  C   UNL     1      -5.725   9.638   6.572  1.00  0.00     0.094 A 
ATOM     36  C   UNL     1      -6.578  11.679   7.536  1.00  0.00     0.093 A 
ATOM     37  C   UNL     1      -5.503  10.862   7.203  1.00  0.00     0.123 A 
BRANCH  28  38
ATOM     38  C   UNL     1      -8.428   6.289   4.592  1.00  0.00     0.025 A 
ATOM     39  C   UNL     1      -9.288   5.226   4.940  1.00  0.00     0.062 A 
ATOM     40  C   UNL     1      -7.682   6.183   3.401  1.00  0.00     0.016 A 
ATOM     41  C   UNL     1      -9.364   4.076   4.141  1.00  0.00     0.158 A 
ATOM     42  C   UNL     1      -7.758   5.038   2.600  1.00  0.00     0.051 A 
ATOM     43  C   UNL     1      -8.597   3.985   2.962  1.00  0.00     0.157 A 
BRANCH  41  44
ATOM     44  O   UNL     1     -10.232   3.053   4.527  1.00  0.00    -0.504 OA
ATOM     45  H   UNL     1     -10.317   2.757   5.495  1.00  0.00     0.293 HD
ENDBRANCH  41  44
BRANCH  43  46
ATOM     46  O   UNL     1      -8.696   2.856   2.139  1.00  0.00    -0.504 OA
ATOM     47  H   UNL     1      -9.546   2.309   2.076  1.00  0.00     0.293 HD
ENDBRANCH  43  46
ENDBRANCH  28  38
BRANCH  34  48
ATOM     48  O   UNL     1      -8.947  12.125   7.570  1.00  0.00    -0.507 OA
ATOM     49  H   UNL     1      -8.780  13.042   7.931  1.00  0.00     0.293 HD
ENDBRANCH  34  48
BRANCH  37  50
ATOM     50  O   UNL     1      -4.203  11.283   7.487  1.00  0.00    -0.508 OA
ATOM     51  H   UNL     1      -3.396  10.820   7.078  1.00  0.00     0.293 HD
ENDBRANCH  37  50
ENDBRANCH  26  27
ENDBRANCH   5  26
BRANCH   4  52
ATOM     52  O   UNL     1     -12.142   5.067   7.634  1.00  0.00    -0.384 OA
ATOM     53  H   UNL     1     -11.619   4.228   7.701  1.00  0.00     0.211 HD
ENDBRANCH   4  52
TORSDOF 16
ENDMDL
MODEL 3
REMARK VINA RESULT:     7.839      2.140      5.990
REMARK INTER + INTRA:          12.086
REMARK INTER:                   4.185
REMARK INTRA:                   7.902
REMARK UNBOUND:                -0.793
REMARK SMILES C[C@@H]1O[C@H](OC[C@@H]2O[C@H](Oc3c(-c4ccc(O)c(O)c4)oc4cc(O)cc(O)c4c3=O)[C@@H](O)[C@H](O)[C@@H]2O)[C@@H](O)[C@@H](O)[C@@H]1O
REMARK SMILES IDX 7 1 36 2 34 3 32 4 9 5 8 6 6 7 5 8 4 9 1 10 2 11 42 12 3 13
REMARK SMILES IDX 40 14 38 15 43 16 41 18 39 20 37 22 35 24 10 26 11 27 12 28
REMARK SMILES IDX 30 29 21 30 29 31 31 32 22 33 27 34 23 35 26 36 24 37 13 38
REMARK SMILES IDX 20 39 14 40 18 41 15 42 16 43 19 44 17 46 28 48 25 50 33 52
REMARK H PARENT 43 17 41 19 39 21 37 23 35 25 19 45 17 47 28 49 25 51 33 53
REMARK Flexibility Score: inf
ROOT
ATOM      1  C   UNL     1     -14.917   7.485   4.702  1.00  0.00     0.180 C 
ATOM      2  C   UNL     1     -14.498   6.855   3.348  1.00  0.00     0.177 C 
ATOM      3  C   UNL     1     -12.981   6.888   3.151  1.00  0.00     0.180 C 
ATOM      4  C   UNL     1     -12.253   6.325   4.378  1.00  0.00     0.214 C 
ATOM      5  C   UNL     1     -12.801   6.890   5.712  1.00  0.00     0.339 C 
ATOM      6  O   UNL     1     -14.226   6.938   5.816  1.00  0.00    -0.332 OA
ENDROOT
BRANCH   1   7
ATOM      7  C   UNL     1     -14.953   9.038   4.718  1.00  0.00     0.198 C 
BRANCH   7   8
ATOM      8  O   UNL     1     -14.051   9.567   3.763  1.00  0.00    -0.347 OA
BRANCH   8   9
ATOM      9  C   UNL     1     -14.584  10.718   3.125  1.00  0.00     0.281 C 
ATOM     10  C   UNL     1     -11.770  11.248   4.350  1.00  0.00     0.041 C 
ATOM     11  C   UNL     1     -12.660  12.124   3.446  1.00  0.00     0.150 C 
ATOM     12  C   UNL     1     -12.299  12.052   1.942  1.00  0.00     0.174 C 
ATOM     13  O   UNL     1     -14.056  11.921   3.682  1.00  0.00    -0.344 OA
ATOM     14  C   UNL     1     -12.840  10.756   1.324  1.00  0.00     0.179 C 
ATOM     15  C   UNL     1     -14.357  10.637   1.605  1.00  0.00     0.202 C 
BRANCH  12  16
ATOM     16  O   UNL     1     -10.906  12.125   1.753  1.00  0.00    -0.388 OA
ATOM     17  H   UNL     1     -10.613  13.011   2.115  1.00  0.00     0.211 HD
ENDBRANCH  12  16
BRANCH  14  18
ATOM     18  O   UNL     1     -12.602  10.727  -0.061  1.00  0.00    -0.387 OA
ATOM     19  H   UNL     1     -13.018   9.897  -0.410  1.00  0.00     0.211 HD
ENDBRANCH  14  18
BRANCH  15  20
ATOM     20  O   UNL     1     -15.114  11.649   0.984  1.00  0.00    -0.385 OA
ATOM     21  H   UNL     1     -15.117  12.463   1.564  1.00  0.00     0.211 HD
ENDBRANCH  15  20
ENDBRANCH   8   9
ENDBRANCH   7   8
ENDBRANCH   1   7
BRANCH   2  22
ATOM     22  O   UNL     1     -15.119   7.479   2.255  1.00  0.00    -0.387 OA
ATOM     23  H   UNL     1     -15.649   8.238   2.619  1.00  0.00     0.211 HD
ENDBRANCH   2  22
BRANCH   3  24
ATOM     24  O   UNL     1     -12.517   8.165   2.779  1.00  0.00    -0.387 OA
ATOM     25  H   UNL     1     -11.962   8.521   3.514  1.00  0.00     0.211 HD
ENDBRANCH   3  24
BRANCH   5  26
ATOM     26  O   UNL     1     -12.208   8.168   6.018  1.00  0.00    -0.454 OA
BRANCH  26  27
ATOM     27  C   UNL     1     -10.828   8.431   6.024  1.00  0.00     0.214 A 
ATOM     28  C   UNL     1      -9.940   7.527   6.657  1.00  0.00     0.180 A 
ATOM     29  C   UNL     1     -10.282   9.580   5.411  1.00  0.00     0.239 A 
ATOM     30  O   UNL     1      -8.653   7.843   6.772  1.00  0.00    -0.452 OA
ATOM     31  C   UNL     1      -8.911   9.880   5.572  1.00  0.00     0.111 A 
ATOM     32  O   UNL     1     -11.013  10.300   4.682  1.00  0.00    -0.285 OA
ATOM     33  C   UNL     1      -8.121   8.956   6.281  1.00  0.00     0.146 A 
ATOM     34  C   UNL     1      -8.311  11.044   5.043  1.00  0.00     0.134 A 
ATOM     35  C   UNL     1      -6.751   9.194   6.450  1.00  0.00     0.094 A 
ATOM     36  C   UNL     1      -6.942  11.271   5.236  1.00  0.00     0.093 A 
ATOM     37  C   UNL     1      -6.167  10.352   5.935  1.00  0.00     0.123 A 
BRANCH  28  38
ATOM     38  C   UNL     1     -10.342   6.194   7.188  1.00  0.00     0.025 A 
ATOM     39  C   UNL     1     -10.507   5.076   6.342  1.00  0.00     0.062 A 
ATOM     40  C   UNL     1     -10.411   5.995   8.581  1.00  0.00     0.016 A 
ATOM     41  C   UNL     1     -10.777   3.809   6.877  1.00  0.00     0.158 A 
ATOM     42  C   UNL     1     -10.677   4.730   9.118  1.00  0.00     0.051 A 
ATOM     43  C   UNL     1     -10.857   3.635   8.274  1.00  0.00     0.157 A 
BRANCH  41  44
ATOM     44  O   UNL     1     -10.930   2.734   5.999  1.00  0.00    -0.504 OA
ATOM     45  H   UNL     1     -11.820   2.259   5.883  1.00  0.00     0.293 HD
ENDBRANCH  41  44
BRANCH  43  46
ATOM     46  O   UNL     1     -11.088   2.366   8.817  1.00  0.00    -0.504 OA
ATOM     47  H   UNL     1     -10.747   1.521   8.374  1.00  0.00     0.293 HD
ENDBRANCH  43  46
ENDBRANCH  28  38
BRANCH  34  48
ATOM     48  O   UNL     1      -9.062  11.970   4.325  1.00  0.00    -0.507 OA
ATOM     49  H   UNL     1      -9.077  11.955   3.326  1.00  0.00     0.293 HD
ENDBRANCH  34  48
BRANCH  37  50
ATOM     50  O   UNL     1      -4.802  10.587   6.102  1.00  0.00    -0.508 OA
ATOM     51  H   UNL     1      -4.183   9.869   6.468  1.00  0.00     0.293 HD
ENDBRANCH  37  50
ENDBRANCH  26  27
ENDBRANCH   5  26
BRANCH   4  52
ATOM     52  O   UNL     1     -12.376   4.916   4.374  1.00  0.00    -0.384 OA
ATOM     53  H   UNL     1     -12.517   4.639   5.315  1.00  0.00     0.211 HD
ENDBRANCH   4  52
TORSDOF 16
ENDMDL
MODEL 4
REMARK VINA RESULT:     8.232      2.332      6.238
REMARK INTER + INTRA:          12.733
REMARK INTER:                   3.598
REMARK INTRA:                   9.134
REMARK UNBOUND:                -0.793
REMARK SMILES C[C@@H]1O[C@H](OC[C@@H]2O[C@H](Oc3c(-c4ccc(O)c(O)c4)oc4cc(O)cc(O)c4c3=O)[C@@H](O)[C@H](O)[C@@H]2O)[C@@H](O)[C@@H](O)[C@@H]1O
REMARK SMILES IDX 7 1 36 2 34 3 32 4 9 5 8 6 6 7 5 8 4 9 1 10 2 11 42 12 3 13
REMARK SMILES IDX 40 14 38 15 43 16 41 18 39 20 37 22 35 24 10 26 11 27 12 28
REMARK SMILES IDX 30 29 21 30 29 31 31 32 22 33 27 34 23 35 26 36 24 37 13 38
REMARK SMILES IDX 20 39 14 40 18 41 15 42 16 43 19 44 17 46 28 48 25 50 33 52
REMARK H PARENT 43 17 41 19 39 21 37 23 35 25 19 45 17 47 28 49 25 51 33 53
REMARK Flexibility Score: inf
ROOT
ATOM      1  C   UNL     1     -12.893   9.264   5.596  1.00  0.00     0.180 C 
ATOM      2  C   UNL     1     -14.303   9.262   6.242  1.00  0.00     0.177 C 
ATOM      3  C   UNL     1     -14.501  10.454   7.180  1.00  0.00     0.180 C 
ATOM      4  C   UNL     1     -14.108  11.768   6.493  1.00  0.00     0.214 C 
ATOM      5  C   UNL     1     -12.751  11.674   5.752  1.00  0.00     0.339 C 
ATOM      6  O   UNL     1     -12.564  10.494   4.966  1.00  0.00    -0.332 OA
ENDROOT
BRANCH   1   7
ATOM      7  C   UNL     1     -11.754   8.730   6.507  1.00  0.00     0.198 C 
BRANCH   7   8
ATOM      8  O   UNL     1     -11.927   7.347   6.759  1.00  0.00    -0.347 OA
BRANCH   8   9
ATOM      9  C   UNL     1     -10.830   6.809   7.483  1.00  0.00     0.281 C 
ATOM     10  C   UNL     1     -12.852   4.609   6.605  1.00  0.00     0.041 C 
ATOM     11  C   UNL     1     -11.462   4.499   7.262  1.00  0.00     0.150 C 
ATOM     12  C   UNL     1     -10.310   4.231   6.264  1.00  0.00     0.174 C 
ATOM     13  O   UNL     1     -11.179   5.592   8.141  1.00  0.00    -0.344 OA
ATOM     14  C   UNL     1      -9.928   5.524   5.529  1.00  0.00     0.179 C 
ATOM     15  C   UNL     1      -9.614   6.636   6.557  1.00  0.00     0.202 C 
BRANCH  12  16
ATOM     16  O   UNL     1     -10.669   3.241   5.331  1.00  0.00    -0.388 OA
ATOM     17  H   UNL     1     -10.181   2.408   5.595  1.00  0.00     0.211 HD
ENDBRANCH  12  16
BRANCH  14  18
ATOM     18  O   UNL     1      -8.819   5.312   4.691  1.00  0.00    -0.387 OA
ATOM     19  H   UNL     1      -9.074   5.630   3.787  1.00  0.00     0.211 HD
ENDBRANCH  14  18
BRANCH  15  20
ATOM     20  O   UNL     1      -8.484   6.352   7.348  1.00  0.00    -0.385 OA
ATOM     21  H   UNL     1      -8.243   5.388   7.247  1.00  0.00     0.211 HD
ENDBRANCH  15  20
ENDBRANCH   8   9
ENDBRANCH   7   8
ENDBRANCH   1   7
BRANCH   2  22
ATOM     22  O   UNL     1     -14.566   8.075   6.942  1.00  0.00    -0.387 OA
ATOM     23  H   UNL     1     -15.543   7.904   6.864  1.00  0.00     0.211 HD
ENDBRANCH   2  22
BRANCH   3  24
ATOM     24  O   UNL     1     -13.857  10.272   8.420  1.00  0.00    -0.387 OA
ATOM     25  H   UNL     1     -12.951   9.917   8.252  1.00  0.00     0.211 HD
ENDBRANCH   3  24
BRANCH   5  26
ATOM     26  O   UNL     1     -11.649  11.884   6.657  1.00  0.00    -0.454 OA
BRANCH  26  27
ATOM     27  C   UNL     1     -10.294  11.887   6.284  1.00  0.00     0.214 A 
ATOM     28  C   UNL     1      -9.939  11.868   4.913  1.00  0.00     0.180 A 
ATOM     29  C   UNL     1      -9.255  11.914   7.240  1.00  0.00     0.239 A 
ATOM     30  O   UNL     1      -8.660  11.742   4.569  1.00  0.00    -0.452 OA
ATOM     31  C   UNL     1      -7.913  11.765   6.826  1.00  0.00     0.111 A 
ATOM     32  O   UNL     1      -9.532  12.122   8.450  1.00  0.00    -0.285 OA
ATOM     33  C   UNL     1      -7.664  11.678   5.443  1.00  0.00     0.146 A 
ATOM     34  C   UNL     1      -6.829  11.715   7.731  1.00  0.00     0.134 A 
ATOM     35  C   UNL     1      -6.349  11.552   4.978  1.00  0.00     0.094 A 
ATOM     36  C   UNL     1      -5.523  11.574   7.245  1.00  0.00     0.093 A 
ATOM     37  C   UNL     1      -5.285  11.493   5.878  1.00  0.00     0.123 A 
BRANCH  28  38
ATOM     38  C   UNL     1     -10.913  12.017   3.796  1.00  0.00     0.025 A 
ATOM     39  C   UNL     1     -10.513  11.929   2.445  1.00  0.00     0.062 A 
ATOM     40  C   UNL     1     -12.290  12.092   4.082  1.00  0.00     0.016 A 
ATOM     41  C   UNL     1     -11.463  11.960   1.415  1.00  0.00     0.158 A 
ATOM     42  C   UNL     1     -13.241  12.121   3.056  1.00  0.00     0.051 A 
ATOM     43  C   UNL     1     -12.835  12.052   1.723  1.00  0.00     0.157 A 
BRANCH  41  44
ATOM     44  O   UNL     1     -11.017  11.868   0.094  1.00  0.00    -0.504 OA
ATOM     45  H   UNL     1     -11.469  11.260  -0.583  1.00  0.00     0.293 HD
ENDBRANCH  41  44
BRANCH  43  46
ATOM     46  O   UNL     1     -13.792  12.046   0.701  1.00  0.00    -0.504 OA
ATOM     47  H   UNL     1     -14.552  11.376   0.680  1.00  0.00     0.293 HD
ENDBRANCH  43  46
ENDBRANCH  28  38
BRANCH  34  48
ATOM     48  O   UNL     1      -7.042  11.812   9.103  1.00  0.00    -0.507 OA
ATOM     49  H   UNL     1      -6.353  12.222   9.702  1.00  0.00     0.293 HD
ENDBRANCH  34  48
BRANCH  37  50
ATOM     50  O   UNL     1      -3.974  11.369   5.412  1.00  0.00    -0.508 OA
ATOM     51  H   UNL     1      -3.307  10.755   5.870  1.00  0.00     0.293 HD
ENDBRANCH  37  50
ENDBRANCH  26  27
ENDBRANCH   5  26
BRANCH   4  52
ATOM     52  O   UNL     1     -15.125  12.125   5.578  1.00  0.00    -0.384 OA
ATOM     53  H   UNL     1     -14.733  12.046   4.671  1.00  0.00     0.211 HD
ENDBRANCH   4  52
TORSDOF 16
ENDMDL
