MODEL 1
REMARK VINA RESULT:    -4.335      0.000      0.000
REMARK INTER + INTRA:          -8.354
REMARK INTER:                  -7.502
REMARK INTRA:                  -0.852
REMARK UNBOUND:                -0.852
REMARK SMILES CCCCCCCCCCCCCCO
REMARK SMILES IDX 8 1 7 2 6 3 5 4 4 5 3 6 2 7 1 8 9 9 10 10 11 11 12 12 13 13
REMARK SMILES IDX 14 14 15 15
REMARK H PARENT 15 16
REMARK Flexibility Score: inf
ROOT
ATOM      1  C   UNL     1      26.662  27.078  23.251  1.00  0.00     0.000 C 
ENDROOT
BRANCH   1   2
ATOM      2  C   UNL     1      27.688  27.119  24.395  1.00  0.00    -0.000 C 
BRANCH   2   3
ATOM      3  C   UNL     1      29.107  27.454  23.903  1.00  0.00    -0.000 C 
BRANCH   3   4
ATOM      4  C   UNL     1      29.330  27.091  22.423  1.00  0.00    -0.000 C 
BRANCH   4   5
ATOM      5  C   UNL     1      29.862  25.669  22.167  1.00  0.00    -0.000 C 
BRANCH   5   6
ATOM      6  C   UNL     1      29.035  24.898  21.124  1.00  0.00    -0.000 C 
BRANCH   6   7
ATOM      7  C   UNL     1      28.520  25.804  19.994  1.00  0.00    -0.003 C 
ATOM      8  C   UNL     1      28.846  25.260  18.604  1.00  0.00     0.004 C 
ENDBRANCH   6   7
ENDBRANCH   5   6
ENDBRANCH   4   5
ENDBRANCH   3   4
ENDBRANCH   2   3
ENDBRANCH   1   2
BRANCH   1   9
ATOM      9  C   UNL     1      25.396  26.285  23.623  1.00  0.00     0.000 C 
BRANCH   9  10
ATOM     10  C   UNL     1      25.326  24.917  22.921  1.00  0.00     0.000 C 
BRANCH  10  11
ATOM     11  C   UNL     1      24.209  23.986  23.432  1.00  0.00     0.000 C 
BRANCH  11  12
ATOM     12  C   UNL     1      23.162  23.624  22.355  1.00  0.00     0.002 C 
BRANCH  12  13
ATOM     13  C   UNL     1      22.090  22.636  22.853  1.00  0.00     0.028 C 
BRANCH  13  14
ATOM     14  C   UNL     1      22.004  21.365  22.000  1.00  0.00     0.156 C 
BRANCH  14  15
ATOM     15  O   UNL     1      20.916  20.583  22.408  1.00  0.00    -0.396 OA
ATOM     16  H   UNL     1      21.024  19.706  21.958  1.00  0.00     0.210 HD
ENDBRANCH  14  15
ENDBRANCH  13  14
ENDBRANCH  12  13
ENDBRANCH  11  12
ENDBRANCH  10  11
ENDBRANCH   9  10
ENDBRANCH   1   9
TORSDOF 13
ENDMDL
MODEL 2
REMARK VINA RESULT:    -4.306      1.033      1.340
REMARK INTER + INTRA:          -8.305
REMARK INTER:                  -7.063
REMARK INTRA:                  -1.242
REMARK UNBOUND:                -0.852
REMARK SMILES CCCCCCCCCCCCCCO
REMARK SMILES IDX 8 1 7 2 6 3 5 4 4 5 3 6 2 7 1 8 9 9 10 10 11 11 12 12 13 13
REMARK SMILES IDX 14 14 15 15
REMARK H PARENT 15 16
REMARK Flexibility Score: inf
ROOT
ATOM      1  C   UNL     1      26.324  27.084  23.192  1.00  0.00     0.000 C 
ENDROOT
BRANCH   1   2
ATOM      2  C   UNL     1      27.034  27.276  24.542  1.00  0.00    -0.000 C 
BRANCH   2   3
ATOM      3  C   UNL     1      28.557  27.083  24.440  1.00  0.00    -0.000 C 
BRANCH   3   4
ATOM      4  C   UNL     1      29.206  27.984  23.372  1.00  0.00    -0.000 C 
BRANCH   4   5
ATOM      5  C   UNL     1      29.872  27.241  22.200  1.00  0.00    -0.000 C 
BRANCH   5   6
ATOM      6  C   UNL     1      29.874  25.714  22.382  1.00  0.00    -0.000 C 
BRANCH   6   7
ATOM      7  C   UNL     1      29.138  24.985  21.247  1.00  0.00    -0.003 C 
ATOM      8  C   UNL     1      28.502  25.945  20.241  1.00  0.00     0.004 C 
ENDBRANCH   6   7
ENDBRANCH   5   6
ENDBRANCH   4   5
ENDBRANCH   3   4
ENDBRANCH   2   3
ENDBRANCH   1   2
BRANCH   1   9
ATOM      9  C   UNL     1      25.703  25.684  23.047  1.00  0.00     0.000 C 
BRANCH   9  10
ATOM     10  C   UNL     1      25.129  25.149  24.371  1.00  0.00     0.000 C 
BRANCH  10  11
ATOM     11  C   UNL     1      23.864  24.282  24.223  1.00  0.00     0.000 C 
BRANCH  11  12
ATOM     12  C   UNL     1      23.700  23.658  22.819  1.00  0.00     0.002 C 
BRANCH  12  13
ATOM     13  C   UNL     1      22.249  23.254  22.496  1.00  0.00     0.028 C 
BRANCH  13  14
ATOM     14  C   UNL     1      22.123  21.803  22.019  1.00  0.00     0.156 C 
BRANCH  14  15
ATOM     15  O   UNL     1      23.176  21.488  21.150  1.00  0.00    -0.396 OA
ATOM     16  H   UNL     1      23.676  22.333  21.006  1.00  0.00     0.210 HD
ENDBRANCH  14  15
ENDBRANCH  13  14
ENDBRANCH  12  13
ENDBRANCH  11  12
ENDBRANCH  10  11
ENDBRANCH   9  10
ENDBRANCH   1   9
TORSDOF 13
ENDMDL
MODEL 3
REMARK VINA RESULT:    -4.253      2.381      6.504
REMARK INTER + INTRA:          -8.214
REMARK INTER:                  -7.366
REMARK INTRA:                  -0.847
REMARK UNBOUND:                -0.852
REMARK SMILES CCCCCCCCCCCCCCO
REMARK SMILES IDX 8 1 7 2 6 3 5 4 4 5 3 6 2 7 1 8 9 9 10 10 11 11 12 12 13 13
REMARK SMILES IDX 14 14 15 15
REMARK H PARENT 15 16
REMARK Flexibility Score: inf
ROOT
ATOM      1  C   UNL     1      26.722  27.363  23.683  1.00  0.00     0.000 C 
ENDROOT
BRANCH   1   2
ATOM      2  C   UNL     1      25.735  26.255  24.085  1.00  0.00    -0.000 C 
BRANCH   2   3
ATOM      3  C   UNL     1      25.318  25.375  22.894  1.00  0.00    -0.000 C 
BRANCH   3   4
ATOM      4  C   UNL     1      24.695  24.035  23.328  1.00  0.00    -0.000 C 
BRANCH   4   5
ATOM      5  C   UNL     1      23.431  23.617  22.554  1.00  0.00    -0.000 C 
BRANCH   5   6
ATOM      6  C   UNL     1      22.246  23.283  23.475  1.00  0.00    -0.000 C 
BRANCH   6   7
ATOM      7  C   UNL     1      21.366  22.153  22.917  1.00  0.00    -0.003 C 
ATOM      8  C   UNL     1      22.043  21.379  21.787  1.00  0.00     0.004 C 
ENDBRANCH   6   7
ENDBRANCH   5   6
ENDBRANCH   4   5
ENDBRANCH   3   4
ENDBRANCH   2   3
ENDBRANCH   1   2
BRANCH   1   9
ATOM      9  C   UNL     1      28.136  27.125  24.243  1.00  0.00     0.000 C 
BRANCH   9  10
ATOM     10  C   UNL     1      29.199  28.007  23.565  1.00  0.00     0.000 C 
BRANCH  10  11
ATOM     11  C   UNL     1      29.938  27.338  22.389  1.00  0.00     0.000 C 
BRANCH  11  12
ATOM     12  C   UNL     1      29.953  25.795  22.462  1.00  0.00     0.002 C 
BRANCH  12  13
ATOM     13  C   UNL     1      29.017  25.125  21.438  1.00  0.00     0.028 C 
BRANCH  13  14
ATOM     14  C   UNL     1      28.712  26.019  20.231  1.00  0.00     0.156 C 
BRANCH  14  15
ATOM     15  O   UNL     1      27.332  26.239  20.131  1.00  0.00    -0.396 OA
ATOM     16  H   UNL     1      26.898  25.465  20.575  1.00  0.00     0.210 HD
ENDBRANCH  14  15
ENDBRANCH  13  14
ENDBRANCH  12  13
ENDBRANCH  11  12
ENDBRANCH  10  11
ENDBRANCH   9  10
ENDBRANCH   1   9
TORSDOF 13
ENDMDL
MODEL 4
REMARK VINA RESULT:    -4.167      1.451      2.605
REMARK INTER + INTRA:          -8.064
REMARK INTER:                  -7.293
REMARK INTRA:                  -0.771
REMARK UNBOUND:                -0.852
REMARK SMILES CCCCCCCCCCCCCCO
REMARK SMILES IDX 8 1 7 2 6 3 5 4 4 5 3 6 2 7 1 8 9 9 10 10 11 11 12 12 13 13
REMARK SMILES IDX 14 14 15 15
REMARK H PARENT 15 16
REMARK Flexibility Score: inf
ROOT
ATOM      1  C   UNL     1      25.532  26.419  23.163  1.00  0.00     0.000 C 
ENDROOT
BRANCH   1   2
ATOM      2  C   UNL     1      27.040  26.679  23.016  1.00  0.00    -0.000 C 
BRANCH   2   3
ATOM      3  C   UNL     1      27.713  25.710  22.028  1.00  0.00    -0.000 C 
BRANCH   3   4
ATOM      4  C   UNL     1      29.169  26.096  21.707  1.00  0.00    -0.000 C 
BRANCH   4   5
ATOM      5  C   UNL     1      29.684  27.365  22.412  1.00  0.00    -0.000 C 
BRANCH   5   6
ATOM      6  C   UNL     1      30.690  27.062  23.534  1.00  0.00    -0.000 C 
BRANCH   6   7
ATOM      7  C   UNL     1      31.714  25.989  23.133  1.00  0.00    -0.003 C 
ATOM      8  C   UNL     1      31.789  24.837  24.135  1.00  0.00     0.004 C 
ENDBRANCH   6   7
ENDBRANCH   5   6
ENDBRANCH   4   5
ENDBRANCH   3   4
ENDBRANCH   2   3
ENDBRANCH   1   2
BRANCH   1   9
ATOM      9  C   UNL     1      25.155  25.916  24.568  1.00  0.00     0.000 C 
BRANCH   9  10
ATOM     10  C   UNL     1      24.227  24.688  24.529  1.00  0.00     0.000 C 
BRANCH  10  11
ATOM     11  C   UNL     1      24.335  23.839  23.248  1.00  0.00     0.000 C 
BRANCH  11  12
ATOM     12  C   UNL     1      23.023  23.776  22.433  1.00  0.00     0.002 C 
BRANCH  12  13
ATOM     13  C   UNL     1      22.039  22.704  22.940  1.00  0.00     0.028 C 
BRANCH  13  14
ATOM     14  C   UNL     1      21.870  21.536  21.963  1.00  0.00     0.156 C 
BRANCH  14  15
ATOM     15  O   UNL     1      22.976  21.459  21.107  1.00  0.00    -0.396 OA
ATOM     16  H   UNL     1      22.802  22.104  20.374  1.00  0.00     0.210 HD
ENDBRANCH  14  15
ENDBRANCH  13  14
ENDBRANCH  12  13
ENDBRANCH  11  12
ENDBRANCH  10  11
ENDBRANCH   9  10
ENDBRANCH   1   9
TORSDOF 13
ENDMDL
MODEL 5
REMARK VINA RESULT:    -3.996      2.975      7.906
REMARK INTER + INTRA:          -7.768
REMARK INTER:                  -7.364
REMARK INTRA:                  -0.404
REMARK UNBOUND:                -0.852
REMARK SMILES CCCCCCCCCCCCCCO
REMARK SMILES IDX 8 1 7 2 6 3 5 4 4 5 3 6 2 7 1 8 9 9 10 10 11 11 12 12 13 13
REMARK SMILES IDX 14 14 15 15
REMARK H PARENT 15 16
REMARK Flexibility Score: inf
ROOT
ATOM      1  C   UNL     1      24.011  24.085  24.118  1.00  0.00     0.000 C 
ENDROOT
BRANCH   1   2
ATOM      2  C   UNL     1      23.599  23.705  22.686  1.00  0.00    -0.000 C 
BRANCH   2   3
ATOM      3  C   UNL     1      22.181  23.113  22.617  1.00  0.00    -0.000 C 
BRANCH   3   4
ATOM      4  C   UNL     1      22.120  21.795  21.822  1.00  0.00    -0.000 C 
BRANCH   4   5
ATOM      5  C   UNL     1      21.290  20.673  22.471  1.00  0.00    -0.000 C 
BRANCH   5   6
ATOM      6  C   UNL     1      20.204  20.112  21.538  1.00  0.00    -0.000 C 
BRANCH   6   7
ATOM      7  C   UNL     1      19.802  18.673  21.900  1.00  0.00    -0.003 C 
ATOM      8  C   UNL     1      19.069  17.960  20.765  1.00  0.00     0.004 C 
ENDBRANCH   6   7
ENDBRANCH   5   6
ENDBRANCH   4   5
ENDBRANCH   3   4
ENDBRANCH   2   3
ENDBRANCH   1   2
BRANCH   1   9
ATOM      9  C   UNL     1      25.019  25.248  24.153  1.00  0.00     0.000 C 
BRANCH   9  10
ATOM     10  C   UNL     1      25.423  25.724  22.746  1.00  0.00     0.000 C 
BRANCH  10  11
ATOM     11  C   UNL     1      26.911  26.091  22.591  1.00  0.00     0.000 C 
BRANCH  11  12
ATOM     12  C   UNL     1      27.612  25.366  21.420  1.00  0.00     0.002 C 
BRANCH  12  13
ATOM     13  C   UNL     1      28.581  26.268  20.634  1.00  0.00     0.028 C 
BRANCH  13  14
ATOM     14  C   UNL     1      28.913  25.721  19.241  1.00  0.00     0.156 C 
BRANCH  14  15
ATOM     15  O   UNL     1      27.737  25.362  18.572  1.00  0.00    -0.396 OA
ATOM     16  H   UNL     1      27.637  26.007  17.825  1.00  0.00     0.210 HD
ENDBRANCH  14  15
ENDBRANCH  13  14
ENDBRANCH  12  13
ENDBRANCH  11  12
ENDBRANCH  10  11
ENDBRANCH   9  10
ENDBRANCH   1   9
TORSDOF 13
ENDMDL
MODEL 6
REMARK VINA RESULT:    -3.995      3.069      5.866
REMARK INTER + INTRA:          -7.767
REMARK INTER:                  -6.606
REMARK INTRA:                  -1.160
REMARK UNBOUND:                -0.852
REMARK SMILES CCCCCCCCCCCCCCO
REMARK SMILES IDX 8 1 7 2 6 3 5 4 4 5 3 6 2 7 1 8 9 9 10 10 11 11 12 12 13 13
REMARK SMILES IDX 14 14 15 15
REMARK H PARENT 15 16
REMARK Flexibility Score: inf
ROOT
ATOM      1  C   UNL     1      29.850  28.304  22.939  1.00  0.00     0.000 C 
ENDROOT
BRANCH   1   2
ATOM      2  C   UNL     1      29.463  28.688  24.377  1.00  0.00    -0.000 C 
BRANCH   2   3
ATOM      3  C   UNL     1      27.948  28.592  24.628  1.00  0.00    -0.000 C 
BRANCH   3   4
ATOM      4  C   UNL     1      27.377  27.195  24.319  1.00  0.00    -0.000 C 
BRANCH   4   5
ATOM      5  C   UNL     1      25.987  27.185  23.657  1.00  0.00    -0.000 C 
BRANCH   5   6
ATOM      6  C   UNL     1      25.739  25.931  22.802  1.00  0.00    -0.000 C 
BRANCH   6   7
ATOM      7  C   UNL     1      25.105  24.785  23.608  1.00  0.00    -0.003 C 
ATOM      8  C   UNL     1      24.081  23.989  22.800  1.00  0.00     0.004 C 
ENDBRANCH   6   7
ENDBRANCH   5   6
ENDBRANCH   4   5
ENDBRANCH   3   4
ENDBRANCH   2   3
ENDBRANCH   1   2
BRANCH   1   9
ATOM      9  C   UNL     1      31.010  27.294  22.891  1.00  0.00     0.000 C 
BRANCH   9  10
ATOM     10  C   UNL     1      30.550  25.850  23.163  1.00  0.00     0.000 C 
BRANCH  10  11
ATOM     11  C   UNL     1      30.261  25.016  21.900  1.00  0.00     0.000 C 
BRANCH  11  12
ATOM     12  C   UNL     1      28.825  25.190  21.357  1.00  0.00     0.002 C 
BRANCH  12  13
ATOM     13  C   UNL     1      28.756  26.030  20.068  1.00  0.00     0.028 C 
BRANCH  13  14
ATOM     14  C   UNL     1      28.783  25.178  18.795  1.00  0.00     0.156 C 
BRANCH  14  15
ATOM     15  O   UNL     1      28.860  26.001  17.664  1.00  0.00    -0.396 OA
ATOM     16  H   UNL     1      29.543  26.690  17.873  1.00  0.00     0.210 HD
ENDBRANCH  14  15
ENDBRANCH  13  14
ENDBRANCH  12  13
ENDBRANCH  11  12
ENDBRANCH  10  11
ENDBRANCH   9  10
ENDBRANCH   1   9
TORSDOF 13
ENDMDL
MODEL 7
REMARK VINA RESULT:    -3.959      3.819      5.163
REMARK INTER + INTRA:          -7.704
REMARK INTER:                  -6.248
REMARK INTRA:                  -1.456
REMARK UNBOUND:                -0.852
REMARK SMILES CCCCCCCCCCCCCCO
REMARK SMILES IDX 8 1 7 2 6 3 5 4 4 5 3 6 2 7 1 8 9 9 10 10 11 11 12 12 13 13
REMARK SMILES IDX 14 14 15 15
REMARK H PARENT 15 16
REMARK Flexibility Score: inf
ROOT
ATOM      1  C   UNL     1      28.303  26.539  21.605  1.00  0.00     0.000 C 
ENDROOT
BRANCH   1   2
ATOM      2  C   UNL     1      29.455  25.694  21.035  1.00  0.00    -0.000 C 
BRANCH   2   3
ATOM      3  C   UNL     1      30.063  24.744  22.081  1.00  0.00    -0.000 C 
BRANCH   3   4
ATOM      4  C   UNL     1      31.251  25.367  22.838  1.00  0.00    -0.000 C 
BRANCH   4   5
ATOM      5  C   UNL     1      30.875  26.219  24.065  1.00  0.00    -0.000 C 
BRANCH   5   6
ATOM      6  C   UNL     1      31.498  27.624  24.033  1.00  0.00    -0.000 C 
BRANCH   6   7
ATOM      7  C   UNL     1      30.505  28.698  23.560  1.00  0.00    -0.003 C 
ATOM      8  C   UNL     1      30.809  29.205  22.150  1.00  0.00     0.004 C 
ENDBRANCH   6   7
ENDBRANCH   5   6
ENDBRANCH   4   5
ENDBRANCH   3   4
ENDBRANCH   2   3
ENDBRANCH   1   2
BRANCH   1   9
ATOM      9  C   UNL     1      27.101  25.680  22.037  1.00  0.00     0.000 C 
BRANCH   9  10
ATOM     10  C   UNL     1      26.276  26.337  23.159  1.00  0.00     0.000 C 
BRANCH  10  11
ATOM     11  C   UNL     1      27.042  27.376  23.999  1.00  0.00     0.000 C 
BRANCH  11  12
ATOM     12  C   UNL     1      26.161  28.104  25.040  1.00  0.00     0.002 C 
BRANCH  12  13
ATOM     13  C   UNL     1      24.667  28.131  24.666  1.00  0.00     0.028 C 
BRANCH  13  14
ATOM     14  C   UNL     1      24.191  29.511  24.200  1.00  0.00     0.156 C 
BRANCH  14  15
ATOM     15  O   UNL     1      24.392  29.651  22.821  1.00  0.00    -0.396 OA
ATOM     16  H   UNL     1      25.363  29.813  22.700  1.00  0.00     0.210 HD
ENDBRANCH  14  15
ENDBRANCH  13  14
ENDBRANCH  12  13
ENDBRANCH  11  12
ENDBRANCH  10  11
ENDBRANCH   9  10
ENDBRANCH   1   9
TORSDOF 13
ENDMDL
MODEL 8
REMARK VINA RESULT:    -3.838      1.491      2.776
REMARK INTER + INTRA:          -7.495
REMARK INTER:                  -7.033
REMARK INTRA:                  -0.462
REMARK UNBOUND:                -0.852
REMARK SMILES CCCCCCCCCCCCCCO
REMARK SMILES IDX 8 1 7 2 6 3 5 4 4 5 3 6 2 7 1 8 9 9 10 10 11 11 12 12 13 13
REMARK SMILES IDX 14 14 15 15
REMARK H PARENT 15 16
REMARK Flexibility Score: inf
ROOT
ATOM      1  C   UNL     1      25.529  26.151  23.227  1.00  0.00     0.000 C 
ENDROOT
BRANCH   1   2
ATOM      2  C   UNL     1      26.907  26.734  22.872  1.00  0.00    -0.000 C 
BRANCH   2   3
ATOM      3  C   UNL     1      27.635  25.911  21.795  1.00  0.00    -0.000 C 
BRANCH   3   4
ATOM      4  C   UNL     1      29.154  25.819  22.036  1.00  0.00    -0.000 C 
BRANCH   4   5
ATOM      5  C   UNL     1      29.724  26.840  23.037  1.00  0.00    -0.000 C 
BRANCH   5   6
ATOM      6  C   UNL     1      31.004  27.526  22.530  1.00  0.00    -0.000 C 
BRANCH   6   7
ATOM      7  C   UNL     1      31.227  28.905  23.172  1.00  0.00    -0.003 C 
ATOM      8  C   UNL     1      31.944  29.882  22.241  1.00  0.00     0.004 C 
ENDBRANCH   6   7
ENDBRANCH   5   6
ENDBRANCH   4   5
ENDBRANCH   3   4
ENDBRANCH   2   3
ENDBRANCH   1   2
BRANCH   1   9
ATOM      9  C   UNL     1      25.414  24.656  22.882  1.00  0.00     0.000 C 
BRANCH   9  10
ATOM     10  C   UNL     1      24.174  23.996  23.510  1.00  0.00     0.000 C 
BRANCH  10  11
ATOM     11  C   UNL     1      23.161  23.430  22.497  1.00  0.00     0.000 C 
BRANCH  11  12
ATOM     12  C   UNL     1      21.728  23.293  23.061  1.00  0.00     0.002 C 
BRANCH  12  13
ATOM     13  C   UNL     1      21.283  21.831  23.250  1.00  0.00     0.028 C 
BRANCH  13  14
ATOM     14  C   UNL     1      21.395  20.999  21.968  1.00  0.00     0.156 C 
BRANCH  14  15
ATOM     15  O   UNL     1      20.514  19.912  22.020  1.00  0.00    -0.396 OA
ATOM     16  H   UNL     1      20.848  19.321  22.743  1.00  0.00     0.210 HD
ENDBRANCH  14  15
ENDBRANCH  13  14
ENDBRANCH  12  13
ENDBRANCH  11  12
ENDBRANCH  10  11
ENDBRANCH   9  10
ENDBRANCH   1   9
TORSDOF 13
ENDMDL
