MODEL 1
REMARK VINA RESULT:    -4.788      0.000      0.000
REMARK INTER + INTRA:          -9.257
REMARK INTER:                  -8.427
REMARK INTRA:                  -0.830
REMARK UNBOUND:                -0.830
REMARK SMILES CCCCCCCCCCCCCCC(=O)[O-]
REMARK SMILES IDX 9 1 10 2 11 3 12 4 13 5 14 6 15 7 16 8 17 9 8 10 7 11 6 12
REMARK SMILES IDX 5 13 4 14 3 15 2 16 1 17
REMARK H PARENT
REMARK Flexibility Score: inf
ROOT
ATOM      1  C   UNL     1      20.888  20.768  34.091  1.00  0.00     0.000 C 
ENDROOT
BRANCH   1   2
ATOM      2  C   UNL     1      21.045  22.218  34.578  1.00  0.00     0.000 C 
BRANCH   2   3
ATOM      3  C   UNL     1      21.403  22.307  36.072  1.00  0.00     0.000 C 
BRANCH   3   4
ATOM      4  C   UNL     1      22.651  21.483  36.429  1.00  0.00     0.000 C 
BRANCH   4   5
ATOM      5  C   UNL     1      23.957  22.177  36.009  1.00  0.00     0.006 C 
BRANCH   5   6
ATOM      6  C   UNL     1      25.069  21.911  37.027  1.00  0.00     0.053 C 
BRANCH   6   7
ATOM      7  C   UNL     1      24.694  22.457  38.369  1.00  0.00     0.041 C 
ATOM      8  O   UNL     1      24.722  21.714  39.385  1.00  0.00    -0.550 OA
ATOM      9  O   UNL     1      24.266  23.774  38.488  1.00  0.00    -0.550 OA
ENDBRANCH   6   7
ENDBRANCH   5   6
ENDBRANCH   4   5
ENDBRANCH   3   4
ENDBRANCH   2   3
ENDBRANCH   1   2
BRANCH   1  10
ATOM     10  C   UNL     1      19.526  20.517  33.417  1.00  0.00     0.000 C 
BRANCH  10  11
ATOM     11  C   UNL     1      19.086  21.690  32.526  1.00  0.00    -0.000 C 
BRANCH  11  12
ATOM     12  C   UNL     1      17.621  22.096  32.767  1.00  0.00    -0.000 C 
BRANCH  12  13
ATOM     13  C   UNL     1      17.139  21.748  34.184  1.00  0.00    -0.000 C 
BRANCH  13  14
ATOM     14  C   UNL     1      15.706  22.234  34.462  1.00  0.00    -0.000 C 
BRANCH  14  15
ATOM     15  C   UNL     1      14.680  21.086  34.487  1.00  0.00    -0.000 C 
BRANCH  15  16
ATOM     16  C   UNL     1      13.222  21.532  34.693  1.00  0.00    -0.003 C 
ATOM     17  C   UNL     1      12.982  22.991  34.309  1.00  0.00     0.004 C 
ENDBRANCH  15  16
ENDBRANCH  14  15
ENDBRANCH  13  14
ENDBRANCH  12  13
ENDBRANCH  11  12
ENDBRANCH  10  11
ENDBRANCH   1  10
TORSDOF 13
ENDMDL
MODEL 2
REMARK VINA RESULT:    -4.768     11.424     14.466
REMARK INTER + INTRA:          -9.222
REMARK INTER:                  -8.343
REMARK INTRA:                  -0.879
REMARK UNBOUND:                -0.830
REMARK SMILES CCCCCCCCCCCCCCC(=O)[O-]
REMARK SMILES IDX 9 1 10 2 11 3 12 4 13 5 14 6 15 7 16 8 17 9 8 10 7 11 6 12
REMARK SMILES IDX 5 13 4 14 3 15 2 16 1 17
REMARK H PARENT
REMARK Flexibility Score: inf
ROOT
ATOM      1  C   UNL     1      12.708  24.160  46.944  1.00  0.00     0.000 C 
ENDROOT
BRANCH   1   2
ATOM      2  C   UNL     1      12.387  23.970  45.452  1.00  0.00     0.000 C 
BRANCH   2   3
ATOM      3  C   UNL     1      12.330  22.488  45.042  1.00  0.00     0.000 C 
BRANCH   3   4
ATOM      4  C   UNL     1      12.819  22.255  43.603  1.00  0.00     0.000 C 
BRANCH   4   5
ATOM      5  C   UNL     1      12.081  23.131  42.579  1.00  0.00     0.006 C 
BRANCH   5   6
ATOM      6  C   UNL     1      10.596  22.763  42.514  1.00  0.00     0.053 C 
BRANCH   6   7
ATOM      7  C   UNL     1      10.289  22.039  41.241  1.00  0.00     0.041 C 
ATOM      8  O   UNL     1      10.863  20.949  40.979  1.00  0.00    -0.550 OA
ATOM      9  O   UNL     1       9.408  22.592  40.322  1.00  0.00    -0.550 OA
ENDBRANCH   6   7
ENDBRANCH   5   6
ENDBRANCH   4   5
ENDBRANCH   3   4
ENDBRANCH   2   3
ENDBRANCH   1   2
BRANCH   1  10
ATOM     10  C   UNL     1      13.521  22.990  47.526  1.00  0.00     0.000 C 
BRANCH  10  11
ATOM     11  C   UNL     1      15.026  23.294  47.592  1.00  0.00    -0.000 C 
BRANCH  11  12
ATOM     12  C   UNL     1      15.785  22.791  46.351  1.00  0.00    -0.000 C 
BRANCH  12  13
ATOM     13  C   UNL     1      17.290  22.621  46.611  1.00  0.00    -0.000 C 
BRANCH  13  14
ATOM     14  C   UNL     1      17.647  22.684  48.106  1.00  0.00    -0.000 C 
BRANCH  14  15
ATOM     15  C   UNL     1      18.985  21.996  48.431  1.00  0.00    -0.000 C 
BRANCH  15  16
ATOM     16  C   UNL     1      20.196  22.943  48.499  1.00  0.00    -0.003 C 
ATOM     17  C   UNL     1      19.856  24.306  49.100  1.00  0.00     0.004 C 
ENDBRANCH  15  16
ENDBRANCH  14  15
ENDBRANCH  13  14
ENDBRANCH  12  13
ENDBRANCH  11  12
ENDBRANCH  10  11
ENDBRANCH   1  10
TORSDOF 13
ENDMDL
MODEL 3
REMARK VINA RESULT:    -4.744     10.520     11.851
REMARK INTER + INTRA:          -9.179
REMARK INTER:                  -8.514
REMARK INTRA:                  -0.665
REMARK UNBOUND:                -0.830
REMARK SMILES CCCCCCCCCCCCCCC(=O)[O-]
REMARK SMILES IDX 9 1 10 2 11 3 12 4 13 5 14 6 15 7 16 8 17 9 8 10 7 11 6 12
REMARK SMILES IDX 5 13 4 14 3 15 2 16 1 17
REMARK H PARENT
REMARK Flexibility Score: inf
ROOT
ATOM      1  C   UNL     1      14.134  23.385  47.742  1.00  0.00     0.000 C 
ENDROOT
BRANCH   1   2
ATOM      2  C   UNL     1      15.316  23.113  46.796  1.00  0.00     0.000 C 
BRANCH   2   3
ATOM      3  C   UNL     1      16.599  22.717  47.548  1.00  0.00     0.000 C 
BRANCH   3   4
ATOM      4  C   UNL     1      17.839  22.716  46.640  1.00  0.00     0.000 C 
BRANCH   4   5
ATOM      5  C   UNL     1      19.005  21.910  47.233  1.00  0.00     0.006 C 
BRANCH   5   6
ATOM      6  C   UNL     1      19.270  22.319  48.684  1.00  0.00     0.053 C 
BRANCH   6   7
ATOM      7  C   UNL     1      20.312  23.392  48.745  1.00  0.00     0.041 C 
ATOM      8  O   UNL     1      20.206  24.329  49.580  1.00  0.00    -0.550 OA
ATOM      9  O   UNL     1      21.372  23.384  47.848  1.00  0.00    -0.550 OA
ENDBRANCH   6   7
ENDBRANCH   5   6
ENDBRANCH   4   5
ENDBRANCH   3   4
ENDBRANCH   2   3
ENDBRANCH   1   2
BRANCH   1  10
ATOM     10  C   UNL     1      12.775  23.074  47.090  1.00  0.00     0.000 C 
BRANCH  10  11
ATOM     11  C   UNL     1      12.909  22.187  45.842  1.00  0.00    -0.000 C 
BRANCH  11  12
ATOM     12  C   UNL     1      11.988  22.639  44.695  1.00  0.00    -0.000 C 
BRANCH  12  13
ATOM     13  C   UNL     1      12.701  22.642  43.333  1.00  0.00    -0.000 C 
BRANCH  13  14
ATOM     14  C   UNL     1      11.801  23.143  42.191  1.00  0.00    -0.000 C 
BRANCH  14  15
ATOM     15  C   UNL     1      10.302  22.943  42.479  1.00  0.00    -0.000 C 
BRANCH  15  16
ATOM     16  C   UNL     1       9.443  22.642  41.239  1.00  0.00    -0.003 C 
ATOM     17  C   UNL     1       9.773  21.295  40.595  1.00  0.00     0.004 C 
ENDBRANCH  15  16
ENDBRANCH  14  15
ENDBRANCH  13  14
ENDBRANCH  12  13
ENDBRANCH  11  12
ENDBRANCH  10  11
ENDBRANCH   1  10
TORSDOF 13
ENDMDL
MODEL 4
REMARK VINA RESULT:    -4.730      4.644      8.948
REMARK INTER + INTRA:          -9.154
REMARK INTER:                  -8.540
REMARK INTRA:                  -0.615
REMARK UNBOUND:                -0.830
REMARK SMILES CCCCCCCCCCCCCCC(=O)[O-]
REMARK SMILES IDX 9 1 10 2 11 3 12 4 13 5 14 6 15 7 16 8 17 9 8 10 7 11 6 12
REMARK SMILES IDX 5 13 4 14 3 15 2 16 1 17
REMARK H PARENT
REMARK Flexibility Score: inf
ROOT
ATOM      1  C   UNL     1      18.576  22.447  33.174  1.00  0.00     0.000 C 
ENDROOT
BRANCH   1   2
ATOM      2  C   UNL     1      17.153  21.889  33.342  1.00  0.00     0.000 C 
BRANCH   2   3
ATOM      3  C   UNL     1      16.675  21.912  34.804  1.00  0.00     0.000 C 
BRANCH   3   4
ATOM      4  C   UNL     1      15.163  22.164  34.927  1.00  0.00     0.000 C 
BRANCH   4   5
ATOM      5  C   UNL     1      14.393  20.919  35.396  1.00  0.00     0.006 C 
BRANCH   5   6
ATOM      6  C   UNL     1      13.102  20.740  34.593  1.00  0.00     0.053 C 
BRANCH   6   7
ATOM      7  C   UNL     1      12.182  21.900  34.813  1.00  0.00     0.041 C 
ATOM      8  O   UNL     1      11.934  22.698  33.871  1.00  0.00    -0.550 OA
ATOM      9  O   UNL     1      11.639  22.127  36.071  1.00  0.00    -0.550 OA
ENDBRANCH   6   7
ENDBRANCH   5   6
ENDBRANCH   4   5
ENDBRANCH   3   4
ENDBRANCH   2   3
ENDBRANCH   1   2
BRANCH   1  10
ATOM     10  C   UNL     1      19.557  21.401  32.615  1.00  0.00     0.000 C 
BRANCH  10  11
ATOM     11  C   UNL     1      20.559  20.910  33.672  1.00  0.00    -0.000 C 
BRANCH  11  12
ATOM     12  C   UNL     1      20.930  22.005  34.689  1.00  0.00    -0.000 C 
BRANCH  12  13
ATOM     13  C   UNL     1      22.395  21.914  35.144  1.00  0.00    -0.000 C 
BRANCH  13  14
ATOM     14  C   UNL     1      22.598  22.385  36.594  1.00  0.00    -0.000 C 
BRANCH  14  15
ATOM     15  C   UNL     1      22.788  21.218  37.580  1.00  0.00    -0.000 C 
BRANCH  15  16
ATOM     16  C   UNL     1      24.098  21.264  38.387  1.00  0.00    -0.003 C 
ATOM     17  C   UNL     1      25.252  20.539  37.695  1.00  0.00     0.004 C 
ENDBRANCH  15  16
ENDBRANCH  14  15
ENDBRANCH  13  14
ENDBRANCH  12  13
ENDBRANCH  11  12
ENDBRANCH  10  11
ENDBRANCH   1  10
TORSDOF 13
ENDMDL
MODEL 5
REMARK VINA RESULT:    -4.728     10.374     11.756
REMARK INTER + INTRA:          -9.152
REMARK INTER:                  -8.300
REMARK INTRA:                  -0.852
REMARK UNBOUND:                -0.830
REMARK SMILES CCCCCCCCCCCCCCC(=O)[O-]
REMARK SMILES IDX 9 1 10 2 11 3 12 4 13 5 14 6 15 7 16 8 17 9 8 10 7 11 6 12
REMARK SMILES IDX 5 13 4 14 3 15 2 16 1 17
REMARK H PARENT
REMARK Flexibility Score: inf
ROOT
ATOM      1  C   UNL     1      17.738  23.365  47.650  1.00  0.00     0.000 C 
ENDROOT
BRANCH   1   2
ATOM      2  C   UNL     1      18.477  22.231  48.381  1.00  0.00     0.000 C 
BRANCH   2   3
ATOM      3  C   UNL     1      19.842  22.673  48.936  1.00  0.00     0.000 C 
BRANCH   3   4
ATOM      4  C   UNL     1      20.453  23.838  48.140  1.00  0.00     0.000 C 
BRANCH   4   5
ATOM      5  C   UNL     1      21.532  23.375  47.149  1.00  0.00     0.006 C 
BRANCH   5   6
ATOM      6  C   UNL     1      21.054  23.539  45.704  1.00  0.00     0.053 C 
BRANCH   6   7
ATOM      7  C   UNL     1      20.906  22.203  45.045  1.00  0.00     0.041 C 
ATOM      8  O   UNL     1      21.808  21.771  44.280  1.00  0.00    -0.550 OA
ATOM      9  O   UNL     1      19.749  21.458  45.237  1.00  0.00    -0.550 OA
ENDBRANCH   6   7
ENDBRANCH   5   6
ENDBRANCH   4   5
ENDBRANCH   3   4
ENDBRANCH   2   3
ENDBRANCH   1   2
BRANCH   1  10
ATOM     10  C   UNL     1      16.455  22.879  46.953  1.00  0.00     0.000 C 
BRANCH  10  11
ATOM     11  C   UNL     1      15.180  23.364  47.662  1.00  0.00    -0.000 C 
BRANCH  11  12
ATOM     12  C   UNL     1      13.899  22.788  47.033  1.00  0.00    -0.000 C 
BRANCH  12  13
ATOM     13  C   UNL     1      12.791  23.843  46.882  1.00  0.00    -0.000 C 
BRANCH  13  14
ATOM     14  C   UNL     1      12.333  24.019  45.424  1.00  0.00    -0.000 C 
BRANCH  14  15
ATOM     15  C   UNL     1      12.181  22.681  44.679  1.00  0.00    -0.000 C 
BRANCH  15  16
ATOM     16  C   UNL     1      11.966  22.810  43.161  1.00  0.00    -0.003 C 
ATOM     17  C   UNL     1      10.492  22.913  42.772  1.00  0.00     0.004 C 
ENDBRANCH  15  16
ENDBRANCH  14  15
ENDBRANCH  13  14
ENDBRANCH  12  13
ENDBRANCH  11  12
ENDBRANCH  10  11
ENDBRANCH   1  10
TORSDOF 13
ENDMDL
MODEL 6
REMARK VINA RESULT:    -4.707     10.973     14.027
REMARK INTER + INTRA:          -9.114
REMARK INTER:                  -7.730
REMARK INTRA:                  -1.384
REMARK UNBOUND:                -0.830
REMARK SMILES CCCCCCCCCCCCCCC(=O)[O-]
REMARK SMILES IDX 9 1 10 2 11 3 12 4 13 5 14 6 15 7 16 8 17 9 8 10 7 11 6 12
REMARK SMILES IDX 5 13 4 14 3 15 2 16 1 17
REMARK H PARENT
REMARK Flexibility Score: inf
ROOT
ATOM      1  C   UNL     1      16.594  23.386  46.560  1.00  0.00     0.000 C 
ENDROOT
BRANCH   1   2
ATOM      2  C   UNL     1      15.333  22.727  47.143  1.00  0.00     0.000 C 
BRANCH   2   3
ATOM      3  C   UNL     1      14.077  23.601  46.982  1.00  0.00     0.000 C 
BRANCH   3   4
ATOM      4  C   UNL     1      12.779  22.825  47.253  1.00  0.00     0.000 C 
BRANCH   4   5
ATOM      5  C   UNL     1      12.426  21.850  46.119  1.00  0.00     0.006 C 
BRANCH   5   6
ATOM      6  C   UNL     1      12.317  22.585  44.780  1.00  0.00     0.053 C 
BRANCH   6   7
ATOM      7  C   UNL     1      13.176  21.925  43.748  1.00  0.00     0.041 C 
ATOM      8  O   UNL     1      12.855  21.976  42.531  1.00  0.00    -0.550 OA
ATOM      9  O   UNL     1      14.303  21.211  44.134  1.00  0.00    -0.550 OA
ENDBRANCH   6   7
ENDBRANCH   5   6
ENDBRANCH   4   5
ENDBRANCH   3   4
ENDBRANCH   2   3
ENDBRANCH   1   2
BRANCH   1  10
ATOM     10  C   UNL     1      17.700  23.577  47.614  1.00  0.00     0.000 C 
BRANCH  10  11
ATOM     11  C   UNL     1      18.025  22.278  48.368  1.00  0.00    -0.000 C 
BRANCH  11  12
ATOM     12  C   UNL     1      19.519  22.155  48.717  1.00  0.00    -0.000 C 
BRANCH  12  13
ATOM     13  C   UNL     1      20.262  23.495  48.597  1.00  0.00    -0.000 C 
BRANCH  13  14
ATOM     14  C   UNL     1      21.452  23.430  47.624  1.00  0.00    -0.000 C 
BRANCH  14  15
ATOM     15  C   UNL     1      21.046  23.705  46.165  1.00  0.00    -0.000 C 
BRANCH  15  16
ATOM     16  C   UNL     1      21.159  22.491  45.225  1.00  0.00    -0.003 C 
ATOM     17  C   UNL     1      19.820  21.791  44.990  1.00  0.00     0.004 C 
ENDBRANCH  15  16
ENDBRANCH  14  15
ENDBRANCH  13  14
ENDBRANCH  12  13
ENDBRANCH  11  12
ENDBRANCH  10  11
ENDBRANCH   1  10
TORSDOF 13
ENDMDL
MODEL 7
REMARK VINA RESULT:    -4.678      5.820      9.333
REMARK INTER + INTRA:          -9.064
REMARK INTER:                  -7.826
REMARK INTRA:                  -1.238
REMARK UNBOUND:                -0.830
REMARK SMILES CCCCCCCCCCCCCCC(=O)[O-]
REMARK SMILES IDX 9 1 10 2 11 3 12 4 13 5 14 6 15 7 16 8 17 9 8 10 7 11 6 12
REMARK SMILES IDX 5 13 4 14 3 15 2 16 1 17
REMARK H PARENT
REMARK Flexibility Score: inf
ROOT
ATOM      1  C   UNL     1      12.354  21.570  37.043  1.00  0.00     0.000 C 
ENDROOT
BRANCH   1   2
ATOM      2  C   UNL     1      11.743  22.174  35.768  1.00  0.00     0.000 C 
BRANCH   2   3
ATOM      3  C   UNL     1      12.379  21.615  34.483  1.00  0.00     0.000 C 
BRANCH   3   4
ATOM      4  C   UNL     1      13.606  20.734  34.767  1.00  0.00     0.000 C 
BRANCH   4   5
ATOM      5  C   UNL     1      14.931  21.446  34.449  1.00  0.00     0.006 C 
BRANCH   5   6
ATOM      6  C   UNL     1      15.855  21.451  35.669  1.00  0.00     0.053 C 
BRANCH   6   7
ATOM      7  C   UNL     1      15.752  22.751  36.402  1.00  0.00     0.041 C 
ATOM      8  O   UNL     1      15.217  23.749  35.849  1.00  0.00    -0.550 OA
ATOM      9  O   UNL     1      16.290  22.876  37.676  1.00  0.00    -0.550 OA
ENDBRANCH   6   7
ENDBRANCH   5   6
ENDBRANCH   4   5
ENDBRANCH   3   4
ENDBRANCH   2   3
ENDBRANCH   1   2
BRANCH   1  10
ATOM     10  C   UNL     1      12.439  22.587  38.195  1.00  0.00     0.000 C 
BRANCH  10  11
ATOM     11  C   UNL     1      11.135  22.669  39.005  1.00  0.00    -0.000 C 
BRANCH  11  12
ATOM     12  C   UNL     1      10.506  21.287  39.254  1.00  0.00    -0.000 C 
BRANCH  12  13
ATOM     13  C   UNL     1       9.782  21.205  40.607  1.00  0.00    -0.000 C 
BRANCH  13  14
ATOM     14  C   UNL     1       9.236  22.565  41.073  1.00  0.00    -0.000 C 
BRANCH  14  15
ATOM     15  C   UNL     1       9.770  22.981  42.456  1.00  0.00    -0.000 C 
BRANCH  15  16
ATOM     16  C   UNL     1      11.302  22.938  42.594  1.00  0.00    -0.003 C 
ATOM     17  C   UNL     1      11.766  22.690  44.029  1.00  0.00     0.004 C 
ENDBRANCH  15  16
ENDBRANCH  14  15
ENDBRANCH  13  14
ENDBRANCH  12  13
ENDBRANCH  11  12
ENDBRANCH  10  11
ENDBRANCH   1  10
TORSDOF 13
ENDMDL
MODEL 8
REMARK VINA RESULT:    -4.674     10.657     14.067
REMARK INTER + INTRA:          -9.057
REMARK INTER:                  -8.475
REMARK INTRA:                  -0.581
REMARK UNBOUND:                -0.830
REMARK SMILES CCCCCCCCCCCCCCC(=O)[O-]
REMARK SMILES IDX 9 1 10 2 11 3 12 4 13 5 14 6 15 7 16 8 17 9 8 10 7 11 6 12
REMARK SMILES IDX 5 13 4 14 3 15 2 16 1 17
REMARK H PARENT
REMARK Flexibility Score: inf
ROOT
ATOM      1  C   UNL     1      12.287  23.488  44.859  1.00  0.00     0.000 C 
ENDROOT
BRANCH   1   2
ATOM      2  C   UNL     1      12.387  23.371  43.329  1.00  0.00     0.000 C 
BRANCH   2   3
ATOM      3  C   UNL     1      11.425  22.320  42.750  1.00  0.00     0.000 C 
BRANCH   3   4
ATOM      4  C   UNL     1      10.065  22.918  42.354  1.00  0.00     0.000 C 
BRANCH   4   5
ATOM      5  C   UNL     1       9.598  22.455  40.966  1.00  0.00     0.006 C 
BRANCH   5   6
ATOM      6  C   UNL     1      10.201  23.331  39.865  1.00  0.00     0.053 C 
BRANCH   6   7
ATOM      7  C   UNL     1      11.216  22.562  39.078  1.00  0.00     0.041 C 
ATOM      8  O   UNL     1      12.396  22.453  39.503  1.00  0.00    -0.550 OA
ATOM      9  O   UNL     1      10.870  22.008  37.852  1.00  0.00    -0.550 OA
ENDBRANCH   6   7
ENDBRANCH   5   6
ENDBRANCH   4   5
ENDBRANCH   3   4
ENDBRANCH   2   3
ENDBRANCH   1   2
BRANCH   1  10
ATOM     10  C   UNL     1      12.635  22.170  45.575  1.00  0.00     0.000 C 
BRANCH  10  11
ATOM     11  C   UNL     1      12.749  22.340  47.099  1.00  0.00    -0.000 C 
BRANCH  11  12
ATOM     12  C   UNL     1      13.847  23.341  47.501  1.00  0.00    -0.000 C 
BRANCH  12  13
ATOM     13  C   UNL     1      15.232  22.938  46.972  1.00  0.00    -0.000 C 
BRANCH  13  14
ATOM     14  C   UNL     1      16.347  23.130  48.015  1.00  0.00    -0.000 C 
BRANCH  14  15
ATOM     15  C   UNL     1      17.752  22.866  47.444  1.00  0.00    -0.000 C 
BRANCH  15  16
ATOM     16  C   UNL     1      18.697  22.102  48.388  1.00  0.00    -0.003 C 
ATOM     17  C   UNL     1      19.893  22.939  48.842  1.00  0.00     0.004 C 
ENDBRANCH  15  16
ENDBRANCH  14  15
ENDBRANCH  13  14
ENDBRANCH  12  13
ENDBRANCH  11  12
ENDBRANCH  10  11
ENDBRANCH   1  10
TORSDOF 13
ENDMDL
MODEL 9
REMARK VINA RESULT:    -4.648      3.496      7.947
REMARK INTER + INTRA:          -9.010
REMARK INTER:                  -7.591
REMARK INTRA:                  -1.420
REMARK UNBOUND:                -0.830
REMARK SMILES CCCCCCCCCCCCCCC(=O)[O-]
REMARK SMILES IDX 9 1 10 2 11 3 12 4 13 5 14 6 15 7 16 8 17 9 8 10 7 11 6 12
REMARK SMILES IDX 5 13 4 14 3 15 2 16 1 17
REMARK H PARENT
REMARK Flexibility Score: inf
ROOT
ATOM      1  C   UNL     1      21.488  21.588  34.477  1.00  0.00     0.000 C 
ENDROOT
BRANCH   1   2
ATOM      2  C   UNL     1      20.334  20.785  33.855  1.00  0.00     0.000 C 
BRANCH   2   3
ATOM      3  C   UNL     1      19.700  21.495  32.647  1.00  0.00     0.000 C 
BRANCH   3   4
ATOM      4  C   UNL     1      18.361  22.167  32.994  1.00  0.00     0.000 C 
BRANCH   4   5
ATOM      5  C   UNL     1      17.668  21.516  34.201  1.00  0.00     0.006 C 
BRANCH   5   6
ATOM      6  C   UNL     1      16.174  21.847  34.218  1.00  0.00     0.053 C 
BRANCH   6   7
ATOM      7  C   UNL     1      15.590  21.569  35.568  1.00  0.00     0.041 C 
ATOM      8  O   UNL     1      16.142  22.026  36.603  1.00  0.00    -0.550 OA
ATOM      9  O   UNL     1      14.464  20.764  35.685  1.00  0.00    -0.550 OA
ENDBRANCH   6   7
ENDBRANCH   5   6
ENDBRANCH   4   5
ENDBRANCH   3   4
ENDBRANCH   2   3
ENDBRANCH   1   2
BRANCH   1  10
ATOM     10  C   UNL     1      21.103  22.228  35.823  1.00  0.00     0.000 C 
BRANCH  10  11
ATOM     11  C   UNL     1      20.696  21.184  36.876  1.00  0.00    -0.000 C 
BRANCH  11  12
ATOM     12  C   UNL     1      21.555  21.264  38.150  1.00  0.00    -0.000 C 
BRANCH  12  13
ATOM     13  C   UNL     1      22.772  20.327  38.099  1.00  0.00    -0.000 C 
BRANCH  13  14
ATOM     14  C   UNL     1      24.103  21.066  38.321  1.00  0.00    -0.000 C 
BRANCH  14  15
ATOM     15  C   UNL     1      24.810  21.430  37.003  1.00  0.00    -0.000 C 
BRANCH  15  16
ATOM     16  C   UNL     1      25.180  22.917  36.860  1.00  0.00    -0.003 C 
ATOM     17  C   UNL     1      24.120  23.855  37.435  1.00  0.00     0.004 C 
ENDBRANCH  15  16
ENDBRANCH  14  15
ENDBRANCH  13  14
ENDBRANCH  12  13
ENDBRANCH  11  12
ENDBRANCH  10  11
ENDBRANCH   1  10
TORSDOF 13
ENDMDL
