MODEL 1
REMARK VINA RESULT:    -5.427      0.000      0.000
REMARK INTER + INTRA:          -6.029
REMARK INTER:                  -5.903
REMARK INTRA:                  -0.126
REMARK UNBOUND:                -0.126
REMARK SMILES Cc1ccc(C(C)C)cc1O
REMARK SMILES IDX 1 1 2 2 10 3 9 4 5 5 4 6 3 7 11 8 6 10 7 11 8 12
REMARK H PARENT 11 9
REMARK Flexibility Score: inf
ROOT
ATOM      1  C   UNL     1       3.275  10.179   7.391  1.00  0.00     0.048 C 
ATOM      2  C   UNL     1       4.610  10.450   6.754  1.00  0.00    -0.009 A 
ATOM      3  C   UNL     1       5.797  10.241   7.479  1.00  0.00     0.118 A 
ATOM      4  C   UNL     1       7.038  10.495   6.878  1.00  0.00     0.050 A 
ATOM      5  C   UNL     1       7.111  10.961   5.552  1.00  0.00    -0.042 A 
ATOM      6  C   UNL     1       5.920  11.167   4.837  1.00  0.00     0.004 A 
ATOM      7  C   UNL     1       4.682  10.914   5.432  1.00  0.00     0.007 A 
ENDROOT
BRANCH   3   8
ATOM      8  O   UNL     1       5.739   9.779   8.794  1.00  0.00    -0.508 OA
ATOM      9  H   UNL     1       6.532   9.856   9.418  1.00  0.00     0.293 HD
ENDBRANCH   3   8
BRANCH   5  10
ATOM     10  C   UNL     1       8.449  11.240   4.892  1.00  0.00     0.013 C 
ATOM     11  C   UNL     1       8.326  12.352   3.844  1.00  0.00     0.012 C 
ATOM     12  C   UNL     1       9.520  11.581   5.935  1.00  0.00     0.012 C 
ENDBRANCH   5  10
TORSDOF 2
ENDMDL
MODEL 2
REMARK VINA RESULT:    -5.397      2.648      5.835
REMARK INTER + INTRA:          -5.996
REMARK INTER:                  -5.868
REMARK INTRA:                  -0.128
REMARK UNBOUND:                -0.126
REMARK SMILES Cc1ccc(C(C)C)cc1O
REMARK SMILES IDX 1 1 2 2 10 3 9 4 5 5 4 6 3 7 11 8 6 10 7 11 8 12
REMARK H PARENT 11 9
REMARK Flexibility Score: inf
ROOT
ATOM      1  C   UNL     1       6.866  11.473   7.569  1.00  0.00     0.048 C 
ATOM      2  C   UNL     1       5.440  11.518   8.043  1.00  0.00    -0.009 A 
ATOM      3  C   UNL     1       4.558  10.465   7.739  1.00  0.00     0.118 A 
ATOM      4  C   UNL     1       3.230  10.514   8.184  1.00  0.00     0.050 A 
ATOM      5  C   UNL     1       2.764  11.609   8.935  1.00  0.00    -0.042 A 
ATOM      6  C   UNL     1       3.653  12.656   9.233  1.00  0.00     0.004 A 
ATOM      7  C   UNL     1       4.977  12.610   8.791  1.00  0.00     0.007 A 
ENDROOT
BRANCH   3   8
ATOM      8  O   UNL     1       5.006   9.373   6.997  1.00  0.00    -0.508 OA
ATOM      9  H   UNL     1       4.434   8.950   6.275  1.00  0.00     0.293 HD
ENDBRANCH   3   8
BRANCH   5  10
ATOM     10  C   UNL     1       1.328  11.673   9.422  1.00  0.00     0.013 C 
ATOM     11  C   UNL     1       1.151  10.882  10.723  1.00  0.00     0.012 C 
ATOM     12  C   UNL     1       0.866  13.125   9.592  1.00  0.00     0.012 C 
ENDBRANCH   5  10
TORSDOF 2
ENDMDL
MODEL 3
REMARK VINA RESULT:    -5.382      2.297      5.522
REMARK INTER + INTRA:          -5.980
REMARK INTER:                  -5.882
REMARK INTRA:                  -0.098
REMARK UNBOUND:                -0.126
REMARK SMILES Cc1ccc(C(C)C)cc1O
REMARK SMILES IDX 1 1 2 2 10 3 9 4 5 5 4 6 3 7 11 8 6 10 7 11 8 12
REMARK H PARENT 11 9
REMARK Flexibility Score: inf
ROOT
ATOM      1  C   UNL     1       6.597  10.523   6.672  1.00  0.00     0.048 C 
ATOM      2  C   UNL     1       5.296  10.732   7.395  1.00  0.00    -0.009 A 
ATOM      3  C   UNL     1       5.276  11.373   8.647  1.00  0.00     0.118 A 
ATOM      4  C   UNL     1       4.058  11.564   9.316  1.00  0.00     0.050 A 
ATOM      5  C   UNL     1       2.850  11.118   8.748  1.00  0.00    -0.042 A 
ATOM      6  C   UNL     1       2.881  10.479   7.498  1.00  0.00     0.004 A 
ATOM      7  C   UNL     1       4.092  10.287   6.828  1.00  0.00     0.007 A 
ENDROOT
BRANCH   3   8
ATOM      8  O   UNL     1       6.466  11.820   9.221  1.00  0.00    -0.508 OA
ATOM      9  H   UNL     1       6.732  12.797   9.199  1.00  0.00     0.293 HD
ENDBRANCH   3   8
BRANCH   5  10
ATOM     10  C   UNL     1       1.527  11.320   9.463  1.00  0.00     0.013 C 
ATOM     11  C   UNL     1       1.470  10.504  10.760  1.00  0.00     0.012 C 
ATOM     12  C   UNL     1       1.266  12.806   9.735  1.00  0.00     0.012 C 
ENDBRANCH   5  10
TORSDOF 2
ENDMDL
MODEL 4
REMARK VINA RESULT:    -5.361      1.918      2.973
REMARK INTER + INTRA:          -5.958
REMARK INTER:                  -5.830
REMARK INTRA:                  -0.128
REMARK UNBOUND:                -0.126
REMARK SMILES Cc1ccc(C(C)C)cc1O
REMARK SMILES IDX 1 1 2 2 10 3 9 4 5 5 4 6 3 7 11 8 6 10 7 11 8 12
REMARK H PARENT 11 9
REMARK Flexibility Score: inf
ROOT
ATOM      1  C   UNL     1       1.996  11.255   9.666  1.00  0.00     0.048 C 
ATOM      2  C   UNL     1       3.222  11.070   8.816  1.00  0.00    -0.009 A 
ATOM      3  C   UNL     1       3.113  10.530   7.522  1.00  0.00     0.118 A 
ATOM      4  C   UNL     1       4.261  10.360   6.736  1.00  0.00     0.050 A 
ATOM      5  C   UNL     1       5.528  10.725   7.227  1.00  0.00    -0.042 A 
ATOM      6  C   UNL     1       5.626  11.264   8.521  1.00  0.00     0.004 A 
ATOM      7  C   UNL     1       4.484  11.435   9.307  1.00  0.00     0.007 A 
ENDROOT
BRANCH   3   8
ATOM      8  O   UNL     1       1.863  10.164   7.022  1.00  0.00    -0.508 OA
ATOM      9  H   UNL     1       1.575  10.408   6.083  1.00  0.00     0.293 HD
ENDBRANCH   3   8
BRANCH   5  10
ATOM     10  C   UNL     1       6.777  10.546   6.384  1.00  0.00     0.013 C 
ATOM     11  C   UNL     1       6.751  11.464   5.156  1.00  0.00     0.012 C 
ATOM     12  C   UNL     1       8.044  10.776   7.217  1.00  0.00     0.012 C 
ENDBRANCH   5  10
TORSDOF 2
ENDMDL
MODEL 5
REMARK VINA RESULT:    -5.328      1.808      2.883
REMARK INTER + INTRA:          -5.921
REMARK INTER:                  -5.823
REMARK INTRA:                  -0.098
REMARK UNBOUND:                -0.126
REMARK SMILES Cc1ccc(C(C)C)cc1O
REMARK SMILES IDX 1 1 2 2 10 3 9 4 5 5 4 6 3 7 11 8 6 10 7 11 8 12
REMARK H PARENT 11 9
REMARK Flexibility Score: inf
ROOT
ATOM      1  C   UNL     1       2.800  10.140  10.282  1.00  0.00     0.048 C 
ATOM      2  C   UNL     1       3.752  10.512   9.179  1.00  0.00    -0.009 A 
ATOM      3  C   UNL     1       4.073   9.580   8.176  1.00  0.00     0.118 A 
ATOM      4  C   UNL     1       4.962   9.933   7.151  1.00  0.00     0.050 A 
ATOM      5  C   UNL     1       5.540  11.215   7.113  1.00  0.00    -0.042 A 
ATOM      6  C   UNL     1       5.213  12.139   8.119  1.00  0.00     0.004 A 
ATOM      7  C   UNL     1       4.327  11.790   9.142  1.00  0.00     0.007 A 
ENDROOT
BRANCH   3   8
ATOM      8  O   UNL     1       3.507   8.305   8.201  1.00  0.00    -0.508 OA
ATOM      9  H   UNL     1       3.551   7.689   7.399  1.00  0.00     0.293 HD
ENDBRANCH   3   8
BRANCH   5  10
ATOM     10  C   UNL     1       6.503  11.608   6.007  1.00  0.00     0.013 C 
ATOM     11  C   UNL     1       7.762  10.734   6.035  1.00  0.00     0.012 C 
ATOM     12  C   UNL     1       5.822  11.552   4.635  1.00  0.00     0.012 C 
ENDBRANCH   5  10
TORSDOF 2
ENDMDL
MODEL 6
REMARK VINA RESULT:    -5.149      1.791      4.311
REMARK INTER + INTRA:          -5.727
REMARK INTER:                  -5.599
REMARK INTRA:                  -0.127
REMARK UNBOUND:                -0.126
REMARK SMILES Cc1ccc(C(C)C)cc1O
REMARK SMILES IDX 1 1 2 2 10 3 9 4 5 5 4 6 3 7 11 8 6 10 7 11 8 12
REMARK H PARENT 11 9
REMARK Flexibility Score: inf
ROOT
ATOM      1  C   UNL     1       8.740  12.324   3.431  1.00  0.00     0.048 C 
ATOM      2  C   UNL     1       7.814  11.820   4.502  1.00  0.00    -0.009 A 
ATOM      3  C   UNL     1       8.333  11.249   5.677  1.00  0.00     0.118 A 
ATOM      4  C   UNL     1       7.463  10.781   6.672  1.00  0.00     0.050 A 
ATOM      5  C   UNL     1       6.069  10.875   6.508  1.00  0.00    -0.042 A 
ATOM      6  C   UNL     1       5.560  11.446   5.330  1.00  0.00     0.004 A 
ATOM      7  C   UNL     1       6.424  11.914   4.337  1.00  0.00     0.007 A 
ENDROOT
BRANCH   3   8
ATOM      8  O   UNL     1       9.713  11.149   5.853  1.00  0.00    -0.508 OA
ATOM      9  H   UNL     1      10.148  10.291   6.172  1.00  0.00     0.293 HD
ENDBRANCH   3   8
BRANCH   5  10
ATOM     10  C   UNL     1       5.118  10.371   7.578  1.00  0.00     0.013 C 
ATOM     11  C   UNL     1       5.153  11.273   8.817  1.00  0.00     0.012 C 
ATOM     12  C   UNL     1       3.691  10.241   7.032  1.00  0.00     0.012 C 
ENDBRANCH   5  10
TORSDOF 2
ENDMDL
MODEL 7
REMARK VINA RESULT:    -4.793      2.093      4.947
REMARK INTER + INTRA:          -5.339
REMARK INTER:                  -5.211
REMARK INTRA:                  -0.128
REMARK UNBOUND:                -0.126
REMARK SMILES Cc1ccc(C(C)C)cc1O
REMARK SMILES IDX 1 1 2 2 10 3 9 4 5 5 4 6 3 7 11 8 6 10 7 11 8 12
REMARK H PARENT 11 9
REMARK Flexibility Score: inf
ROOT
ATOM      1  C   UNL     1       8.903  11.409   6.816  1.00  0.00     0.048 C 
ATOM      2  C   UNL     1       7.482  11.388   7.305  1.00  0.00    -0.009 A 
ATOM      3  C   UNL     1       6.498  10.680   6.592  1.00  0.00     0.118 A 
ATOM      4  C   UNL     1       5.174  10.666   7.053  1.00  0.00     0.050 A 
ATOM      5  C   UNL     1       4.815  11.355   8.226  1.00  0.00    -0.042 A 
ATOM      6  C   UNL     1       5.805  12.059   8.931  1.00  0.00     0.004 A 
ATOM      7  C   UNL     1       7.125  12.075   8.475  1.00  0.00     0.007 A 
ENDROOT
BRANCH   3   8
ATOM      8  O   UNL     1       6.839   9.993   5.427  1.00  0.00    -0.508 OA
ATOM      9  H   UNL     1       6.375  10.178   4.546  1.00  0.00     0.293 HD
ENDBRANCH   3   8
BRANCH   5  10
ATOM     10  C   UNL     1       3.385  11.346   8.735  1.00  0.00     0.013 C 
ATOM     11  C   UNL     1       3.189  10.275   9.814  1.00  0.00     0.012 C 
ATOM     12  C   UNL     1       2.973  12.730   9.250  1.00  0.00     0.012 C 
ENDBRANCH   5  10
TORSDOF 2
ENDMDL
MODEL 8
REMARK VINA RESULT:    -4.591      1.721      2.555
REMARK INTER + INTRA:          -5.120
REMARK INTER:                  -4.992
REMARK INTRA:                  -0.128
REMARK UNBOUND:                -0.126
REMARK SMILES Cc1ccc(C(C)C)cc1O
REMARK SMILES IDX 1 1 2 2 10 3 9 4 5 5 4 6 3 7 11 8 6 10 7 11 8 12
REMARK H PARENT 11 9
REMARK Flexibility Score: inf
ROOT
ATOM      1  C   UNL     1       3.460  10.289   7.698  1.00  0.00     0.048 C 
ATOM      2  C   UNL     1       4.850  10.806   7.450  1.00  0.00    -0.009 A 
ATOM      3  C   UNL     1       5.365  10.855   6.143  1.00  0.00     0.118 A 
ATOM      4  C   UNL     1       6.662  11.338   5.919  1.00  0.00     0.050 A 
ATOM      5  C   UNL     1       7.460  11.776   6.992  1.00  0.00    -0.042 A 
ATOM      6  C   UNL     1       6.936  11.723   8.295  1.00  0.00     0.004 A 
ATOM      7  C   UNL     1       5.644  11.243   8.521  1.00  0.00     0.007 A 
ENDROOT
BRANCH   3   8
ATOM      8  O   UNL     1       4.586  10.424   5.069  1.00  0.00    -0.508 OA
ATOM      9  H   UNL     1       4.085   9.544   5.096  1.00  0.00     0.293 HD
ENDBRANCH   3   8
BRANCH   5  10
ATOM     10  C   UNL     1       8.865  12.301   6.762  1.00  0.00     0.013 C 
ATOM     11  C   UNL     1       9.602  12.507   8.090  1.00  0.00     0.012 C 
ATOM     12  C   UNL     1       9.656  11.374   5.831  1.00  0.00     0.012 C 
ENDBRANCH   5  10
TORSDOF 2
ENDMDL
MODEL 9
REMARK VINA RESULT:    -4.549      2.136      4.623
REMARK INTER + INTRA:          -5.074
REMARK INTER:                  -4.946
REMARK INTRA:                  -0.128
REMARK UNBOUND:                -0.126
REMARK SMILES Cc1ccc(C(C)C)cc1O
REMARK SMILES IDX 1 1 2 2 10 3 9 4 5 5 4 6 3 7 11 8 6 10 7 11 8 12
REMARK H PARENT 11 9
REMARK Flexibility Score: inf
ROOT
ATOM      1  C   UNL     1       6.727  11.628   4.263  1.00  0.00     0.048 C 
ATOM      2  C   UNL     1       5.993  11.539   5.572  1.00  0.00    -0.009 A 
ATOM      3  C   UNL     1       6.423  12.291   6.680  1.00  0.00     0.118 A 
ATOM      4  C   UNL     1       5.734  12.202   7.897  1.00  0.00     0.050 A 
ATOM      5  C   UNL     1       4.610  11.365   8.026  1.00  0.00    -0.042 A 
ATOM      6  C   UNL     1       4.188  10.617   6.914  1.00  0.00     0.004 A 
ATOM      7  C   UNL     1       4.872  10.704   5.699  1.00  0.00     0.007 A 
ENDROOT
BRANCH   3   8
ATOM      8  O   UNL     1       7.535  13.125   6.566  1.00  0.00    -0.508 OA
ATOM      9  H   UNL     1       8.368  12.835   6.068  1.00  0.00     0.293 HD
ENDBRANCH   3   8
BRANCH   5  10
ATOM     10  C   UNL     1       3.856  11.261   9.339  1.00  0.00     0.013 C 
ATOM     11  C   UNL     1       2.510  11.991   9.262  1.00  0.00     0.012 C 
ATOM     12  C   UNL     1       3.667   9.797   9.753  1.00  0.00     0.012 C 
ENDBRANCH   5  10
TORSDOF 2
ENDMDL
