MODEL 1
REMARK VINA RESULT:    -4.888      0.000      0.000
REMARK INTER + INTRA:          -6.435
REMARK INTER:                  -6.031
REMARK INTRA:                  -0.404
REMARK UNBOUND:                -0.404
REMARK SMILES COc1cc(-c2oc3cc(O)cc(O)c3c(=O)c2O)ccc1O
REMARK SMILES IDX 6 1 18 2 16 3 17 4 15 5 13 6 12 7 10 8 9 9 8 10 7 11 5 12
REMARK SMILES IDX 3 13 22 14 4 15 21 16 20 17 2 18 1 19 23 20 19 22 14 24
REMARK SMILES IDX 11 26
REMARK H PARENT 23 21 19 23 14 25 11 27
REMARK Flexibility Score: inf
ROOT
ATOM      1  C   UNL     1      40.056 -30.377  10.608  1.00  0.00     0.180 A 
ATOM      2  C   UNL     1      39.575 -29.874  11.830  1.00  0.00     0.208 A 
ATOM      3  C   UNL     1      38.202 -29.615  11.966  1.00  0.00     0.238 A 
ATOM      4  O   UNL     1      37.770 -29.216  13.080  1.00  0.00    -0.285 OA
ATOM      5  C   UNL     1      37.330 -29.844  10.875  1.00  0.00     0.111 A 
ATOM      6  C   UNL     1      35.927 -29.579  10.890  1.00  0.00     0.134 A 
ATOM      7  C   UNL     1      35.140 -29.969   9.798  1.00  0.00     0.093 A 
ATOM      8  C   UNL     1      35.712 -30.553   8.669  1.00  0.00     0.123 A 
ATOM      9  C   UNL     1      37.091 -30.763   8.620  1.00  0.00     0.094 A 
ATOM     10  C   UNL     1      37.898 -30.419   9.709  1.00  0.00     0.146 A 
ATOM     11  O   UNL     1      39.203 -30.644   9.626  1.00  0.00    -0.452 OA
ENDROOT
BRANCH   1  12
ATOM     12  C   UNL     1      41.493 -30.652  10.381  1.00  0.00     0.025 A 
ATOM     13  C   UNL     1      43.355 -32.240  10.389  1.00  0.00     0.161 A 
ATOM     14  C   UNL     1      44.206 -31.231   9.902  1.00  0.00     0.157 A 
ATOM     15  C   UNL     1      41.996 -31.942  10.619  1.00  0.00     0.062 A 
ATOM     16  C   UNL     1      43.701 -29.953   9.647  1.00  0.00     0.051 A 
ATOM     17  C   UNL     1      42.354 -29.664   9.876  1.00  0.00     0.016 A 
BRANCH  13  18
ATOM     18  O   UNL     1      43.887 -33.517  10.630  1.00  0.00    -0.493 OA
ATOM     19  C   UNL     1      43.907 -34.157  11.902  1.00  0.00     0.278 C 
ENDBRANCH  13  18
BRANCH  14  20
ATOM     20  O   UNL     1      45.556 -31.481   9.663  1.00  0.00    -0.504 OA
ATOM     21  H   UNL     1      46.222 -31.616  10.415  1.00  0.00     0.293 HD
ENDBRANCH  14  20
ENDBRANCH   1  12
BRANCH   2  22
ATOM     22  O   UNL     1      40.451 -29.675  12.901  1.00  0.00    -0.502 OA
ATOM     23  H   UNL     1      40.177 -29.184  13.744  1.00  0.00     0.293 HD
ENDBRANCH   2  22
BRANCH   6  24
ATOM     24  O   UNL     1      35.268 -28.917  11.929  1.00  0.00    -0.507 OA
ATOM     25  H   UNL     1      34.600 -29.346  12.551  1.00  0.00     0.293 HD
ENDBRANCH   6  24
BRANCH   8  26
ATOM     26  O   UNL     1      34.901 -30.913   7.595  1.00  0.00    -0.508 OA
ATOM     27  H   UNL     1      34.447 -30.215   7.017  1.00  0.00     0.293 HD
ENDBRANCH   8  26
TORSDOF 6
ENDMDL
MODEL 2
REMARK VINA RESULT:    -4.770      1.500      7.315
REMARK INTER + INTRA:          -6.290
REMARK INTER:                  -5.924
REMARK INTRA:                  -0.366
REMARK UNBOUND:                -0.404
REMARK SMILES COc1cc(-c2oc3cc(O)cc(O)c3c(=O)c2O)ccc1O
REMARK SMILES IDX 6 1 18 2 16 3 17 4 15 5 13 6 12 7 10 8 9 9 8 10 7 11 5 12
REMARK SMILES IDX 3 13 22 14 4 15 21 16 20 17 2 18 1 19 23 20 19 22 14 24
REMARK SMILES IDX 11 26
REMARK H PARENT 23 21 19 23 14 25 11 27
REMARK Flexibility Score: inf
ROOT
ATOM      1  C   UNL     1      40.778 -30.689  10.524  1.00  0.00     0.180 A 
ATOM      2  C   UNL     1      41.719 -29.972   9.764  1.00  0.00     0.208 A 
ATOM      3  C   UNL     1      43.057 -30.396   9.760  1.00  0.00     0.238 A 
ATOM      4  O   UNL     1      43.884 -29.783   9.035  1.00  0.00    -0.285 OA
ATOM      5  C   UNL     1      43.442 -31.522  10.527  1.00  0.00     0.111 A 
ATOM      6  C   UNL     1      44.777 -32.017  10.627  1.00  0.00     0.134 A 
ATOM      7  C   UNL     1      45.019 -33.216  11.310  1.00  0.00     0.093 A 
ATOM      8  C   UNL     1      43.988 -33.902  11.950  1.00  0.00     0.123 A 
ATOM      9  C   UNL     1      42.688 -33.395  11.909  1.00  0.00     0.094 A 
ATOM     10  C   UNL     1      42.408 -32.221  11.204  1.00  0.00     0.146 A 
ATOM     11  O   UNL     1      41.157 -31.779  11.180  1.00  0.00    -0.452 OA
ENDROOT
BRANCH   1  12
ATOM     12  C   UNL     1      39.355 -30.287  10.597  1.00  0.00     0.025 A 
ATOM     13  C   UNL     1      37.113 -30.307   9.616  1.00  0.00     0.161 A 
ATOM     14  C   UNL     1      36.629 -29.597  10.730  1.00  0.00     0.157 A 
ATOM     15  C   UNL     1      38.479 -30.654   9.562  1.00  0.00     0.062 A 
ATOM     16  C   UNL     1      37.497 -29.249  11.768  1.00  0.00     0.051 A 
ATOM     17  C   UNL     1      38.848 -29.596  11.710  1.00  0.00     0.016 A 
BRANCH  13  18
ATOM     18  O   UNL     1      36.218 -30.649   8.589  1.00  0.00    -0.493 OA
ATOM     19  C   UNL     1      36.324 -30.203   7.241  1.00  0.00     0.278 C 
ENDBRANCH  13  18
BRANCH  14  20
ATOM     20  O   UNL     1      35.287 -29.230  10.823  1.00  0.00    -0.504 OA
ATOM     21  H   UNL     1      34.555 -29.729  10.329  1.00  0.00     0.293 HD
ENDBRANCH  14  20
ENDBRANCH   1  12
BRANCH   2  22
ATOM     22  O   UNL     1      41.313 -28.876   8.996  1.00  0.00    -0.502 OA
ATOM     23  H   UNL     1      41.854 -28.532   8.211  1.00  0.00     0.293 HD
ENDBRANCH   2  22
BRANCH   6  24
ATOM     24  O   UNL     1      45.894 -31.361  10.104  1.00  0.00    -0.507 OA
ATOM     25  H   UNL     1      46.315 -31.567   9.210  1.00  0.00     0.293 HD
ENDBRANCH   6  24
BRANCH   8  26
ATOM     26  O   UNL     1      44.268 -35.082  12.634  1.00  0.00    -0.508 OA
ATOM     27  H   UNL     1      44.874 -35.093  13.446  1.00  0.00     0.293 HD
ENDBRANCH   8  26
TORSDOF 6
ENDMDL
MODEL 3
REMARK VINA RESULT:    -4.720      1.647      7.155
REMARK INTER + INTRA:          -6.228
REMARK INTER:                  -5.851
REMARK INTRA:                  -0.377
REMARK UNBOUND:                -0.404
REMARK SMILES COc1cc(-c2oc3cc(O)cc(O)c3c(=O)c2O)ccc1O
REMARK SMILES IDX 6 1 18 2 16 3 17 4 15 5 13 6 12 7 10 8 9 9 8 10 7 11 5 12
REMARK SMILES IDX 3 13 22 14 4 15 21 16 20 17 2 18 1 19 23 20 19 22 14 24
REMARK SMILES IDX 11 26
REMARK H PARENT 23 21 19 23 14 25 11 27
REMARK Flexibility Score: inf
ROOT
ATOM      1  C   UNL     1      40.427 -30.755  10.650  1.00  0.00     0.180 A 
ATOM      2  C   UNL     1      40.766 -31.837  11.481  1.00  0.00     0.208 A 
ATOM      3  C   UNL     1      42.108 -32.243  11.556  1.00  0.00     0.238 A 
ATOM      4  O   UNL     1      42.413 -33.178  12.344  1.00  0.00    -0.285 OA
ATOM      5  C   UNL     1      43.091 -31.575  10.788  1.00  0.00     0.111 A 
ATOM      6  C   UNL     1      44.474 -31.928  10.757  1.00  0.00     0.134 A 
ATOM      7  C   UNL     1      45.378 -31.114  10.063  1.00  0.00     0.093 A 
ATOM      8  C   UNL     1      44.943 -30.000   9.347  1.00  0.00     0.123 A 
ATOM      9  C   UNL     1      43.584 -29.680   9.321  1.00  0.00     0.094 A 
ATOM     10  C   UNL     1      42.662 -30.451  10.034  1.00  0.00     0.146 A 
ATOM     11  O   UNL     1      41.381 -30.107   9.993  1.00  0.00    -0.452 OA
ENDROOT
BRANCH   1  12
ATOM     12  C   UNL     1      39.031 -30.285  10.500  1.00  0.00     0.025 A 
ATOM     13  C   UNL     1      36.922 -30.328   9.259  1.00  0.00     0.161 A 
ATOM     14  C   UNL     1      36.354 -29.464  10.213  1.00  0.00     0.157 A 
ATOM     15  C   UNL     1      38.262 -30.740   9.415  1.00  0.00     0.062 A 
ATOM     16  C   UNL     1      37.114 -29.028  11.301  1.00  0.00     0.051 A 
ATOM     17  C   UNL     1      38.439 -29.439  11.451  1.00  0.00     0.016 A 
BRANCH  13  18
ATOM     18  O   UNL     1      36.135 -30.757   8.178  1.00  0.00    -0.493 OA
ATOM     19  C   UNL     1      36.320 -30.343   6.828  1.00  0.00     0.278 C 
ENDBRANCH  13  18
BRANCH  14  20
ATOM     20  O   UNL     1      35.034 -29.031  10.095  1.00  0.00    -0.504 OA
ATOM     21  H   UNL     1      34.754 -28.328   9.421  1.00  0.00     0.293 HD
ENDBRANCH  14  20
ENDBRANCH   1  12
BRANCH   2  22
ATOM     22  O   UNL     1      39.783 -32.470  12.248  1.00  0.00    -0.502 OA
ATOM     23  H   UNL     1      39.616 -33.467  12.202  1.00  0.00     0.293 HD
ENDBRANCH   2  22
BRANCH   6  24
ATOM     24  O   UNL     1      45.002 -33.071  11.363  1.00  0.00    -0.507 OA
ATOM     25  H   UNL     1      44.566 -33.572  12.122  1.00  0.00     0.293 HD
ENDBRANCH   6  24
BRANCH   8  26
ATOM     26  O   UNL     1      45.868 -29.223   8.655  1.00  0.00    -0.508 OA
ATOM     27  H   UNL     1      45.991 -29.312   7.653  1.00  0.00     0.293 HD
ENDBRANCH   8  26
TORSDOF 6
ENDMDL
MODEL 4
REMARK VINA RESULT:    -4.227      1.893      2.697
REMARK INTER + INTRA:          -5.619
REMARK INTER:                  -5.257
REMARK INTRA:                  -0.363
REMARK UNBOUND:                -0.404
REMARK SMILES COc1cc(-c2oc3cc(O)cc(O)c3c(=O)c2O)ccc1O
REMARK SMILES IDX 6 1 18 2 16 3 17 4 15 5 13 6 12 7 10 8 9 9 8 10 7 11 5 12
REMARK SMILES IDX 3 13 22 14 4 15 21 16 20 17 2 18 1 19 23 20 19 22 14 24
REMARK SMILES IDX 11 26
REMARK H PARENT 23 21 19 23 14 25 11 27
REMARK Flexibility Score: inf
ROOT
ATOM      1  C   UNL     1      40.033 -30.594  11.325  1.00  0.00     0.180 A 
ATOM      2  C   UNL     1      39.803 -29.857  10.150  1.00  0.00     0.208 A 
ATOM      3  C   UNL     1      38.481 -29.617   9.745  1.00  0.00     0.238 A 
ATOM      4  O   UNL     1      38.281 -28.911   8.721  1.00  0.00    -0.285 OA
ATOM      5  C   UNL     1      37.405 -30.129  10.509  1.00  0.00     0.111 A 
ATOM      6  C   UNL     1      36.027 -29.980  10.171  1.00  0.00     0.134 A 
ATOM      7  C   UNL     1      35.044 -30.415  11.070  1.00  0.00     0.093 A 
ATOM      8  C   UNL     1      35.388 -31.050  12.261  1.00  0.00     0.123 A 
ATOM      9  C   UNL     1      36.733 -31.255  12.575  1.00  0.00     0.094 A 
ATOM     10  C   UNL     1      37.737 -30.799  11.716  1.00  0.00     0.146 A 
ATOM     11  O   UNL     1      39.003 -31.004  12.056  1.00  0.00    -0.452 OA
ENDROOT
BRANCH   1  12
ATOM     12  C   UNL     1      41.399 -30.908  11.803  1.00  0.00     0.025 A 
ATOM     13  C   UNL     1      43.295 -32.453  11.875  1.00  0.00     0.161 A 
ATOM     14  C   UNL     1      44.017 -31.518  12.638  1.00  0.00     0.157 A 
ATOM     15  C   UNL     1      41.987 -32.136  11.455  1.00  0.00     0.062 A 
ATOM     16  C   UNL     1      43.439 -30.289  12.967  1.00  0.00     0.051 A 
ATOM     17  C   UNL     1      42.143 -29.980  12.548  1.00  0.00     0.016 A 
BRANCH  13  18
ATOM     18  O   UNL     1      43.902 -33.678  11.552  1.00  0.00    -0.493 OA
ATOM     19  C   UNL     1      43.856 -34.843  12.369  1.00  0.00     0.278 C 
ENDBRANCH  13  18
BRANCH  14  20
ATOM     20  O   UNL     1      45.312 -31.792  13.076  1.00  0.00    -0.504 OA
ATOM     21  H   UNL     1      45.694 -32.730  13.080  1.00  0.00     0.293 HD
ENDBRANCH  14  20
ENDBRANCH   1  12
BRANCH   2  22
ATOM     22  O   UNL     1      40.880 -29.342   9.421  1.00  0.00    -0.502 OA
ATOM     23  H   UNL     1      40.764 -28.909   8.513  1.00  0.00     0.293 HD
ENDBRANCH   2  22
BRANCH   6  24
ATOM     24  O   UNL     1      35.573 -29.442   8.963  1.00  0.00    -0.507 OA
ATOM     25  H   UNL     1      35.380 -28.464   8.806  1.00  0.00     0.293 HD
ENDBRANCH   6  24
BRANCH   8  26
ATOM     26  O   UNL     1      34.385 -31.484  13.124  1.00  0.00    -0.508 OA
ATOM     27  H   UNL     1      34.168 -30.985  13.979  1.00  0.00     0.293 HD
ENDBRANCH   8  26
TORSDOF 6
ENDMDL
MODEL 5
REMARK VINA RESULT:    -4.081      1.655      7.161
REMARK INTER + INTRA:          -5.439
REMARK INTER:                  -5.303
REMARK INTRA:                  -0.136
REMARK UNBOUND:                -0.404
REMARK SMILES COc1cc(-c2oc3cc(O)cc(O)c3c(=O)c2O)ccc1O
REMARK SMILES IDX 6 1 18 2 16 3 17 4 15 5 13 6 12 7 10 8 9 9 8 10 7 11 5 12
REMARK SMILES IDX 3 13 22 14 4 15 21 16 20 17 2 18 1 19 23 20 19 22 14 24
REMARK SMILES IDX 11 26
REMARK H PARENT 23 21 19 23 14 25 11 27
REMARK Flexibility Score: inf
ROOT
ATOM      1  C   UNL     1      40.128 -31.263  10.915  1.00  0.00     0.180 A 
ATOM      2  C   UNL     1      40.398 -32.201  11.928  1.00  0.00     0.208 A 
ATOM      3  C   UNL     1      41.730 -32.567  12.180  1.00  0.00     0.238 A 
ATOM      4  O   UNL     1      41.969 -33.365  13.124  1.00  0.00    -0.285 OA
ATOM      5  C   UNL     1      42.774 -32.005  11.406  1.00  0.00     0.111 A 
ATOM      6  C   UNL     1      44.155 -32.333  11.549  1.00  0.00     0.134 A 
ATOM      7  C   UNL     1      45.114 -31.617  10.820  1.00  0.00     0.093 A 
ATOM      8  C   UNL     1      44.738 -30.633   9.907  1.00  0.00     0.123 A 
ATOM      9  C   UNL     1      43.385 -30.345   9.716  1.00  0.00     0.094 A 
ATOM     10  C   UNL     1      42.407 -31.016  10.456  1.00  0.00     0.146 A 
ATOM     11  O   UNL     1      41.134 -30.705  10.252  1.00  0.00    -0.452 OA
ENDROOT
BRANCH   1  12
ATOM     12  C   UNL     1      38.749 -30.847  10.575  1.00  0.00     0.025 A 
ATOM     13  C   UNL     1      36.633 -29.826  11.261  1.00  0.00     0.161 A 
ATOM     14  C   UNL     1      36.142 -29.985   9.952  1.00  0.00     0.157 A 
ATOM     15  C   UNL     1      37.942 -30.255  11.562  1.00  0.00     0.062 A 
ATOM     16  C   UNL     1      36.952 -30.556   8.967  1.00  0.00     0.051 A 
ATOM     17  C   UNL     1      38.248 -30.978   9.270  1.00  0.00     0.016 A 
BRANCH  13  18
ATOM     18  O   UNL     1      35.802 -29.243  12.231  1.00  0.00    -0.493 OA
ATOM     19  C   UNL     1      34.966 -29.973  13.124  1.00  0.00     0.278 C 
ENDBRANCH  13  18
BRANCH  14  20
ATOM     20  O   UNL     1      34.853 -29.578   9.612  1.00  0.00    -0.504 OA
ATOM     21  H   UNL     1      34.595 -29.338   8.662  1.00  0.00     0.293 HD
ENDBRANCH  14  20
ENDBRANCH   1  12
BRANCH   2  22
ATOM     22  O   UNL     1      39.354 -32.727  12.694  1.00  0.00    -0.502 OA
ATOM     23  H   UNL     1      38.767 -33.484  12.365  1.00  0.00     0.293 HD
ENDBRANCH   2  22
BRANCH   6  24
ATOM     24  O   UNL     1      44.633 -33.362  12.365  1.00  0.00    -0.507 OA
ATOM     25  H   UNL     1      44.051 -34.037  12.839  1.00  0.00     0.293 HD
ENDBRANCH   6  24
BRANCH   8  26
ATOM     26  O   UNL     1      45.717 -29.953   9.187  1.00  0.00    -0.508 OA
ATOM     27  H   UNL     1      46.668 -30.298   9.129  1.00  0.00     0.293 HD
ENDBRANCH   8  26
TORSDOF 6
ENDMDL
MODEL 6
REMARK VINA RESULT:    -3.405      2.067      7.564
REMARK INTER + INTRA:          -4.605
REMARK INTER:                  -5.091
REMARK INTRA:                   0.486
REMARK UNBOUND:                -0.404
REMARK SMILES COc1cc(-c2oc3cc(O)cc(O)c3c(=O)c2O)ccc1O
REMARK SMILES IDX 6 1 18 2 16 3 17 4 15 5 13 6 12 7 10 8 9 9 8 10 7 11 5 12
REMARK SMILES IDX 3 13 22 14 4 15 21 16 20 17 2 18 1 19 23 20 19 22 14 24
REMARK SMILES IDX 11 26
REMARK H PARENT 23 21 19 23 14 25 11 27
REMARK Flexibility Score: inf
ROOT
ATOM      1  C   UNL     1      40.316 -31.683  11.807  1.00  0.00     0.180 A 
ATOM      2  C   UNL     1      40.919 -30.706  10.994  1.00  0.00     0.208 A 
ATOM      3  C   UNL     1      42.306 -30.756  10.785  1.00  0.00     0.238 A 
ATOM      4  O   UNL     1      42.831 -29.911  10.013  1.00  0.00    -0.285 OA
ATOM      5  C   UNL     1      43.076 -31.770  11.403  1.00  0.00     0.111 A 
ATOM      6  C   UNL     1      44.494 -31.892  11.292  1.00  0.00     0.134 A 
ATOM      7  C   UNL     1      45.135 -33.011  11.838  1.00  0.00     0.093 A 
ATOM      8  C   UNL     1      44.422 -33.976  12.546  1.00  0.00     0.123 A 
ATOM      9  C   UNL     1      43.042 -33.837  12.712  1.00  0.00     0.094 A 
ATOM     10  C   UNL     1      42.369 -32.750  12.147  1.00  0.00     0.146 A 
ATOM     11  O   UNL     1      41.056 -32.660  12.319  1.00  0.00    -0.452 OA
ENDROOT
BRANCH   1  12
ATOM     12  C   UNL     1      38.864 -31.682  12.094  1.00  0.00     0.025 A 
ATOM     13  C   UNL     1      36.655 -30.686  11.749  1.00  0.00     0.161 A 
ATOM     14  C   UNL     1      36.088 -31.683  12.564  1.00  0.00     0.157 A 
ATOM     15  C   UNL     1      38.045 -30.698  11.513  1.00  0.00     0.062 A 
ATOM     16  C   UNL     1      36.900 -32.672  13.125  1.00  0.00     0.051 A 
ATOM     17  C   UNL     1      38.276 -32.680  12.888  1.00  0.00     0.016 A 
BRANCH  13  18
ATOM     18  O   UNL     1      35.816 -29.707  11.192  1.00  0.00    -0.493 OA
ATOM     19  C   UNL     1      36.068 -29.028   9.966  1.00  0.00     0.278 C 
ENDBRANCH  13  18
BRANCH  14  20
ATOM     20  O   UNL     1      34.719 -31.706  12.825  1.00  0.00    -0.504 OA
ATOM     21  H   UNL     1      34.304 -31.180  13.585  1.00  0.00     0.293 HD
ENDBRANCH  14  20
ENDBRANCH   1  12
BRANCH   2  22
ATOM     22  O   UNL     1      40.136 -29.726  10.376  1.00  0.00    -0.502 OA
ATOM     23  H   UNL     1      40.424 -28.757  10.319  1.00  0.00     0.293 HD
ENDBRANCH   2  22
BRANCH   6  24
ATOM     24  O   UNL     1      45.315 -30.937  10.685  1.00  0.00    -0.507 OA
ATOM     25  H   UNL     1      45.541 -30.038  11.083  1.00  0.00     0.293 HD
ENDBRANCH   6  24
BRANCH   8  26
ATOM     26  O   UNL     1      45.094 -35.068  13.091  1.00  0.00    -0.508 OA
ATOM     27  H   UNL     1      46.063 -35.261  12.863  1.00  0.00     0.293 HD
ENDBRANCH   8  26
TORSDOF 6
ENDMDL
MODEL 7
REMARK VINA RESULT:    -3.134      1.473      6.911
REMARK INTER + INTRA:          -4.271
REMARK INTER:                  -4.229
REMARK INTRA:                  -0.042
REMARK UNBOUND:                -0.404
REMARK SMILES COc1cc(-c2oc3cc(O)cc(O)c3c(=O)c2O)ccc1O
REMARK SMILES IDX 6 1 18 2 16 3 17 4 15 5 13 6 12 7 10 8 9 9 8 10 7 11 5 12
REMARK SMILES IDX 3 13 22 14 4 15 21 16 20 17 2 18 1 19 23 20 19 22 14 24
REMARK SMILES IDX 11 26
REMARK H PARENT 23 21 19 23 14 25 11 27
REMARK Flexibility Score: inf
ROOT
ATOM      1  C   UNL     1      39.012 -30.663  10.745  1.00  0.00     0.180 A 
ATOM      2  C   UNL     1      39.475 -29.836  11.784  1.00  0.00     0.208 A 
ATOM      3  C   UNL     1      40.804 -29.966  12.216  1.00  0.00     0.238 A 
ATOM      4  O   UNL     1      41.228 -29.186  13.109  1.00  0.00    -0.285 OA
ATOM      5  C   UNL     1      41.649 -30.930  11.618  1.00  0.00     0.111 A 
ATOM      6  C   UNL     1      43.002 -31.174  12.003  1.00  0.00     0.134 A 
ATOM      7  C   UNL     1      43.784 -32.062  11.253  1.00  0.00     0.093 A 
ATOM      8  C   UNL     1      43.247 -32.761  10.174  1.00  0.00     0.123 A 
ATOM      9  C   UNL     1      41.908 -32.574   9.824  1.00  0.00     0.094 A 
ATOM     10  C   UNL     1      41.112 -31.668  10.531  1.00  0.00     0.146 A 
ATOM     11  O   UNL     1      39.847 -31.512  10.159  1.00  0.00    -0.452 OA
ENDROOT
BRANCH   1  12
ATOM     12  C   UNL     1      37.617 -30.602  10.253  1.00  0.00     0.025 A 
ATOM     13  C   UNL     1      35.218 -30.562  10.736  1.00  0.00     0.161 A 
ATOM     14  C   UNL     1      34.953 -30.426   9.361  1.00  0.00     0.157 A 
ATOM     15  C   UNL     1      36.556 -30.642  11.174  1.00  0.00     0.062 A 
ATOM     16  C   UNL     1      36.008 -30.367   8.448  1.00  0.00     0.051 A 
ATOM     17  C   UNL     1      37.331 -30.446   8.887  1.00  0.00     0.016 A 
BRANCH  13  18
ATOM     18  O   UNL     1      34.139 -30.612  11.633  1.00  0.00    -0.493 OA
ATOM     19  C   UNL     1      33.946 -31.629  12.611  1.00  0.00     0.278 C 
ENDBRANCH  13  18
BRANCH  14  20
ATOM     20  O   UNL     1      33.645 -30.346   8.885  1.00  0.00    -0.504 OA
ATOM     21  H   UNL     1      33.145 -29.466   8.823  1.00  0.00     0.293 HD
ENDBRANCH  14  20
ENDBRANCH   1  12
BRANCH   2  22
ATOM     22  O   UNL     1      38.629 -28.875  12.347  1.00  0.00    -0.502 OA
ATOM     23  H   UNL     1      38.517 -28.770  13.348  1.00  0.00     0.293 HD
ENDBRANCH   2  22
BRANCH   6  24
ATOM     24  O   UNL     1      43.610 -30.598  13.121  1.00  0.00    -0.507 OA
ATOM     25  H   UNL     1      43.359 -30.796  14.079  1.00  0.00     0.293 HD
ENDBRANCH   6  24
BRANCH   8  26
ATOM     26  O   UNL     1      44.049 -33.648   9.461  1.00  0.00    -0.508 OA
ATOM     27  H   UNL     1      43.948 -33.766   8.459  1.00  0.00     0.293 HD
ENDBRANCH   8  26
TORSDOF 6
ENDMDL
MODEL 8
REMARK VINA RESULT:    -3.020      1.648      2.352
REMARK INTER + INTRA:          -4.130
REMARK INTER:                  -4.339
REMARK INTRA:                   0.209
REMARK UNBOUND:                -0.404
REMARK SMILES COc1cc(-c2oc3cc(O)cc(O)c3c(=O)c2O)ccc1O
REMARK SMILES IDX 6 1 18 2 16 3 17 4 15 5 13 6 12 7 10 8 9 9 8 10 7 11 5 12
REMARK SMILES IDX 3 13 22 14 4 15 21 16 20 17 2 18 1 19 23 20 19 22 14 24
REMARK SMILES IDX 11 26
REMARK H PARENT 23 21 19 23 14 25 11 27
REMARK Flexibility Score: inf
ROOT
ATOM      1  C   UNL     1      39.388 -30.978  10.952  1.00  0.00     0.180 A 
ATOM      2  C   UNL     1      38.347 -31.163  11.879  1.00  0.00     0.208 A 
ATOM      3  C   UNL     1      37.041 -30.795  11.518  1.00  0.00     0.238 A 
ATOM      4  O   UNL     1      36.105 -31.014  12.332  1.00  0.00    -0.285 OA
ATOM      5  C   UNL     1      36.794 -30.231  10.244  1.00  0.00     0.111 A 
ATOM      6  C   UNL     1      35.517 -29.786   9.788  1.00  0.00     0.134 A 
ATOM      7  C   UNL     1      35.366 -29.367   8.460  1.00  0.00     0.093 A 
ATOM      8  C   UNL     1      36.455 -29.314   7.592  1.00  0.00     0.123 A 
ATOM      9  C   UNL     1      37.721 -29.691   8.045  1.00  0.00     0.094 A 
ATOM     10  C   UNL     1      37.897 -30.149   9.354  1.00  0.00     0.146 A 
ATOM     11  O   UNL     1      39.114 -30.508   9.741  1.00  0.00    -0.452 OA
ENDROOT
BRANCH   1  12
ATOM     12  C   UNL     1      40.794 -31.318  11.269  1.00  0.00     0.025 A 
ATOM     13  C   UNL     1      43.171 -30.751  11.148  1.00  0.00     0.161 A 
ATOM     14  C   UNL     1      43.474 -31.898  11.904  1.00  0.00     0.157 A 
ATOM     15  C   UNL     1      41.825 -30.465  10.841  1.00  0.00     0.062 A 
ATOM     16  C   UNL     1      42.447 -32.735  12.346  1.00  0.00     0.051 A 
ATOM     17  C   UNL     1      41.116 -32.447  12.040  1.00  0.00     0.016 A 
BRANCH  13  18
ATOM     18  O   UNL     1      44.222 -29.923  10.722  1.00  0.00    -0.493 OA
ATOM     19  C   UNL     1      45.095 -30.218   9.635  1.00  0.00     0.278 C 
ENDBRANCH  13  18
BRANCH  14  20
ATOM     20  O   UNL     1      44.792 -32.220  12.228  1.00  0.00    -0.504 OA
ATOM     21  H   UNL     1      45.436 -32.608  11.549  1.00  0.00     0.293 HD
ENDBRANCH  14  20
ENDBRANCH   1  12
BRANCH   2  22
ATOM     22  O   UNL     1      38.610 -31.742  13.124  1.00  0.00    -0.502 OA
ATOM     23  H   UNL     1      37.920 -32.287  13.627  1.00  0.00     0.293 HD
ENDBRANCH   2  22
BRANCH   6  24
ATOM     24  O   UNL     1      34.382 -29.711  10.599  1.00  0.00    -0.507 OA
ATOM     25  H   UNL     1      34.004 -30.479  11.133  1.00  0.00     0.293 HD
ENDBRANCH   6  24
BRANCH   8  26
ATOM     26  O   UNL     1      36.271 -28.875   6.283  1.00  0.00    -0.508 OA
ATOM     27  H   UNL     1      35.730 -29.412   5.615  1.00  0.00     0.293 HD
ENDBRANCH   8  26
TORSDOF 6
ENDMDL
MODEL 9
REMARK VINA RESULT:    -2.444      1.942      2.020
REMARK INTER + INTRA:          -3.420
REMARK INTER:                  -3.878
REMARK INTRA:                   0.458
REMARK UNBOUND:                -0.404
REMARK SMILES COc1cc(-c2oc3cc(O)cc(O)c3c(=O)c2O)ccc1O
REMARK SMILES IDX 6 1 18 2 16 3 17 4 15 5 13 6 12 7 10 8 9 9 8 10 7 11 5 12
REMARK SMILES IDX 3 13 22 14 4 15 21 16 20 17 2 18 1 19 23 20 19 22 14 24
REMARK SMILES IDX 11 26
REMARK H PARENT 23 21 19 23 14 25 11 27
REMARK Flexibility Score: inf
ROOT
ATOM      1  C   UNL     1      39.569 -30.277  11.166  1.00  0.00     0.180 A 
ATOM      2  C   UNL     1      39.151 -31.200  12.140  1.00  0.00     0.208 A 
ATOM      3  C   UNL     1      37.779 -31.460  12.288  1.00  0.00     0.238 A 
ATOM      4  O   UNL     1      37.415 -32.328  13.125  1.00  0.00    -0.285 OA
ATOM      5  C   UNL     1      36.841 -30.781  11.473  1.00  0.00     0.111 A 
ATOM      6  C   UNL     1      35.425 -30.938  11.564  1.00  0.00     0.134 A 
ATOM      7  C   UNL     1      34.600 -30.315  10.618  1.00  0.00     0.093 A 
ATOM      8  C   UNL     1      35.133 -29.492   9.628  1.00  0.00     0.123 A 
ATOM      9  C   UNL     1      36.512 -29.285   9.566  1.00  0.00     0.094 A 
ATOM     10  C   UNL     1      37.365 -29.921  10.472  1.00  0.00     0.146 A 
ATOM     11  O   UNL     1      38.670 -29.706  10.373  1.00  0.00    -0.452 OA
ENDROOT
BRANCH   1  12
ATOM     12  C   UNL     1      40.995 -29.933  10.968  1.00  0.00     0.025 A 
ATOM     13  C   UNL     1      43.321 -30.112  11.708  1.00  0.00     0.161 A 
ATOM     14  C   UNL     1      43.724 -29.354  10.593  1.00  0.00     0.157 A 
ATOM     15  C   UNL     1      41.953 -30.403  11.883  1.00  0.00     0.062 A 
ATOM     16  C   UNL     1      42.774 -28.903   9.673  1.00  0.00     0.051 A 
ATOM     17  C   UNL     1      41.420 -29.195   9.852  1.00  0.00     0.016 A 
BRANCH  13  18
ATOM     18  O   UNL     1      44.297 -30.558  12.613  1.00  0.00    -0.493 OA
ATOM     19  C   UNL     1      44.940 -31.827  12.549  1.00  0.00     0.278 C 
ENDBRANCH  13  18
BRANCH  14  20
ATOM     20  O   UNL     1      45.067 -29.041  10.383  1.00  0.00    -0.504 OA
ATOM     21  H   UNL     1      45.394 -28.616   9.523  1.00  0.00     0.293 HD
ENDBRANCH  14  20
ENDBRANCH   1  12
BRANCH   2  22
ATOM     22  O   UNL     1      40.095 -31.875  12.920  1.00  0.00    -0.502 OA
ATOM     23  H   UNL     1      39.932 -32.805  13.287  1.00  0.00     0.293 HD
ENDBRANCH   2  22
BRANCH   6  24
ATOM     24  O   UNL     1      34.783 -31.663  12.571  1.00  0.00    -0.507 OA
ATOM     25  H   UNL     1      35.048 -31.654  13.544  1.00  0.00     0.293 HD
ENDBRANCH   6  24
BRANCH   8  26
ATOM     26  O   UNL     1      34.281 -28.876   8.714  1.00  0.00    -0.508 OA
ATOM     27  H   UNL     1      34.514 -28.816   7.730  1.00  0.00     0.293 HD
ENDBRANCH   8  26
TORSDOF 6
ENDMDL
