MODEL 1
REMARK VINA RESULT:     7.609      0.000      0.000
REMARK INTER + INTRA:          12.927
REMARK INTER:                  13.837
REMARK INTRA:                  -0.910
REMARK UNBOUND:                -0.910
REMARK SMILES CCCCCCCCCCCCCC[C@@H](C)C(=O)[O-]
REMARK SMILES IDX 9 1 10 2 11 3 12 4 13 5 14 6 15 7 16 8 17 9 18 10 19 11 8 12
REMARK SMILES IDX 7 13 6 14 5 15 4 16 3 17 2 18 1 19
REMARK H PARENT
REMARK Flexibility Score: inf
ROOT
ATOM      1  C   UNL     1      35.141  15.503  43.979  1.00  0.00     0.000 C 
ENDROOT
BRANCH   1   2
ATOM      2  C   UNL     1      36.508  14.821  43.806  1.00  0.00     0.000 C 
BRANCH   2   3
ATOM      3  C   UNL     1      36.465  13.627  42.835  1.00  0.00     0.000 C 
BRANCH   3   4
ATOM      4  C   UNL     1      35.085  13.325  42.221  1.00  0.00     0.000 C 
BRANCH   4   5
ATOM      5  C   UNL     1      35.147  13.044  40.712  1.00  0.00     0.001 C 
BRANCH   5   6
ATOM      6  C   UNL     1      33.866  12.344  40.230  1.00  0.00     0.009 C 
BRANCH   6   7
ATOM      7  C   UNL     1      33.534  11.077  41.047  1.00  0.00     0.032 C 
ATOM      8  C   UNL     1      32.239  11.228  41.856  1.00  0.00     0.014 C 
BRANCH   7   9
ATOM      9  C   UNL     1      33.414   9.895  40.125  1.00  0.00     0.044 C 
ATOM     10  O   UNL     1      32.284   9.394  39.882  1.00  0.00    -0.550 OA
ATOM     11  O   UNL     1      34.547   9.348  39.534  1.00  0.00    -0.550 OA
ENDBRANCH   7   9
ENDBRANCH   6   7
ENDBRANCH   5   6
ENDBRANCH   4   5
ENDBRANCH   3   4
ENDBRANCH   2   3
ENDBRANCH   1   2
BRANCH   1  12
ATOM     12  C   UNL     1      35.010  16.793  43.151  1.00  0.00     0.000 C 
BRANCH  12  13
ATOM     13  C   UNL     1      33.954  16.705  42.029  1.00  0.00    -0.000 C 
BRANCH  13  14
ATOM     14  C   UNL     1      34.142  17.805  40.970  1.00  0.00    -0.000 C 
BRANCH  14  15
ATOM     15  C   UNL     1      33.719  17.356  39.562  1.00  0.00    -0.000 C 
BRANCH  15  16
ATOM     16  C   UNL     1      32.820  18.386  38.858  1.00  0.00    -0.000 C 
BRANCH  16  17
ATOM     17  C   UNL     1      31.928  17.751  37.778  1.00  0.00    -0.000 C 
BRANCH  17  18
ATOM     18  C   UNL     1      30.868  18.723  37.241  1.00  0.00    -0.003 C 
ATOM     19  C   UNL     1      30.851  20.019  38.048  1.00  0.00     0.004 C 
ENDBRANCH  17  18
ENDBRANCH  16  17
ENDBRANCH  15  16
ENDBRANCH  14  15
ENDBRANCH  13  14
ENDBRANCH  12  13
ENDBRANCH   1  12
TORSDOF 14
ENDMDL
MODEL 2
REMARK VINA RESULT:     9.170      3.628      7.225
REMARK INTER + INTRA:          15.765
REMARK INTER:                  16.749
REMARK INTRA:                  -0.984
REMARK UNBOUND:                -0.910
REMARK SMILES CCCCCCCCCCCCCC[C@@H](C)C(=O)[O-]
REMARK SMILES IDX 9 1 10 2 11 3 12 4 13 5 14 6 15 7 16 8 17 9 18 10 19 11 8 12
REMARK SMILES IDX 7 13 6 14 5 15 4 16 3 17 2 18 1 19
REMARK H PARENT
REMARK Flexibility Score: inf
ROOT
ATOM      1  C   UNL     1      34.529  15.568  43.293  1.00  0.00     0.000 C 
ENDROOT
BRANCH   1   2
ATOM      2  C   UNL     1      34.828  17.030  42.921  1.00  0.00     0.000 C 
BRANCH   2   3
ATOM      3  C   UNL     1      33.918  17.563  41.799  1.00  0.00     0.000 C 
BRANCH   3   4
ATOM      4  C   UNL     1      34.147  16.934  40.411  1.00  0.00     0.000 C 
BRANCH   4   5
ATOM      5  C   UNL     1      33.904  17.919  39.257  1.00  0.00     0.001 C 
BRANCH   5   6
ATOM      6  C   UNL     1      32.426  18.333  39.189  1.00  0.00     0.009 C 
BRANCH   6   7
ATOM      7  C   UNL     1      31.880  18.363  37.745  1.00  0.00     0.032 C 
ATOM      8  C   UNL     1      31.270  17.018  37.325  1.00  0.00     0.014 C 
BRANCH   7   9
ATOM      9  C   UNL     1      30.845  19.445  37.616  1.00  0.00     0.044 C 
ATOM     10  O   UNL     1      31.160  20.649  37.811  1.00  0.00    -0.550 OA
ATOM     11  O   UNL     1      29.534  19.127  37.279  1.00  0.00    -0.550 OA
ENDBRANCH   7   9
ENDBRANCH   6   7
ENDBRANCH   5   6
ENDBRANCH   4   5
ENDBRANCH   3   4
ENDBRANCH   2   3
ENDBRANCH   1   2
BRANCH   1  12
ATOM     12  C   UNL     1      35.787  14.795  43.726  1.00  0.00     0.000 C 
BRANCH  12  13
ATOM     13  C   UNL     1      36.145  13.622  42.790  1.00  0.00    -0.000 C 
BRANCH  13  14
ATOM     14  C   UNL     1      34.894  12.876  42.293  1.00  0.00    -0.000 C 
BRANCH  14  15
ATOM     15  C   UNL     1      34.871  12.701  40.765  1.00  0.00    -0.000 C 
BRANCH  15  16
ATOM     16  C   UNL     1      33.495  12.259  40.241  1.00  0.00    -0.000 C 
BRANCH  16  17
ATOM     17  C   UNL     1      32.964  11.006  40.959  1.00  0.00    -0.000 C 
BRANCH  17  18
ATOM     18  C   UNL     1      32.904   9.778  40.039  1.00  0.00    -0.003 C 
ATOM     19  C   UNL     1      34.294   9.183  39.827  1.00  0.00     0.004 C 
ENDBRANCH  17  18
ENDBRANCH  16  17
ENDBRANCH  15  16
ENDBRANCH  14  15
ENDBRANCH  13  14
ENDBRANCH  12  13
ENDBRANCH   1  12
TORSDOF 14
ENDMDL
