MODEL 1
REMARK VINA RESULT:    -2.759      0.000      0.000
REMARK INTER + INTRA:          -7.293
REMARK INTER:                  -5.016
REMARK INTRA:                  -2.277
REMARK UNBOUND:                -2.277
REMARK SMILES CCCCCCCCCCCCCCCC(=O)[O-]
REMARK SMILES IDX 9 1 10 2 11 3 12 4 13 5 14 6 15 7 16 8 17 9 18 10 8 11 7 12
REMARK SMILES IDX 6 13 5 14 4 15 3 16 2 17 1 18
REMARK H PARENT
REMARK Flexibility Score: inf
ROOT
ATOM      1  C   UNL     1       1.786  19.981  10.192  1.00  0.00     0.000 C 
ENDROOT
BRANCH   1   2
ATOM      2  C   UNL     1       2.637  18.929  10.920  1.00  0.00     0.000 C 
BRANCH   2   3
ATOM      3  C   UNL     1       3.950  18.617  10.184  1.00  0.00     0.000 C 
BRANCH   3   4
ATOM      4  C   UNL     1       4.162  17.107   9.972  1.00  0.00     0.000 C 
BRANCH   4   5
ATOM      5  C   UNL     1       4.850  16.791   8.634  1.00  0.00     0.000 C 
BRANCH   5   6
ATOM      6  C   UNL     1       4.077  15.754   7.803  1.00  0.00     0.006 C 
BRANCH   6   7
ATOM      7  C   UNL     1       4.826  15.420   6.511  1.00  0.00     0.053 C 
BRANCH   7   8
ATOM      8  C   UNL     1       4.860  13.941   6.292  1.00  0.00     0.041 C 
ATOM      9  O   UNL     1       5.937  13.304   6.436  1.00  0.00    -0.550 OA
ATOM     10  O   UNL     1       3.693  13.258   5.974  1.00  0.00    -0.550 OA
ENDBRANCH   7   8
ENDBRANCH   6   7
ENDBRANCH   5   6
ENDBRANCH   4   5
ENDBRANCH   3   4
ENDBRANCH   2   3
ENDBRANCH   1   2
BRANCH   1  11
ATOM     11  C   UNL     1       2.647  21.169   9.744  1.00  0.00     0.000 C 
BRANCH  11  12
ATOM     12  C   UNL     1       2.190  21.693   8.375  1.00  0.00    -0.000 C 
BRANCH  12  13
ATOM     13  C   UNL     1       1.180  20.760   7.689  1.00  0.00    -0.000 C 
BRANCH  13  14
ATOM     14  C   UNL     1       1.720  20.167   6.378  1.00  0.00    -0.000 C 
BRANCH  14  15
ATOM     15  C   UNL     1       2.725  19.039   6.657  1.00  0.00    -0.000 C 
BRANCH  15  16
ATOM     16  C   UNL     1       4.002  19.168   5.801  1.00  0.00    -0.000 C 
BRANCH  16  17
ATOM     17  C   UNL     1       4.831  20.425   6.112  1.00  0.00    -0.003 C 
ATOM     18  C   UNL     1       5.610  20.320   7.422  1.00  0.00     0.004 C 
ENDBRANCH  16  17
ENDBRANCH  15  16
ENDBRANCH  14  15
ENDBRANCH  13  14
ENDBRANCH  12  13
ENDBRANCH  11  12
ENDBRANCH   1  11
TORSDOF 14
ENDMDL
MODEL 2
REMARK VINA RESULT:    -2.730      1.315      2.998
REMARK INTER + INTRA:          -7.240
REMARK INTER:                  -5.221
REMARK INTRA:                  -2.019
REMARK UNBOUND:                -2.277
REMARK SMILES CCCCCCCCCCCCCCCC(=O)[O-]
REMARK SMILES IDX 9 1 10 2 11 3 12 4 13 5 14 6 15 7 16 8 17 9 18 10 8 11 7 12
REMARK SMILES IDX 6 13 5 14 4 15 3 16 2 17 1 18
REMARK H PARENT
REMARK Flexibility Score: inf
ROOT
ATOM      1  C   UNL     1       5.160  18.726   6.457  1.00  0.00     0.000 C 
ENDROOT
BRANCH   1   2
ATOM      2  C   UNL     1       5.314  18.425   7.956  1.00  0.00     0.000 C 
BRANCH   2   3
ATOM      3  C   UNL     1       4.047  17.808   8.568  1.00  0.00     0.000 C 
BRANCH   3   4
ATOM      4  C   UNL     1       4.359  16.629   9.507  1.00  0.00     0.000 C 
BRANCH   4   5
ATOM      5  C   UNL     1       4.817  15.374   8.747  1.00  0.00     0.000 C 
BRANCH   5   6
ATOM      6  C   UNL     1       3.915  15.049   7.546  1.00  0.00     0.006 C 
BRANCH   6   7
ATOM      7  C   UNL     1       4.738  14.928   6.261  1.00  0.00     0.053 C 
BRANCH   7   8
ATOM      8  C   UNL     1       4.486  13.611   5.598  1.00  0.00     0.041 C 
ATOM      9  O   UNL     1       3.584  12.846   6.032  1.00  0.00    -0.550 OA
ATOM     10  O   UNL     1       5.213  13.248   4.472  1.00  0.00    -0.550 OA
ENDBRANCH   7   8
ENDBRANCH   6   7
ENDBRANCH   5   6
ENDBRANCH   4   5
ENDBRANCH   3   4
ENDBRANCH   2   3
ENDBRANCH   1   2
BRANCH   1  11
ATOM     11  C   UNL     1       3.686  18.923   6.084  1.00  0.00     0.000 C 
BRANCH  11  12
ATOM     12  C   UNL     1       3.452  20.319   5.490  1.00  0.00    -0.000 C 
BRANCH  12  13
ATOM     13  C   UNL     1       1.960  20.660   5.346  1.00  0.00    -0.000 C 
BRANCH  13  14
ATOM     14  C   UNL     1       1.093  19.980   6.417  1.00  0.00    -0.000 C 
BRANCH  14  15
ATOM     15  C   UNL     1       0.152  20.993   7.087  1.00  0.00    -0.000 C 
BRANCH  15  16
ATOM     16  C   UNL     1       0.735  21.554   8.401  1.00  0.00    -0.000 C 
BRANCH  16  17
ATOM     17  C   UNL     1       1.735  20.609   9.087  1.00  0.00    -0.003 C 
ATOM     18  C   UNL     1       3.103  21.249   9.318  1.00  0.00     0.004 C 
ENDBRANCH  16  17
ENDBRANCH  15  16
ENDBRANCH  14  15
ENDBRANCH  13  14
ENDBRANCH  12  13
ENDBRANCH  11  12
ENDBRANCH   1  11
TORSDOF 14
ENDMDL
MODEL 3
REMARK VINA RESULT:    -2.701      1.283      1.939
REMARK INTER + INTRA:          -7.188
REMARK INTER:                  -5.802
REMARK INTRA:                  -1.386
REMARK UNBOUND:                -2.277
REMARK SMILES CCCCCCCCCCCCCCCC(=O)[O-]
REMARK SMILES IDX 9 1 10 2 11 3 12 4 13 5 14 6 15 7 16 8 17 9 18 10 8 11 7 12
REMARK SMILES IDX 6 13 5 14 4 15 3 16 2 17 1 18
REMARK H PARENT
REMARK Flexibility Score: inf
ROOT
ATOM      1  C   UNL     1       1.382  20.274  10.152  1.00  0.00     0.000 C 
ENDROOT
BRANCH   1   2
ATOM      2  C   UNL     1       2.294  19.390  11.017  1.00  0.00     0.000 C 
BRANCH   2   3
ATOM      3  C   UNL     1       3.266  18.544  10.178  1.00  0.00     0.000 C 
BRANCH   3   4
ATOM      4  C   UNL     1       3.912  17.409  10.991  1.00  0.00     0.000 C 
BRANCH   4   5
ATOM      5  C   UNL     1       4.316  16.212  10.114  1.00  0.00     0.000 C 
BRANCH   5   6
ATOM      6  C   UNL     1       4.746  16.633   8.701  1.00  0.00     0.006 C 
BRANCH   6   7
ATOM      7  C   UNL     1       3.904  15.922   7.638  1.00  0.00     0.053 C 
BRANCH   7   8
ATOM      8  C   UNL     1       4.490  14.585   7.313  1.00  0.00     0.041 C 
ATOM      9  O   UNL     1       3.772  13.685   6.803  1.00  0.00    -0.550 OA
ATOM     10  O   UNL     1       5.842  14.347   7.529  1.00  0.00    -0.550 OA
ENDBRANCH   7   8
ENDBRANCH   6   7
ENDBRANCH   5   6
ENDBRANCH   4   5
ENDBRANCH   3   4
ENDBRANCH   2   3
ENDBRANCH   1   2
BRANCH   1  11
ATOM     11  C   UNL     1       2.104  20.727   8.877  1.00  0.00     0.000 C 
BRANCH  11  12
ATOM     12  C   UNL     1       1.104  20.976   7.739  1.00  0.00    -0.000 C 
BRANCH  12  13
ATOM     13  C   UNL     1       1.380  20.102   6.506  1.00  0.00    -0.000 C 
BRANCH  13  14
ATOM     14  C   UNL     1       2.690  19.309   6.624  1.00  0.00    -0.000 C 
BRANCH  14  15
ATOM     15  C   UNL     1       3.682  19.714   5.523  1.00  0.00    -0.000 C 
BRANCH  15  16
ATOM     16  C   UNL     1       4.739  18.623   5.256  1.00  0.00    -0.000 C 
BRANCH  16  17
ATOM     17  C   UNL     1       5.502  18.810   3.934  1.00  0.00    -0.003 C 
ATOM     18  C   UNL     1       5.994  17.494   3.334  1.00  0.00     0.004 C 
ENDBRANCH  16  17
ENDBRANCH  15  16
ENDBRANCH  14  15
ENDBRANCH  13  14
ENDBRANCH  12  13
ENDBRANCH  11  12
ENDBRANCH   1  11
TORSDOF 14
ENDMDL
MODEL 4
REMARK VINA RESULT:    -2.654      1.840      4.410
REMARK INTER + INTRA:          -7.103
REMARK INTER:                  -5.094
REMARK INTRA:                  -2.009
REMARK UNBOUND:                -2.277
REMARK SMILES CCCCCCCCCCCCCCCC(=O)[O-]
REMARK SMILES IDX 9 1 10 2 11 3 12 4 13 5 14 6 15 7 16 8 17 9 18 10 8 11 7 12
REMARK SMILES IDX 6 13 5 14 4 15 3 16 2 17 1 18
REMARK H PARENT
REMARK Flexibility Score: inf
ROOT
ATOM      1  C   UNL     1       1.794  21.929   8.212  1.00  0.00     0.000 C 
ENDROOT
BRANCH   1   2
ATOM      2  C   UNL     1       0.616  21.035   7.794  1.00  0.00     0.000 C 
BRANCH   2   3
ATOM      3  C   UNL     1       0.957  20.127   6.602  1.00  0.00     0.000 C 
BRANCH   3   4
ATOM      4  C   UNL     1       1.707  20.875   5.486  1.00  0.00     0.000 C 
BRANCH   4   5
ATOM      5  C   UNL     1       3.096  20.279   5.206  1.00  0.00     0.000 C 
BRANCH   5   6
ATOM      6  C   UNL     1       3.443  19.119   6.152  1.00  0.00     0.006 C 
BRANCH   6   7
ATOM      7  C   UNL     1       4.905  19.197   6.599  1.00  0.00     0.053 C 
BRANCH   7   8
ATOM      8  C   UNL     1       5.699  18.085   5.992  1.00  0.00     0.041 C 
ATOM      9  O   UNL     1       5.474  17.719   4.808  1.00  0.00    -0.550 OA
ATOM     10  O   UNL     1       6.720  17.483   6.716  1.00  0.00    -0.550 OA
ENDBRANCH   7   8
ENDBRANCH   6   7
ENDBRANCH   5   6
ENDBRANCH   4   5
ENDBRANCH   3   4
ENDBRANCH   2   3
ENDBRANCH   1   2
BRANCH   1  11
ATOM     11  C   UNL     1       2.357  21.496   9.571  1.00  0.00     0.000 C 
BRANCH  11  12
ATOM     12  C   UNL     1       1.364  20.590  10.313  1.00  0.00    -0.000 C 
BRANCH  12  13
ATOM     13  C   UNL     1       2.019  19.307  10.850  1.00  0.00    -0.000 C 
BRANCH  13  14
ATOM     14  C   UNL     1       3.203  18.843   9.988  1.00  0.00    -0.000 C 
BRANCH  14  15
ATOM     15  C   UNL     1       3.934  17.663  10.647  1.00  0.00    -0.000 C 
BRANCH  15  16
ATOM     16  C   UNL     1       4.889  16.947   9.669  1.00  0.00    -0.000 C 
BRANCH  16  17
ATOM     17  C   UNL     1       4.416  15.542   9.260  1.00  0.00    -0.003 C 
ATOM     18  C   UNL     1       3.951  15.465   7.807  1.00  0.00     0.004 C 
ENDBRANCH  16  17
ENDBRANCH  15  16
ENDBRANCH  14  15
ENDBRANCH  13  14
ENDBRANCH  12  13
ENDBRANCH  11  12
ENDBRANCH   1  11
TORSDOF 14
ENDMDL
MODEL 5
REMARK VINA RESULT:    -2.650      1.301      3.502
REMARK INTER + INTRA:          -7.095
REMARK INTER:                  -5.689
REMARK INTRA:                  -1.406
REMARK UNBOUND:                -2.277
REMARK SMILES CCCCCCCCCCCCCCCC(=O)[O-]
REMARK SMILES IDX 9 1 10 2 11 3 12 4 13 5 14 6 15 7 16 8 17 9 18 10 8 11 7 12
REMARK SMILES IDX 6 13 5 14 4 15 3 16 2 17 1 18
REMARK H PARENT
REMARK Flexibility Score: inf
ROOT
ATOM      1  C   UNL     1       2.371  20.259   5.500  1.00  0.00     0.000 C 
ENDROOT
BRANCH   1   2
ATOM      2  C   UNL     1       3.636  19.632   6.107  1.00  0.00     0.000 C 
BRANCH   2   3
ATOM      3  C   UNL     1       3.322  18.456   7.045  1.00  0.00     0.000 C 
BRANCH   3   4
ATOM      4  C   UNL     1       4.412  18.242   8.109  1.00  0.00     0.000 C 
BRANCH   4   5
ATOM      5  C   UNL     1       4.524  16.775   8.554  1.00  0.00     0.000 C 
BRANCH   5   6
ATOM      6  C   UNL     1       4.142  15.789   7.438  1.00  0.00     0.006 C 
BRANCH   6   7
ATOM      7  C   UNL     1       5.253  14.759   7.216  1.00  0.00     0.053 C 
BRANCH   7   8
ATOM      8  C   UNL     1       4.685  13.376   7.178  1.00  0.00     0.041 C 
ATOM      9  O   UNL     1       5.156  12.477   7.925  1.00  0.00    -0.550 OA
ATOM     10  O   UNL     1       3.605  13.089   6.354  1.00  0.00    -0.550 OA
ENDBRANCH   7   8
ENDBRANCH   6   7
ENDBRANCH   5   6
ENDBRANCH   4   5
ENDBRANCH   3   4
ENDBRANCH   2   3
ENDBRANCH   1   2
BRANCH   1  11
ATOM     11  C   UNL     1       1.170  20.089   6.438  1.00  0.00     0.000 C 
BRANCH  11  12
ATOM     12  C   UNL     1       0.470  21.433   6.683  1.00  0.00    -0.000 C 
BRANCH  12  13
ATOM     13  C   UNL     1       0.545  21.882   8.151  1.00  0.00    -0.000 C 
BRANCH  13  14
ATOM     14  C   UNL     1       1.145  20.804   9.068  1.00  0.00    -0.000 C 
BRANCH  14  15
ATOM     15  C   UNL     1       0.568  20.907  10.488  1.00  0.00    -0.000 C 
BRANCH  15  16
ATOM     16  C   UNL     1       1.223  19.903  11.460  1.00  0.00    -0.000 C 
BRANCH  16  17
ATOM     17  C   UNL     1       2.637  19.468  11.041  1.00  0.00    -0.003 C 
ATOM     18  C   UNL     1       3.068  18.144  11.669  1.00  0.00     0.004 C 
ENDBRANCH  16  17
ENDBRANCH  15  16
ENDBRANCH  14  15
ENDBRANCH  13  14
ENDBRANCH  12  13
ENDBRANCH  11  12
ENDBRANCH   1  11
TORSDOF 14
ENDMDL
MODEL 6
REMARK VINA RESULT:    -2.642      1.937      3.999
REMARK INTER + INTRA:          -7.082
REMARK INTER:                  -5.557
REMARK INTRA:                  -1.525
REMARK UNBOUND:                -2.277
REMARK SMILES CCCCCCCCCCCCCCCC(=O)[O-]
REMARK SMILES IDX 9 1 10 2 11 3 12 4 13 5 14 6 15 7 16 8 17 9 18 10 8 11 7 12
REMARK SMILES IDX 6 13 5 14 4 15 3 16 2 17 1 18
REMARK H PARENT
REMARK Flexibility Score: inf
ROOT
ATOM      1  C   UNL     1       3.034  20.129   5.562  1.00  0.00     0.000 C 
ENDROOT
BRANCH   1   2
ATOM      2  C   UNL     1       2.957  18.937   6.528  1.00  0.00     0.000 C 
BRANCH   2   3
ATOM      3  C   UNL     1       4.336  18.524   7.069  1.00  0.00     0.000 C 
BRANCH   3   4
ATOM      4  C   UNL     1       4.706  17.077   6.699  1.00  0.00     0.000 C 
BRANCH   4   5
ATOM      5  C   UNL     1       4.166  16.053   7.711  1.00  0.00     0.000 C 
BRANCH   5   6
ATOM      6  C   UNL     1       4.312  16.527   9.165  1.00  0.00     0.006 C 
BRANCH   6   7
ATOM      7  C   UNL     1       5.519  15.868   9.837  1.00  0.00     0.053 C 
BRANCH   7   8
ATOM      8  C   UNL     1       5.169  14.496  10.317  1.00  0.00     0.041 C 
ATOM      9  O   UNL     1       5.508  13.484   9.649  1.00  0.00    -0.550 OA
ATOM     10  O   UNL     1       4.508  14.331  11.528  1.00  0.00    -0.550 OA
ENDBRANCH   7   8
ENDBRANCH   6   7
ENDBRANCH   5   6
ENDBRANCH   4   5
ENDBRANCH   3   4
ENDBRANCH   2   3
ENDBRANCH   1   2
BRANCH   1  11
ATOM     11  C   UNL     1       1.730  20.936   5.581  1.00  0.00     0.000 C 
BRANCH  11  12
ATOM     12  C   UNL     1       0.699  20.292   6.519  1.00  0.00    -0.000 C 
BRANCH  12  13
ATOM     13  C   UNL     1       0.245  21.240   7.640  1.00  0.00    -0.000 C 
BRANCH  13  14
ATOM     14  C   UNL     1       1.346  21.494   8.682  1.00  0.00    -0.000 C 
BRANCH  14  15
ATOM     15  C   UNL     1       1.216  20.525   9.867  1.00  0.00    -0.000 C 
BRANCH  15  16
ATOM     16  C   UNL     1       2.503  19.706  10.098  1.00  0.00    -0.000 C 
BRANCH  16  17
ATOM     17  C   UNL     1       2.470  18.847  11.373  1.00  0.00    -0.003 C 
ATOM     18  C   UNL     1       1.480  19.361  12.417  1.00  0.00     0.004 C 
ENDBRANCH  16  17
ENDBRANCH  15  16
ENDBRANCH  14  15
ENDBRANCH  13  14
ENDBRANCH  12  13
ENDBRANCH  11  12
ENDBRANCH   1  11
TORSDOF 14
ENDMDL
MODEL 7
REMARK VINA RESULT:    -2.638      1.231      3.423
REMARK INTER + INTRA:          -7.074
REMARK INTER:                  -4.610
REMARK INTRA:                  -2.464
REMARK UNBOUND:                -2.277
REMARK SMILES CCCCCCCCCCCCCCCC(=O)[O-]
REMARK SMILES IDX 9 1 10 2 11 3 12 4 13 5 14 6 15 7 16 8 17 9 18 10 8 11 7 12
REMARK SMILES IDX 6 13 5 14 4 15 3 16 2 17 1 18
REMARK H PARENT
REMARK Flexibility Score: inf
ROOT
ATOM      1  C   UNL     1       5.753  19.557   7.541  1.00  0.00     0.000 C 
ENDROOT
BRANCH   1   2
ATOM      2  C   UNL     1       6.773  19.118   8.603  1.00  0.00     0.000 C 
BRANCH   2   3
ATOM      3  C   UNL     1       6.407  17.775   9.255  1.00  0.00     0.000 C 
BRANCH   3   4
ATOM      4  C   UNL     1       5.107  17.853  10.076  1.00  0.00     0.000 C 
BRANCH   4   5
ATOM      5  C   UNL     1       4.166  16.668   9.804  1.00  0.00     0.000 C 
BRANCH   5   6
ATOM      6  C   UNL     1       4.860  15.522   9.052  1.00  0.00     0.006 C 
BRANCH   6   7
ATOM      7  C   UNL     1       4.083  15.147   7.788  1.00  0.00     0.053 C 
BRANCH   7   8
ATOM      8  C   UNL     1       5.020  14.898   6.650  1.00  0.00     0.041 C 
ATOM      9  O   UNL     1       4.573  14.555   5.524  1.00  0.00    -0.550 OA
ATOM     10  O   UNL     1       6.386  15.091   6.818  1.00  0.00    -0.550 OA
ENDBRANCH   7   8
ENDBRANCH   6   7
ENDBRANCH   5   6
ENDBRANCH   4   5
ENDBRANCH   3   4
ENDBRANCH   2   3
ENDBRANCH   1   2
BRANCH   1  11
ATOM     11  C   UNL     1       5.763  18.602   6.341  1.00  0.00     0.000 C 
BRANCH  11  12
ATOM     12  C   UNL     1       4.345  18.399   5.788  1.00  0.00    -0.000 C 
BRANCH  12  13
ATOM     13  C   UNL     1       3.255  18.680   6.833  1.00  0.00    -0.000 C 
BRANCH  13  14
ATOM     14  C   UNL     1       2.246  19.740   6.364  1.00  0.00    -0.000 C 
BRANCH  14  15
ATOM     15  C   UNL     1       1.587  20.442   7.561  1.00  0.00    -0.000 C 
BRANCH  15  16
ATOM     16  C   UNL     1       2.385  20.245   8.867  1.00  0.00    -0.000 C 
BRANCH  16  17
ATOM     17  C   UNL     1       1.531  20.376  10.139  1.00  0.00    -0.003 C 
ATOM     18  C   UNL     1       1.891  19.349  11.211  1.00  0.00     0.004 C 
ENDBRANCH  16  17
ENDBRANCH  15  16
ENDBRANCH  14  15
ENDBRANCH  13  14
ENDBRANCH  12  13
ENDBRANCH  11  12
ENDBRANCH   1  11
TORSDOF 14
ENDMDL
MODEL 8
REMARK VINA RESULT:    -2.629      1.272      2.618
REMARK INTER + INTRA:          -7.057
REMARK INTER:                  -5.409
REMARK INTRA:                  -1.648
REMARK UNBOUND:                -2.277
REMARK SMILES CCCCCCCCCCCCCCCC(=O)[O-]
REMARK SMILES IDX 9 1 10 2 11 3 12 4 13 5 14 6 15 7 16 8 17 9 18 10 8 11 7 12
REMARK SMILES IDX 6 13 5 14 4 15 3 16 2 17 1 18
REMARK H PARENT
REMARK Flexibility Score: inf
ROOT
ATOM      1  C   UNL     1       3.551  19.397  10.546  1.00  0.00     0.000 C 
ENDROOT
BRANCH   1   2
ATOM      2  C   UNL     1       3.155  18.029  11.122  1.00  0.00     0.000 C 
BRANCH   2   3
ATOM      3  C   UNL     1       4.355  17.081  11.273  1.00  0.00     0.000 C 
BRANCH   3   4
ATOM      4  C   UNL     1       5.024  16.758   9.925  1.00  0.00     0.000 C 
BRANCH   4   5
ATOM      5  C   UNL     1       4.410  15.526   9.242  1.00  0.00     0.000 C 
BRANCH   5   6
ATOM      6  C   UNL     1       3.950  15.815   7.804  1.00  0.00     0.006 C 
BRANCH   6   7
ATOM      7  C   UNL     1       4.940  15.241   6.788  1.00  0.00     0.053 C 
BRANCH   7   8
ATOM      8  C   UNL     1       4.704  13.777   6.596  1.00  0.00     0.041 C 
ATOM      9  O   UNL     1       3.530  13.327   6.529  1.00  0.00    -0.550 OA
ATOM     10  O   UNL     1       5.782  12.913   6.444  1.00  0.00    -0.550 OA
ENDBRANCH   7   8
ENDBRANCH   6   7
ENDBRANCH   5   6
ENDBRANCH   4   5
ENDBRANCH   3   4
ENDBRANCH   2   3
ENDBRANCH   1   2
BRANCH   1  11
ATOM     11  C   UNL     1       2.761  19.704   9.268  1.00  0.00     0.000 C 
BRANCH  11  12
ATOM     12  C   UNL     1       3.633  19.502   8.021  1.00  0.00    -0.000 C 
BRANCH  12  13
ATOM     13  C   UNL     1       2.811  19.129   6.777  1.00  0.00    -0.000 C 
BRANCH  13  14
ATOM     14  C   UNL     1       3.000  20.126   5.623  1.00  0.00    -0.000 C 
BRANCH  14  15
ATOM     15  C   UNL     1       1.670  20.806   5.260  1.00  0.00    -0.000 C 
BRANCH  15  16
ATOM     16  C   UNL     1       0.569  20.535   6.306  1.00  0.00    -0.000 C 
BRANCH  16  17
ATOM     17  C   UNL     1       0.156  21.782   7.106  1.00  0.00    -0.003 C 
ATOM     18  C   UNL     1      -0.410  21.449   8.485  1.00  0.00     0.004 C 
ENDBRANCH  16  17
ENDBRANCH  15  16
ENDBRANCH  14  15
ENDBRANCH  13  14
ENDBRANCH  12  13
ENDBRANCH  11  12
ENDBRANCH   1  11
TORSDOF 14
ENDMDL
MODEL 9
REMARK VINA RESULT:    -2.596      1.797      3.445
REMARK INTER + INTRA:          -6.998
REMARK INTER:                  -5.102
REMARK INTRA:                  -1.896
REMARK UNBOUND:                -2.277
REMARK SMILES CCCCCCCCCCCCCCCC(=O)[O-]
REMARK SMILES IDX 9 1 10 2 11 3 12 4 13 5 14 6 15 7 16 8 17 9 18 10 8 11 7 12
REMARK SMILES IDX 6 13 5 14 4 15 3 16 2 17 1 18
REMARK H PARENT
REMARK Flexibility Score: inf
ROOT
ATOM      1  C   UNL     1       4.397  18.834   7.642  1.00  0.00     0.000 C 
ENDROOT
BRANCH   1   2
ATOM      2  C   UNL     1       4.022  17.983   8.865  1.00  0.00     0.000 C 
BRANCH   2   3
ATOM      3  C   UNL     1       5.044  16.868   9.146  1.00  0.00     0.000 C 
BRANCH   3   4
ATOM      4  C   UNL     1       4.426  15.463   9.045  1.00  0.00     0.000 C 
BRANCH   4   5
ATOM      5  C   UNL     1       3.954  15.126   7.621  1.00  0.00     0.000 C 
BRANCH   5   6
ATOM      6  C   UNL     1       5.120  14.793   6.676  1.00  0.00     0.006 C 
BRANCH   6   7
ATOM      7  C   UNL     1       5.123  15.725   5.462  1.00  0.00     0.053 C 
BRANCH   7   8
ATOM      8  C   UNL     1       6.479  16.324   5.265  1.00  0.00     0.041 C 
ATOM      9  O   UNL     1       7.044  16.256   4.141  1.00  0.00    -0.550 OA
ATOM     10  O   UNL     1       7.100  16.999   6.308  1.00  0.00    -0.550 OA
ENDBRANCH   7   8
ENDBRANCH   6   7
ENDBRANCH   5   6
ENDBRANCH   4   5
ENDBRANCH   3   4
ENDBRANCH   2   3
ENDBRANCH   1   2
BRANCH   1  11
ATOM     11  C   UNL     1       3.348  18.695   6.533  1.00  0.00     0.000 C 
BRANCH  11  12
ATOM     12  C   UNL     1       3.339  19.933   5.626  1.00  0.00    -0.000 C 
BRANCH  12  13
ATOM     13  C   UNL     1       1.945  20.569   5.504  1.00  0.00    -0.000 C 
BRANCH  13  14
ATOM     14  C   UNL     1       1.011  20.170   6.656  1.00  0.00    -0.000 C 
BRANCH  14  15
ATOM     15  C   UNL     1       0.896  21.301   7.690  1.00  0.00    -0.000 C 
BRANCH  15  16
ATOM     16  C   UNL     1       1.770  21.046   8.936  1.00  0.00    -0.000 C 
BRANCH  16  17
ATOM     17  C   UNL     1       0.965  20.653  10.186  1.00  0.00    -0.003 C 
ATOM     18  C   UNL     1       1.691  19.644  11.074  1.00  0.00     0.004 C 
ENDBRANCH  16  17
ENDBRANCH  15  16
ENDBRANCH  14  15
ENDBRANCH  13  14
ENDBRANCH  12  13
ENDBRANCH  11  12
ENDBRANCH   1  11
TORSDOF 14
ENDMDL
