MODEL 1
REMARK VINA RESULT:    -4.145      0.000      0.000
REMARK INTER + INTRA:          -5.511
REMARK INTER:                  -5.114
REMARK INTRA:                  -0.397
REMARK UNBOUND:                -0.397
REMARK SMILES C=CC[C@@H](C)C(=O)CC
REMARK SMILES IDX 4 1 5 2 6 3 7 4 8 5 9 6 3 7 2 8 1 9
REMARK H PARENT
REMARK Flexibility Score: inf
ROOT
ATOM      1  C   UNL     1       2.766 -20.920  -6.852  1.00  0.00     0.057 C 
ATOM      2  C   UNL     1       3.741 -20.009  -7.611  1.00  0.00     0.016 C 
ENDROOT
BRANCH   1   3
ATOM      3  C   UNL     1       2.564 -20.401  -5.446  1.00  0.00     0.135 C 
ATOM      4  O   UNL     1       3.404 -20.625  -4.586  1.00  0.00    -0.299 OA
BRANCH   3   5
ATOM      5  C   UNL     1       1.356 -19.572  -5.100  1.00  0.00     0.072 C 
ATOM      6  C   UNL     1       0.522 -20.257  -4.022  1.00  0.00     0.012 C 
ENDBRANCH   3   5
ENDBRANCH   1   3
BRANCH   1   7
ATOM      7  C   UNL     1       1.407 -21.031  -7.576  1.00  0.00     0.038 C 
BRANCH   7   8
ATOM      8  C   UNL     1       0.896 -22.446  -7.619  1.00  0.00    -0.034 C 
ATOM      9  C   UNL     1       0.279 -23.004  -6.572  1.00  0.00     0.004 C 
ENDBRANCH   7   8
ENDBRANCH   1   7
TORSDOF 4
ENDMDL
MODEL 2
REMARK VINA RESULT:    -4.067      1.762      3.676
REMARK INTER + INTRA:          -5.415
REMARK INTER:                  -5.195
REMARK INTRA:                  -0.220
REMARK UNBOUND:                -0.397
REMARK SMILES C=CC[C@@H](C)C(=O)CC
REMARK SMILES IDX 4 1 5 2 6 3 7 4 8 5 9 6 3 7 2 8 1 9
REMARK H PARENT
REMARK Flexibility Score: inf
ROOT
ATOM      1  C   UNL     1       1.577 -21.494  -6.406  1.00  0.00     0.057 C 
ATOM      2  C   UNL     1       0.327 -22.315  -6.750  1.00  0.00     0.016 C 
ENDROOT
BRANCH   1   3
ATOM      3  C   UNL     1       2.214 -20.970  -7.673  1.00  0.00     0.135 C 
ATOM      4  O   UNL     1       1.633 -21.087  -8.742  1.00  0.00    -0.299 OA
BRANCH   3   5
ATOM      5  C   UNL     1       3.542 -20.263  -7.628  1.00  0.00     0.072 C 
ATOM      6  C   UNL     1       4.592 -21.129  -6.939  1.00  0.00     0.012 C 
ENDBRANCH   3   5
ENDBRANCH   1   3
BRANCH   1   7
ATOM      7  C   UNL     1       1.247 -20.324  -5.455  1.00  0.00     0.038 C 
BRANCH   7   8
ATOM      8  C   UNL     1       0.351 -20.744  -4.320  1.00  0.00    -0.034 C 
ATOM      9  C   UNL     1       0.592 -20.372  -3.058  1.00  0.00     0.004 C 
ENDBRANCH   7   8
ENDBRANCH   1   7
TORSDOF 4
ENDMDL
MODEL 3
REMARK VINA RESULT:    -4.066      1.703      2.663
REMARK INTER + INTRA:          -5.414
REMARK INTER:                  -5.194
REMARK INTRA:                  -0.220
REMARK UNBOUND:                -0.397
REMARK SMILES C=CC[C@@H](C)C(=O)CC
REMARK SMILES IDX 4 1 5 2 6 3 7 4 8 5 9 6 3 7 2 8 1 9
REMARK H PARENT
REMARK Flexibility Score: inf
ROOT
ATOM      1  C   UNL     1       2.242 -21.380  -7.395  1.00  0.00     0.057 C 
ATOM      2  C   UNL     1       1.594 -20.889  -8.696  1.00  0.00     0.016 C 
ENDROOT
BRANCH   1   3
ATOM      3  C   UNL     1       3.484 -20.569  -7.099  1.00  0.00     0.135 C 
ATOM      4  O   UNL     1       3.416 -19.349  -7.039  1.00  0.00    -0.299 OA
BRANCH   3   5
ATOM      5  C   UNL     1       4.800 -21.248  -6.832  1.00  0.00     0.072 C 
ATOM      6  C   UNL     1       4.925 -21.623  -5.359  1.00  0.00     0.012 C 
ENDBRANCH   3   5
ENDBRANCH   1   3
BRANCH   1   7
ATOM      7  C   UNL     1       1.263 -21.303  -6.204  1.00  0.00     0.038 C 
BRANCH   7   8
ATOM      8  C   UNL     1       0.083 -22.223  -6.374  1.00  0.00    -0.034 C 
ATOM      9  C   UNL     1       0.232 -23.548  -6.469  1.00  0.00     0.004 C 
ENDBRANCH   7   8
ENDBRANCH   1   7
TORSDOF 4
ENDMDL
MODEL 4
REMARK VINA RESULT:    -4.025      1.817      3.186
REMARK INTER + INTRA:          -5.363
REMARK INTER:                  -5.024
REMARK INTRA:                  -0.340
REMARK UNBOUND:                -0.397
REMARK SMILES C=CC[C@@H](C)C(=O)CC
REMARK SMILES IDX 4 1 5 2 6 3 7 4 8 5 9 6 3 7 2 8 1 9
REMARK H PARENT
REMARK Flexibility Score: inf
ROOT
ATOM      1  C   UNL     1       1.703 -20.889  -7.421  1.00  0.00     0.057 C 
ATOM      2  C   UNL     1       1.288 -20.888  -8.898  1.00  0.00     0.016 C 
ENDROOT
BRANCH   1   3
ATOM      3  C   UNL     1       0.858 -21.877  -6.649  1.00  0.00     0.135 C 
ATOM      4  O   UNL     1       0.588 -22.965  -7.140  1.00  0.00    -0.299 OA
BRANCH   3   5
ATOM      5  C   UNL     1       0.378 -21.557  -5.259  1.00  0.00     0.072 C 
ATOM      6  C   UNL     1       0.846 -20.169  -4.833  1.00  0.00     0.012 C 
ENDBRANCH   3   5
ENDBRANCH   1   3
BRANCH   1   7
ATOM      7  C   UNL     1       3.200 -21.224  -7.249  1.00  0.00     0.038 C 
BRANCH   7   8
ATOM      8  C   UNL     1       4.079 -20.014  -7.415  1.00  0.00    -0.034 C 
ATOM      9  C   UNL     1       3.887 -18.900  -6.702  1.00  0.00     0.004 C 
ENDBRANCH   7   8
ENDBRANCH   1   7
TORSDOF 4
ENDMDL
MODEL 5
REMARK VINA RESULT:    -3.985      1.806      2.417
REMARK INTER + INTRA:          -5.314
REMARK INTER:                  -5.035
REMARK INTRA:                  -0.278
REMARK UNBOUND:                -0.397
REMARK SMILES C=CC[C@@H](C)C(=O)CC
REMARK SMILES IDX 4 1 5 2 6 3 7 4 8 5 9 6 3 7 2 8 1 9
REMARK H PARENT
REMARK Flexibility Score: inf
ROOT
ATOM      1  C   UNL     1       2.067 -20.185  -5.404  1.00  0.00     0.057 C 
ATOM      2  C   UNL     1       1.798 -18.777  -5.954  1.00  0.00     0.016 C 
ENDROOT
BRANCH   1   3
ATOM      3  C   UNL     1       0.829 -20.717  -4.719  1.00  0.00     0.135 C 
ATOM      4  O   UNL     1       0.143 -21.566  -5.270  1.00  0.00    -0.299 OA
BRANCH   3   5
ATOM      5  C   UNL     1       0.452 -20.244  -3.341  1.00  0.00     0.072 C 
ATOM      6  C   UNL     1       1.671 -20.221  -2.425  1.00  0.00     0.012 C 
ENDBRANCH   3   5
ENDBRANCH   1   3
BRANCH   1   7
ATOM      7  C   UNL     1       2.515 -21.156  -6.517  1.00  0.00     0.038 C 
BRANCH   7   8
ATOM      8  C   UNL     1       2.313 -20.581  -7.894  1.00  0.00    -0.034 C 
ATOM      9  C   UNL     1       1.370 -21.046  -8.720  1.00  0.00     0.004 C 
ENDBRANCH   7   8
ENDBRANCH   1   7
TORSDOF 4
ENDMDL
MODEL 6
REMARK VINA RESULT:    -3.861      1.642      3.960
REMARK INTER + INTRA:          -5.161
REMARK INTER:                  -5.036
REMARK INTRA:                  -0.125
REMARK UNBOUND:                -0.397
REMARK SMILES C=CC[C@@H](C)C(=O)CC
REMARK SMILES IDX 4 1 5 2 6 3 7 4 8 5 9 6 3 7 2 8 1 9
REMARK H PARENT
REMARK Flexibility Score: inf
ROOT
ATOM      1  C   UNL     1       1.130 -21.000  -5.279  1.00  0.00     0.057 C 
ATOM      2  C   UNL     1       0.160 -22.046  -5.846  1.00  0.00     0.016 C 
ENDROOT
BRANCH   1   3
ATOM      3  C   UNL     1       1.674 -20.141  -6.398  1.00  0.00     0.135 C 
ATOM      4  O   UNL     1       1.513 -18.929  -6.370  1.00  0.00    -0.299 OA
BRANCH   3   5
ATOM      5  C   UNL     1       2.452 -20.756  -7.530  1.00  0.00     0.072 C 
ATOM      6  C   UNL     1       1.577 -20.899  -8.771  1.00  0.00     0.012 C 
ENDBRANCH   3   5
ENDBRANCH   1   3
BRANCH   1   7
ATOM      7  C   UNL     1       0.453 -20.114  -4.212  1.00  0.00     0.038 C 
BRANCH   7   8
ATOM      8  C   UNL     1       1.080 -20.275  -2.853  1.00  0.00    -0.034 C 
ATOM      9  C   UNL     1       2.218 -19.654  -2.525  1.00  0.00     0.004 C 
ENDBRANCH   7   8
ENDBRANCH   1   7
TORSDOF 4
ENDMDL
MODEL 7
REMARK VINA RESULT:    -3.830      1.693      2.769
REMARK INTER + INTRA:          -5.122
REMARK INTER:                  -4.777
REMARK INTRA:                  -0.345
REMARK UNBOUND:                -0.397
REMARK SMILES C=CC[C@@H](C)C(=O)CC
REMARK SMILES IDX 4 1 5 2 6 3 7 4 8 5 9 6 3 7 2 8 1 9
REMARK H PARENT
REMARK Flexibility Score: inf
ROOT
ATOM      1  C   UNL     1       2.392 -20.353  -7.564  1.00  0.00     0.057 C 
ATOM      2  C   UNL     1       1.461 -20.934  -8.638  1.00  0.00     0.016 C 
ENDROOT
BRANCH   1   3
ATOM      3  C   UNL     1       1.595 -19.994  -6.330  1.00  0.00     0.135 C 
ATOM      4  O   UNL     1       1.488 -18.824  -5.992  1.00  0.00    -0.299 OA
BRANCH   3   5
ATOM      5  C   UNL     1       0.892 -21.060  -5.533  1.00  0.00     0.072 C 
ATOM      6  C   UNL     1       0.490 -20.530  -4.160  1.00  0.00     0.012 C 
ENDBRANCH   3   5
ENDBRANCH   1   3
BRANCH   1   7
ATOM      7  C   UNL     1       3.523 -21.338  -7.197  1.00  0.00     0.038 C 
BRANCH   7   8
ATOM      8  C   UNL     1       4.460 -20.772  -6.164  1.00  0.00    -0.034 C 
ATOM      9  C   UNL     1       4.801 -21.461  -5.070  1.00  0.00     0.004 C 
ENDBRANCH   7   8
ENDBRANCH   1   7
TORSDOF 4
ENDMDL
MODEL 8
REMARK VINA RESULT:    -3.814      1.188      2.884
REMARK INTER + INTRA:          -5.103
REMARK INTER:                  -4.739
REMARK INTRA:                  -0.364
REMARK UNBOUND:                -0.397
REMARK SMILES C=CC[C@@H](C)C(=O)CC
REMARK SMILES IDX 4 1 5 2 6 3 7 4 8 5 9 6 3 7 2 8 1 9
REMARK H PARENT
REMARK Flexibility Score: inf
ROOT
ATOM      1  C   UNL     1       1.328 -20.620  -5.736  1.00  0.00     0.057 C 
ATOM      2  C   UNL     1       0.480 -20.536  -4.460  1.00  0.00     0.016 C 
ENDROOT
BRANCH   1   3
ATOM      3  C   UNL     1       2.771 -20.298  -5.419  1.00  0.00     0.135 C 
ATOM      4  O   UNL     1       3.068 -19.194  -4.981  1.00  0.00    -0.299 OA
BRANCH   3   5
ATOM      5  C   UNL     1       3.846 -21.336  -5.593  1.00  0.00     0.072 C 
ATOM      6  C   UNL     1       4.793 -20.947  -6.724  1.00  0.00     0.012 C 
ENDBRANCH   3   5
ENDBRANCH   1   3
BRANCH   1   7
ATOM      7  C   UNL     1       1.229 -22.012  -6.397  1.00  0.00     0.038 C 
BRANCH   7   8
ATOM      8  C   UNL     1       0.974 -21.925  -7.878  1.00  0.00    -0.034 C 
ATOM      9  C   UNL     1       1.483 -20.938  -8.623  1.00  0.00     0.004 C 
ENDBRANCH   7   8
ENDBRANCH   1   7
TORSDOF 4
ENDMDL
MODEL 9
REMARK VINA RESULT:    -3.810      1.501      3.228
REMARK INTER + INTRA:          -5.098
REMARK INTER:                  -4.800
REMARK INTRA:                  -0.298
REMARK UNBOUND:                -0.397
REMARK SMILES C=CC[C@@H](C)C(=O)CC
REMARK SMILES IDX 4 1 5 2 6 3 7 4 8 5 9 6 3 7 2 8 1 9
REMARK H PARENT
REMARK Flexibility Score: inf
ROOT
ATOM      1  C   UNL     1       2.033 -20.244  -5.967  1.00  0.00     0.057 C 
ATOM      2  C   UNL     1       1.576 -18.863  -5.478  1.00  0.00     0.016 C 
ENDROOT
BRANCH   1   3
ATOM      3  C   UNL     1       0.899 -21.236  -5.844  1.00  0.00     0.135 C 
ATOM      4  O   UNL     1       0.226 -21.271  -4.824  1.00  0.00    -0.299 OA
BRANCH   3   5
ATOM      5  C   UNL     1       0.559 -22.158  -6.985  1.00  0.00     0.072 C 
ATOM      6  C   UNL     1       0.185 -23.543  -6.466  1.00  0.00     0.012 C 
ENDBRANCH   3   5
ENDBRANCH   1   3
BRANCH   1   7
ATOM      7  C   UNL     1       2.539 -20.195  -7.424  1.00  0.00     0.038 C 
BRANCH   7   8
ATOM      8  C   UNL     1       4.039 -20.294  -7.513  1.00  0.00    -0.034 C 
ATOM      9  C   UNL     1       4.723 -21.232  -6.848  1.00  0.00     0.004 C 
ENDBRANCH   7   8
ENDBRANCH   1   7
TORSDOF 4
ENDMDL
