MODEL 1
REMARK VINA RESULT:    -5.321      0.000      0.000
REMARK INTER + INTRA:         -10.785
REMARK INTER:                  -9.209
REMARK INTRA:                  -1.576
REMARK UNBOUND:                -1.576
REMARK SMILES CCCCCCCCCCCCCCO
REMARK SMILES IDX 8 1 7 2 6 3 5 4 4 5 3 6 2 7 1 8 9 9 10 10 11 11 12 12 13 13
REMARK SMILES IDX 14 14 15 15
REMARK H PARENT 15 16
REMARK Flexibility Score: inf
ROOT
ATOM      1  C   UNL     1      10.186   4.012  -0.723  1.00  0.00     0.000 C 
ENDROOT
BRANCH   1   2
ATOM      2  C   UNL     1      10.490   2.941  -1.780  1.00  0.00    -0.000 C 
BRANCH   2   3
ATOM      3  C   UNL     1      11.573   3.382  -2.778  1.00  0.00    -0.000 C 
BRANCH   3   4
ATOM      4  C   UNL     1      11.974   4.857  -2.604  1.00  0.00    -0.000 C 
BRANCH   4   5
ATOM      5  C   UNL     1      11.545   5.721  -3.809  1.00  0.00    -0.000 C 
BRANCH   5   6
ATOM      6  C   UNL     1      10.682   4.965  -4.834  1.00  0.00    -0.000 C 
BRANCH   6   7
ATOM      7  C   UNL     1       9.186   5.281  -4.702  1.00  0.00    -0.003 C 
ATOM      8  C   UNL     1       8.378   4.015  -4.430  1.00  0.00     0.004 C 
ENDBRANCH   6   7
ENDBRANCH   5   6
ENDBRANCH   4   5
ENDBRANCH   3   4
ENDBRANCH   2   3
ENDBRANCH   1   2
BRANCH   1   9
ATOM      9  C   UNL     1       8.736   4.499  -0.835  1.00  0.00     0.000 C 
BRANCH   9  10
ATOM     10  C   UNL     1       8.589   5.926  -0.283  1.00  0.00     0.000 C 
BRANCH  10  11
ATOM     11  C   UNL     1       8.890   7.010  -1.333  1.00  0.00     0.000 C 
BRANCH  11  12
ATOM     12  C   UNL     1       7.734   7.987  -1.610  1.00  0.00     0.002 C 
BRANCH  12  13
ATOM     13  C   UNL     1       8.112   9.097  -2.601  1.00  0.00     0.028 C 
BRANCH  13  14
ATOM     14  C   UNL     1       8.940   8.541  -3.760  1.00  0.00     0.156 C 
BRANCH  14  15
ATOM     15  O   UNL     1      10.243   9.048  -3.687  1.00  0.00    -0.396 OA
ATOM     16  H   UNL     1      10.725   8.475  -3.037  1.00  0.00     0.210 HD
ENDBRANCH  14  15
ENDBRANCH  13  14
ENDBRANCH  12  13
ENDBRANCH  11  12
ENDBRANCH  10  11
ENDBRANCH   9  10
ENDBRANCH   1   9
TORSDOF 13
ENDMDL
MODEL 2
REMARK VINA RESULT:    -5.221      1.702      4.331
REMARK INTER + INTRA:         -10.611
REMARK INTER:                  -8.991
REMARK INTRA:                  -1.621
REMARK UNBOUND:                -1.576
REMARK SMILES CCCCCCCCCCCCCCO
REMARK SMILES IDX 8 1 7 2 6 3 5 4 4 5 3 6 2 7 1 8 9 9 10 10 11 11 12 12 13 13
REMARK SMILES IDX 14 14 15 15
REMARK H PARENT 15 16
REMARK Flexibility Score: inf
ROOT
ATOM      1  C   UNL     1      10.388   3.146  -1.521  1.00  0.00     0.000 C 
ENDROOT
BRANCH   1   2
ATOM      2  C   UNL     1      10.126   4.436  -0.730  1.00  0.00    -0.000 C 
BRANCH   2   3
ATOM      3  C   UNL     1       8.629   4.705  -0.513  1.00  0.00    -0.000 C 
BRANCH   3   4
ATOM      4  C   UNL     1       8.296   6.206  -0.473  1.00  0.00    -0.000 C 
BRANCH   4   5
ATOM      5  C   UNL     1       9.146   7.017  -1.473  1.00  0.00    -0.000 C 
BRANCH   5   6
ATOM      6  C   UNL     1       8.314   7.921  -2.399  1.00  0.00    -0.000 C 
BRANCH   6   7
ATOM      7  C   UNL     1       7.106   8.551  -1.690  1.00  0.00    -0.003 C 
ATOM      8  C   UNL     1       6.235   9.326  -2.674  1.00  0.00     0.004 C 
ENDBRANCH   6   7
ENDBRANCH   5   6
ENDBRANCH   4   5
ENDBRANCH   3   4
ENDBRANCH   2   3
ENDBRANCH   1   2
BRANCH   1   9
ATOM      9  C   UNL     1      11.448   3.374  -2.606  1.00  0.00     0.000 C 
BRANCH   9  10
ATOM     10  C   UNL     1      12.055   4.781  -2.498  1.00  0.00     0.000 C 
BRANCH  10  11
ATOM     11  C   UNL     1      11.777   5.653  -3.736  1.00  0.00     0.000 C 
BRANCH  11  12
ATOM     12  C   UNL     1      10.899   4.991  -4.814  1.00  0.00     0.002 C 
BRANCH  12  13
ATOM     13  C   UNL     1       9.471   5.554  -4.851  1.00  0.00     0.028 C 
BRANCH  13  14
ATOM     14  C   UNL     1       8.469   4.547  -4.287  1.00  0.00     0.156 C 
BRANCH  14  15
ATOM     15  O   UNL     1       8.766   3.269  -4.775  1.00  0.00    -0.396 OA
ATOM     16  H   UNL     1       7.964   2.973  -5.278  1.00  0.00     0.210 HD
ENDBRANCH  14  15
ENDBRANCH  13  14
ENDBRANCH  12  13
ENDBRANCH  11  12
ENDBRANCH  10  11
ENDBRANCH   9  10
ENDBRANCH   1   9
TORSDOF 13
ENDMDL
MODEL 3
REMARK VINA RESULT:    -5.133      0.924      3.823
REMARK INTER + INTRA:         -10.460
REMARK INTER:                  -8.895
REMARK INTRA:                  -1.565
REMARK UNBOUND:                -1.576
REMARK SMILES CCCCCCCCCCCCCCO
REMARK SMILES IDX 8 1 7 2 6 3 5 4 4 5 3 6 2 7 1 8 9 9 10 10 11 11 12 12 13 13
REMARK SMILES IDX 14 14 15 15
REMARK H PARENT 15 16
REMARK Flexibility Score: inf
ROOT
ATOM      1  C   UNL     1      11.218   3.328  -2.690  1.00  0.00     0.000 C 
ENDROOT
BRANCH   1   2
ATOM      2  C   UNL     1      10.348   3.057  -1.454  1.00  0.00    -0.000 C 
BRANCH   2   3
ATOM      3  C   UNL     1      10.139   4.311  -0.590  1.00  0.00    -0.000 C 
BRANCH   3   4
ATOM      4  C   UNL     1       8.660   4.723  -0.490  1.00  0.00    -0.000 C 
BRANCH   4   5
ATOM      5  C   UNL     1       8.251   5.695  -1.617  1.00  0.00    -0.000 C 
BRANCH   5   6
ATOM      6  C   UNL     1       8.623   7.160  -1.332  1.00  0.00    -0.000 C 
BRANCH   6   7
ATOM      7  C   UNL     1       7.496   8.141  -1.682  1.00  0.00    -0.003 C 
ATOM      8  C   UNL     1       7.516   9.354  -0.756  1.00  0.00     0.004 C 
ENDBRANCH   6   7
ENDBRANCH   5   6
ENDBRANCH   4   5
ENDBRANCH   3   4
ENDBRANCH   2   3
ENDBRANCH   1   2
BRANCH   1   9
ATOM      9  C   UNL     1      11.940   4.676  -2.569  1.00  0.00     0.000 C 
BRANCH   9  10
ATOM     10  C   UNL     1      11.706   5.540  -3.817  1.00  0.00     0.000 C 
BRANCH  10  11
ATOM     11  C   UNL     1      10.624   4.970  -4.750  1.00  0.00     0.000 C 
BRANCH  11  12
ATOM     12  C   UNL     1       9.471   5.936  -5.078  1.00  0.00     0.002 C 
BRANCH  12  13
ATOM     13  C   UNL     1       9.960   7.298  -5.592  1.00  0.00     0.028 C 
BRANCH  13  14
ATOM     14  C   UNL     1       9.384   8.440  -4.756  1.00  0.00     0.156 C 
BRANCH  14  15
ATOM     15  O   UNL     1      10.355   8.896  -3.856  1.00  0.00    -0.396 OA
ATOM     16  H   UNL     1      10.356   9.885  -3.930  1.00  0.00     0.210 HD
ENDBRANCH  14  15
ENDBRANCH  13  14
ENDBRANCH  12  13
ENDBRANCH  11  12
ENDBRANCH  10  11
ENDBRANCH   9  10
ENDBRANCH   1   9
TORSDOF 13
ENDMDL
MODEL 4
REMARK VINA RESULT:    -5.106      1.314      1.519
REMARK INTER + INTRA:         -10.412
REMARK INTER:                  -8.688
REMARK INTRA:                  -1.724
REMARK UNBOUND:                -1.576
REMARK SMILES CCCCCCCCCCCCCCO
REMARK SMILES IDX 8 1 7 2 6 3 5 4 4 5 3 6 2 7 1 8 9 9 10 10 11 11 12 12 13 13
REMARK SMILES IDX 14 14 15 15
REMARK H PARENT 15 16
REMARK Flexibility Score: inf
ROOT
ATOM      1  C   UNL     1      10.220   3.898  -0.685  1.00  0.00     0.000 C 
ENDROOT
BRANCH   1   2
ATOM      2  C   UNL     1      10.466   2.872  -1.801  1.00  0.00    -0.000 C 
BRANCH   2   3
ATOM      3  C   UNL     1      11.513   3.345  -2.822  1.00  0.00    -0.000 C 
BRANCH   3   4
ATOM      4  C   UNL     1      11.969   4.794  -2.576  1.00  0.00    -0.000 C 
BRANCH   4   5
ATOM      5  C   UNL     1      11.654   5.713  -3.774  1.00  0.00    -0.000 C 
BRANCH   5   6
ATOM      6  C   UNL     1      10.780   5.046  -4.851  1.00  0.00    -0.000 C 
BRANCH   6   7
ATOM      7  C   UNL     1       9.307   5.468  -4.770  1.00  0.00    -0.003 C 
ATOM      8  C   UNL     1       8.417   4.288  -4.387  1.00  0.00     0.004 C 
ENDBRANCH   6   7
ENDBRANCH   5   6
ENDBRANCH   4   5
ENDBRANCH   3   4
ENDBRANCH   2   3
ENDBRANCH   1   2
BRANCH   1   9
ATOM      9  C   UNL     1       8.759   4.363  -0.679  1.00  0.00     0.000 C 
BRANCH   9  10
ATOM     10  C   UNL     1       8.652   5.839  -0.267  1.00  0.00     0.000 C 
BRANCH  10  11
ATOM     11  C   UNL     1       9.093   6.807  -1.379  1.00  0.00     0.000 C 
BRANCH  11  12
ATOM     12  C   UNL     1       7.963   7.653  -1.992  1.00  0.00     0.002 C 
BRANCH  12  13
ATOM     13  C   UNL     1       8.214   9.163  -1.872  1.00  0.00     0.028 C 
BRANCH  13  14
ATOM     14  C   UNL     1       7.505   9.743  -0.648  1.00  0.00     0.156 C 
BRANCH  14  15
ATOM     15  O   UNL     1       7.722  11.125  -0.593  1.00  0.00    -0.396 OA
ATOM     16  H   UNL     1       8.500  11.304  -1.182  1.00  0.00     0.210 HD
ENDBRANCH  14  15
ENDBRANCH  13  14
ENDBRANCH  12  13
ENDBRANCH  11  12
ENDBRANCH  10  11
ENDBRANCH   9  10
ENDBRANCH   1   9
TORSDOF 13
ENDMDL
MODEL 5
REMARK VINA RESULT:    -5.048      1.362      1.818
REMARK INTER + INTRA:         -10.313
REMARK INTER:                  -8.470
REMARK INTRA:                  -1.843
REMARK UNBOUND:                -1.576
REMARK SMILES CCCCCCCCCCCCCCO
REMARK SMILES IDX 8 1 7 2 6 3 5 4 4 5 3 6 2 7 1 8 9 9 10 10 11 11 12 12 13 13
REMARK SMILES IDX 14 14 15 15
REMARK H PARENT 15 16
REMARK Flexibility Score: inf
ROOT
ATOM      1  C   UNL     1      10.143   2.916  -2.062  1.00  0.00     0.000 C 
ENDROOT
BRANCH   1   2
ATOM      2  C   UNL     1      11.426   3.363  -2.777  1.00  0.00    -0.000 C 
BRANCH   2   3
ATOM      3  C   UNL     1      11.997   4.672  -2.208  1.00  0.00    -0.000 C 
BRANCH   3   4
ATOM      4  C   UNL     1      11.846   5.857  -3.177  1.00  0.00    -0.000 C 
BRANCH   4   5
ATOM      5  C   UNL     1      11.318   5.414  -4.558  1.00  0.00    -0.000 C 
BRANCH   5   6
ATOM      6  C   UNL     1      10.447   6.474  -5.254  1.00  0.00    -0.000 C 
BRANCH   6   7
ATOM      7  C   UNL     1       8.944   6.193  -5.120  1.00  0.00    -0.003 C 
ATOM      8  C   UNL     1       8.692   4.774  -4.619  1.00  0.00     0.004 C 
ENDBRANCH   6   7
ENDBRANCH   5   6
ENDBRANCH   4   5
ENDBRANCH   3   4
ENDBRANCH   2   3
ENDBRANCH   1   2
BRANCH   1   9
ATOM      9  C   UNL     1      10.080   3.486  -0.640  1.00  0.00     0.000 C 
BRANCH   9  10
ATOM     10  C   UNL     1       8.778   4.271  -0.418  1.00  0.00     0.000 C 
BRANCH  10  11
ATOM     11  C   UNL     1       8.995   5.794  -0.376  1.00  0.00     0.000 C 
BRANCH  11  12
ATOM     12  C   UNL     1       8.248   6.588  -1.463  1.00  0.00     0.002 C 
BRANCH  12  13
ATOM     13  C   UNL     1       8.974   7.880  -1.864  1.00  0.00     0.028 C 
BRANCH  13  14
ATOM     14  C   UNL     1       8.098   9.106  -1.605  1.00  0.00     0.156 C 
BRANCH  14  15
ATOM     15  O   UNL     1       7.955   9.294  -0.225  1.00  0.00    -0.396 OA
ATOM     16  H   UNL     1       8.633   9.971   0.032  1.00  0.00     0.210 HD
ENDBRANCH  14  15
ENDBRANCH  13  14
ENDBRANCH  12  13
ENDBRANCH  11  12
ENDBRANCH  10  11
ENDBRANCH   9  10
ENDBRANCH   1   9
TORSDOF 13
ENDMDL
MODEL 6
REMARK VINA RESULT:    -4.782      1.513      2.651
REMARK INTER + INTRA:          -9.853
REMARK INTER:                  -8.331
REMARK INTRA:                  -1.522
REMARK UNBOUND:                -1.576
REMARK SMILES CCCCCCCCCCCCCCO
REMARK SMILES IDX 8 1 7 2 6 3 5 4 4 5 3 6 2 7 1 8 9 9 10 10 11 11 12 12 13 13
REMARK SMILES IDX 14 14 15 15
REMARK H PARENT 15 16
REMARK Flexibility Score: inf
ROOT
ATOM      1  C   UNL     1      11.063   3.391  -2.589  1.00  0.00     0.000 C 
ENDROOT
BRANCH   1   2
ATOM      2  C   UNL     1      11.955   4.626  -2.399  1.00  0.00    -0.000 C 
BRANCH   2   3
ATOM      3  C   UNL     1      11.643   5.744  -3.406  1.00  0.00    -0.000 C 
BRANCH   3   4
ATOM      4  C   UNL     1      10.779   5.258  -4.582  1.00  0.00    -0.000 C 
BRANCH   4   5
ATOM      5  C   UNL     1      11.231   5.868  -5.926  1.00  0.00    -0.000 C 
BRANCH   5   6
ATOM      6  C   UNL     1      10.780   7.325  -6.125  1.00  0.00    -0.000 C 
BRANCH   6   7
ATOM      7  C   UNL     1       9.268   7.513  -5.934  1.00  0.00    -0.003 C 
ATOM      8  C   UNL     1       8.975   8.584  -4.887  1.00  0.00     0.004 C 
ENDBRANCH   6   7
ENDBRANCH   5   6
ENDBRANCH   4   5
ENDBRANCH   3   4
ENDBRANCH   2   3
ENDBRANCH   1   2
BRANCH   1   9
ATOM      9  C   UNL     1      10.242   3.106  -1.326  1.00  0.00     0.000 C 
BRANCH   9  10
ATOM     10  C   UNL     1       9.830   4.413  -0.630  1.00  0.00     0.000 C 
BRANCH  10  11
ATOM     11  C   UNL     1       8.384   4.833  -0.948  1.00  0.00     0.000 C 
BRANCH  11  12
ATOM     12  C   UNL     1       8.249   6.020  -1.918  1.00  0.00     0.002 C 
BRANCH  12  13
ATOM     13  C   UNL     1       8.822   7.326  -1.348  1.00  0.00     0.028 C 
BRANCH  13  14
ATOM     14  C   UNL     1       7.766   8.432  -1.339  1.00  0.00     0.156 C 
BRANCH  14  15
ATOM     15  O   UNL     1       8.229   9.513  -0.578  1.00  0.00    -0.396 OA
ATOM     16  H   UNL     1       9.055   9.198  -0.128  1.00  0.00     0.210 HD
ENDBRANCH  14  15
ENDBRANCH  13  14
ENDBRANCH  12  13
ENDBRANCH  11  12
ENDBRANCH  10  11
ENDBRANCH   9  10
ENDBRANCH   1   9
TORSDOF 13
ENDMDL
MODEL 7
REMARK VINA RESULT:    -4.736      1.705      3.578
REMARK INTER + INTRA:          -9.772
REMARK INTER:                  -8.190
REMARK INTRA:                  -1.582
REMARK UNBOUND:                -1.576
REMARK SMILES CCCCCCCCCCCCCCO
REMARK SMILES IDX 8 1 7 2 6 3 5 4 4 5 3 6 2 7 1 8 9 9 10 10 11 11 12 12 13 13
REMARK SMILES IDX 14 14 15 15
REMARK H PARENT 15 16
REMARK Flexibility Score: inf
ROOT
ATOM      1  C   UNL     1       9.420   6.054  -4.905  1.00  0.00     0.000 C 
ENDROOT
BRANCH   1   2
ATOM      2  C   UNL     1      10.456   4.940  -4.695  1.00  0.00    -0.000 C 
BRANCH   2   3
ATOM      3  C   UNL     1      11.744   5.446  -4.026  1.00  0.00    -0.000 C 
BRANCH   3   4
ATOM      4  C   UNL     1      12.085   4.677  -2.738  1.00  0.00    -0.000 C 
BRANCH   4   5
ATOM      5  C   UNL     1      11.102   3.516  -2.478  1.00  0.00    -0.000 C 
BRANCH   5   6
ATOM      6  C   UNL     1      10.483   3.535  -1.069  1.00  0.00    -0.000 C 
BRANCH   6   7
ATOM      7  C   UNL     1       9.746   4.845  -0.759  1.00  0.00    -0.003 C 
ATOM      8  C   UNL     1       8.378   4.879  -1.435  1.00  0.00     0.004 C 
ENDBRANCH   6   7
ENDBRANCH   5   6
ENDBRANCH   4   5
ENDBRANCH   3   4
ENDBRANCH   2   3
ENDBRANCH   1   2
BRANCH   1   9
ATOM      9  C   UNL     1      10.097   7.358  -5.344  1.00  0.00     0.000 C 
BRANCH   9  10
ATOM     10  C   UNL     1       9.690   8.526  -4.432  1.00  0.00     0.000 C 
BRANCH  10  11
ATOM     11  C   UNL     1       9.270   8.070  -3.023  1.00  0.00     0.000 C 
BRANCH  11  12
ATOM     12  C   UNL     1       7.811   8.386  -2.645  1.00  0.00     0.002 C 
BRANCH  12  13
ATOM     13  C   UNL     1       7.621   8.616  -1.139  1.00  0.00     0.028 C 
BRANCH  13  14
ATOM     14  C   UNL     1       7.811  10.090  -0.780  1.00  0.00     0.156 C 
BRANCH  14  15
ATOM     15  O   UNL     1       7.686  10.252   0.606  1.00  0.00    -0.396 OA
ATOM     16  H   UNL     1       7.704  11.230   0.770  1.00  0.00     0.210 HD
ENDBRANCH  14  15
ENDBRANCH  13  14
ENDBRANCH  12  13
ENDBRANCH  11  12
ENDBRANCH  10  11
ENDBRANCH   9  10
ENDBRANCH   1   9
TORSDOF 13
ENDMDL
MODEL 8
REMARK VINA RESULT:    -4.716      1.428      3.738
REMARK INTER + INTRA:          -9.739
REMARK INTER:                  -8.330
REMARK INTRA:                  -1.408
REMARK UNBOUND:                -1.576
REMARK SMILES CCCCCCCCCCCCCCO
REMARK SMILES IDX 8 1 7 2 6 3 5 4 4 5 3 6 2 7 1 8 9 9 10 10 11 11 12 12 13 13
REMARK SMILES IDX 14 14 15 15
REMARK H PARENT 15 16
REMARK Flexibility Score: inf
ROOT
ATOM      1  C   UNL     1      10.821   4.091  -4.051  1.00  0.00     0.000 C 
ENDROOT
BRANCH   1   2
ATOM      2  C   UNL     1      11.298   3.320  -2.812  1.00  0.00    -0.000 C 
BRANCH   2   3
ATOM      3  C   UNL     1      10.143   2.923  -1.879  1.00  0.00    -0.000 C 
BRANCH   3   4
ATOM      4  C   UNL     1      10.150   3.712  -0.558  1.00  0.00    -0.000 C 
BRANCH   4   5
ATOM      5  C   UNL     1       8.824   4.468  -0.326  1.00  0.00    -0.000 C 
BRANCH   5   6
ATOM      6  C   UNL     1       8.392   5.335  -1.521  1.00  0.00    -0.000 C 
BRANCH   6   7
ATOM      7  C   UNL     1       9.037   6.727  -1.513  1.00  0.00    -0.003 C 
ATOM      8  C   UNL     1       7.994   7.817  -1.747  1.00  0.00     0.004 C 
ENDBRANCH   6   7
ENDBRANCH   5   6
ENDBRANCH   4   5
ENDBRANCH   3   4
ENDBRANCH   2   3
ENDBRANCH   1   2
BRANCH   1   9
ATOM      9  C   UNL     1      11.538   5.442  -4.167  1.00  0.00     0.000 C 
BRANCH   9  10
ATOM     10  C   UNL     1      10.976   6.265  -5.336  1.00  0.00     0.000 C 
BRANCH  10  11
ATOM     11  C   UNL     1       9.484   6.603  -5.171  1.00  0.00     0.000 C 
BRANCH  11  12
ATOM     12  C   UNL     1       9.114   8.071  -5.453  1.00  0.00     0.002 C 
BRANCH  12  13
ATOM     13  C   UNL     1      10.151   8.793  -6.325  1.00  0.00     0.028 C 
BRANCH  13  14
ATOM     14  C   UNL     1      10.543  10.137  -5.713  1.00  0.00     0.156 C 
BRANCH  14  15
ATOM     15  O   UNL     1       9.813  10.346  -4.536  1.00  0.00    -0.396 OA
ATOM     16  H   UNL     1       8.875  10.501  -4.819  1.00  0.00     0.210 HD
ENDBRANCH  14  15
ENDBRANCH  13  14
ENDBRANCH  12  13
ENDBRANCH  11  12
ENDBRANCH  10  11
ENDBRANCH   9  10
ENDBRANCH   1   9
TORSDOF 13
ENDMDL
MODEL 9
REMARK VINA RESULT:    -4.682      1.776      4.987
REMARK INTER + INTRA:          -9.679
REMARK INTER:                  -8.435
REMARK INTRA:                  -1.244
REMARK UNBOUND:                -1.576
REMARK SMILES CCCCCCCCCCCCCCO
REMARK SMILES IDX 8 1 7 2 6 3 5 4 4 5 3 6 2 7 1 8 9 9 10 10 11 11 12 12 13 13
REMARK SMILES IDX 14 14 15 15
REMARK H PARENT 15 16
REMARK Flexibility Score: inf
ROOT
ATOM      1  C   UNL     1      10.422   5.083  -4.796  1.00  0.00     0.000 C 
ENDROOT
BRANCH   1   2
ATOM      2  C   UNL     1       9.406   6.230  -4.879  1.00  0.00    -0.000 C 
BRANCH   2   3
ATOM      3  C   UNL     1      10.041   7.605  -4.618  1.00  0.00    -0.000 C 
BRANCH   3   4
ATOM      4  C   UNL     1       9.500   8.277  -3.344  1.00  0.00    -0.000 C 
BRANCH   4   5
ATOM      5  C   UNL     1       8.419   7.422  -2.651  1.00  0.00    -0.000 C 
BRANCH   5   6
ATOM      6  C   UNL     1       7.540   8.216  -1.670  1.00  0.00    -0.000 C 
BRANCH   6   7
ATOM      7  C   UNL     1       6.946   9.486  -2.294  1.00  0.00    -0.003 C 
ATOM      8  C   UNL     1       5.475   9.287  -2.650  1.00  0.00     0.004 C 
ENDBRANCH   6   7
ENDBRANCH   5   6
ENDBRANCH   4   5
ENDBRANCH   3   4
ENDBRANCH   2   3
ENDBRANCH   1   2
BRANCH   1   9
ATOM      9  C   UNL     1      11.680   5.517  -4.032  1.00  0.00     0.000 C 
BRANCH   9  10
ATOM     10  C   UNL     1      11.937   4.601  -2.826  1.00  0.00     0.000 C 
BRANCH  10  11
ATOM     11  C   UNL     1      11.059   3.337  -2.834  1.00  0.00     0.000 C 
BRANCH  11  12
ATOM     12  C   UNL     1      10.248   3.101  -1.547  1.00  0.00     0.002 C 
BRANCH  12  13
ATOM     13  C   UNL     1      10.126   4.360  -0.677  1.00  0.00     0.028 C 
BRANCH  13  14
ATOM     14  C   UNL     1       8.678   4.593  -0.246  1.00  0.00     0.156 C 
BRANCH  14  15
ATOM     15  O   UNL     1       8.601   5.764   0.517  1.00  0.00    -0.396 OA
ATOM     16  H   UNL     1       9.484   5.865   0.956  1.00  0.00     0.210 HD
ENDBRANCH  14  15
ENDBRANCH  13  14
ENDBRANCH  12  13
ENDBRANCH  11  12
ENDBRANCH  10  11
ENDBRANCH   9  10
ENDBRANCH   1   9
TORSDOF 13
ENDMDL
