MODEL 1
REMARK VINA RESULT:    -4.203      0.000      0.000
REMARK INTER + INTRA:          -6.231
REMARK INTER:                  -6.046
REMARK INTRA:                  -0.184
REMARK UNBOUND:                -0.184
REMARK SMILES CCCCCCCCCO
REMARK SMILES IDX 6 1 5 2 4 3 3 4 2 5 1 6 7 7 8 8 9 9 10 10
REMARK H PARENT 10 11
REMARK Flexibility Score: inf
ROOT
ATOM      1  C   UNL     1     -22.929   7.428  11.147  1.00  0.00     0.000 C 
ENDROOT
BRANCH   1   2
ATOM      2  C   UNL     1     -21.991   8.604  10.825  1.00  0.00     0.000 C 
BRANCH   2   3
ATOM      3  C   UNL     1     -20.561   8.147  10.492  1.00  0.00    -0.000 C 
BRANCH   3   4
ATOM      4  C   UNL     1     -19.491   8.989  11.208  1.00  0.00    -0.000 C 
BRANCH   4   5
ATOM      5  C   UNL     1     -18.109   8.872  10.544  1.00  0.00    -0.003 C 
ATOM      6  C   UNL     1     -18.139   8.051   9.255  1.00  0.00     0.004 C 
ENDBRANCH   4   5
ENDBRANCH   3   4
ENDBRANCH   2   3
ENDBRANCH   1   2
BRANCH   1   7
ATOM      7  C   UNL     1     -24.337   7.619  10.559  1.00  0.00     0.002 C 
BRANCH   7   8
ATOM      8  C   UNL     1     -25.424   7.685  11.642  1.00  0.00     0.028 C 
BRANCH   8   9
ATOM      9  C   UNL     1     -25.076   6.820  12.857  1.00  0.00     0.156 C 
BRANCH   9  10
ATOM     10  O   UNL     1     -26.208   6.130  13.316  1.00  0.00    -0.396 OA
ATOM     11  H   UNL     1     -26.889   6.185  12.596  1.00  0.00     0.210 HD
ENDBRANCH   9  10
ENDBRANCH   8   9
ENDBRANCH   7   8
ENDBRANCH   1   7
TORSDOF 8
ENDMDL
MODEL 2
REMARK VINA RESULT:    -4.194     16.539     18.009
REMARK INTER + INTRA:          -6.218
REMARK INTER:                  -6.043
REMARK INTRA:                  -0.175
REMARK UNBOUND:                -0.184
REMARK SMILES CCCCCCCCCO
REMARK SMILES IDX 6 1 5 2 4 3 3 4 2 5 1 6 7 7 8 8 9 9 10 10
REMARK H PARENT 10 11
REMARK Flexibility Score: inf
ROOT
ATOM      1  C   UNL     1     -17.088  -4.324   1.935  1.00  0.00     0.000 C 
ENDROOT
BRANCH   1   2
ATOM      2  C   UNL     1     -18.232  -5.254   1.496  1.00  0.00     0.000 C 
BRANCH   2   3
ATOM      3  C   UNL     1     -19.583  -4.527   1.400  1.00  0.00    -0.000 C 
BRANCH   3   4
ATOM      4  C   UNL     1     -20.679  -5.399   0.766  1.00  0.00    -0.000 C 
BRANCH   4   5
ATOM      5  C   UNL     1     -20.539  -6.884   1.141  1.00  0.00    -0.003 C 
ATOM      6  C   UNL     1     -21.325  -7.807   0.212  1.00  0.00     0.004 C 
ENDBRANCH   4   5
ENDBRANCH   3   4
ENDBRANCH   2   3
ENDBRANCH   1   2
BRANCH   1   7
ATOM      7  C   UNL     1     -15.709  -4.995   1.827  1.00  0.00     0.002 C 
BRANCH   7   8
ATOM      8  C   UNL     1     -14.853  -4.792   3.087  1.00  0.00     0.028 C 
BRANCH   8   9
ATOM      9  C   UNL     1     -13.354  -4.825   2.772  1.00  0.00     0.156 C 
BRANCH   9  10
ATOM     10  O   UNL     1     -12.706  -5.801   3.545  1.00  0.00    -0.396 OA
ATOM     11  H   UNL     1     -13.415  -6.386   3.922  1.00  0.00     0.210 HD
ENDBRANCH   9  10
ENDBRANCH   8   9
ENDBRANCH   7   8
ENDBRANCH   1   7
TORSDOF 8
ENDMDL
MODEL 3
REMARK VINA RESULT:    -4.161     16.378     17.193
REMARK INTER + INTRA:          -6.169
REMARK INTER:                  -6.007
REMARK INTRA:                  -0.162
REMARK UNBOUND:                -0.184
REMARK SMILES CCCCCCCCCO
REMARK SMILES IDX 6 1 5 2 4 3 3 4 2 5 1 6 7 7 8 8 9 9 10 10
REMARK H PARENT 10 11
REMARK Flexibility Score: inf
ROOT
ATOM      1  C   UNL     1     -19.515  -4.567   1.487  1.00  0.00     0.000 C 
ENDROOT
BRANCH   1   2
ATOM      2  C   UNL     1     -18.151  -5.273   1.578  1.00  0.00     0.000 C 
BRANCH   2   3
ATOM      3  C   UNL     1     -16.994  -4.295   1.845  1.00  0.00    -0.000 C 
BRANCH   3   4
ATOM      4  C   UNL     1     -15.618  -4.978   1.777  1.00  0.00    -0.000 C 
BRANCH   4   5
ATOM      5  C   UNL     1     -14.800  -4.782   3.064  1.00  0.00    -0.003 C 
ATOM      6  C   UNL     1     -13.293  -4.857   2.826  1.00  0.00     0.004 C 
ENDBRANCH   4   5
ENDBRANCH   3   4
ENDBRANCH   2   3
ENDBRANCH   1   2
BRANCH   1   7
ATOM      7  C   UNL     1     -20.588  -5.443   0.820  1.00  0.00     0.002 C 
BRANCH   7   8
ATOM      8  C   UNL     1     -20.269  -6.943   0.917  1.00  0.00     0.028 C 
BRANCH   8   9
ATOM      9  C   UNL     1     -21.270  -7.792   0.126  1.00  0.00     0.156 C 
BRANCH   9  10
ATOM     10  O   UNL     1     -22.581  -7.549   0.563  1.00  0.00    -0.396 OA
ATOM     11  H   UNL     1     -23.187  -7.974  -0.098  1.00  0.00     0.210 HD
ENDBRANCH   9  10
ENDBRANCH   8   9
ENDBRANCH   7   8
ENDBRANCH   1   7
TORSDOF 8
ENDMDL
MODEL 4
REMARK VINA RESULT:    -4.039     16.810     18.131
REMARK INTER + INTRA:          -5.995
REMARK INTER:                  -5.606
REMARK INTRA:                  -0.389
REMARK UNBOUND:                -0.184
REMARK SMILES CCCCCCCCCO
REMARK SMILES IDX 6 1 5 2 4 3 3 4 2 5 1 6 7 7 8 8 9 9 10 10
REMARK H PARENT 10 11
REMARK Flexibility Score: inf
ROOT
ATOM      1  C   UNL     1     -19.655  -4.511   1.558  1.00  0.00     0.000 C 
ENDROOT
BRANCH   1   2
ATOM      2  C   UNL     1     -20.232  -4.282   0.149  1.00  0.00     0.000 C 
BRANCH   2   3
ATOM      3  C   UNL     1     -20.649  -5.591  -0.541  1.00  0.00    -0.000 C 
BRANCH   3   4
ATOM      4  C   UNL     1     -21.676  -6.389   0.280  1.00  0.00    -0.000 C 
BRANCH   4   5
ATOM      5  C   UNL     1     -21.238  -7.844   0.514  1.00  0.00    -0.003 C 
ATOM      6  C   UNL     1     -20.883  -8.572  -0.782  1.00  0.00     0.004 C 
ENDBRANCH   4   5
ENDBRANCH   3   4
ENDBRANCH   2   3
ENDBRANCH   1   2
BRANCH   1   7
ATOM      7  C   UNL     1     -18.313  -5.259   1.531  1.00  0.00     0.002 C 
BRANCH   7   8
ATOM      8  C   UNL     1     -17.107  -4.310   1.614  1.00  0.00     0.028 C 
BRANCH   8   9
ATOM      9  C   UNL     1     -15.912  -4.964   2.314  1.00  0.00     0.156 C 
BRANCH   9  10
ATOM     10  O   UNL     1     -14.710  -4.593   1.693  1.00  0.00    -0.396 OA
ATOM     11  H   UNL     1     -14.933  -4.351   0.756  1.00  0.00     0.210 HD
ENDBRANCH   9  10
ENDBRANCH   8   9
ENDBRANCH   7   8
ENDBRANCH   1   7
TORSDOF 8
ENDMDL
MODEL 5
REMARK VINA RESULT:    -4.000      2.879      6.223
REMARK INTER + INTRA:          -5.938
REMARK INTER:                  -5.761
REMARK INTRA:                  -0.177
REMARK UNBOUND:                -0.184
REMARK SMILES CCCCCCCCCO
REMARK SMILES IDX 6 1 5 2 4 3 3 4 2 5 1 6 7 7 8 8 9 9 10 10
REMARK H PARENT 10 11
REMARK Flexibility Score: inf
ROOT
ATOM      1  C   UNL     1     -19.867   8.279   9.776  1.00  0.00     0.000 C 
ENDROOT
BRANCH   1   2
ATOM      2  C   UNL     1     -20.794   8.254  11.004  1.00  0.00     0.000 C 
BRANCH   2   3
ATOM      3  C   UNL     1     -22.283   8.285  10.624  1.00  0.00    -0.000 C 
BRANCH   3   4
ATOM      4  C   UNL     1     -23.102   7.212  11.360  1.00  0.00    -0.000 C 
BRANCH   4   5
ATOM      5  C   UNL     1     -24.614   7.492  11.314  1.00  0.00    -0.003 C 
ATOM      6  C   UNL     1     -25.342   7.026  12.574  1.00  0.00     0.004 C 
ENDBRANCH   4   5
ENDBRANCH   3   4
ENDBRANCH   2   3
ENDBRANCH   1   2
BRANCH   1   7
ATOM      7  C   UNL     1     -18.379   8.318  10.161  1.00  0.00     0.002 C 
BRANCH   7   8
ATOM      8  C   UNL     1     -17.873   9.746  10.417  1.00  0.00     0.028 C 
BRANCH   8   9
ATOM      9  C   UNL     1     -17.286   9.900  11.824  1.00  0.00     0.156 C 
BRANCH   9  10
ATOM     10  O   UNL     1     -18.240   9.569  12.799  1.00  0.00    -0.396 OA
ATOM     11  H   UNL     1     -19.124   9.847  12.442  1.00  0.00     0.210 HD
ENDBRANCH   9  10
ENDBRANCH   8   9
ENDBRANCH   7   8
ENDBRANCH   1   7
TORSDOF 8
ENDMDL
MODEL 6
REMARK VINA RESULT:    -3.995      3.302      6.438
REMARK INTER + INTRA:          -5.931
REMARK INTER:                  -5.749
REMARK INTRA:                  -0.182
REMARK UNBOUND:                -0.184
REMARK SMILES CCCCCCCCCO
REMARK SMILES IDX 6 1 5 2 4 3 3 4 2 5 1 6 7 7 8 8 9 9 10 10
REMARK H PARENT 10 11
REMARK Flexibility Score: inf
ROOT
ATOM      1  C   UNL     1     -20.632   8.220  10.435  1.00  0.00     0.000 C 
ENDROOT
BRANCH   1   2
ATOM      2  C   UNL     1     -22.052   8.606  10.884  1.00  0.00     0.000 C 
BRANCH   2   3
ATOM      3  C   UNL     1     -22.942   7.382  11.155  1.00  0.00    -0.000 C 
BRANCH   3   4
ATOM      4  C   UNL     1     -24.353   7.536  10.566  1.00  0.00    -0.000 C 
BRANCH   4   5
ATOM      5  C   UNL     1     -25.415   7.808  11.645  1.00  0.00    -0.003 C 
ATOM      6  C   UNL     1     -25.324   6.839  12.823  1.00  0.00     0.004 C 
ENDBRANCH   4   5
ENDBRANCH   3   4
ENDBRANCH   2   3
ENDBRANCH   1   2
BRANCH   1   7
ATOM      7  C   UNL     1     -19.543   8.984  11.205  1.00  0.00     0.002 C 
BRANCH   7   8
ATOM      8  C   UNL     1     -18.154   8.835  10.566  1.00  0.00     0.028 C 
BRANCH   8   9
ATOM      9  C   UNL     1     -18.240   8.644   9.048  1.00  0.00     0.156 C 
BRANCH   9  10
ATOM     10  O   UNL     1     -17.116   7.955   8.570  1.00  0.00    -0.396 OA
ATOM     11  H   UNL     1     -17.368   7.569   7.689  1.00  0.00     0.210 HD
ENDBRANCH   9  10
ENDBRANCH   8   9
ENDBRANCH   7   8
ENDBRANCH   1   7
TORSDOF 8
ENDMDL
MODEL 7
REMARK VINA RESULT:    -3.723      1.025      1.808
REMARK INTER + INTRA:          -5.540
REMARK INTER:                  -5.406
REMARK INTRA:                  -0.134
REMARK UNBOUND:                -0.184
REMARK SMILES CCCCCCCCCO
REMARK SMILES IDX 6 1 5 2 4 3 3 4 2 5 1 6 7 7 8 8 9 9 10 10
REMARK H PARENT 10 11
REMARK Flexibility Score: inf
ROOT
ATOM      1  C   UNL     1     -22.190   8.481  10.902  1.00  0.00     0.000 C 
ENDROOT
BRANCH   1   2
ATOM      2  C   UNL     1     -20.752   8.049  10.563  1.00  0.00     0.000 C 
BRANCH   2   3
ATOM      3  C   UNL     1     -19.704   9.088  10.995  1.00  0.00    -0.000 C 
BRANCH   3   4
ATOM      4  C   UNL     1     -18.272   8.671  10.621  1.00  0.00    -0.000 C 
BRANCH   4   5
ATOM      5  C   UNL     1     -17.253   9.799  10.852  1.00  0.00    -0.003 C 
ATOM      6  C   UNL     1     -16.869   9.959  12.322  1.00  0.00     0.004 C 
ENDBRANCH   4   5
ENDBRANCH   3   4
ENDBRANCH   2   3
ENDBRANCH   1   2
BRANCH   1   7
ATOM      7  C   UNL     1     -23.140   7.284  11.072  1.00  0.00     0.002 C 
BRANCH   7   8
ATOM      8  C   UNL     1     -24.549   7.567  10.527  1.00  0.00     0.028 C 
BRANCH   8   9
ATOM      9  C   UNL     1     -25.567   7.771  11.653  1.00  0.00     0.156 C 
BRANCH   9  10
ATOM     10  O   UNL     1     -25.121   7.171  12.840  1.00  0.00    -0.396 OA
ATOM     11  H   UNL     1     -25.410   7.759  13.586  1.00  0.00     0.210 HD
ENDBRANCH   9  10
ENDBRANCH   8   9
ENDBRANCH   7   8
ENDBRANCH   1   7
TORSDOF 8
ENDMDL
MODEL 8
REMARK VINA RESULT:    -3.663      1.614      3.105
REMARK INTER + INTRA:          -5.454
REMARK INTER:                  -5.329
REMARK INTRA:                  -0.125
REMARK UNBOUND:                -0.184
REMARK SMILES CCCCCCCCCO
REMARK SMILES IDX 6 1 5 2 4 3 3 4 2 5 1 6 7 7 8 8 9 9 10 10
REMARK H PARENT 10 11
REMARK Flexibility Score: inf
ROOT
ATOM      1  C   UNL     1     -20.140   8.447   9.676  1.00  0.00     0.000 C 
ENDROOT
BRANCH   1   2
ATOM      2  C   UNL     1     -18.692   7.933   9.761  1.00  0.00     0.000 C 
BRANCH   2   3
ATOM      3  C   UNL     1     -17.675   8.924   9.171  1.00  0.00    -0.000 C 
BRANCH   3   4
ATOM      4  C   UNL     1     -16.970   9.760  10.252  1.00  0.00    -0.000 C 
BRANCH   4   5
ATOM      5  C   UNL     1     -17.876  10.037  11.464  1.00  0.00    -0.003 C 
ATOM      6  C   UNL     1     -17.099  10.125  12.777  1.00  0.00     0.004 C 
ENDBRANCH   4   5
ENDBRANCH   3   4
ENDBRANCH   2   3
ENDBRANCH   1   2
BRANCH   1   7
ATOM      7  C   UNL     1     -20.990   8.018  10.882  1.00  0.00     0.002 C 
BRANCH   7   8
ATOM      8  C   UNL     1     -22.492   8.248  10.657  1.00  0.00     0.028 C 
BRANCH   8   9
ATOM      9  C   UNL     1     -23.340   7.129  11.269  1.00  0.00     0.156 C 
BRANCH   9  10
ATOM     10  O   UNL     1     -24.533   7.644  11.800  1.00  0.00    -0.396 OA
ATOM     11  H   UNL     1     -25.186   7.684  11.053  1.00  0.00     0.210 HD
ENDBRANCH   9  10
ENDBRANCH   8   9
ENDBRANCH   7   8
ENDBRANCH   1   7
TORSDOF 8
ENDMDL
MODEL 9
REMARK VINA RESULT:    -3.568     16.581     17.926
REMARK INTER + INTRA:          -5.316
REMARK INTER:                  -5.162
REMARK INTRA:                  -0.154
REMARK UNBOUND:                -0.184
REMARK SMILES CCCCCCCCCO
REMARK SMILES IDX 6 1 5 2 4 3 3 4 2 5 1 6 7 7 8 8 9 9 10 10
REMARK H PARENT 10 11
REMARK Flexibility Score: inf
ROOT
ATOM      1  C   UNL     1     -14.883  -4.728   3.286  1.00  0.00     0.000 C 
ENDROOT
BRANCH   1   2
ATOM      2  C   UNL     1     -15.581  -4.986   1.939  1.00  0.00     0.000 C 
BRANCH   2   3
ATOM      3  C   UNL     1     -16.932  -4.260   1.823  1.00  0.00    -0.000 C 
BRANCH   3   4
ATOM      4  C   UNL     1     -18.093  -5.220   1.516  1.00  0.00    -0.000 C 
BRANCH   4   5
ATOM      5  C   UNL     1     -19.459  -4.514   1.532  1.00  0.00    -0.003 C 
ATOM      6  C   UNL     1     -20.214  -4.655   0.211  1.00  0.00     0.004 C 
ENDBRANCH   4   5
ENDBRANCH   3   4
ENDBRANCH   2   3
ENDBRANCH   1   2
BRANCH   1   7
ATOM      7  C   UNL     1     -13.403  -5.142   3.271  1.00  0.00     0.002 C 
BRANCH   7   8
ATOM      8  C   UNL     1     -12.642  -4.568   2.065  1.00  0.00     0.028 C 
BRANCH   8   9
ATOM      9  C   UNL     1     -11.481  -3.668   2.498  1.00  0.00     0.156 C 
BRANCH   9  10
ATOM     10  O   UNL     1     -11.218  -2.695   1.522  1.00  0.00    -0.396 OA
ATOM     11  H   UNL     1     -11.562  -3.052   0.661  1.00  0.00     0.210 HD
ENDBRANCH   9  10
ENDBRANCH   8   9
ENDBRANCH   7   8
ENDBRANCH   1   7
TORSDOF 8
ENDMDL
