MODEL 1
REMARK VINA RESULT:    -4.456      0.000      0.000
REMARK INTER + INTRA:          -7.308
REMARK INTER:                  -6.149
REMARK INTRA:                  -1.159
REMARK UNBOUND:                -1.159
REMARK SMILES CCCCc1cccc(O)c1CCCC
REMARK SMILES IDX 5 1 11 2 9 3 8 4 7 5 6 6 4 7 3 8 2 9 1 10 12 11 13 12 14 13
REMARK SMILES IDX 15 14 10 15
REMARK H PARENT 10 16
REMARK Flexibility Score: inf
ROOT
ATOM      1  C   UNL     1     162.121 161.025 182.153  1.00  0.00    -0.041 A 
ATOM      2  C   UNL     1     162.332 160.842 180.755  1.00  0.00    -0.003 A 
ATOM      3  C   UNL     1     163.662 160.666 180.282  1.00  0.00     0.119 A 
ATOM      4  C   UNL     1     164.737 160.745 181.171  1.00  0.00     0.046 A 
ATOM      5  C   UNL     1     164.523 160.971 182.527  1.00  0.00     0.004 A 
ATOM      6  C   UNL     1     163.227 161.106 183.015  1.00  0.00     0.004 A 
ENDROOT
BRANCH   1   7
ATOM      7  C   UNL     1     160.744 161.186 182.765  1.00  0.00     0.036 C 
BRANCH   7   8
ATOM      8  C   UNL     1     160.612 162.549 183.457  1.00  0.00     0.004 C 
BRANCH   8   9
ATOM      9  C   UNL     1     160.209 163.637 182.456  1.00  0.00    -0.003 C 
ATOM     10  C   UNL     1     161.381 164.562 182.145  1.00  0.00     0.004 C 
ENDBRANCH   8   9
ENDBRANCH   7   8
ENDBRANCH   1   7
BRANCH   2  11
ATOM     11  C   UNL     1     161.166 160.793 179.784  1.00  0.00     0.040 C 
BRANCH  11  12
ATOM     12  C   UNL     1     160.931 162.170 179.145  1.00  0.00     0.005 C 
BRANCH  12  13
ATOM     13  C   UNL     1     160.562 162.075 177.657  1.00  0.00    -0.003 C 
ATOM     14  C   UNL     1     161.778 162.185 176.739  1.00  0.00     0.004 C 
ENDBRANCH  12  13
ENDBRANCH  11  12
ENDBRANCH   2  11
BRANCH   3  15
ATOM     15  O   UNL     1     163.959 160.404 178.941  1.00  0.00    -0.508 OA
ATOM     16  H   UNL     1     163.711 161.013 178.174  1.00  0.00     0.293 HD
ENDBRANCH   3  15
TORSDOF 7
ENDMDL
MODEL 2
REMARK VINA RESULT:    -4.417      2.344      4.787
REMARK INTER + INTRA:          -7.255
REMARK INTER:                  -6.044
REMARK INTRA:                  -1.210
REMARK UNBOUND:                -1.159
REMARK SMILES CCCCc1cccc(O)c1CCCC
REMARK SMILES IDX 5 1 11 2 9 3 8 4 7 5 6 6 4 7 3 8 2 9 1 10 12 11 13 12 14 13
REMARK SMILES IDX 15 14 10 15
REMARK H PARENT 10 16
REMARK Flexibility Score: inf
ROOT
ATOM      1  C   UNL     1     160.981 163.055 182.939  1.00  0.00    -0.041 A 
ATOM      2  C   UNL     1     162.313 163.533 182.764  1.00  0.00    -0.003 A 
ATOM      3  C   UNL     1     162.508 164.801 182.148  1.00  0.00     0.119 A 
ATOM      4  C   UNL     1     161.413 165.520 181.665  1.00  0.00     0.046 A 
ATOM      5  C   UNL     1     160.121 165.022 181.799  1.00  0.00     0.004 A 
ATOM      6  C   UNL     1     159.905 163.804 182.433  1.00  0.00     0.004 A 
ENDROOT
BRANCH   1   7
ATOM      7  C   UNL     1     160.661 161.736 183.612  1.00  0.00     0.036 C 
BRANCH   7   8
ATOM      8  C   UNL     1     159.875 160.819 182.667  1.00  0.00     0.004 C 
BRANCH   8   9
ATOM      9  C   UNL     1     160.762 160.321 181.521  1.00  0.00    -0.003 C 
ATOM     10  C   UNL     1     160.179 160.707 180.165  1.00  0.00     0.004 C 
ENDBRANCH   8   9
ENDBRANCH   7   8
ENDBRANCH   1   7
BRANCH   2  11
ATOM     11  C   UNL     1     163.506 162.735 183.256  1.00  0.00     0.040 C 
BRANCH  11  12
ATOM     12  C   UNL     1     164.057 161.834 182.140  1.00  0.00     0.005 C 
BRANCH  12  13
ATOM     13  C   UNL     1     164.351 160.406 182.625  1.00  0.00    -0.003 C 
ATOM     14  C   UNL     1     165.743 160.265 183.237  1.00  0.00     0.004 C 
ENDBRANCH  12  13
ENDBRANCH  11  12
ENDBRANCH   2  11
BRANCH   3  15
ATOM     15  O   UNL     1     163.771 165.385 182.004  1.00  0.00    -0.508 OA
ATOM     16  H   UNL     1     164.398 165.579 182.772  1.00  0.00     0.293 HD
ENDBRANCH   3  15
TORSDOF 7
ENDMDL
MODEL 3
REMARK VINA RESULT:    -4.385      1.656      4.362
REMARK INTER + INTRA:          -7.210
REMARK INTER:                  -6.511
REMARK INTRA:                  -0.699
REMARK UNBOUND:                -1.159
REMARK SMILES CCCCc1cccc(O)c1CCCC
REMARK SMILES IDX 5 1 11 2 9 3 8 4 7 5 6 6 4 7 3 8 2 9 1 10 12 11 13 12 14 13
REMARK SMILES IDX 15 14 10 15
REMARK H PARENT 10 16
REMARK Flexibility Score: inf
ROOT
ATOM      1  C   UNL     1     163.226 160.944 181.612  1.00  0.00    -0.041 A 
ATOM      2  C   UNL     1     161.808 160.993 181.470  1.00  0.00    -0.003 A 
ATOM      3  C   UNL     1     161.253 161.028 180.160  1.00  0.00     0.119 A 
ATOM      4  C   UNL     1     162.093 161.085 179.045  1.00  0.00     0.046 A 
ATOM      5  C   UNL     1     163.476 161.083 179.197  1.00  0.00     0.004 A 
ATOM      6  C   UNL     1     164.038 161.010 180.467  1.00  0.00     0.004 A 
ENDROOT
BRANCH   1   7
ATOM      7  C   UNL     1     163.918 160.869 182.957  1.00  0.00     0.036 C 
BRANCH   7   8
ATOM      8  C   UNL     1     165.218 160.063 182.856  1.00  0.00     0.004 C 
BRANCH   8   9
ATOM      9  C   UNL     1     166.424 160.910 183.280  1.00  0.00    -0.003 C 
ATOM     10  C   UNL     1     167.215 160.225 184.390  1.00  0.00     0.004 C 
ENDBRANCH   8   9
ENDBRANCH   7   8
ENDBRANCH   1   7
BRANCH   2  11
ATOM     11  C   UNL     1     160.895 160.969 182.682  1.00  0.00     0.040 C 
BRANCH  11  12
ATOM     12  C   UNL     1     160.838 162.352 183.350  1.00  0.00     0.005 C 
BRANCH  12  13
ATOM     13  C   UNL     1     160.234 163.426 182.432  1.00  0.00    -0.003 C 
ATOM     14  C   UNL     1     161.223 164.542 182.101  1.00  0.00     0.004 C 
ENDBRANCH  12  13
ENDBRANCH  11  12
ENDBRANCH   2  11
BRANCH   3  15
ATOM     15  O   UNL     1     159.875 161.000 179.922  1.00  0.00    -0.508 OA
ATOM     16  H   UNL     1     159.458 160.921 179.005  1.00  0.00     0.293 HD
ENDBRANCH   3  15
TORSDOF 7
ENDMDL
MODEL 4
REMARK VINA RESULT:    -4.331      1.881      4.265
REMARK INTER + INTRA:          -7.136
REMARK INTER:                  -5.935
REMARK INTRA:                  -1.201
REMARK UNBOUND:                -1.159
REMARK SMILES CCCCc1cccc(O)c1CCCC
REMARK SMILES IDX 5 1 11 2 9 3 8 4 7 5 6 6 4 7 3 8 2 9 1 10 12 11 13 12 14 13
REMARK SMILES IDX 15 14 10 15
REMARK H PARENT 10 16
REMARK Flexibility Score: inf
ROOT
ATOM      1  C   UNL     1     162.922 161.455 179.649  1.00  0.00    -0.041 A 
ATOM      2  C   UNL     1     161.660 162.117 179.657  1.00  0.00    -0.003 A 
ATOM      3  C   UNL     1     161.143 162.619 178.430  1.00  0.00     0.119 A 
ATOM      4  C   UNL     1     161.900 162.521 177.260  1.00  0.00     0.046 A 
ATOM      5  C   UNL     1     163.152 161.914 177.273  1.00  0.00     0.004 A 
ATOM      6  C   UNL     1     163.657 161.382 178.454  1.00  0.00     0.004 A 
ENDROOT
BRANCH   1   7
ATOM      7  C   UNL     1     163.546 160.855 180.892  1.00  0.00     0.036 C 
BRANCH   7   8
ATOM      8  C   UNL     1     164.606 161.796 181.478  1.00  0.00     0.004 C 
BRANCH   8   9
ATOM      9  C   UNL     1     164.355 162.046 182.969  1.00  0.00    -0.003 C 
ATOM     10  C   UNL     1     163.736 163.420 183.201  1.00  0.00     0.004 C 
ENDBRANCH   8   9
ENDBRANCH   7   8
ENDBRANCH   1   7
BRANCH   2  11
ATOM     11  C   UNL     1     160.853 162.257 180.936  1.00  0.00     0.040 C 
BRANCH  11  12
ATOM     12  C   UNL     1     160.010 160.997 181.188  1.00  0.00     0.005 C 
BRANCH  12  13
ATOM     13  C   UNL     1     160.053 160.542 182.655  1.00  0.00    -0.003 C 
ATOM     14  C   UNL     1     160.608 161.616 183.590  1.00  0.00     0.004 C 
ENDBRANCH  12  13
ENDBRANCH  11  12
ENDBRANCH   2  11
BRANCH   3  15
ATOM     15  O   UNL     1     159.881 163.213 178.328  1.00  0.00    -0.508 OA
ATOM     16  H   UNL     1     159.691 164.057 177.806  1.00  0.00     0.293 HD
ENDBRANCH   3  15
TORSDOF 7
ENDMDL
MODEL 5
REMARK VINA RESULT:    -4.313      1.961      4.518
REMARK INTER + INTRA:          -7.111
REMARK INTER:                  -6.047
REMARK INTRA:                  -1.064
REMARK UNBOUND:                -1.159
REMARK SMILES CCCCc1cccc(O)c1CCCC
REMARK SMILES IDX 5 1 11 2 9 3 8 4 7 5 6 6 4 7 3 8 2 9 1 10 12 11 13 12 14 13
REMARK SMILES IDX 15 14 10 15
REMARK H PARENT 10 16
REMARK Flexibility Score: inf
ROOT
ATOM      1  C   UNL     1     160.390 161.980 181.255  1.00  0.00    -0.041 A 
ATOM      2  C   UNL     1     160.513 163.360 180.918  1.00  0.00    -0.003 A 
ATOM      3  C   UNL     1     160.651 163.719 179.548  1.00  0.00     0.119 A 
ATOM      4  C   UNL     1     160.736 162.726 178.569  1.00  0.00     0.046 A 
ATOM      5  C   UNL     1     160.662 161.381 178.914  1.00  0.00     0.004 A 
ATOM      6  C   UNL     1     160.488 161.010 180.243  1.00  0.00     0.004 A 
ENDROOT
BRANCH   1   7
ATOM      7  C   UNL     1     160.204 161.492 182.676  1.00  0.00     0.036 C 
BRANCH   7   8
ATOM      8  C   UNL     1     161.393 160.629 183.116  1.00  0.00     0.004 C 
BRANCH   8   9
ATOM      9  C   UNL     1     162.681 161.458 183.179  1.00  0.00    -0.003 C 
ATOM     10  C   UNL     1     163.859 160.691 182.588  1.00  0.00     0.004 C 
ENDBRANCH   8   9
ENDBRANCH   7   8
ENDBRANCH   1   7
BRANCH   2  11
ATOM     11  C   UNL     1     160.458 164.438 181.985  1.00  0.00     0.040 C 
BRANCH  11  12
ATOM     12  C   UNL     1     161.863 164.981 182.284  1.00  0.00     0.005 C 
BRANCH  12  13
ATOM     13  C   UNL     1     161.956 166.505 182.112  1.00  0.00    -0.003 C 
ATOM     14  C   UNL     1     160.585 167.175 182.040  1.00  0.00     0.004 C 
ENDBRANCH  12  13
ENDBRANCH  11  12
ENDBRANCH   2  11
BRANCH   3  15
ATOM     15  O   UNL     1     160.700 165.049 179.117  1.00  0.00    -0.508 OA
ATOM     16  H   UNL     1     159.885 165.617 178.933  1.00  0.00     0.293 HD
ENDBRANCH   3  15
TORSDOF 7
ENDMDL
MODEL 6
REMARK VINA RESULT:    -4.278      1.776      3.874
REMARK INTER + INTRA:          -7.062
REMARK INTER:                  -6.441
REMARK INTRA:                  -0.621
REMARK UNBOUND:                -1.159
REMARK SMILES CCCCc1cccc(O)c1CCCC
REMARK SMILES IDX 5 1 11 2 9 3 8 4 7 5 6 6 4 7 3 8 2 9 1 10 12 11 13 12 14 13
REMARK SMILES IDX 15 14 10 15
REMARK H PARENT 10 16
REMARK Flexibility Score: inf
ROOT
ATOM      1  C   UNL     1     163.026 161.086 181.807  1.00  0.00    -0.041 A 
ATOM      2  C   UNL     1     162.179 160.938 180.670  1.00  0.00    -0.003 A 
ATOM      3  C   UNL     1     160.778 161.128 180.831  1.00  0.00     0.119 A 
ATOM      4  C   UNL     1     160.248 161.384 182.098  1.00  0.00     0.046 A 
ATOM      5  C   UNL     1     161.079 161.480 183.209  1.00  0.00     0.004 A 
ATOM      6  C   UNL     1     162.454 161.337 183.066  1.00  0.00     0.004 A 
ENDROOT
BRANCH   1   7
ATOM      7  C   UNL     1     164.532 160.940 181.739  1.00  0.00     0.036 C 
BRANCH   7   8
ATOM      8  C   UNL     1     165.063 160.195 182.969  1.00  0.00     0.004 C 
BRANCH   8   9
ATOM      9  C   UNL     1     166.569 160.420 183.141  1.00  0.00    -0.003 C 
ATOM     10  C   UNL     1     167.002 160.171 184.582  1.00  0.00     0.004 C 
ENDBRANCH   8   9
ENDBRANCH   7   8
ENDBRANCH   1   7
BRANCH   2  11
ATOM     11  C   UNL     1     162.751 160.624 179.299  1.00  0.00     0.040 C 
BRANCH  11  12
ATOM     12  C   UNL     1     163.141 161.914 178.562  1.00  0.00     0.005 C 
BRANCH  12  13
ATOM     13  C   UNL     1     162.820 161.857 177.061  1.00  0.00    -0.003 C 
ATOM     14  C   UNL     1     161.349 162.141 176.762  1.00  0.00     0.004 C 
ENDBRANCH  12  13
ENDBRANCH  11  12
ENDBRANCH   2  11
BRANCH   3  15
ATOM     15  O   UNL     1     159.881 161.079 179.760  1.00  0.00    -0.508 OA
ATOM     16  H   UNL     1     160.154 161.104 178.787  1.00  0.00     0.293 HD
ENDBRANCH   3  15
TORSDOF 7
ENDMDL
MODEL 7
REMARK VINA RESULT:    -4.219      1.548      4.275
REMARK INTER + INTRA:          -6.981
REMARK INTER:                  -6.189
REMARK INTRA:                  -0.792
REMARK UNBOUND:                -1.159
REMARK SMILES CCCCc1cccc(O)c1CCCC
REMARK SMILES IDX 5 1 11 2 9 3 8 4 7 5 6 6 4 7 3 8 2 9 1 10 12 11 13 12 14 13
REMARK SMILES IDX 15 14 10 15
REMARK H PARENT 10 16
REMARK Flexibility Score: inf
ROOT
ATOM      1  C   UNL     1     162.437 161.019 181.891  1.00  0.00    -0.041 A 
ATOM      2  C   UNL     1     163.847 161.119 181.700  1.00  0.00    -0.003 A 
ATOM      3  C   UNL     1     164.363 161.053 180.376  1.00  0.00     0.119 A 
ATOM      4  C   UNL     1     163.503 160.822 179.299  1.00  0.00     0.046 A 
ATOM      5  C   UNL     1     162.134 160.679 179.502  1.00  0.00     0.004 A 
ATOM      6  C   UNL     1     161.605 160.780 180.784  1.00  0.00     0.004 A 
ENDROOT
BRANCH   1   7
ATOM      7  C   UNL     1     161.781 161.112 183.253  1.00  0.00     0.036 C 
BRANCH   7   8
ATOM      8  C   UNL     1     160.575 162.057 183.212  1.00  0.00     0.004 C 
BRANCH   8   9
ATOM      9  C   UNL     1     161.007 163.487 182.867  1.00  0.00    -0.003 C 
ATOM     10  C   UNL     1     160.065 164.117 181.847  1.00  0.00     0.004 C 
ENDBRANCH   8   9
ENDBRANCH   7   8
ENDBRANCH   1   7
BRANCH   2  11
ATOM     11  C   UNL     1     164.786 161.334 182.873  1.00  0.00     0.040 C 
BRANCH  11  12
ATOM     12  C   UNL     1     165.405 160.003 183.326  1.00  0.00     0.005 C 
BRANCH  12  13
ATOM     13  C   UNL     1     166.721 160.195 184.094  1.00  0.00    -0.003 C 
ATOM     14  C   UNL     1     167.119 161.664 184.226  1.00  0.00     0.004 C 
ENDBRANCH  12  13
ENDBRANCH  11  12
ENDBRANCH   2  11
BRANCH   3  15
ATOM     15  O   UNL     1     165.721 161.219 180.085  1.00  0.00    -0.508 OA
ATOM     16  H   UNL     1     166.437 160.542 180.308  1.00  0.00     0.293 HD
ENDBRANCH   3  15
TORSDOF 7
ENDMDL
MODEL 8
REMARK VINA RESULT:    -4.195      1.957      3.903
REMARK INTER + INTRA:          -6.948
REMARK INTER:                  -6.111
REMARK INTRA:                  -0.838
REMARK UNBOUND:                -1.159
REMARK SMILES CCCCc1cccc(O)c1CCCC
REMARK SMILES IDX 5 1 11 2 9 3 8 4 7 5 6 6 4 7 3 8 2 9 1 10 12 11 13 12 14 13
REMARK SMILES IDX 15 14 10 15
REMARK H PARENT 10 16
REMARK Flexibility Score: inf
ROOT
ATOM      1  C   UNL     1     162.929 161.007 181.967  1.00  0.00    -0.041 A 
ATOM      2  C   UNL     1     162.101 160.956 180.807  1.00  0.00    -0.003 A 
ATOM      3  C   UNL     1     160.740 161.356 180.921  1.00  0.00     0.119 A 
ATOM      4  C   UNL     1     160.219 161.721 182.164  1.00  0.00     0.046 A 
ATOM      5  C   UNL     1     161.024 161.721 183.299  1.00  0.00     0.004 A 
ATOM      6  C   UNL     1     162.366 161.371 183.202  1.00  0.00     0.004 A 
ENDROOT
BRANCH   1   7
ATOM      7  C   UNL     1     164.397 160.636 181.949  1.00  0.00     0.036 C 
BRANCH   7   8
ATOM      8  C   UNL     1     164.791 159.910 183.241  1.00  0.00     0.004 C 
BRANCH   8   9
ATOM      9  C   UNL     1     166.231 160.249 183.645  1.00  0.00    -0.003 C 
ATOM     10  C   UNL     1     166.447 161.758 183.702  1.00  0.00     0.004 C 
ENDBRANCH   8   9
ENDBRANCH   7   8
ENDBRANCH   1   7
BRANCH   2  11
ATOM     11  C   UNL     1     162.658 160.525 179.462  1.00  0.00     0.040 C 
BRANCH  11  12
ATOM     12  C   UNL     1     163.202 161.734 178.685  1.00  0.00     0.005 C 
BRANCH  12  13
ATOM     13  C   UNL     1     164.497 161.413 177.925  1.00  0.00    -0.003 C 
ATOM     14  C   UNL     1     164.781 159.914 177.849  1.00  0.00     0.004 C 
ENDBRANCH  12  13
ENDBRANCH  11  12
ENDBRANCH   2  11
BRANCH   3  15
ATOM     15  O   UNL     1     159.876 161.413 179.823  1.00  0.00    -0.508 OA
ATOM     16  H   UNL     1     159.018 160.884 179.746  1.00  0.00     0.293 HD
ENDBRANCH   3  15
TORSDOF 7
ENDMDL
MODEL 9
REMARK VINA RESULT:    -4.192      1.728      3.785
REMARK INTER + INTRA:          -6.944
REMARK INTER:                  -5.496
REMARK INTRA:                  -1.448
REMARK UNBOUND:                -1.159
REMARK SMILES CCCCc1cccc(O)c1CCCC
REMARK SMILES IDX 5 1 11 2 9 3 8 4 7 5 6 6 4 7 3 8 2 9 1 10 12 11 13 12 14 13
REMARK SMILES IDX 15 14 10 15
REMARK H PARENT 10 16
REMARK Flexibility Score: inf
ROOT
ATOM      1  C   UNL     1     162.944 160.772 180.274  1.00  0.00    -0.041 A 
ATOM      2  C   UNL     1     163.628 160.980 181.507  1.00  0.00    -0.003 A 
ATOM      3  C   UNL     1     165.030 161.221 181.479  1.00  0.00     0.119 A 
ATOM      4  C   UNL     1     165.723 161.181 180.266  1.00  0.00     0.046 A 
ATOM      5  C   UNL     1     165.053 160.931 179.073  1.00  0.00     0.004 A 
ATOM      6  C   UNL     1     163.676 160.732 179.075  1.00  0.00     0.004 A 
ENDROOT
BRANCH   1   7
ATOM      7  C   UNL     1     161.449 160.541 180.188  1.00  0.00     0.036 C 
BRANCH   7   8
ATOM      8  C   UNL     1     160.788 161.591 179.287  1.00  0.00     0.004 C 
BRANCH   8   9
ATOM      9  C   UNL     1     160.570 162.906 180.043  1.00  0.00    -0.003 C 
ATOM     10  C   UNL     1     161.424 164.026 179.458  1.00  0.00     0.004 C 
ENDBRANCH   8   9
ENDBRANCH   7   8
ENDBRANCH   1   7
BRANCH   2  11
ATOM     11  C   UNL     1     162.881 160.987 182.829  1.00  0.00     0.040 C 
BRANCH  11  12
ATOM     12  C   UNL     1     162.455 162.414 183.206  1.00  0.00     0.005 C 
BRANCH  12  13
ATOM     13  C   UNL     1     160.989 162.492 183.657  1.00  0.00    -0.003 C 
ATOM     14  C   UNL     1     160.253 161.162 183.505  1.00  0.00     0.004 C 
ENDBRANCH  12  13
ENDBRANCH  11  12
ENDBRANCH   2  11
BRANCH   3  15
ATOM     15  O   UNL     1     165.770 161.512 182.629  1.00  0.00    -0.508 OA
ATOM     16  H   UNL     1     165.494 162.189 183.327  1.00  0.00     0.293 HD
ENDBRANCH   3  15
TORSDOF 7
ENDMDL
