MODEL 1
REMARK VINA RESULT:    -2.934      0.000      0.000
REMARK INTER + INTRA:          -3.926
REMARK INTER:                  -4.135
REMARK INTRA:                   0.209
REMARK UNBOUND:                 0.209
REMARK SMILES CC1=CCC(=C(C)C)C(=O)CC(C)=CCC1
REMARK SMILES IDX 12 1 14 2 13 3 15 4 16 5 2 6 1 7 3 8 11 10 9 11 10 12 5 13
REMARK SMILES IDX 6 14 7 15 8 16 4 17
REMARK H PARENT
REMARK Flexibility Score: 60.00
ROOT
ATOM      1  C   UNL     1      25.309  37.935  21.452  1.00  0.00    -0.070 C 
ATOM      2  C   UNL     1      25.171  39.278  21.361  1.00  0.00    -0.027 C 
ATOM      3  C   UNL     1      24.060  37.095  21.502  1.00  0.00     0.039 C 
ENDROOT
BRANCH   2   4
ATOM      4  C   UNL     1      26.302  40.271  21.447  1.00  0.00     0.032 C 
BRANCH   4   5
ATOM      5  C   UNL     1      26.508  40.946  20.087  1.00  0.00     0.034 C 
BRANCH   5   6
ATOM      6  C   UNL     1      27.720  40.411  19.352  1.00  0.00    -0.077 C 
ATOM      7  C   UNL     1      29.046  41.103  19.548  1.00  0.00     0.039 C 
ATOM      8  C   UNL     1      27.699  39.295  18.581  1.00  0.00    -0.023 CG0
ATOM      9  G   UNL     1      26.489  38.466  18.191  1.00  0.00     0.000 G0
ENDBRANCH   5   6
ENDBRANCH   4   5
ENDBRANCH   2   4
BRANCH   1  10
ATOM     10  C   UNL     1      26.654  37.237  21.482  1.00  0.00     0.111 C 
BRANCH  10  11
ATOM     11  C   UNL     1      27.109  36.830  20.101  1.00  0.00     0.163 C 
ATOM     12  O   UNL     1      28.204  36.210  20.017  1.00  0.00    -0.294 OA
BRANCH  11  13
ATOM     13  C   UNL     1      26.326  37.104  18.851  1.00  0.00    -0.002 C 
ATOM     14  C   UNL     1      25.379  36.217  18.414  1.00  0.00    -0.069 C 
ATOM     15  C   UNL     1      24.414  36.557  17.302  1.00  0.00     0.039 C 
ATOM     16  C   UNL     1      25.281  34.821  18.988  1.00  0.00     0.039 C 
BRANCH  13  17
ATOM     17  C   UNL     1      26.488  38.471  18.194  1.00  0.00     0.066 CG0
ATOM     18  G   UNL     1      27.708  39.276  18.599  1.00  0.00     0.000 G0
ENDBRANCH  13  17
ENDBRANCH  11  13
ENDBRANCH  10  11
ENDBRANCH   1  10
TORSDOF 0
ENDMDL
MODEL 2
REMARK VINA RESULT:    -2.649      1.937      4.679
REMARK INTER + INTRA:          -3.523
REMARK INTER:                  -3.830
REMARK INTRA:                   0.306
REMARK UNBOUND:                 0.209
REMARK SMILES CC1=CCC(=C(C)C)C(=O)CC(C)=CCC1
REMARK SMILES IDX 12 1 14 2 13 3 15 4 16 5 2 6 1 7 3 8 11 10 9 11 10 12 5 13
REMARK SMILES IDX 6 14 7 15 8 16 4 17
REMARK H PARENT
REMARK Flexibility Score: 60.00
ROOT
ATOM      1  C   UNL     1      28.355  36.631  20.205  1.00  0.00    -0.070 C 
ATOM      2  C   UNL     1      27.410  36.061  20.986  1.00  0.00    -0.027 C 
ATOM      3  C   UNL     1      28.923  35.818  19.071  1.00  0.00     0.039 C 
ENDROOT
BRANCH   2   4
ATOM      4  C   UNL     1      26.844  36.672  22.243  1.00  0.00     0.032 C 
BRANCH   4   5
ATOM      5  C   UNL     1      25.313  36.694  22.168  1.00  0.00     0.034 C 
BRANCH   5   6
ATOM      6  C   UNL     1      24.805  37.323  20.887  1.00  0.00    -0.077 C 
ATOM      7  C   UNL     1      23.926  36.501  19.978  1.00  0.00     0.039 C 
ATOM      8  C   UNL     1      25.036  38.615  20.543  1.00  0.00    -0.023 CG0
ATOM      9  G   UNL     1      25.926  39.615  21.256  1.00  0.00     0.000 G0
ENDBRANCH   5   6
ENDBRANCH   4   5
ENDBRANCH   2   4
BRANCH   1  10
ATOM     10  C   UNL     1      28.852  38.050  20.399  1.00  0.00     0.111 C 
BRANCH  10  11
ATOM     11  C   UNL     1      27.955  39.059  19.723  1.00  0.00     0.163 C 
ATOM     12  O   UNL     1      27.871  39.001  18.466  1.00  0.00    -0.294 OA
BRANCH  11  13
ATOM     13  C   UNL     1      27.156  40.093  20.461  1.00  0.00    -0.002 C 
ATOM     14  C   UNL     1      27.436  41.425  20.313  1.00  0.00    -0.069 C 
ATOM     15  C   UNL     1      26.520  42.501  20.849  1.00  0.00     0.039 C 
ATOM     16  C   UNL     1      28.710  41.895  19.648  1.00  0.00     0.039 C 
BRANCH  13  17
ATOM     17  C   UNL     1      25.922  39.627  21.227  1.00  0.00     0.066 CG0
ATOM     18  G   UNL     1      25.033  38.617  20.525  1.00  0.00     0.000 G0
ENDBRANCH  13  17
ENDBRANCH  11  13
ENDBRANCH  10  11
ENDBRANCH   1  10
TORSDOF 0
ENDMDL
MODEL 3
REMARK VINA RESULT:    -2.595      1.676      4.141
REMARK INTER + INTRA:          -3.448
REMARK INTER:                  -4.049
REMARK INTRA:                   0.601
REMARK UNBOUND:                 0.209
REMARK SMILES CC1=CCC(=C(C)C)C(=O)CC(C)=CCC1
REMARK SMILES IDX 12 1 14 2 13 3 15 4 16 5 2 6 1 7 3 8 11 10 9 11 10 12 5 13
REMARK SMILES IDX 6 14 7 15 8 16 4 17
REMARK H PARENT
REMARK Flexibility Score: 60.00
ROOT
ATOM      1  C   UNL     1      24.947  37.749  20.954  1.00  0.00    -0.070 C 
ATOM      2  C   UNL     1      25.371  36.620  20.341  1.00  0.00    -0.027 C 
ATOM      3  C   UNL     1      24.082  37.608  22.180  1.00  0.00     0.039 C 
ENDROOT
BRANCH   2   4
ATOM      4  C   UNL     1      26.114  36.576  19.029  1.00  0.00     0.032 C 
BRANCH   4   5
ATOM      5  C   UNL     1      27.336  35.659  19.154  1.00  0.00     0.034 C 
BRANCH   5   6
ATOM      6  C   UNL     1      28.377  36.207  20.110  1.00  0.00    -0.077 C 
ATOM      7  C   UNL     1      28.891  35.310  21.208  1.00  0.00     0.039 C 
ATOM      8  C   UNL     1      28.929  37.440  19.991  1.00  0.00    -0.023 CG0
ATOM      9  G   UNL     1      28.542  38.534  19.014  1.00  0.00     0.000 G0
ENDBRANCH   5   6
ENDBRANCH   4   5
ENDBRANCH   2   4
BRANCH   1  10
ATOM     10  C   UNL     1      25.316  39.142  20.483  1.00  0.00     0.111 C 
BRANCH  10  11
ATOM     11  C   UNL     1      26.783  39.434  20.686  1.00  0.00     0.163 C 
ATOM     12  O   UNL     1      27.214  39.413  21.871  1.00  0.00    -0.294 OA
BRANCH  11  13
ATOM     13  C   UNL     1      27.739  39.723  19.566  1.00  0.00    -0.002 C 
ATOM     14  C   UNL     1      27.994  41.013  19.184  1.00  0.00    -0.069 C 
ATOM     15  C   UNL     1      29.113  41.359  18.228  1.00  0.00     0.039 C 
ATOM     16  C   UNL     1      27.134  42.162  19.659  1.00  0.00     0.039 C 
BRANCH  13  17
ATOM     17  C   UNL     1      28.545  38.559  19.000  1.00  0.00     0.066 CG0
ATOM     18  G   UNL     1      28.925  37.461  19.976  1.00  0.00     0.000 G0
ENDBRANCH  13  17
ENDBRANCH  11  13
ENDBRANCH  10  11
ENDBRANCH   1  10
TORSDOF 0
ENDMDL
MODEL 4
REMARK VINA RESULT:    -2.186     11.699     13.944
REMARK INTER + INTRA:          -2.871
REMARK INTER:                  -3.094
REMARK INTRA:                   0.222
REMARK UNBOUND:                 0.209
REMARK SMILES CC1=CCC(=C(C)C)C(=O)CC(C)=CCC1
REMARK SMILES IDX 12 1 14 2 13 3 15 4 16 5 2 6 1 7 3 8 11 10 9 11 10 12 5 13
REMARK SMILES IDX 6 14 7 15 8 16 4 17
REMARK H PARENT
REMARK Flexibility Score: 60.00
ROOT
ATOM      1  C   UNL     1      27.237  24.466  26.214  1.00  0.00    -0.070 C 
ATOM      2  C   UNL     1      26.326  23.880  27.024  1.00  0.00    -0.027 C 
ATOM      3  C   UNL     1      28.624  23.880  26.165  1.00  0.00     0.039 C 
ENDROOT
BRANCH   2   4
ATOM      4  C   UNL     1      24.945  24.419  27.305  1.00  0.00     0.032 C 
BRANCH   4   5
ATOM      5  C   UNL     1      25.032  25.576  28.306  1.00  0.00     0.034 C 
BRANCH   5   6
ATOM      6  C   UNL     1      24.123  26.731  27.937  1.00  0.00    -0.077 C 
ATOM      7  C   UNL     1      22.631  26.517  27.979  1.00  0.00     0.039 C 
ATOM      8  C   UNL     1      24.575  27.975  27.640  1.00  0.00    -0.023 CG0
ATOM      9  G   UNL     1      26.017  28.419  27.479  1.00  0.00     0.000 G0
ENDBRANCH   5   6
ENDBRANCH   4   5
ENDBRANCH   2   4
BRANCH   1  10
ATOM     10  C   UNL     1      26.925  25.665  25.340  1.00  0.00     0.111 C 
BRANCH  10  11
ATOM     11  C   UNL     1      27.479  26.944  25.919  1.00  0.00     0.163 C 
ATOM     12  O   UNL     1      28.697  26.946  26.245  1.00  0.00    -0.294 OA
BRANCH  11  13
ATOM     13  C   UNL     1      26.671  28.195  26.103  1.00  0.00    -0.002 C 
ATOM     14  C   UNL     1      26.398  29.009  25.037  1.00  0.00    -0.069 C 
ATOM     15  C   UNL     1      25.403  30.144  25.129  1.00  0.00     0.039 C 
ATOM     16  C   UNL     1      27.117  28.850  23.716  1.00  0.00     0.039 C 
BRANCH  13  17
ATOM     17  C   UNL     1      26.019  28.429  27.461  1.00  0.00     0.066 CG0
ATOM     18  G   UNL     1      24.579  27.973  27.607  1.00  0.00     0.000 G0
ENDBRANCH  13  17
ENDBRANCH  11  13
ENDBRANCH  10  11
ENDBRANCH   1  10
TORSDOF 0
ENDMDL
MODEL 5
REMARK VINA RESULT:    -2.160      2.052      3.809
REMARK INTER + INTRA:          -2.835
REMARK INTER:                  -3.686
REMARK INTRA:                   0.851
REMARK UNBOUND:                 0.209
REMARK SMILES CC1=CCC(=C(C)C)C(=O)CC(C)=CCC1
REMARK SMILES IDX 12 1 14 2 13 3 15 4 16 5 2 6 1 7 3 8 11 10 9 11 10 12 5 13
REMARK SMILES IDX 6 14 7 15 8 16 4 17
REMARK H PARENT
REMARK Flexibility Score: 60.00
ROOT
ATOM      1  C   UNL     1      24.388  36.111  18.623  1.00  0.00    -0.070 C 
ATOM      2  C   UNL     1      23.793  36.901  19.547  1.00  0.00    -0.027 C 
ATOM      3  C   UNL     1      23.920  36.215  17.195  1.00  0.00     0.039 C 
ENDROOT
BRANCH   2   4
ATOM      4  C   UNL     1      24.032  36.822  21.034  1.00  0.00     0.032 C 
BRANCH   4   5
ATOM      5  C   UNL     1      24.226  38.231  21.605  1.00  0.00     0.034 C 
BRANCH   5   6
ATOM      6  C   UNL     1      25.606  38.787  21.321  1.00  0.00    -0.077 C 
ATOM      7  C   UNL     1      25.729  40.221  20.872  1.00  0.00     0.039 C 
ATOM      8  C   UNL     1      26.752  38.087  21.519  1.00  0.00    -0.023 CG0
ATOM      9  G   UNL     1      26.886  36.627  21.908  1.00  0.00     0.000 G0
ENDBRANCH   5   6
ENDBRANCH   4   5
ENDBRANCH   2   4
BRANCH   1  10
ATOM     10  C   UNL     1      25.511  35.148  18.950  1.00  0.00     0.111 C 
BRANCH  10  11
ATOM     11  C   UNL     1      26.745  35.867  19.441  1.00  0.00     0.163 C 
ATOM     12  O   UNL     1      27.285  36.685  18.649  1.00  0.00    -0.294 OA
BRANCH  11  13
ATOM     13  C   UNL     1      27.334  35.675  20.808  1.00  0.00    -0.002 C 
ATOM     14  C   UNL     1      28.350  34.779  21.008  1.00  0.00    -0.069 C 
ATOM     15  C   UNL     1      29.124  34.720  22.306  1.00  0.00     0.039 C 
ATOM     16  C   UNL     1      28.720  33.757  19.956  1.00  0.00     0.039 C 
BRANCH  13  17
ATOM     17  C   UNL     1      26.897  36.631  21.913  1.00  0.00     0.066 CG0
ATOM     18  G   UNL     1      26.764  38.093  21.529  1.00  0.00     0.000 G0
ENDBRANCH  13  17
ENDBRANCH  11  13
ENDBRANCH  10  11
ENDBRANCH   1  10
TORSDOF 0
ENDMDL
MODEL 6
REMARK VINA RESULT:    -2.070      1.843      2.357
REMARK INTER + INTRA:          -2.708
REMARK INTER:                  -3.880
REMARK INTRA:                   1.172
REMARK UNBOUND:                 0.209
REMARK SMILES CC1=CCC(=C(C)C)C(=O)CC(C)=CCC1
REMARK SMILES IDX 12 1 14 2 13 3 15 4 16 5 2 6 1 7 3 8 11 10 9 11 10 12 5 13
REMARK SMILES IDX 6 14 7 15 8 16 4 17
REMARK H PARENT
REMARK Flexibility Score: 60.00
ROOT
ATOM      1  C   UNL     1      24.872  38.791  21.333  1.00  0.00    -0.070 C 
ATOM      2  C   UNL     1      25.573  39.949  21.347  1.00  0.00    -0.027 C 
ATOM      3  C   UNL     1      23.602  38.721  22.140  1.00  0.00     0.039 C 
ENDROOT
BRANCH   2   4
ATOM      4  C   UNL     1      26.930  40.145  20.720  1.00  0.00     0.032 C 
BRANCH   4   5
ATOM      5  C   UNL     1      26.869  39.803  19.227  1.00  0.00     0.034 C 
BRANCH   5   6
ATOM      6  C   UNL     1      28.221  39.408  18.667  1.00  0.00    -0.077 C 
ATOM      7  C   UNL     1      28.693  40.062  17.393  1.00  0.00     0.039 C 
ATOM      8  C   UNL     1      29.068  38.550  19.288  1.00  0.00    -0.023 CG0
ATOM      9  G   UNL     1      28.802  37.731  20.537  1.00  0.00     0.000 G0
ENDBRANCH   5   6
ENDBRANCH   4   5
ENDBRANCH   2   4
BRANCH   1  10
ATOM     10  C   UNL     1      25.289  37.575  20.530  1.00  0.00     0.111 C 
BRANCH  10  11
ATOM     11  C   UNL     1      26.460  36.859  21.160  1.00  0.00     0.163 C 
ATOM     12  O   UNL     1      26.307  36.434  22.337  1.00  0.00    -0.294 OA
BRANCH  11  13
ATOM     13  C   UNL     1      27.764  36.615  20.459  1.00  0.00    -0.002 C 
ATOM     14  C   UNL     1      27.919  35.531  19.636  1.00  0.00    -0.069 C 
ATOM     15  C   UNL     1      29.124  35.374  18.736  1.00  0.00     0.039 C 
ATOM     16  C   UNL     1      26.915  34.400  19.622  1.00  0.00     0.039 C 
BRANCH  13  17
ATOM     17  C   UNL     1      28.833  37.699  20.545  1.00  0.00     0.066 CG0
ATOM     18  G   UNL     1      29.063  38.523  19.292  1.00  0.00     0.000 G0
ENDBRANCH  13  17
ENDBRANCH  11  13
ENDBRANCH  10  11
ENDBRANCH   1  10
TORSDOF 0
ENDMDL
MODEL 7
REMARK VINA RESULT:    -1.975      1.951      3.729
REMARK INTER + INTRA:          -2.574
REMARK INTER:                  -3.108
REMARK INTRA:                   0.534
REMARK UNBOUND:                 0.209
REMARK SMILES CC1=CCC(=C(C)C)C(=O)CC(C)=CCC1
REMARK SMILES IDX 12 1 14 2 13 3 15 4 16 5 2 6 1 7 3 8 11 10 9 11 10 12 5 13
REMARK SMILES IDX 6 14 7 15 8 16 4 17
REMARK H PARENT
REMARK Flexibility Score: 60.00
ROOT
ATOM      1  C   UNL     1      26.131  37.989  20.476  1.00  0.00    -0.070 C 
ATOM      2  C   UNL     1      25.454  38.883  21.233  1.00  0.00    -0.027 C 
ATOM      3  C   UNL     1      26.402  36.627  21.059  1.00  0.00     0.039 C 
ENDROOT
BRANCH   2   4
ATOM      4  C   UNL     1      25.226  40.328  20.868  1.00  0.00     0.032 C 
BRANCH   4   5
ATOM      5  C   UNL     1      26.007  41.236  21.824  1.00  0.00     0.034 C 
BRANCH   5   6
ATOM      6  C   UNL     1      26.816  42.288  21.093  1.00  0.00    -0.077 C 
ATOM      7  C   UNL     1      26.286  43.699  21.041  1.00  0.00     0.039 C 
ATOM      8  C   UNL     1      28.033  42.051  20.542  1.00  0.00    -0.023 CG0
ATOM      9  G   UNL     1      28.745  40.716  20.418  1.00  0.00     0.000 G0
ENDBRANCH   5   6
ENDBRANCH   4   5
ENDBRANCH   2   4
BRANCH   1  10
ATOM     10  C   UNL     1      26.609  38.283  19.068  1.00  0.00     0.111 C 
BRANCH  10  11
ATOM     11  C   UNL     1      28.079  38.623  19.032  1.00  0.00     0.163 C 
ATOM     12  O   UNL     1      28.890  37.659  18.980  1.00  0.00    -0.294 OA
BRANCH  11  13
ATOM     13  C   UNL     1      28.611  40.027  19.032  1.00  0.00    -0.002 C 
ATOM     14  C   UNL     1      28.785  40.705  17.855  1.00  0.00    -0.069 C 
ATOM     15  C   UNL     1      29.094  42.185  17.821  1.00  0.00     0.039 C 
ATOM     16  C   UNL     1      28.730  39.998  16.520  1.00  0.00     0.039 C 
BRANCH  13  17
ATOM     17  C   UNL     1      28.774  40.727  20.377  1.00  0.00     0.066 CG0
ATOM     18  G   UNL     1      28.036  42.042  20.548  1.00  0.00     0.000 G0
ENDBRANCH  13  17
ENDBRANCH  11  13
ENDBRANCH  10  11
ENDBRANCH   1  10
TORSDOF 0
ENDMDL
MODEL 8
REMARK VINA RESULT:    -1.899      2.074      3.737
REMARK INTER + INTRA:          -2.467
REMARK INTER:                  -3.320
REMARK INTRA:                   0.853
REMARK UNBOUND:                 0.209
REMARK SMILES CC1=CCC(=C(C)C)C(=O)CC(C)=CCC1
REMARK SMILES IDX 12 1 14 2 13 3 15 4 16 5 2 6 1 7 3 8 11 10 9 11 10 12 5 13
REMARK SMILES IDX 6 14 7 15 8 16 4 17
REMARK H PARENT
REMARK Flexibility Score: 60.00
ROOT
ATOM      1  C   UNL     1      24.072  37.305  21.418  1.00  0.00    -0.070 C 
ATOM      2  C   UNL     1      23.933  37.004  20.106  1.00  0.00    -0.027 C 
ATOM      3  C   UNL     1      23.275  38.460  21.968  1.00  0.00     0.039 C 
ENDROOT
BRANCH   2   4
ATOM      4  C   UNL     1      24.758  35.983  19.362  1.00  0.00     0.032 C 
BRANCH   4   5
ATOM      5  C   UNL     1      25.398  36.630  18.129  1.00  0.00     0.034 C 
BRANCH   5   6
ATOM      6  C   UNL     1      26.572  37.520  18.486  1.00  0.00    -0.077 C 
ATOM      7  C   UNL     1      26.651  38.893  17.867  1.00  0.00     0.039 C 
ATOM      8  C   UNL     1      27.523  37.180  19.391  1.00  0.00    -0.023 CG0
ATOM      9  G   UNL     1      27.691  35.847  20.098  1.00  0.00     0.000 G0
ENDBRANCH   5   6
ENDBRANCH   4   5
ENDBRANCH   2   4
BRANCH   1  10
ATOM     10  C   UNL     1      24.968  36.528  22.361  1.00  0.00     0.111 C 
BRANCH  10  11
ATOM     11  C   UNL     1      26.428  36.830  22.128  1.00  0.00     0.163 C 
ATOM     12  O   UNL     1      26.827  37.991  22.417  1.00  0.00    -0.294 OA
BRANCH  11  13
ATOM     13  C   UNL     1      27.414  35.829  21.599  1.00  0.00    -0.002 C 
ATOM     14  C   UNL     1      27.896  34.835  22.407  1.00  0.00    -0.069 C 
ATOM     15  C   UNL     1      28.702  33.678  21.860  1.00  0.00     0.039 C 
ATOM     16  C   UNL     1      27.693  34.865  23.905  1.00  0.00     0.039 C 
BRANCH  13  17
ATOM     17  C   UNL     1      27.713  35.846  20.104  1.00  0.00     0.066 CG0
ATOM     18  G   UNL     1      27.520  37.171  19.390  1.00  0.00     0.000 G0
ENDBRANCH  13  17
ENDBRANCH  11  13
ENDBRANCH  10  11
ENDBRANCH   1  10
TORSDOF 0
ENDMDL
MODEL 9
REMARK VINA RESULT:    -1.208      1.655      4.205
REMARK INTER + INTRA:          -1.493
REMARK INTER:                  -2.596
REMARK INTRA:                   1.103
REMARK UNBOUND:                 0.209
REMARK SMILES CC1=CCC(=C(C)C)C(=O)CC(C)=CCC1
REMARK SMILES IDX 12 1 14 2 13 3 15 4 16 5 2 6 1 7 3 8 11 10 9 11 10 12 5 13
REMARK SMILES IDX 6 14 7 15 8 16 4 17
REMARK H PARENT
REMARK Flexibility Score: 60.00
ROOT
ATOM      1  C   UNL     1      25.815  36.873  19.229  1.00  0.00    -0.070 C 
ATOM      2  C   UNL     1      24.669  36.630  19.906  1.00  0.00    -0.027 C 
ATOM      3  C   UNL     1      25.716  37.208  17.763  1.00  0.00     0.039 C 
ENDROOT
BRANCH   2   4
ATOM      4  C   UNL     1      24.593  36.140  21.330  1.00  0.00     0.032 C 
BRANCH   4   5
ATOM      5  C   UNL     1      24.911  37.288  22.293  1.00  0.00     0.034 C 
BRANCH   5   6
ATOM      6  C   UNL     1      24.500  38.638  21.741  1.00  0.00    -0.077 C 
ATOM      7  C   UNL     1      23.030  38.939  21.589  1.00  0.00     0.039 C 
ATOM      8  C   UNL     1      25.381  39.626  21.442  1.00  0.00    -0.023 CG0
ATOM      9  G   UNL     1      26.896  39.547  21.457  1.00  0.00     0.000 G0
ENDBRANCH   5   6
ENDBRANCH   4   5
ENDBRANCH   2   4
BRANCH   1  10
ATOM     10  C   UNL     1      27.185  36.847  19.876  1.00  0.00     0.111 C 
BRANCH  10  11
ATOM     11  C   UNL     1      27.970  38.103  19.584  1.00  0.00     0.163 C 
ATOM     12  O   UNL     1      28.993  37.984  18.856  1.00  0.00    -0.294 OA
BRANCH  11  13
ATOM     13  C   UNL     1      27.587  39.463  20.091  1.00  0.00    -0.002 C 
ATOM     14  C   UNL     1      27.700  40.563  19.284  1.00  0.00    -0.069 C 
ATOM     15  C   UNL     1      27.113  41.903  19.668  1.00  0.00     0.039 C 
ATOM     16  C   UNL     1      28.468  40.512  17.982  1.00  0.00     0.039 C 
BRANCH  13  17
ATOM     17  C   UNL     1      26.902  39.549  21.451  1.00  0.00     0.066 CG0
ATOM     18  G   UNL     1      25.387  39.636  21.441  1.00  0.00     0.000 G0
ENDBRANCH  13  17
ENDBRANCH  11  13
ENDBRANCH  10  11
ENDBRANCH   1  10
TORSDOF 0
ENDMDL
