MODEL 1
REMARK VINA RESULT:    -4.530      0.000      0.000
REMARK INTER + INTRA:         -10.978
REMARK INTER:                  -8.502
REMARK INTRA:                  -2.476
REMARK UNBOUND:                -2.476
REMARK SMILES CCCCCCCCC=CCCCCCCCC(=O)[O-]
REMARK SMILES IDX 10 1 9 2 11 3 12 4 13 5 14 6 15 7 16 8 17 9 18 10 19 11
REMARK SMILES IDX 20 12 8 13 7 14 6 15 5 16 4 17 3 18 2 19 1 20
REMARK H PARENT
REMARK Flexibility Score: inf
ROOT
ATOM      1  C   UNL     1     116.192 120.957 123.266  1.00  0.00    -0.031 C 
ATOM      2  C   UNL     1     117.219 121.461 122.555  1.00  0.00    -0.031 C 
ENDROOT
BRANCH   1   3
ATOM      3  C   UNL     1     115.226 119.902 122.782  1.00  0.00     0.027 C 
BRANCH   3   4
ATOM      4  C   UNL     1     114.192 120.483 121.801  1.00  0.00     0.004 C 
BRANCH   4   5
ATOM      5  C   UNL     1     112.753 120.535 122.347  1.00  0.00     0.000 C 
BRANCH   5   6
ATOM      6  C   UNL     1     112.684 120.299 123.867  1.00  0.00     0.000 C 
BRANCH   6   7
ATOM      7  C   UNL     1     111.864 119.052 124.233  1.00  0.00     0.000 C 
BRANCH   7   8
ATOM      8  C   UNL     1     112.240 118.478 125.609  1.00  0.00     0.006 C 
BRANCH   8   9
ATOM      9  C   UNL     1     113.634 118.944 126.035  1.00  0.00     0.053 C 
BRANCH   9  10
ATOM     10  C   UNL     1     113.748 118.959 127.526  1.00  0.00     0.041 C 
ATOM     11  O   UNL     1     112.719 119.106 128.238  1.00  0.00    -0.550 OA
ATOM     12  O   UNL     1     114.996 118.863 128.130  1.00  0.00    -0.550 OA
ENDBRANCH   9  10
ENDBRANCH   8   9
ENDBRANCH   7   8
ENDBRANCH   6   7
ENDBRANCH   5   6
ENDBRANCH   4   5
ENDBRANCH   3   4
ENDBRANCH   1   3
BRANCH   2  13
ATOM     13  C   UNL     1     117.564 121.092 121.132  1.00  0.00     0.027 C 
BRANCH  13  14
ATOM     14  C   UNL     1     117.045 122.107 120.102  1.00  0.00     0.004 C 
BRANCH  14  15
ATOM     15  C   UNL     1     117.474 123.546 120.433  1.00  0.00     0.000 C 
BRANCH  15  16
ATOM     16  C   UNL     1     116.282 124.509 120.570  1.00  0.00     0.000 C 
BRANCH  16  17
ATOM     17  C   UNL     1     114.909 123.808 120.508  1.00  0.00    -0.000 C 
BRANCH  17  18
ATOM     18  C   UNL     1     113.948 124.316 121.598  1.00  0.00    -0.000 C 
BRANCH  18  19
ATOM     19  C   UNL     1     114.687 124.838 122.840  1.00  0.00    -0.003 C 
ATOM     20  C   UNL     1     114.501 123.937 124.060  1.00  0.00     0.004 C 
ENDBRANCH  18  19
ENDBRANCH  17  18
ENDBRANCH  16  17
ENDBRANCH  15  16
ENDBRANCH  14  15
ENDBRANCH  13  14
ENDBRANCH   2  13
TORSDOF 15
ENDMDL
MODEL 2
REMARK VINA RESULT:    -4.469      2.865      6.561
REMARK INTER + INTRA:         -10.864
REMARK INTER:                  -8.369
REMARK INTRA:                  -2.495
REMARK UNBOUND:                -2.476
REMARK SMILES CCCCCCCCC=CCCCCCCCC(=O)[O-]
REMARK SMILES IDX 10 1 9 2 11 3 12 4 13 5 14 6 15 7 16 8 17 9 18 10 19 11
REMARK SMILES IDX 20 12 8 13 7 14 6 15 5 16 4 17 3 18 2 19 1 20
REMARK H PARENT
REMARK Flexibility Score: inf
ROOT
ATOM      1  C   UNL     1     115.975 122.037 123.902  1.00  0.00    -0.031 C 
ATOM      2  C   UNL     1     114.831 121.327 123.953  1.00  0.00    -0.031 C 
ENDROOT
BRANCH   1   3
ATOM      3  C   UNL     1     116.146 123.457 124.384  1.00  0.00     0.027 C 
BRANCH   3   4
ATOM      4  C   UNL     1     116.002 124.471 123.235  1.00  0.00     0.004 C 
BRANCH   4   5
ATOM      5  C   UNL     1     114.608 125.114 123.121  1.00  0.00     0.000 C 
BRANCH   5   6
ATOM      6  C   UNL     1     113.862 124.695 121.841  1.00  0.00     0.000 C 
BRANCH   6   7
ATOM      7  C   UNL     1     114.774 123.973 120.837  1.00  0.00     0.000 C 
BRANCH   7   8
ATOM      8  C   UNL     1     114.274 122.562 120.489  1.00  0.00     0.006 C 
BRANCH   8   9
ATOM      9  C   UNL     1     112.814 122.378 120.910  1.00  0.00     0.053 C 
BRANCH   9  10
ATOM     10  C   UNL     1     112.410 120.943 120.786  1.00  0.00     0.041 C 
ATOM     11  O   UNL     1     113.171 120.033 121.209  1.00  0.00    -0.550 OA
ATOM     12  O   UNL     1     111.217 120.608 120.157  1.00  0.00    -0.550 OA
ENDBRANCH   9  10
ENDBRANCH   8   9
ENDBRANCH   7   8
ENDBRANCH   6   7
ENDBRANCH   5   6
ENDBRANCH   4   5
ENDBRANCH   3   4
ENDBRANCH   1   3
BRANCH   2  13
ATOM     13  C   UNL     1     113.505 121.839 124.463  1.00  0.00     0.027 C 
BRANCH  13  14
ATOM     14  C   UNL     1     112.519 120.714 124.815  1.00  0.00     0.004 C 
BRANCH  14  15
ATOM     15  C   UNL     1     113.187 119.330 124.815  1.00  0.00     0.000 C 
BRANCH  15  16
ATOM     16  C   UNL     1     112.773 118.465 126.019  1.00  0.00     0.000 C 
BRANCH  16  17
ATOM     17  C   UNL     1     113.932 118.158 126.989  1.00  0.00    -0.000 C 
BRANCH  17  18
ATOM     18  C   UNL     1     115.276 118.708 126.480  1.00  0.00    -0.000 C 
BRANCH  18  19
ATOM     19  C   UNL     1     116.372 118.681 127.557  1.00  0.00    -0.003 C 
ATOM     20  C   UNL     1     115.832 118.973 128.956  1.00  0.00     0.004 C 
ENDBRANCH  18  19
ENDBRANCH  17  18
ENDBRANCH  16  17
ENDBRANCH  15  16
ENDBRANCH  14  15
ENDBRANCH  13  14
ENDBRANCH   2  13
TORSDOF 15
ENDMDL
MODEL 3
REMARK VINA RESULT:    -4.458      3.271      6.175
REMARK INTER + INTRA:         -10.843
REMARK INTER:                  -8.269
REMARK INTRA:                  -2.574
REMARK UNBOUND:                -2.476
REMARK SMILES CCCCCCCCC=CCCCCCCCC(=O)[O-]
REMARK SMILES IDX 10 1 9 2 11 3 12 4 13 5 14 6 15 7 16 8 17 9 18 10 19 11
REMARK SMILES IDX 20 12 8 13 7 14 6 15 5 16 4 17 3 18 2 19 1 20
REMARK H PARENT
REMARK Flexibility Score: inf
ROOT
ATOM      1  C   UNL     1     114.687 123.936 120.782  1.00  0.00    -0.031 C 
ATOM      2  C   UNL     1     113.459 123.412 120.964  1.00  0.00    -0.031 C 
ENDROOT
BRANCH   1   3
ATOM      3  C   UNL     1     115.945 123.145 120.514  1.00  0.00     0.027 C 
BRANCH   3   4
ATOM      4  C   UNL     1     117.007 123.376 121.604  1.00  0.00     0.004 C 
BRANCH   4   5
ATOM      5  C   UNL     1     116.603 124.399 122.683  1.00  0.00     0.000 C 
BRANCH   5   6
ATOM      6  C   UNL     1     116.240 123.736 124.024  1.00  0.00     0.000 C 
BRANCH   6   7
ATOM      7  C   UNL     1     114.786 124.010 124.442  1.00  0.00     0.000 C 
BRANCH   7   8
ATOM      8  C   UNL     1     114.451 125.510 124.478  1.00  0.00     0.006 C 
BRANCH   8   9
ATOM      9  C   UNL     1     114.571 126.064 125.900  1.00  0.00     0.053 C 
BRANCH   9  10
ATOM     10  C   UNL     1     115.688 127.056 125.982  1.00  0.00     0.041 C 
ATOM     11  O   UNL     1     116.053 127.507 127.099  1.00  0.00    -0.550 OA
ATOM     12  O   UNL     1     116.292 127.521 124.820  1.00  0.00    -0.550 OA
ENDBRANCH   9  10
ENDBRANCH   8   9
ENDBRANCH   7   8
ENDBRANCH   6   7
ENDBRANCH   5   6
ENDBRANCH   4   5
ENDBRANCH   3   4
ENDBRANCH   1   3
BRANCH   2  13
ATOM     13  C   UNL     1     113.128 121.939 120.974  1.00  0.00     0.027 C 
BRANCH  13  14
ATOM     14  C   UNL     1     113.235 121.306 122.370  1.00  0.00     0.004 C 
BRANCH  14  15
ATOM     15  C   UNL     1     114.212 120.120 122.401  1.00  0.00     0.000 C 
BRANCH  15  16
ATOM     16  C   UNL     1     115.208 120.195 123.571  1.00  0.00     0.000 C 
BRANCH  16  17
ATOM     17  C   UNL     1     114.544 120.488 124.932  1.00  0.00    -0.000 C 
BRANCH  17  18
ATOM     18  C   UNL     1     114.235 119.200 125.716  1.00  0.00    -0.000 C 
BRANCH  18  19
ATOM     19  C   UNL     1     112.757 119.095 126.121  1.00  0.00    -0.003 C 
ATOM     20  C   UNL     1     111.897 118.431 125.046  1.00  0.00     0.004 C 
ENDBRANCH  18  19
ENDBRANCH  17  18
ENDBRANCH  16  17
ENDBRANCH  15  16
ENDBRANCH  14  15
ENDBRANCH  13  14
ENDBRANCH   2  13
TORSDOF 15
ENDMDL
MODEL 4
REMARK VINA RESULT:    -4.446      3.313      5.853
REMARK INTER + INTRA:         -10.821
REMARK INTER:                  -8.319
REMARK INTRA:                  -2.502
REMARK UNBOUND:                -2.476
REMARK SMILES CCCCCCCCC=CCCCCCCCC(=O)[O-]
REMARK SMILES IDX 10 1 9 2 11 3 12 4 13 5 14 6 15 7 16 8 17 9 18 10 19 11
REMARK SMILES IDX 20 12 8 13 7 14 6 15 5 16 4 17 3 18 2 19 1 20
REMARK H PARENT
REMARK Flexibility Score: inf
ROOT
ATOM      1  C   UNL     1     111.930 119.223 122.719  1.00  0.00    -0.031 C 
ATOM      2  C   UNL     1     111.920 119.583 124.018  1.00  0.00    -0.031 C 
ENDROOT
BRANCH   1   3
ATOM      3  C   UNL     1     112.753 119.878 121.636  1.00  0.00     0.027 C 
BRANCH   3   4
ATOM      4  C   UNL     1     111.873 120.393 120.483  1.00  0.00     0.004 C 
BRANCH   4   5
ATOM      5  C   UNL     1     111.954 121.912 120.246  1.00  0.00     0.000 C 
BRANCH   5   6
ATOM      6  C   UNL     1     112.998 122.599 121.146  1.00  0.00     0.000 C 
BRANCH   6   7
ATOM      7  C   UNL     1     114.314 122.891 120.407  1.00  0.00     0.000 C 
BRANCH   7   8
ATOM      8  C   UNL     1     114.794 124.338 120.600  1.00  0.00     0.006 C 
BRANCH   8   9
ATOM      9  C   UNL     1     116.237 124.506 120.116  1.00  0.00     0.053 C 
BRANCH   9  10
ATOM     10  C   UNL     1     117.190 124.398 121.264  1.00  0.00     0.041 C 
ATOM     11  O   UNL     1     117.980 123.420 121.341  1.00  0.00    -0.550 OA
ATOM     12  O   UNL     1     117.170 125.350 122.276  1.00  0.00    -0.550 OA
ENDBRANCH   9  10
ENDBRANCH   8   9
ENDBRANCH   7   8
ENDBRANCH   6   7
ENDBRANCH   5   6
ENDBRANCH   4   5
ENDBRANCH   3   4
ENDBRANCH   1   3
BRANCH   2  13
ATOM     13  C   UNL     1     112.700 120.731 124.614  1.00  0.00     0.027 C 
BRANCH  13  14
ATOM     14  C   UNL     1     113.882 120.271 125.482  1.00  0.00     0.004 C 
BRANCH  14  15
ATOM     15  C   UNL     1     115.211 120.280 124.710  1.00  0.00     0.000 C 
BRANCH  15  16
ATOM     16  C   UNL     1     115.294 121.415 123.674  1.00  0.00     0.000 C 
BRANCH  16  17
ATOM     17  C   UNL     1     115.692 122.777 124.278  1.00  0.00    -0.000 C 
BRANCH  17  18
ATOM     18  C   UNL     1     114.544 123.800 124.213  1.00  0.00    -0.000 C 
BRANCH  18  19
ATOM     19  C   UNL     1     114.907 125.140 124.871  1.00  0.00    -0.003 C 
ATOM     20  C   UNL     1     114.304 126.339 124.140  1.00  0.00     0.004 C 
ENDBRANCH  18  19
ENDBRANCH  17  18
ENDBRANCH  16  17
ENDBRANCH  15  16
ENDBRANCH  14  15
ENDBRANCH  13  14
ENDBRANCH   2  13
TORSDOF 15
ENDMDL
MODEL 5
REMARK VINA RESULT:    -4.416      1.044      2.465
REMARK INTER + INTRA:         -10.765
REMARK INTER:                  -8.103
REMARK INTRA:                  -2.662
REMARK UNBOUND:                -2.476
REMARK SMILES CCCCCCCCC=CCCCCCCCC(=O)[O-]
REMARK SMILES IDX 10 1 9 2 11 3 12 4 13 5 14 6 15 7 16 8 17 9 18 10 19 11
REMARK SMILES IDX 20 12 8 13 7 14 6 15 5 16 4 17 3 18 2 19 1 20
REMARK H PARENT
REMARK Flexibility Score: inf
ROOT
ATOM      1  C   UNL     1     115.272 119.739 122.419  1.00  0.00    -0.031 C 
ATOM      2  C   UNL     1     116.173 120.400 123.172  1.00  0.00    -0.031 C 
ENDROOT
BRANCH   1   3
ATOM      3  C   UNL     1     114.427 120.350 121.327  1.00  0.00     0.027 C 
BRANCH   3   4
ATOM      4  C   UNL     1     113.018 120.711 121.832  1.00  0.00     0.004 C 
BRANCH   4   5
ATOM      5  C   UNL     1     112.273 119.557 122.528  1.00  0.00     0.000 C 
BRANCH   5   6
ATOM      6  C   UNL     1     111.965 119.854 124.006  1.00  0.00     0.000 C 
BRANCH   6   7
ATOM      7  C   UNL     1     111.671 118.580 124.815  1.00  0.00     0.000 C 
BRANCH   7   8
ATOM      8  C   UNL     1     112.713 118.323 125.916  1.00  0.00     0.006 C 
BRANCH   8   9
ATOM      9  C   UNL     1     113.859 119.335 125.833  1.00  0.00     0.053 C 
BRANCH   9  10
ATOM     10  C   UNL     1     114.980 118.930 126.737  1.00  0.00     0.041 C 
ATOM     11  O   UNL     1     116.154 119.321 126.504  1.00  0.00    -0.550 OA
ATOM     12  O   UNL     1     114.737 118.079 127.809  1.00  0.00    -0.550 OA
ENDBRANCH   9  10
ENDBRANCH   8   9
ENDBRANCH   7   8
ENDBRANCH   6   7
ENDBRANCH   5   6
ENDBRANCH   4   5
ENDBRANCH   3   4
ENDBRANCH   1   3
BRANCH   2  13
ATOM     13  C   UNL     1     116.470 121.879 123.086  1.00  0.00     0.027 C 
BRANCH  13  14
ATOM     14  C   UNL     1     115.800 122.693 124.204  1.00  0.00     0.004 C 
BRANCH  14  15
ATOM     15  C   UNL     1     114.429 123.246 123.783  1.00  0.00     0.000 C 
BRANCH  15  16
ATOM     16  C   UNL     1     114.525 124.607 123.071  1.00  0.00     0.000 C 
BRANCH  16  17
ATOM     17  C   UNL     1     113.731 124.673 121.750  1.00  0.00    -0.000 C 
BRANCH  17  18
ATOM     18  C   UNL     1     114.433 123.911 120.613  1.00  0.00    -0.000 C 
BRANCH  18  19
ATOM     19  C   UNL     1     115.875 124.388 120.384  1.00  0.00    -0.003 C 
ATOM     20  C   UNL     1     116.777 123.291 119.818  1.00  0.00     0.004 C 
ENDBRANCH  18  19
ENDBRANCH  17  18
ENDBRANCH  16  17
ENDBRANCH  15  16
ENDBRANCH  14  15
ENDBRANCH  13  14
ENDBRANCH   2  13
TORSDOF 15
ENDMDL
MODEL 6
REMARK VINA RESULT:    -4.401      3.090      6.874
REMARK INTER + INTRA:         -10.737
REMARK INTER:                  -8.322
REMARK INTRA:                  -2.415
REMARK UNBOUND:                -2.476
REMARK SMILES CCCCCCCCC=CCCCCCCCC(=O)[O-]
REMARK SMILES IDX 10 1 9 2 11 3 12 4 13 5 14 6 15 7 16 8 17 9 18 10 19 11
REMARK SMILES IDX 20 12 8 13 7 14 6 15 5 16 4 17 3 18 2 19 1 20
REMARK H PARENT
REMARK Flexibility Score: inf
ROOT
ATOM      1  C   UNL     1     115.443 120.227 123.298  1.00  0.00    -0.031 C 
ATOM      2  C   UNL     1     114.266 120.189 122.644  1.00  0.00    -0.031 C 
ENDROOT
BRANCH   1   3
ATOM      3  C   UNL     1     115.767 121.129 124.465  1.00  0.00     0.027 C 
BRANCH   3   4
ATOM      4  C   UNL     1     116.259 122.510 123.998  1.00  0.00     0.004 C 
BRANCH   4   5
ATOM      5  C   UNL     1     115.272 123.663 124.261  1.00  0.00     0.000 C 
BRANCH   5   6
ATOM      6  C   UNL     1     115.275 124.717 123.139  1.00  0.00     0.000 C 
BRANCH   6   7
ATOM      7  C   UNL     1     114.143 124.498 122.122  1.00  0.00     0.000 C 
BRANCH   7   8
ATOM      8  C   UNL     1     114.652 124.439 120.672  1.00  0.00     0.006 C 
BRANCH   8   9
ATOM      9  C   UNL     1     115.099 123.022 120.305  1.00  0.00     0.053 C 
BRANCH   9  10
ATOM     10  C   UNL     1     116.591 122.947 120.233  1.00  0.00     0.041 C 
ATOM     11  O   UNL     1     117.179 121.846 120.404  1.00  0.00    -0.550 OA
ATOM     12  O   UNL     1     117.337 124.101 120.026  1.00  0.00    -0.550 OA
ENDBRANCH   9  10
ENDBRANCH   8   9
ENDBRANCH   7   8
ENDBRANCH   6   7
ENDBRANCH   5   6
ENDBRANCH   4   5
ENDBRANCH   3   4
ENDBRANCH   1   3
BRANCH   2  13
ATOM     13  C   UNL     1     113.074 121.070 122.934  1.00  0.00     0.027 C 
BRANCH  13  14
ATOM     14  C   UNL     1     112.204 120.547 124.088  1.00  0.00     0.004 C 
BRANCH  14  15
ATOM     15  C   UNL     1     111.942 119.036 123.984  1.00  0.00     0.000 C 
BRANCH  15  16
ATOM     16  C   UNL     1     112.013 118.321 125.345  1.00  0.00     0.000 C 
BRANCH  16  17
ATOM     17  C   UNL     1     112.818 119.095 126.410  1.00  0.00    -0.000 C 
BRANCH  17  18
ATOM     18  C   UNL     1     114.226 118.507 126.614  1.00  0.00    -0.000 C 
BRANCH  18  19
ATOM     19  C   UNL     1     114.510 118.150 128.081  1.00  0.00    -0.003 C 
ATOM     20  C   UNL     1     115.660 118.964 128.674  1.00  0.00     0.004 C 
ENDBRANCH  18  19
ENDBRANCH  17  18
ENDBRANCH  16  17
ENDBRANCH  15  16
ENDBRANCH  14  15
ENDBRANCH  13  14
ENDBRANCH   2  13
TORSDOF 15
ENDMDL
MODEL 7
REMARK VINA RESULT:    -4.401      1.617      2.529
REMARK INTER + INTRA:         -10.736
REMARK INTER:                  -9.255
REMARK INTRA:                  -1.481
REMARK UNBOUND:                -2.476
REMARK SMILES CCCCCCCCC=CCCCCCCCC(=O)[O-]
REMARK SMILES IDX 10 1 9 2 11 3 12 4 13 5 14 6 15 7 16 8 17 9 18 10 19 11
REMARK SMILES IDX 20 12 8 13 7 14 6 15 5 16 4 17 3 18 2 19 1 20
REMARK H PARENT
REMARK Flexibility Score: inf
ROOT
ATOM      1  C   UNL     1     113.698 123.607 121.148  1.00  0.00    -0.031 C 
ATOM      2  C   UNL     1     114.625 124.366 120.530  1.00  0.00    -0.031 C 
ENDROOT
BRANCH   1   3
ATOM      3  C   UNL     1     113.906 122.191 121.630  1.00  0.00     0.027 C 
BRANCH   3   4
ATOM      4  C   UNL     1     112.803 121.248 121.121  1.00  0.00     0.004 C 
BRANCH   4   5
ATOM      5  C   UNL     1     112.802 119.853 121.774  1.00  0.00     0.000 C 
BRANCH   5   6
ATOM      6  C   UNL     1     112.823 119.917 123.312  1.00  0.00     0.000 C 
BRANCH   6   7
ATOM      7  C   UNL     1     111.739 119.036 123.954  1.00  0.00     0.000 C 
BRANCH   7   8
ATOM      8  C   UNL     1     112.123 118.554 125.362  1.00  0.00     0.006 C 
BRANCH   8   9
ATOM      9  C   UNL     1     113.443 119.184 125.816  1.00  0.00     0.053 C 
BRANCH   9  10
ATOM     10  C   UNL     1     113.722 118.841 127.245  1.00  0.00     0.041 C 
ATOM     11  O   UNL     1     112.832 119.005 128.122  1.00  0.00    -0.550 OA
ATOM     12  O   UNL     1     114.981 118.386 127.618  1.00  0.00    -0.550 OA
ENDBRANCH   9  10
ENDBRANCH   8   9
ENDBRANCH   7   8
ENDBRANCH   6   7
ENDBRANCH   5   6
ENDBRANCH   4   5
ENDBRANCH   3   4
ENDBRANCH   1   3
BRANCH   2  13
ATOM     13  C   UNL     1     116.024 123.922 120.174  1.00  0.00     0.027 C 
BRANCH  13  14
ATOM     14  C   UNL     1     117.115 124.737 120.886  1.00  0.00     0.004 C 
BRANCH  14  15
ATOM     15  C   UNL     1     117.271 124.339 122.363  1.00  0.00     0.000 C 
BRANCH  15  16
ATOM     16  C   UNL     1     116.827 125.450 123.331  1.00  0.00     0.000 C 
BRANCH  16  17
ATOM     17  C   UNL     1     115.613 125.064 124.201  1.00  0.00    -0.000 C 
BRANCH  17  18
ATOM     18  C   UNL     1     114.371 125.912 123.872  1.00  0.00    -0.000 C 
BRANCH  18  19
ATOM     19  C   UNL     1     114.104 127.001 124.922  1.00  0.00    -0.003 C 
ATOM     20  C   UNL     1     114.681 126.653 126.294  1.00  0.00     0.004 C 
ENDBRANCH  18  19
ENDBRANCH  17  18
ENDBRANCH  16  17
ENDBRANCH  15  16
ENDBRANCH  14  15
ENDBRANCH  13  14
ENDBRANCH   2  13
TORSDOF 15
ENDMDL
MODEL 8
REMARK VINA RESULT:    -4.398      1.592      3.195
REMARK INTER + INTRA:         -10.730
REMARK INTER:                  -8.385
REMARK INTRA:                  -2.346
REMARK UNBOUND:                -2.476
REMARK SMILES CCCCCCCCC=CCCCCCCCC(=O)[O-]
REMARK SMILES IDX 10 1 9 2 11 3 12 4 13 5 14 6 15 7 16 8 17 9 18 10 19 11
REMARK SMILES IDX 20 12 8 13 7 14 6 15 5 16 4 17 3 18 2 19 1 20
REMARK H PARENT
REMARK Flexibility Score: inf
ROOT
ATOM      1  C   UNL     1     113.689 122.201 121.780  1.00  0.00    -0.031 C 
ATOM      2  C   UNL     1     113.926 122.867 120.632  1.00  0.00    -0.031 C 
ENDROOT
BRANCH   1   3
ATOM      3  C   UNL     1     114.186 122.607 123.147  1.00  0.00     0.027 C 
BRANCH   3   4
ATOM      4  C   UNL     1     114.375 121.391 124.070  1.00  0.00     0.004 C 
BRANCH   4   5
ATOM      5  C   UNL     1     113.088 120.911 124.766  1.00  0.00     0.000 C 
BRANCH   5   6
ATOM      6  C   UNL     1     112.713 119.465 124.391  1.00  0.00     0.000 C 
BRANCH   6   7
ATOM      7  C   UNL     1     112.306 118.625 125.613  1.00  0.00     0.000 C 
BRANCH   7   8
ATOM      8  C   UNL     1     113.078 119.016 126.884  1.00  0.00     0.006 C 
BRANCH   8   9
ATOM      9  C   UNL     1     113.883 117.830 127.422  1.00  0.00     0.053 C 
BRANCH   9  10
ATOM     10  C   UNL     1     115.332 117.988 127.088  1.00  0.00     0.041 C 
ATOM     11  O   UNL     1     115.724 118.980 126.418  1.00  0.00    -0.550 OA
ATOM     12  O   UNL     1     116.245 117.012 127.472  1.00  0.00    -0.550 OA
ENDBRANCH   9  10
ENDBRANCH   8   9
ENDBRANCH   7   8
ENDBRANCH   6   7
ENDBRANCH   5   6
ENDBRANCH   4   5
ENDBRANCH   3   4
ENDBRANCH   1   3
BRANCH   2  13
ATOM     13  C   UNL     1     114.763 124.117 120.502  1.00  0.00     0.027 C 
BRANCH  13  14
ATOM     14  C   UNL     1     116.089 123.880 119.763  1.00  0.00     0.004 C 
BRANCH  14  15
ATOM     15  C   UNL     1     117.300 124.396 120.556  1.00  0.00     0.000 C 
BRANCH  15  16
ATOM     16  C   UNL     1     118.246 123.268 121.005  1.00  0.00     0.000 C 
BRANCH  16  17
ATOM     17  C   UNL     1     117.649 122.359 122.099  1.00  0.00    -0.000 C 
BRANCH  17  18
ATOM     18  C   UNL     1     117.842 120.866 121.781  1.00  0.00    -0.000 C 
BRANCH  18  19
ATOM     19  C   UNL     1     116.760 120.317 120.839  1.00  0.00    -0.003 C 
ATOM     20  C   UNL     1     115.896 119.240 121.495  1.00  0.00     0.004 C 
ENDBRANCH  18  19
ENDBRANCH  17  18
ENDBRANCH  16  17
ENDBRANCH  15  16
ENDBRANCH  14  15
ENDBRANCH  13  14
ENDBRANCH   2  13
TORSDOF 15
ENDMDL
MODEL 9
REMARK VINA RESULT:    -4.397      2.973      5.247
REMARK INTER + INTRA:         -10.728
REMARK INTER:                  -8.155
REMARK INTRA:                  -2.573
REMARK UNBOUND:                -2.476
REMARK SMILES CCCCCCCCC=CCCCCCCCC(=O)[O-]
REMARK SMILES IDX 10 1 9 2 11 3 12 4 13 5 14 6 15 7 16 8 17 9 18 10 19 11
REMARK SMILES IDX 20 12 8 13 7 14 6 15 5 16 4 17 3 18 2 19 1 20
REMARK H PARENT
REMARK Flexibility Score: inf
ROOT
ATOM      1  C   UNL     1     111.958 119.994 124.212  1.00  0.00    -0.031 C 
ATOM      2  C   UNL     1     111.756 119.639 122.928  1.00  0.00    -0.031 C 
ENDROOT
BRANCH   1   3
ATOM      3  C   UNL     1     113.169 120.727 124.738  1.00  0.00     0.027 C 
BRANCH   3   4
ATOM      4  C   UNL     1     114.271 119.755 125.193  1.00  0.00     0.004 C 
BRANCH   4   5
ATOM      5  C   UNL     1     115.707 120.262 124.960  1.00  0.00     0.000 C 
BRANCH   5   6
ATOM      6  C   UNL     1     115.843 121.090 123.669  1.00  0.00     0.000 C 
BRANCH   6   7
ATOM      7  C   UNL     1     116.501 122.458 123.912  1.00  0.00     0.000 C 
BRANCH   7   8
ATOM      8  C   UNL     1     115.478 123.561 124.229  1.00  0.00     0.006 C 
BRANCH   8   9
ATOM      9  C   UNL     1     116.050 124.946 123.914  1.00  0.00     0.053 C 
BRANCH   9  10
ATOM     10  C   UNL     1     115.316 126.000 124.680  1.00  0.00     0.041 C 
ATOM     11  O   UNL     1     114.294 125.700 125.352  1.00  0.00    -0.550 OA
ATOM     12  O   UNL     1     115.731 127.326 124.611  1.00  0.00    -0.550 OA
ENDBRANCH   9  10
ENDBRANCH   8   9
ENDBRANCH   7   8
ENDBRANCH   6   7
ENDBRANCH   5   6
ENDBRANCH   4   5
ENDBRANCH   3   4
ENDBRANCH   1   3
BRANCH   2  13
ATOM     13  C   UNL     1     112.722 119.877 121.792  1.00  0.00     0.027 C 
BRANCH  13  14
ATOM     14  C   UNL     1     112.070 120.554 120.576  1.00  0.00     0.004 C 
BRANCH  14  15
ATOM     15  C   UNL     1     112.378 122.059 120.511  1.00  0.00     0.000 C 
BRANCH  15  16
ATOM     16  C   UNL     1     113.799 122.400 120.991  1.00  0.00     0.000 C 
BRANCH  16  17
ATOM     17  C   UNL     1     114.132 123.905 120.920  1.00  0.00    -0.000 C 
BRANCH  17  18
ATOM     18  C   UNL     1     115.414 124.178 120.114  1.00  0.00    -0.000 C 
BRANCH  18  19
ATOM     19  C   UNL     1     116.379 122.983 120.115  1.00  0.00    -0.003 C 
ATOM     20  C   UNL     1     117.786 123.360 120.578  1.00  0.00     0.004 C 
ENDBRANCH  18  19
ENDBRANCH  17  18
ENDBRANCH  16  17
ENDBRANCH  15  16
ENDBRANCH  14  15
ENDBRANCH  13  14
ENDBRANCH   2  13
TORSDOF 15
ENDMDL
