MODEL 1
REMARK VINA RESULT:     0.131      0.000      0.000
REMARK INTER + INTRA:          -0.996
REMARK INTER:                   0.299
REMARK INTRA:                  -1.295
REMARK UNBOUND:                -1.295
REMARK SMILES CCCCCCCCCCCCCCCCCCCCCCCC(=O)[O-]
REMARK SMILES IDX 13 1 14 2 15 3 16 4 17 5 18 6 19 7 20 8 21 9 22 10 23 11
REMARK SMILES IDX 24 12 25 13 26 14 12 15 11 16 10 17 9 18 8 19 7 20 6 21 5 22
REMARK SMILES IDX 4 23 3 24 2 25 1 26
REMARK H PARENT
REMARK Flexibility Score: inf
ROOT
ATOM      1  C   UNL     1      45.454  20.797  15.399  1.00  0.00     0.000 C 
ENDROOT
BRANCH   1   2
ATOM      2  C   UNL     1      46.994  20.820  15.456  1.00  0.00     0.000 C 
BRANCH   2   3
ATOM      3  C   UNL     1      47.590  21.677  16.591  1.00  0.00     0.000 C 
BRANCH   3   4
ATOM      4  C   UNL     1      49.017  22.199  16.328  1.00  0.00     0.000 C 
BRANCH   4   5
ATOM      5  C   UNL     1      49.788  21.466  15.210  1.00  0.00     0.000 C 
BRANCH   5   6
ATOM      6  C   UNL     1      51.131  20.843  15.637  1.00  0.00     0.000 C 
BRANCH   6   7
ATOM      7  C   UNL     1      52.321  21.795  15.435  1.00  0.00     0.000 C 
BRANCH   7   8
ATOM      8  C   UNL     1      52.472  22.806  16.584  1.00  0.00     0.000 C 
BRANCH   8   9
ATOM      9  C   UNL     1      52.539  22.137  17.966  1.00  0.00     0.000 C 
BRANCH   9  10
ATOM     10  C   UNL     1      51.818  22.991  19.018  1.00  0.00     0.006 C 
BRANCH  10  11
ATOM     11  C   UNL     1      51.153  22.136  20.106  1.00  0.00     0.053 C 
BRANCH  11  12
ATOM     12  C   UNL     1      52.138  21.667  21.131  1.00  0.00     0.041 C 
ATOM     13  O   UNL     1      52.687  22.494  21.906  1.00  0.00    -0.550 OA
ATOM     14  O   UNL     1      52.440  20.315  21.244  1.00  0.00    -0.550 OA
ENDBRANCH  11  12
ENDBRANCH  10  11
ENDBRANCH   9  10
ENDBRANCH   8   9
ENDBRANCH   7   8
ENDBRANCH   6   7
ENDBRANCH   5   6
ENDBRANCH   4   5
ENDBRANCH   3   4
ENDBRANCH   2   3
ENDBRANCH   1   2
BRANCH   1  15
ATOM     15  C   UNL     1      44.744  21.298  16.675  1.00  0.00     0.000 C 
BRANCH  15  16
ATOM     16  C   UNL     1      44.340  22.784  16.657  1.00  0.00     0.000 C 
BRANCH  16  17
ATOM     17  C   UNL     1      43.384  23.125  15.502  1.00  0.00     0.000 C 
BRANCH  17  18
ATOM     18  C   UNL     1      41.907  23.121  15.926  1.00  0.00    -0.000 C 
BRANCH  18  19
ATOM     19  C   UNL     1      40.940  23.080  14.731  1.00  0.00    -0.000 C 
BRANCH  19  20
ATOM     20  C   UNL     1      39.478  23.091  15.204  1.00  0.00    -0.000 C 
BRANCH  20  21
ATOM     21  C   UNL     1      38.567  22.188  14.356  1.00  0.00    -0.000 C 
BRANCH  21  22
ATOM     22  C   UNL     1      37.076  22.217  14.745  1.00  0.00    -0.000 C 
BRANCH  22  23
ATOM     23  C   UNL     1      36.720  21.299  15.935  1.00  0.00    -0.000 C 
BRANCH  23  24
ATOM     24  C   UNL     1      35.730  20.189  15.540  1.00  0.00    -0.000 C 
BRANCH  24  25
ATOM     25  C   UNL     1      35.276  20.294  14.075  1.00  0.00    -0.003 C 
ATOM     26  C   UNL     1      34.072  19.405  13.763  1.00  0.00     0.004 C 
ENDBRANCH  24  25
ENDBRANCH  23  24
ENDBRANCH  22  23
ENDBRANCH  21  22
ENDBRANCH  20  21
ENDBRANCH  19  20
ENDBRANCH  18  19
ENDBRANCH  17  18
ENDBRANCH  16  17
ENDBRANCH  15  16
ENDBRANCH   1  15
TORSDOF 22
ENDMDL
MODEL 2
REMARK VINA RESULT:     0.230      2.063      3.814
REMARK INTER + INTRA:          -0.770
REMARK INTER:                   0.174
REMARK INTRA:                  -0.945
REMARK UNBOUND:                -1.295
REMARK SMILES CCCCCCCCCCCCCCCCCCCCCCCC(=O)[O-]
REMARK SMILES IDX 13 1 14 2 15 3 16 4 17 5 18 6 19 7 20 8 21 9 22 10 23 11
REMARK SMILES IDX 24 12 25 13 26 14 12 15 11 16 10 17 9 18 8 19 7 20 6 21 5 22
REMARK SMILES IDX 4 23 3 24 2 25 1 26
REMARK H PARENT
REMARK Flexibility Score: inf
ROOT
ATOM      1  C   UNL     1      42.528  22.981  15.480  1.00  0.00     0.000 C 
ENDROOT
BRANCH   1   2
ATOM      2  C   UNL     1      43.455  23.006  16.711  1.00  0.00     0.000 C 
BRANCH   2   3
ATOM      3  C   UNL     1      44.962  22.945  16.390  1.00  0.00     0.000 C 
BRANCH   3   4
ATOM      4  C   UNL     1      45.483  21.551  15.985  1.00  0.00     0.000 C 
BRANCH   4   5
ATOM      5  C   UNL     1      46.908  21.217  16.472  1.00  0.00     0.000 C 
BRANCH   5   6
ATOM      6  C   UNL     1      47.801  22.436  16.775  1.00  0.00     0.000 C 
BRANCH   6   7
ATOM      7  C   UNL     1      49.277  22.200  16.414  1.00  0.00     0.000 C 
BRANCH   7   8
ATOM      8  C   UNL     1      50.243  22.805  17.446  1.00  0.00     0.000 C 
BRANCH   8   9
ATOM      9  C   UNL     1      49.799  22.561  18.896  1.00  0.00     0.000 C 
BRANCH   9  10
ATOM     10  C   UNL     1      51.007  22.580  19.844  1.00  0.00     0.006 C 
BRANCH  10  11
ATOM     11  C   UNL     1      50.595  22.773  21.310  1.00  0.00     0.053 C 
BRANCH  11  12
ATOM     12  C   UNL     1      51.659  22.311  22.258  1.00  0.00     0.041 C 
ATOM     13  O   UNL     1      52.548  21.509  21.868  1.00  0.00    -0.550 OA
ATOM     14  O   UNL     1      51.679  22.776  23.567  1.00  0.00    -0.550 OA
ENDBRANCH  11  12
ENDBRANCH  10  11
ENDBRANCH   9  10
ENDBRANCH   8   9
ENDBRANCH   7   8
ENDBRANCH   6   7
ENDBRANCH   5   6
ENDBRANCH   4   5
ENDBRANCH   3   4
ENDBRANCH   2   3
ENDBRANCH   1   2
BRANCH   1  15
ATOM     15  C   UNL     1      41.021  23.091  15.793  1.00  0.00     0.000 C 
BRANCH  15  16
ATOM     16  C   UNL     1      40.098  23.125  14.561  1.00  0.00     0.000 C 
BRANCH  16  17
ATOM     17  C   UNL     1      39.041  22.008  14.581  1.00  0.00     0.000 C 
BRANCH  17  18
ATOM     18  C   UNL     1      37.643  22.499  14.170  1.00  0.00    -0.000 C 
BRANCH  18  19
ATOM     19  C   UNL     1      36.706  22.712  15.370  1.00  0.00    -0.000 C 
BRANCH  19  20
ATOM     20  C   UNL     1      35.291  22.200  15.061  1.00  0.00    -0.000 C 
BRANCH  20  21
ATOM     21  C   UNL     1      34.766  22.677  13.696  1.00  0.00    -0.000 C 
BRANCH  21  22
ATOM     22  C   UNL     1      34.516  21.557  12.667  1.00  0.00    -0.000 C 
BRANCH  22  23
ATOM     23  C   UNL     1      33.825  22.037  11.372  1.00  0.00    -0.000 C 
BRANCH  23  24
ATOM     24  C   UNL     1      34.587  21.602  10.109  1.00  0.00    -0.000 C 
BRANCH  24  25
ATOM     25  C   UNL     1      36.105  21.516  10.332  1.00  0.00    -0.003 C 
ATOM     26  C   UNL     1      36.844  20.897   9.145  1.00  0.00     0.004 C 
ENDBRANCH  24  25
ENDBRANCH  23  24
ENDBRANCH  22  23
ENDBRANCH  21  22
ENDBRANCH  20  21
ENDBRANCH  19  20
ENDBRANCH  18  19
ENDBRANCH  17  18
ENDBRANCH  16  17
ENDBRANCH  15  16
ENDBRANCH   1  15
TORSDOF 22
ENDMDL
MODEL 3
REMARK VINA RESULT:     0.245      5.631     14.131
REMARK INTER + INTRA:          -0.736
REMARK INTER:                   0.418
REMARK INTRA:                  -1.154
REMARK UNBOUND:                -1.295
REMARK SMILES CCCCCCCCCCCCCCCCCCCCCCCC(=O)[O-]
REMARK SMILES IDX 13 1 14 2 15 3 16 4 17 5 18 6 19 7 20 8 21 9 22 10 23 11
REMARK SMILES IDX 24 12 25 13 26 14 12 15 11 16 10 17 9 18 8 19 7 20 6 21 5 22
REMARK SMILES IDX 4 23 3 24 2 25 1 26
REMARK H PARENT
REMARK Flexibility Score: inf
ROOT
ATOM      1  C   UNL     1      40.489  22.683  15.323  1.00  0.00     0.000 C 
ENDROOT
BRANCH   1   2
ATOM      2  C   UNL     1      39.511  22.966  14.166  1.00  0.00     0.000 C 
BRANCH   2   3
ATOM      3  C   UNL     1      38.019  22.903  14.546  1.00  0.00     0.000 C 
BRANCH   3   4
ATOM      4  C   UNL     1      37.576  21.587  15.217  1.00  0.00     0.000 C 
BRANCH   4   5
ATOM      5  C   UNL     1      36.056  21.446  15.446  1.00  0.00     0.000 C 
BRANCH   5   6
ATOM      6  C   UNL     1      35.436  20.127  14.945  1.00  0.00     0.000 C 
BRANCH   6   7
ATOM      7  C   UNL     1      34.101  20.335  14.212  1.00  0.00     0.000 C 
BRANCH   7   8
ATOM      8  C   UNL     1      33.526  21.746  14.418  1.00  0.00     0.000 C 
BRANCH   8   9
ATOM      9  C   UNL     1      33.378  22.530  13.105  1.00  0.00     0.000 C 
BRANCH   9  10
ATOM     10  C   UNL     1      34.209  21.883  11.988  1.00  0.00     0.006 C 
BRANCH  10  11
ATOM     11  C   UNL     1      35.558  22.586  11.783  1.00  0.00     0.053 C 
BRANCH  11  12
ATOM     12  C   UNL     1      36.307  22.031  10.610  1.00  0.00     0.041 C 
ATOM     13  O   UNL     1      37.261  22.679  10.105  1.00  0.00    -0.550 OA
ATOM     14  O   UNL     1      35.963  20.792  10.084  1.00  0.00    -0.550 OA
ENDBRANCH  11  12
ENDBRANCH  10  11
ENDBRANCH   9  10
ENDBRANCH   8   9
ENDBRANCH   7   8
ENDBRANCH   6   7
ENDBRANCH   5   6
ENDBRANCH   4   5
ENDBRANCH   3   4
ENDBRANCH   2   3
ENDBRANCH   1   2
BRANCH   1  15
ATOM     15  C   UNL     1      41.946  23.124  15.073  1.00  0.00     0.000 C 
BRANCH  15  16
ATOM     16  C   UNL     1      42.884  23.005  16.289  1.00  0.00     0.000 C 
BRANCH  16  17
ATOM     17  C   UNL     1      44.167  22.220  15.973  1.00  0.00     0.000 C 
BRANCH  17  18
ATOM     18  C   UNL     1      45.285  22.460  17.001  1.00  0.00    -0.000 C 
BRANCH  18  19
ATOM     19  C   UNL     1      46.529  23.125  16.388  1.00  0.00    -0.000 C 
BRANCH  19  20
ATOM     20  C   UNL     1      47.654  22.099  16.179  1.00  0.00    -0.000 C 
BRANCH  20  21
ATOM     21  C   UNL     1      48.931  22.441  16.966  1.00  0.00    -0.000 C 
BRANCH  21  22
ATOM     22  C   UNL     1      50.189  21.663  16.534  1.00  0.00    -0.000 C 
BRANCH  22  23
ATOM     23  C   UNL     1      50.145  21.156  15.076  1.00  0.00    -0.000 C 
BRANCH  23  24
ATOM     24  C   UNL     1      51.549  20.886  14.509  1.00  0.00    -0.000 C 
BRANCH  24  25
ATOM     25  C   UNL     1      52.669  21.264  15.492  1.00  0.00    -0.003 C 
ATOM     26  C   UNL     1      53.058  22.741  15.409  1.00  0.00     0.004 C 
ENDBRANCH  24  25
ENDBRANCH  23  24
ENDBRANCH  22  23
ENDBRANCH  21  22
ENDBRANCH  20  21
ENDBRANCH  19  20
ENDBRANCH  18  19
ENDBRANCH  17  18
ENDBRANCH  16  17
ENDBRANCH  15  16
ENDBRANCH   1  15
TORSDOF 22
ENDMDL
MODEL 4
REMARK VINA RESULT:     0.364      1.722      3.022
REMARK INTER + INTRA:          -0.463
REMARK INTER:                   0.534
REMARK INTRA:                  -0.997
REMARK UNBOUND:                -1.295
REMARK SMILES CCCCCCCCCCCCCCCCCCCCCCCC(=O)[O-]
REMARK SMILES IDX 13 1 14 2 15 3 16 4 17 5 18 6 19 7 20 8 21 9 22 10 23 11
REMARK SMILES IDX 24 12 25 13 26 14 12 15 11 16 10 17 9 18 8 19 7 20 6 21 5 22
REMARK SMILES IDX 4 23 3 24 2 25 1 26
REMARK H PARENT
REMARK Flexibility Score: inf
ROOT
ATOM      1  C   UNL     1      43.744  22.938  15.608  1.00  0.00     0.000 C 
ENDROOT
BRANCH   1   2
ATOM      2  C   UNL     1      44.718  23.085  16.794  1.00  0.00     0.000 C 
BRANCH   2   3
ATOM      3  C   UNL     1      46.133  22.526  16.546  1.00  0.00     0.000 C 
BRANCH   3   4
ATOM      4  C   UNL     1      47.233  23.125  17.446  1.00  0.00     0.000 C 
BRANCH   4   5
ATOM      5  C   UNL     1      48.496  22.253  17.605  1.00  0.00     0.000 C 
BRANCH   5   6
ATOM      6  C   UNL     1      49.712  22.966  18.227  1.00  0.00     0.000 C 
BRANCH   6   7
ATOM      7  C   UNL     1      51.033  22.220  17.980  1.00  0.00     0.000 C 
BRANCH   7   8
ATOM      8  C   UNL     1      52.207  22.816  18.775  1.00  0.00     0.000 C 
BRANCH   8   9
ATOM      9  C   UNL     1      51.932  22.888  20.285  1.00  0.00     0.000 C 
BRANCH   9  10
ATOM     10  C   UNL     1      51.982  21.488  20.914  1.00  0.00     0.006 C 
BRANCH  10  11
ATOM     11  C   UNL     1      50.641  21.085  21.543  1.00  0.00     0.053 C 
BRANCH  11  12
ATOM     12  C   UNL     1      50.083  22.167  22.416  1.00  0.00     0.041 C 
ATOM     13  O   UNL     1      48.902  22.570  22.247  1.00  0.00    -0.550 OA
ATOM     14  O   UNL     1      50.860  22.721  23.426  1.00  0.00    -0.550 OA
ENDBRANCH  11  12
ENDBRANCH  10  11
ENDBRANCH   9  10
ENDBRANCH   8   9
ENDBRANCH   7   8
ENDBRANCH   6   7
ENDBRANCH   5   6
ENDBRANCH   4   5
ENDBRANCH   3   4
ENDBRANCH   2   3
ENDBRANCH   1   2
BRANCH   1  15
ATOM     15  C   UNL     1      42.248  22.937  15.985  1.00  0.00     0.000 C 
BRANCH  15  16
ATOM     16  C   UNL     1      41.276  23.125  14.805  1.00  0.00     0.000 C 
BRANCH  16  17
ATOM     17  C   UNL     1      39.942  22.390  15.014  1.00  0.00     0.000 C 
BRANCH  17  18
ATOM     18  C   UNL     1      38.774  23.041  14.255  1.00  0.00    -0.000 C 
BRANCH  18  19
ATOM     19  C   UNL     1      37.402  22.492  14.682  1.00  0.00    -0.000 C 
BRANCH  19  20
ATOM     20  C   UNL     1      36.322  22.844  13.646  1.00  0.00    -0.000 C 
BRANCH  20  21
ATOM     21  C   UNL     1      34.894  22.696  14.197  1.00  0.00    -0.000 C 
BRANCH  21  22
ATOM     22  C   UNL     1      34.026  21.643  13.482  1.00  0.00    -0.000 C 
BRANCH  22  23
ATOM     23  C   UNL     1      33.910  20.303  14.241  1.00  0.00    -0.000 C 
BRANCH  23  24
ATOM     24  C   UNL     1      34.453  20.398  15.677  1.00  0.00    -0.000 C 
BRANCH  24  25
ATOM     25  C   UNL     1      34.162  19.136  16.507  1.00  0.00    -0.003 C 
ATOM     26  C   UNL     1      33.327  18.107  15.745  1.00  0.00     0.004 C 
ENDBRANCH  24  25
ENDBRANCH  23  24
ENDBRANCH  22  23
ENDBRANCH  21  22
ENDBRANCH  20  21
ENDBRANCH  19  20
ENDBRANCH  18  19
ENDBRANCH  17  18
ENDBRANCH  16  17
ENDBRANCH  15  16
ENDBRANCH   1  15
TORSDOF 22
ENDMDL
MODEL 5
REMARK VINA RESULT:     0.691      5.238     12.748
REMARK INTER + INTRA:           0.284
REMARK INTER:                   1.364
REMARK INTRA:                  -1.080
REMARK UNBOUND:                -1.295
REMARK SMILES CCCCCCCCCCCCCCCCCCCCCCCC(=O)[O-]
REMARK SMILES IDX 13 1 14 2 15 3 16 4 17 5 18 6 19 7 20 8 21 9 22 10 23 11
REMARK SMILES IDX 24 12 25 13 26 14 12 15 11 16 10 17 9 18 8 19 7 20 6 21 5 22
REMARK SMILES IDX 4 23 3 24 2 25 1 26
REMARK H PARENT
REMARK Flexibility Score: inf
ROOT
ATOM      1  C   UNL     1      47.430  21.175  16.251  1.00  0.00     0.000 C 
ENDROOT
BRANCH   1   2
ATOM      2  C   UNL     1      46.935  22.430  16.997  1.00  0.00     0.000 C 
BRANCH   2   3
ATOM      3  C   UNL     1      45.695  23.106  16.379  1.00  0.00     0.000 C 
BRANCH   3   4
ATOM      4  C   UNL     1      44.404  22.263  16.430  1.00  0.00     0.000 C 
BRANCH   4   5
ATOM      5  C   UNL     1      43.093  23.074  16.485  1.00  0.00     0.000 C 
BRANCH   5   6
ATOM      6  C   UNL     1      42.138  22.858  15.296  1.00  0.00     0.000 C 
BRANCH   6   7
ATOM      7  C   UNL     1      40.666  23.118  15.657  1.00  0.00     0.000 C 
BRANCH   7   8
ATOM      8  C   UNL     1      39.695  22.636  14.566  1.00  0.00     0.000 C 
BRANCH   8   9
ATOM      9  C   UNL     1      38.532  21.802  15.125  1.00  0.00     0.000 C 
BRANCH   9  10
ATOM     10  C   UNL     1      37.239  22.082  14.347  1.00  0.00     0.006 C 
BRANCH  10  11
ATOM     11  C   UNL     1      36.395  20.816  14.145  1.00  0.00     0.053 C 
BRANCH  11  12
ATOM     12  C   UNL     1      35.365  20.651  15.220  1.00  0.00     0.041 C 
ATOM     13  O   UNL     1      35.023  21.637  15.924  1.00  0.00    -0.550 OA
ATOM     14  O   UNL     1      34.770  19.414  15.435  1.00  0.00    -0.550 OA
ENDBRANCH  11  12
ENDBRANCH  10  11
ENDBRANCH   9  10
ENDBRANCH   8   9
ENDBRANCH   7   8
ENDBRANCH   6   7
ENDBRANCH   5   6
ENDBRANCH   4   5
ENDBRANCH   3   4
ENDBRANCH   2   3
ENDBRANCH   1   2
BRANCH   1  15
ATOM     15  C   UNL     1      48.959  21.084  16.066  1.00  0.00     0.000 C 
BRANCH  15  16
ATOM     16  C   UNL     1      49.420  20.385  14.773  1.00  0.00     0.000 C 
BRANCH  16  17
ATOM     17  C   UNL     1      50.683  21.023  14.172  1.00  0.00     0.000 C 
BRANCH  17  18
ATOM     18  C   UNL     1      51.911  20.898  15.089  1.00  0.00    -0.000 C 
BRANCH  18  19
ATOM     19  C   UNL     1      52.065  22.087  16.052  1.00  0.00    -0.000 C 
BRANCH  19  20
ATOM     20  C   UNL     1      52.946  21.712  17.254  1.00  0.00    -0.000 C 
BRANCH  20  21
ATOM     21  C   UNL     1      52.478  22.365  18.566  1.00  0.00    -0.000 C 
BRANCH  21  22
ATOM     22  C   UNL     1      50.978  22.716  18.620  1.00  0.00    -0.000 C 
BRANCH  22  23
ATOM     23  C   UNL     1      50.262  22.213  19.892  1.00  0.00    -0.000 C 
BRANCH  23  24
ATOM     24  C   UNL     1      51.251  21.735  20.969  1.00  0.00    -0.000 C 
BRANCH  24  25
ATOM     25  C   UNL     1      50.618  21.668  22.369  1.00  0.00    -0.003 C 
ATOM     26  C   UNL     1      49.198  22.233  22.404  1.00  0.00     0.004 C 
ENDBRANCH  24  25
ENDBRANCH  23  24
ENDBRANCH  22  23
ENDBRANCH  21  22
ENDBRANCH  20  21
ENDBRANCH  19  20
ENDBRANCH  18  19
ENDBRANCH  17  18
ENDBRANCH  16  17
ENDBRANCH  15  16
ENDBRANCH   1  15
TORSDOF 22
ENDMDL
MODEL 6
REMARK VINA RESULT:     0.709      1.342      2.642
REMARK INTER + INTRA:           0.327
REMARK INTER:                   1.237
REMARK INTRA:                  -0.910
REMARK UNBOUND:                -1.295
REMARK SMILES CCCCCCCCCCCCCCCCCCCCCCCC(=O)[O-]
REMARK SMILES IDX 13 1 14 2 15 3 16 4 17 5 18 6 19 7 20 8 21 9 22 10 23 11
REMARK SMILES IDX 24 12 25 13 26 14 12 15 11 16 10 17 9 18 8 19 7 20 6 21 5 22
REMARK SMILES IDX 4 23 3 24 2 25 1 26
REMARK H PARENT
REMARK Flexibility Score: inf
ROOT
ATOM      1  C   UNL     1      43.902  22.898  16.111  1.00  0.00     0.000 C 
ENDROOT
BRANCH   1   2
ATOM      2  C   UNL     1      44.793  22.999  17.365  1.00  0.00     0.000 C 
BRANCH   2   3
ATOM      3  C   UNL     1      46.306  23.092  17.081  1.00  0.00     0.000 C 
BRANCH   3   4
ATOM      4  C   UNL     1      47.035  21.735  17.000  1.00  0.00     0.000 C 
BRANCH   4   5
ATOM      5  C   UNL     1      48.522  21.765  17.409  1.00  0.00     0.000 C 
BRANCH   5   6
ATOM      6  C   UNL     1      49.489  22.289  16.330  1.00  0.00     0.000 C 
BRANCH   6   7
ATOM      7  C   UNL     1      50.793  21.479  16.252  1.00  0.00     0.000 C 
BRANCH   7   8
ATOM      8  C   UNL     1      52.018  22.356  15.945  1.00  0.00     0.000 C 
BRANCH   8   9
ATOM      9  C   UNL     1      52.912  22.588  17.173  1.00  0.00     0.000 C 
BRANCH   9  10
ATOM     10  C   UNL     1      52.120  22.374  18.471  1.00  0.00     0.006 C 
BRANCH  10  11
ATOM     11  C   UNL     1      53.004  21.863  19.616  1.00  0.00     0.053 C 
BRANCH  11  12
ATOM     12  C   UNL     1      52.193  21.395  20.785  1.00  0.00     0.041 C 
ATOM     13  O   UNL     1      50.965  21.157  20.648  1.00  0.00    -0.550 OA
ATOM     14  O   UNL     1      52.796  21.207  22.023  1.00  0.00    -0.550 OA
ENDBRANCH  11  12
ENDBRANCH  10  11
ENDBRANCH   9  10
ENDBRANCH   8   9
ENDBRANCH   7   8
ENDBRANCH   6   7
ENDBRANCH   5   6
ENDBRANCH   4   5
ENDBRANCH   3   4
ENDBRANCH   2   3
ENDBRANCH   1   2
BRANCH   1  15
ATOM     15  C   UNL     1      42.393  23.102  16.362  1.00  0.00     0.000 C 
BRANCH  15  16
ATOM     16  C   UNL     1      41.518  23.125  15.095  1.00  0.00     0.000 C 
BRANCH  16  17
ATOM     17  C   UNL     1      40.102  22.580  15.343  1.00  0.00     0.000 C 
BRANCH  17  18
ATOM     18  C   UNL     1      39.175  22.742  14.128  1.00  0.00    -0.000 C 
BRANCH  18  19
ATOM     19  C   UNL     1      37.737  23.125  14.517  1.00  0.00    -0.000 C 
BRANCH  19  20
ATOM     20  C   UNL     1      36.752  22.001  14.158  1.00  0.00    -0.000 C 
BRANCH  20  21
ATOM     21  C   UNL     1      35.857  21.590  15.340  1.00  0.00    -0.000 C 
BRANCH  21  22
ATOM     22  C   UNL     1      34.836  20.479  15.027  1.00  0.00    -0.000 C 
BRANCH  22  23
ATOM     23  C   UNL     1      33.689  20.926  14.095  1.00  0.00    -0.000 C 
BRANCH  23  24
ATOM     24  C   UNL     1      33.476  19.952  12.923  1.00  0.00    -0.000 C 
BRANCH  24  25
ATOM     25  C   UNL     1      34.044  20.486  11.597  1.00  0.00    -0.003 C 
ATOM     26  C   UNL     1      33.606  21.920  11.299  1.00  0.00     0.004 C 
ENDBRANCH  24  25
ENDBRANCH  23  24
ENDBRANCH  22  23
ENDBRANCH  21  22
ENDBRANCH  20  21
ENDBRANCH  19  20
ENDBRANCH  18  19
ENDBRANCH  17  18
ENDBRANCH  16  17
ENDBRANCH  15  16
ENDBRANCH   1  15
TORSDOF 22
ENDMDL
MODEL 7
REMARK VINA RESULT:     0.881      5.321     13.671
REMARK INTER + INTRA:           0.718
REMARK INTER:                   1.514
REMARK INTRA:                  -0.795
REMARK UNBOUND:                -1.295
REMARK SMILES CCCCCCCCCCCCCCCCCCCCCCCC(=O)[O-]
REMARK SMILES IDX 13 1 14 2 15 3 16 4 17 5 18 6 19 7 20 8 21 9 22 10 23 11
REMARK SMILES IDX 24 12 25 13 26 14 12 15 11 16 10 17 9 18 8 19 7 20 6 21 5 22
REMARK SMILES IDX 4 23 3 24 2 25 1 26
REMARK H PARENT
REMARK Flexibility Score: inf
ROOT
ATOM      1  C   UNL     1      44.003  21.746  16.207  1.00  0.00     0.000 C 
ENDROOT
BRANCH   1   2
ATOM      2  C   UNL     1      43.331  23.110  15.955  1.00  0.00     0.000 C 
BRANCH   2   3
ATOM      3  C   UNL     1      41.801  23.125  16.140  1.00  0.00     0.000 C 
BRANCH   3   4
ATOM      4  C   UNL     1      40.989  23.018  14.833  1.00  0.00     0.000 C 
BRANCH   4   5
ATOM      5  C   UNL     1      39.458  23.107  15.003  1.00  0.00     0.000 C 
BRANCH   5   6
ATOM      6  C   UNL     1      38.670  21.878  14.510  1.00  0.00     0.000 C 
BRANCH   6   7
ATOM      7  C   UNL     1      37.153  22.020  14.716  1.00  0.00     0.000 C 
BRANCH   7   8
ATOM      8  C   UNL     1      36.410  22.374  13.417  1.00  0.00     0.000 C 
BRANCH   8   9
ATOM      9  C   UNL     1      34.882  22.318  13.566  1.00  0.00     0.000 C 
BRANCH   9  10
ATOM     10  C   UNL     1      34.383  20.867  13.505  1.00  0.00     0.006 C 
BRANCH  10  11
ATOM     11  C   UNL     1      33.361  20.555  14.607  1.00  0.00     0.053 C 
BRANCH  11  12
ATOM     12  C   UNL     1      34.017  20.040  15.851  1.00  0.00     0.041 C 
ATOM     13  O   UNL     1      35.211  19.640  15.817  1.00  0.00    -0.550 OA
ATOM     14  O   UNL     1      33.318  20.014  17.052  1.00  0.00    -0.550 OA
ENDBRANCH  11  12
ENDBRANCH  10  11
ENDBRANCH   9  10
ENDBRANCH   8   9
ENDBRANCH   7   8
ENDBRANCH   6   7
ENDBRANCH   5   6
ENDBRANCH   4   5
ENDBRANCH   3   4
ENDBRANCH   2   3
ENDBRANCH   1   2
BRANCH   1  15
ATOM     15  C   UNL     1      45.285  21.796  17.064  1.00  0.00     0.000 C 
BRANCH  15  16
ATOM     16  C   UNL     1      46.074  23.116  16.983  1.00  0.00     0.000 C 
BRANCH  16  17
ATOM     17  C   UNL     1      47.272  23.033  16.023  1.00  0.00     0.000 C 
BRANCH  17  18
ATOM     18  C   UNL     1      48.543  22.490  16.696  1.00  0.00    -0.000 C 
BRANCH  18  19
ATOM     19  C   UNL     1      48.987  21.131  16.129  1.00  0.00    -0.000 C 
BRANCH  19  20
ATOM     20  C   UNL     1      49.872  21.315  14.886  1.00  0.00    -0.000 C 
BRANCH  20  21
ATOM     21  C   UNL     1      51.275  20.707  15.054  1.00  0.00    -0.000 C 
BRANCH  21  22
ATOM     22  C   UNL     1      52.441  21.694  14.853  1.00  0.00    -0.000 C 
BRANCH  22  23
ATOM     23  C   UNL     1      52.925  22.367  16.155  1.00  0.00    -0.000 C 
BRANCH  23  24
ATOM     24  C   UNL     1      51.906  22.228  17.298  1.00  0.00    -0.000 C 
BRANCH  24  25
ATOM     25  C   UNL     1      52.568  21.916  18.650  1.00  0.00    -0.003 C 
ATOM     26  C   UNL     1      51.643  22.179  19.839  1.00  0.00     0.004 C 
ENDBRANCH  24  25
ENDBRANCH  23  24
ENDBRANCH  22  23
ENDBRANCH  21  22
ENDBRANCH  20  21
ENDBRANCH  19  20
ENDBRANCH  18  19
ENDBRANCH  17  18
ENDBRANCH  16  17
ENDBRANCH  15  16
ENDBRANCH   1  15
TORSDOF 22
ENDMDL
