MODEL 1
REMARK VINA RESULT:    -5.323      0.000      0.000
REMARK INTER + INTRA:          -8.947
REMARK INTER:                  -8.124
REMARK INTRA:                  -0.823
REMARK UNBOUND:                -0.823
REMARK SMILES CCCCCCCCCCC(=O)[O-]
REMARK SMILES IDX 7 1 8 2 9 3 10 4 11 5 12 6 13 7 6 8 5 9 4 10 3 11 2 12 1 13
REMARK H PARENT
REMARK Flexibility Score: inf
ROOT
ATOM      1  C   UNL     1     101.439 305.963 194.773  1.00  0.00     0.000 C 
ENDROOT
BRANCH   1   2
ATOM      2  C   UNL     1     102.512 306.410 195.777  1.00  0.00     0.000 C 
BRANCH   2   3
ATOM      3  C   UNL     1     101.924 306.789 197.144  1.00  0.00     0.006 C 
BRANCH   3   4
ATOM      4  C   UNL     1     101.795 305.558 198.046  1.00  0.00     0.053 C 
BRANCH   4   5
ATOM      5  C   UNL     1     101.689 305.968 199.481  1.00  0.00     0.041 C 
ATOM      6  O   UNL     1     102.725 306.064 200.191  1.00  0.00    -0.550 OA
ATOM      7  O   UNL     1     100.451 306.292 200.022  1.00  0.00    -0.550 OA
ENDBRANCH   4   5
ENDBRANCH   3   4
ENDBRANCH   2   3
ENDBRANCH   1   2
BRANCH   1   8
ATOM      8  C   UNL     1     102.005 305.738 193.362  1.00  0.00     0.000 C 
BRANCH   8   9
ATOM      9  C   UNL     1     103.491 306.111 193.300  1.00  0.00    -0.000 C 
BRANCH   9  10
ATOM     10  C   UNL     1     103.718 307.311 192.368  1.00  0.00    -0.000 C 
BRANCH  10  11
ATOM     11  C   UNL     1     102.413 307.835 191.747  1.00  0.00    -0.000 C 
BRANCH  11  12
ATOM     12  C   UNL     1     102.139 309.303 192.100  1.00  0.00    -0.003 C 
ATOM     13  C   UNL     1     101.953 309.481 193.605  1.00  0.00     0.004 C 
ENDBRANCH  11  12
ENDBRANCH  10  11
ENDBRANCH   9  10
ENDBRANCH   8   9
ENDBRANCH   1   8
TORSDOF 9
ENDMDL
MODEL 2
REMARK VINA RESULT:    -5.275      0.964      1.421
REMARK INTER + INTRA:          -8.873
REMARK INTER:                  -8.387
REMARK INTRA:                  -0.486
REMARK UNBOUND:                -0.823
REMARK SMILES CCCCCCCCCCC(=O)[O-]
REMARK SMILES IDX 7 1 8 2 9 3 10 4 11 5 12 6 13 7 6 8 5 9 4 10 3 11 2 12 1 13
REMARK H PARENT
REMARK Flexibility Score: inf
ROOT
ATOM      1  C   UNL     1     101.489 306.038 194.624  1.00  0.00     0.000 C 
ENDROOT
BRANCH   1   2
ATOM      2  C   UNL     1     102.528 306.498 195.658  1.00  0.00     0.000 C 
BRANCH   2   3
ATOM      3  C   UNL     1     101.893 306.913 196.993  1.00  0.00     0.006 C 
BRANCH   3   4
ATOM      4  C   UNL     1     101.824 305.728 197.960  1.00  0.00     0.053 C 
BRANCH   4   5
ATOM      5  C   UNL     1     101.573 306.203 199.356  1.00  0.00     0.041 C 
ATOM      6  O   UNL     1     100.696 305.644 200.067  1.00  0.00    -0.550 OA
ATOM      7  O   UNL     1     102.340 307.231 199.890  1.00  0.00    -0.550 OA
ENDBRANCH   4   5
ENDBRANCH   3   4
ENDBRANCH   2   3
ENDBRANCH   1   2
BRANCH   1   8
ATOM      8  C   UNL     1     102.106 305.770 193.243  1.00  0.00     0.000 C 
BRANCH   8   9
ATOM      9  C   UNL     1     103.548 306.287 193.176  1.00  0.00    -0.000 C 
BRANCH   9  10
ATOM     10  C   UNL     1     103.672 307.440 192.168  1.00  0.00    -0.000 C 
BRANCH  10  11
ATOM     11  C   UNL     1     102.322 307.832 191.547  1.00  0.00    -0.000 C 
BRANCH  11  12
ATOM     12  C   UNL     1     102.451 308.973 190.527  1.00  0.00    -0.003 C 
ATOM     13  C   UNL     1     103.908 309.395 190.355  1.00  0.00     0.004 C 
ENDBRANCH  11  12
ENDBRANCH  10  11
ENDBRANCH   9  10
ENDBRANCH   8   9
ENDBRANCH   1   8
TORSDOF 9
ENDMDL
MODEL 3
REMARK VINA RESULT:    -5.196      4.241      6.871
REMARK INTER + INTRA:          -8.754
REMARK INTER:                  -8.362
REMARK INTRA:                  -0.392
REMARK UNBOUND:                -0.823
REMARK SMILES CCCCCCCCCCC(=O)[O-]
REMARK SMILES IDX 7 1 8 2 9 3 10 4 11 5 12 6 13 7 6 8 5 9 4 10 3 11 2 12 1 13
REMARK H PARENT
REMARK Flexibility Score: inf
ROOT
ATOM      1  C   UNL     1     101.981 305.857 193.417  1.00  0.00     0.000 C 
ENDROOT
BRANCH   1   2
ATOM      2  C   UNL     1     103.473 306.172 193.235  1.00  0.00     0.000 C 
BRANCH   2   3
ATOM      3  C   UNL     1     103.714 307.460 192.435  1.00  0.00     0.006 C 
BRANCH   3   4
ATOM      4  C   UNL     1     102.466 307.853 191.638  1.00  0.00     0.053 C 
BRANCH   4   5
ATOM      5  C   UNL     1     102.822 308.808 190.544  1.00  0.00     0.041 C 
ATOM      6  O   UNL     1     101.934 309.226 189.754  1.00  0.00    -0.550 OA
ATOM      7  O   UNL     1     104.124 309.277 190.425  1.00  0.00    -0.550 OA
ENDBRANCH   4   5
ENDBRANCH   3   4
ENDBRANCH   2   3
ENDBRANCH   1   2
BRANCH   1   8
ATOM      8  C   UNL     1     101.443 306.305 194.784  1.00  0.00     0.000 C 
BRANCH   8   9
ATOM      9  C   UNL     1     102.569 306.374 195.822  1.00  0.00    -0.000 C 
BRANCH   9  10
ATOM     10  C   UNL     1     102.159 305.674 197.127  1.00  0.00    -0.000 C 
BRANCH  10  11
ATOM     11  C   UNL     1     101.732 306.665 198.222  1.00  0.00    -0.000 C 
BRANCH  11  12
ATOM     12  C   UNL     1     101.409 305.971 199.553  1.00  0.00    -0.003 C 
ATOM     13  C   UNL     1     102.502 306.229 200.586  1.00  0.00     0.004 C 
ENDBRANCH  11  12
ENDBRANCH  10  11
ENDBRANCH   9  10
ENDBRANCH   8   9
ENDBRANCH   1   8
TORSDOF 9
ENDMDL
MODEL 4
REMARK VINA RESULT:    -5.092      5.118      7.128
REMARK INTER + INTRA:          -8.595
REMARK INTER:                  -7.696
REMARK INTRA:                  -0.899
REMARK UNBOUND:                -0.823
REMARK SMILES CCCCCCCCCCC(=O)[O-]
REMARK SMILES IDX 7 1 8 2 9 3 10 4 11 5 12 6 13 7 6 8 5 9 4 10 3 11 2 12 1 13
REMARK H PARENT
REMARK Flexibility Score: inf
ROOT
ATOM      1  C   UNL     1     103.714 307.343 192.355  1.00  0.00     0.000 C 
ENDROOT
BRANCH   1   2
ATOM      2  C   UNL     1     102.423 307.680 191.595  1.00  0.00     0.000 C 
BRANCH   2   3
ATOM      3  C   UNL     1     102.381 309.137 191.113  1.00  0.00     0.006 C 
BRANCH   3   4
ATOM      4  C   UNL     1     101.780 309.233 189.708  1.00  0.00     0.053 C 
BRANCH   4   5
ATOM      5  C   UNL     1     102.625 310.103 188.833  1.00  0.00     0.041 C 
ATOM      6  O   UNL     1     103.689 310.609 189.280  1.00  0.00    -0.550 OA
ATOM      7  O   UNL     1     102.265 310.318 187.508  1.00  0.00    -0.550 OA
ENDBRANCH   4   5
ENDBRANCH   3   4
ENDBRANCH   2   3
ENDBRANCH   1   2
BRANCH   1   8
ATOM      8  C   UNL     1     103.512 306.244 193.410  1.00  0.00     0.000 C 
BRANCH   8   9
ATOM      9  C   UNL     1     102.064 305.741 193.408  1.00  0.00    -0.000 C 
BRANCH   9  10
ATOM     10  C   UNL     1     101.381 306.023 194.755  1.00  0.00    -0.000 C 
BRANCH  10  11
ATOM     11  C   UNL     1     102.293 306.778 195.735  1.00  0.00    -0.000 C 
BRANCH  11  12
ATOM     12  C   UNL     1     101.692 308.114 196.192  1.00  0.00    -0.003 C 
ATOM     13  C   UNL     1     101.615 309.106 195.034  1.00  0.00     0.004 C 
ENDBRANCH  11  12
ENDBRANCH  10  11
ENDBRANCH   9  10
ENDBRANCH   8   9
ENDBRANCH   1   8
TORSDOF 9
ENDMDL
MODEL 5
REMARK VINA RESULT:    -5.071      1.824      2.375
REMARK INTER + INTRA:          -8.562
REMARK INTER:                  -8.177
REMARK INTRA:                  -0.385
REMARK UNBOUND:                -0.823
REMARK SMILES CCCCCCCCCCC(=O)[O-]
REMARK SMILES IDX 7 1 8 2 9 3 10 4 11 5 12 6 13 7 6 8 5 9 4 10 3 11 2 12 1 13
REMARK H PARENT
REMARK Flexibility Score: inf
ROOT
ATOM      1  C   UNL     1     102.264 305.837 193.216  1.00  0.00     0.000 C 
ENDROOT
BRANCH   1   2
ATOM      2  C   UNL     1     101.425 305.984 194.495  1.00  0.00     0.000 C 
BRANCH   2   3
ATOM      3  C   UNL     1     102.219 306.593 195.659  1.00  0.00     0.006 C 
BRANCH   3   4
ATOM      4  C   UNL     1     102.028 305.777 196.941  1.00  0.00     0.053 C 
BRANCH   4   5
ATOM      5  C   UNL     1     101.694 306.675 198.089  1.00  0.00     0.041 C 
ATOM      6  O   UNL     1     101.933 307.910 198.019  1.00  0.00    -0.550 OA
ATOM      7  O   UNL     1     101.074 306.157 199.220  1.00  0.00    -0.550 OA
ENDBRANCH   4   5
ENDBRANCH   3   4
ENDBRANCH   2   3
ENDBRANCH   1   2
BRANCH   1   8
ATOM      8  C   UNL     1     102.206 307.086 192.323  1.00  0.00     0.000 C 
BRANCH   8   9
ATOM      9  C   UNL     1     103.613 307.631 192.050  1.00  0.00    -0.000 C 
BRANCH   9  10
ATOM     10  C   UNL     1     103.587 308.685 190.932  1.00  0.00    -0.000 C 
BRANCH  10  11
ATOM     11  C   UNL     1     102.160 309.071 190.514  1.00  0.00    -0.000 C 
BRANCH  11  12
ATOM     12  C   UNL     1     102.086 309.590 189.072  1.00  0.00    -0.003 C 
ATOM     13  C   UNL     1     100.728 309.284 188.446  1.00  0.00     0.004 C 
ENDBRANCH  11  12
ENDBRANCH  10  11
ENDBRANCH   9  10
ENDBRANCH   8   9
ENDBRANCH   1   8
TORSDOF 9
ENDMDL
MODEL 6
REMARK VINA RESULT:    -5.054     19.814     20.523
REMARK INTER + INTRA:          -8.537
REMARK INTER:                  -8.117
REMARK INTRA:                  -0.420
REMARK UNBOUND:                -0.823
REMARK SMILES CCCCCCCCCCC(=O)[O-]
REMARK SMILES IDX 7 1 8 2 9 3 10 4 11 5 12 6 13 7 6 8 5 9 4 10 3 11 2 12 1 13
REMARK H PARENT
REMARK Flexibility Score: inf
ROOT
ATOM      1  C   UNL     1      87.249 320.398 195.703  1.00  0.00     0.000 C 
ENDROOT
BRANCH   1   2
ATOM      2  C   UNL     1      86.276 320.372 196.891  1.00  0.00     0.000 C 
BRANCH   2   3
ATOM      3  C   UNL     1      86.939 320.792 198.211  1.00  0.00     0.006 C 
BRANCH   3   4
ATOM      4  C   UNL     1      87.465 319.573 198.973  1.00  0.00     0.053 C 
BRANCH   4   5
ATOM      5  C   UNL     1      87.672 319.905 200.417  1.00  0.00     0.041 C 
ATOM      6  O   UNL     1      88.443 320.845 200.746  1.00  0.00    -0.550 OA
ATOM      7  O   UNL     1      86.977 319.209 201.397  1.00  0.00    -0.550 OA
ENDBRANCH   4   5
ENDBRANCH   3   4
ENDBRANCH   2   3
ENDBRANCH   1   2
BRANCH   1   8
ATOM      8  C   UNL     1      86.593 320.905 194.410  1.00  0.00     0.000 C 
BRANCH   8   9
ATOM      9  C   UNL     1      85.110 320.519 194.359  1.00  0.00    -0.000 C 
BRANCH   9  10
ATOM     10  C   UNL     1      84.879 319.351 193.388  1.00  0.00    -0.000 C 
BRANCH  10  11
ATOM     11  C   UNL     1      86.160 318.933 192.649  1.00  0.00    -0.000 C 
BRANCH  11  12
ATOM     12  C   UNL     1      85.878 318.014 191.452  1.00  0.00    -0.003 C 
ATOM     13  C   UNL     1      84.502 317.363 191.570  1.00  0.00     0.004 C 
ENDBRANCH  11  12
ENDBRANCH  10  11
ENDBRANCH   9  10
ENDBRANCH   8   9
ENDBRANCH   1   8
TORSDOF 9
ENDMDL
MODEL 7
REMARK VINA RESULT:    -5.019      4.949      7.393
REMARK INTER + INTRA:          -8.483
REMARK INTER:                  -8.117
REMARK INTRA:                  -0.366
REMARK UNBOUND:                -0.823
REMARK SMILES CCCCCCCCCCC(=O)[O-]
REMARK SMILES IDX 7 1 8 2 9 3 10 4 11 5 12 6 13 7 6 8 5 9 4 10 3 11 2 12 1 13
REMARK H PARENT
REMARK Flexibility Score: inf
ROOT
ATOM      1  C   UNL     1     102.244 307.330 192.479  1.00  0.00     0.000 C 
ENDROOT
BRANCH   1   2
ATOM      2  C   UNL     1     103.668 307.722 192.055  1.00  0.00     0.000 C 
BRANCH   2   3
ATOM      3  C   UNL     1     103.686 308.776 190.940  1.00  0.00     0.006 C 
BRANCH   3   4
ATOM      4  C   UNL     1     102.330 308.850 190.232  1.00  0.00     0.053 C 
BRANCH   4   5
ATOM      5  C   UNL     1     102.394 309.790 189.071  1.00  0.00     0.041 C 
ATOM      6  O   UNL     1     101.426 309.876 188.270  1.00  0.00    -0.550 OA
ATOM      7  O   UNL     1     103.504 310.608 188.898  1.00  0.00    -0.550 OA
ENDBRANCH   4   5
ENDBRANCH   3   4
ENDBRANCH   2   3
ENDBRANCH   1   2
BRANCH   1   8
ATOM      8  C   UNL     1     102.172 305.918 193.080  1.00  0.00     0.000 C 
BRANCH   8   9
ATOM      9  C   UNL     1     101.592 305.953 194.499  1.00  0.00    -0.000 C 
BRANCH   9  10
ATOM     10  C   UNL     1     102.587 306.584 195.484  1.00  0.00    -0.000 C 
BRANCH  10  11
ATOM     11  C   UNL     1     101.980 306.805 196.879  1.00  0.00    -0.000 C 
BRANCH  11  12
ATOM     12  C   UNL     1     101.901 305.511 197.701  1.00  0.00    -0.003 C 
ATOM     13  C   UNL     1     101.572 305.808 199.162  1.00  0.00     0.004 C 
ENDBRANCH  11  12
ENDBRANCH  10  11
ENDBRANCH   9  10
ENDBRANCH   8   9
ENDBRANCH   1   8
TORSDOF 9
ENDMDL
MODEL 8
REMARK VINA RESULT:    -5.004      3.330      3.997
REMARK INTER + INTRA:          -8.460
REMARK INTER:                  -7.415
REMARK INTRA:                  -1.045
REMARK UNBOUND:                -0.823
REMARK SMILES CCCCCCCCCCC(=O)[O-]
REMARK SMILES IDX 7 1 8 2 9 3 10 4 11 5 12 6 13 7 6 8 5 9 4 10 3 11 2 12 1 13
REMARK H PARENT
REMARK Flexibility Score: inf
ROOT
ATOM      1  C   UNL     1     101.574 306.170 194.931  1.00  0.00     0.000 C 
ENDROOT
BRANCH   1   2
ATOM      2  C   UNL     1     102.420 307.287 195.559  1.00  0.00     0.000 C 
BRANCH   2   3
ATOM      3  C   UNL     1     101.623 308.581 195.783  1.00  0.00     0.006 C 
BRANCH   3   4
ATOM      4  C   UNL     1     101.662 309.471 194.538  1.00  0.00     0.053 C 
BRANCH   4   5
ATOM      5  C   UNL     1     102.808 310.429 194.612  1.00  0.00     0.041 C 
ATOM      6  O   UNL     1     103.867 310.202 193.969  1.00  0.00    -0.550 OA
ATOM      7  O   UNL     1     102.690 311.598 195.354  1.00  0.00    -0.550 OA
ENDBRANCH   4   5
ENDBRANCH   3   4
ENDBRANCH   2   3
ENDBRANCH   1   2
BRANCH   1   8
ATOM      8  C   UNL     1     101.964 305.879 193.474  1.00  0.00     0.000 C 
BRANCH   8   9
ATOM      9  C   UNL     1     103.444 306.195 193.228  1.00  0.00    -0.000 C 
BRANCH   9  10
ATOM     10  C   UNL     1     103.602 307.284 192.155  1.00  0.00    -0.000 C 
BRANCH  10  11
ATOM     11  C   UNL     1     102.264 307.682 191.512  1.00  0.00    -0.000 C 
BRANCH  11  12
ATOM     12  C   UNL     1     102.411 308.830 190.504  1.00  0.00    -0.003 C 
ATOM     13  C   UNL     1     103.863 309.291 190.404  1.00  0.00     0.004 C 
ENDBRANCH  11  12
ENDBRANCH  10  11
ENDBRANCH   9  10
ENDBRANCH   8   9
ENDBRANCH   1   8
TORSDOF 9
ENDMDL
MODEL 9
REMARK VINA RESULT:    -4.987      4.265      5.817
REMARK INTER + INTRA:          -8.435
REMARK INTER:                  -7.231
REMARK INTRA:                  -1.204
REMARK UNBOUND:                -0.823
REMARK SMILES CCCCCCCCCCC(=O)[O-]
REMARK SMILES IDX 7 1 8 2 9 3 10 4 11 5 12 6 13 7 6 8 5 9 4 10 3 11 2 12 1 13
REMARK H PARENT
REMARK Flexibility Score: inf
ROOT
ATOM      1  C   UNL     1     101.901 306.000 193.568  1.00  0.00     0.000 C 
ENDROOT
BRANCH   1   2
ATOM      2  C   UNL     1     103.422 306.150 193.414  1.00  0.00     0.000 C 
BRANCH   2   3
ATOM      3  C   UNL     1     103.811 307.246 192.410  1.00  0.00     0.006 C 
BRANCH   3   4
ATOM      4  C   UNL     1     102.582 307.759 191.654  1.00  0.00     0.053 C 
BRANCH   4   5
ATOM      5  C   UNL     1     102.939 308.947 190.818  1.00  0.00     0.041 C 
ATOM      6  O   UNL     1     104.123 309.110 190.421  1.00  0.00    -0.550 OA
ATOM      7  O   UNL     1     101.954 309.850 190.437  1.00  0.00    -0.550 OA
ENDBRANCH   4   5
ENDBRANCH   3   4
ENDBRANCH   2   3
ENDBRANCH   1   2
BRANCH   1   8
ATOM      8  C   UNL     1     101.455 305.972 195.038  1.00  0.00     0.000 C 
BRANCH   8   9
ATOM      9  C   UNL     1     102.522 306.590 195.949  1.00  0.00    -0.000 C 
BRANCH   9  10
ATOM     10  C   UNL     1     101.979 307.835 196.667  1.00  0.00    -0.000 C 
BRANCH  10  11
ATOM     11  C   UNL     1     101.310 308.830 195.705  1.00  0.00    -0.000 C 
BRANCH  11  12
ATOM     12  C   UNL     1     102.327 309.621 194.871  1.00  0.00    -0.003 C 
ATOM     13  C   UNL     1     101.625 310.601 193.934  1.00  0.00     0.004 C 
ENDBRANCH  11  12
ENDBRANCH  10  11
ENDBRANCH   9  10
ENDBRANCH   8   9
ENDBRANCH   1   8
TORSDOF 9
ENDMDL
