MODEL 1
REMARK VINA RESULT:    -4.535      0.000      0.000
REMARK INTER + INTRA:         -16.138
REMARK INTER:                 -11.960
REMARK INTRA:                  -4.179
REMARK UNBOUND:                -4.179
REMARK SMILES CCCCCCCCCCCCCCCCCCCCCCCCCCCCCC(=O)[O-]
REMARK SMILES IDX 16 1 17 2 18 3 19 4 20 5 21 6 22 7 23 8 24 9 25 10 26 11
REMARK SMILES IDX 27 12 28 13 29 14 30 15 31 16 32 17 15 18 14 19 13 20 12 21
REMARK SMILES IDX 11 22 10 23 9 24 8 25 7 26 6 27 5 28 4 29 3 30 2 31 1 32
REMARK H PARENT
REMARK Flexibility Score: inf
ROOT
ATOM      1  C   UNL     1     -50.007  12.427 -30.019  1.00  0.00     0.000 C 
ENDROOT
BRANCH   1   2
ATOM      2  C   UNL     1     -50.933  11.535 -30.870  1.00  0.00     0.000 C 
BRANCH   2   3
ATOM      3  C   UNL     1     -51.999  12.287 -31.691  1.00  0.00     0.000 C 
BRANCH   3   4
ATOM      4  C   UNL     1     -53.339  12.527 -30.971  1.00  0.00     0.000 C 
BRANCH   4   5
ATOM      5  C   UNL     1     -53.449  11.781 -29.632  1.00  0.00     0.000 C 
BRANCH   5   6
ATOM      6  C   UNL     1     -53.372  12.720 -28.416  1.00  0.00     0.000 C 
BRANCH   6   7
ATOM      7  C   UNL     1     -53.983  14.115 -28.665  1.00  0.00     0.000 C 
BRANCH   7   8
ATOM      8  C   UNL     1     -52.952  15.246 -28.494  1.00  0.00     0.000 C 
BRANCH   8   9
ATOM      9  C   UNL     1     -53.353  16.229 -27.370  1.00  0.00     0.000 C 
BRANCH   9  10
ATOM     10  C   UNL     1     -53.820  17.599 -27.889  1.00  0.00     0.000 C 
BRANCH  10  11
ATOM     11  C   UNL     1     -54.026  17.622 -29.410  1.00  0.00     0.000 C 
BRANCH  11  12
ATOM     12  C   UNL     1     -53.392  18.874 -30.035  1.00  0.00     0.000 C 
BRANCH  12  13
ATOM     13  C   UNL     1     -52.412  18.543 -31.173  1.00  0.00     0.006 C 
BRANCH  13  14
ATOM     14  C   UNL     1     -51.201  17.727 -30.701  1.00  0.00     0.053 C 
BRANCH  14  15
ATOM     15  C   UNL     1     -51.129  16.408 -31.406  1.00  0.00     0.041 C 
ATOM     16  O   UNL     1     -50.015  15.865 -31.628  1.00  0.00    -0.550 OA
ATOM     17  O   UNL     1     -52.295  15.793 -31.851  1.00  0.00    -0.550 OA
ENDBRANCH  14  15
ENDBRANCH  13  14
ENDBRANCH  12  13
ENDBRANCH  11  12
ENDBRANCH  10  11
ENDBRANCH   9  10
ENDBRANCH   8   9
ENDBRANCH   7   8
ENDBRANCH   6   7
ENDBRANCH   5   6
ENDBRANCH   4   5
ENDBRANCH   3   4
ENDBRANCH   2   3
ENDBRANCH   1   2
BRANCH   1  18
ATOM     18  C   UNL     1     -49.028  11.667 -29.105  1.00  0.00     0.000 C 
BRANCH  18  19
ATOM     19  C   UNL     1     -49.032  10.151 -29.357  1.00  0.00     0.000 C 
BRANCH  19  20
ATOM     20  C   UNL     1     -47.614   9.569 -29.478  1.00  0.00     0.000 C 
BRANCH  20  21
ATOM     21  C   UNL     1     -47.416   8.753 -30.769  1.00  0.00     0.000 C 
BRANCH  21  22
ATOM     22  C   UNL     1     -48.504   9.036 -31.817  1.00  0.00     0.000 C 
BRANCH  22  23
ATOM     23  C   UNL     1     -48.268   8.274 -33.132  1.00  0.00     0.000 C 
BRANCH  23  24
ATOM     24  C   UNL     1     -48.427   6.752 -32.977  1.00  0.00    -0.000 C 
BRANCH  24  25
ATOM     25  C   UNL     1     -49.844   6.208 -33.254  1.00  0.00    -0.000 C 
BRANCH  25  26
ATOM     26  C   UNL     1     -50.908   7.276 -33.567  1.00  0.00    -0.000 C 
BRANCH  26  27
ATOM     27  C   UNL     1     -52.303   6.680 -33.818  1.00  0.00    -0.000 C 
BRANCH  27  28
ATOM     28  C   UNL     1     -53.427   7.721 -33.693  1.00  0.00    -0.000 C 
BRANCH  28  29
ATOM     29  C   UNL     1     -53.243   8.695 -32.511  1.00  0.00    -0.000 C 
BRANCH  29  30
ATOM     30  C   UNL     1     -53.739   8.097 -31.185  1.00  0.00    -0.000 C 
BRANCH  30  31
ATOM     31  C   UNL     1     -52.757   8.386 -30.046  1.00  0.00    -0.003 C 
ATOM     32  C   UNL     1     -51.533   7.475 -30.130  1.00  0.00     0.004 C 
ENDBRANCH  30  31
ENDBRANCH  29  30
ENDBRANCH  28  29
ENDBRANCH  27  28
ENDBRANCH  26  27
ENDBRANCH  25  26
ENDBRANCH  24  25
ENDBRANCH  23  24
ENDBRANCH  22  23
ENDBRANCH  21  22
ENDBRANCH  20  21
ENDBRANCH  19  20
ENDBRANCH  18  19
ENDBRANCH   1  18
TORSDOF 28
ENDMDL
MODEL 2
REMARK VINA RESULT:    -4.305      2.864      9.041
REMARK INTER + INTRA:         -15.530
REMARK INTER:                 -11.251
REMARK INTRA:                  -4.279
REMARK UNBOUND:                -4.179
REMARK SMILES CCCCCCCCCCCCCCCCCCCCCCCCCCCCCC(=O)[O-]
REMARK SMILES IDX 16 1 17 2 18 3 19 4 20 5 21 6 22 7 23 8 24 9 25 10 26 11
REMARK SMILES IDX 27 12 28 13 29 14 30 15 31 16 32 17 15 18 14 19 13 20 12 21
REMARK SMILES IDX 11 22 10 23 9 24 8 25 7 26 6 27 5 28 4 29 3 30 2 31 1 32
REMARK H PARENT
REMARK Flexibility Score: inf
ROOT
ATOM      1  C   UNL     1     -52.789  11.708 -32.054  1.00  0.00     0.000 C 
ENDROOT
BRANCH   1   2
ATOM      2  C   UNL     1     -52.259  10.415 -32.707  1.00  0.00     0.000 C 
BRANCH   2   3
ATOM      3  C   UNL     1     -52.915   9.111 -32.212  1.00  0.00     0.000 C 
BRANCH   3   4
ATOM      4  C   UNL     1     -52.270   8.481 -30.963  1.00  0.00     0.000 C 
BRANCH   4   5
ATOM      5  C   UNL     1     -52.294   6.944 -30.980  1.00  0.00     0.000 C 
BRANCH   5   6
ATOM      6  C   UNL     1     -52.935   6.370 -32.255  1.00  0.00     0.000 C 
BRANCH   6   7
ATOM      7  C   UNL     1     -51.915   5.955 -33.335  1.00  0.00     0.000 C 
BRANCH   7   8
ATOM      8  C   UNL     1     -50.478   5.884 -32.788  1.00  0.00     0.000 C 
BRANCH   8   9
ATOM      9  C   UNL     1     -49.429   6.223 -33.872  1.00  0.00     0.000 C 
BRANCH   9  10
ATOM     10  C   UNL     1     -48.146   6.857 -33.311  1.00  0.00     0.000 C 
BRANCH  10  11
ATOM     11  C   UNL     1     -48.175   8.392 -33.343  1.00  0.00     0.000 C 
BRANCH  11  12
ATOM     12  C   UNL     1     -48.756   8.962 -32.040  1.00  0.00     0.000 C 
BRANCH  12  13
ATOM     13  C   UNL     1     -47.733   8.990 -30.892  1.00  0.00     0.006 C 
BRANCH  13  14
ATOM     14  C   UNL     1     -48.204   8.218 -29.652  1.00  0.00     0.053 C 
BRANCH  14  15
ATOM     15  C   UNL     1     -47.319   7.042 -29.379  1.00  0.00     0.041 C 
ATOM     16  O   UNL     1     -47.362   6.026 -30.124  1.00  0.00    -0.550 OA
ATOM     17  O   UNL     1     -46.469   7.051 -28.278  1.00  0.00    -0.550 OA
ENDBRANCH  14  15
ENDBRANCH  13  14
ENDBRANCH  12  13
ENDBRANCH  11  12
ENDBRANCH  10  11
ENDBRANCH   9  10
ENDBRANCH   8   9
ENDBRANCH   7   8
ENDBRANCH   6   7
ENDBRANCH   5   6
ENDBRANCH   4   5
ENDBRANCH   3   4
ENDBRANCH   2   3
ENDBRANCH   1   2
BRANCH   1  18
ATOM     18  C   UNL     1     -53.497  11.513 -30.701  1.00  0.00     0.000 C 
BRANCH  18  19
ATOM     19  C   UNL     1     -53.988  12.836 -30.089  1.00  0.00     0.000 C 
BRANCH  19  20
ATOM     20  C   UNL     1     -53.862  12.859 -28.557  1.00  0.00     0.000 C 
BRANCH  20  21
ATOM     21  C   UNL     1     -53.806  14.289 -27.988  1.00  0.00     0.000 C 
BRANCH  21  22
ATOM     22  C   UNL     1     -54.097  15.357 -29.053  1.00  0.00     0.000 C 
BRANCH  22  23
ATOM     23  C   UNL     1     -54.017  16.787 -28.491  1.00  0.00     0.000 C 
BRANCH  23  24
ATOM     24  C   UNL     1     -53.464  17.798 -29.511  1.00  0.00    -0.000 C 
BRANCH  24  25
ATOM     25  C   UNL     1     -51.949  18.070 -29.410  1.00  0.00    -0.000 C 
BRANCH  25  26
ATOM     26  C   UNL     1     -51.149  17.825 -30.703  1.00  0.00    -0.000 C 
BRANCH  26  27
ATOM     27  C   UNL     1     -51.677  16.634 -31.520  1.00  0.00    -0.000 C 
BRANCH  27  28
ATOM     28  C   UNL     1     -50.655  15.491 -31.636  1.00  0.00    -0.000 C 
BRANCH  28  29
ATOM     29  C   UNL     1     -50.830  14.392 -30.567  1.00  0.00    -0.000 C 
BRANCH  29  30
ATOM     30  C   UNL     1     -49.743  13.311 -30.665  1.00  0.00    -0.000 C 
BRANCH  30  31
ATOM     31  C   UNL     1     -49.493  12.654 -29.304  1.00  0.00    -0.003 C 
ATOM     32  C   UNL     1     -50.260  11.338 -29.180  1.00  0.00     0.004 C 
ENDBRANCH  30  31
ENDBRANCH  29  30
ENDBRANCH  28  29
ENDBRANCH  27  28
ENDBRANCH  26  27
ENDBRANCH  25  26
ENDBRANCH  24  25
ENDBRANCH  23  24
ENDBRANCH  22  23
ENDBRANCH  21  22
ENDBRANCH  20  21
ENDBRANCH  19  20
ENDBRANCH  18  19
ENDBRANCH   1  18
TORSDOF 28
ENDMDL
MODEL 3
REMARK VINA RESULT:    -4.160      2.131      8.456
REMARK INTER + INTRA:         -15.147
REMARK INTER:                 -11.194
REMARK INTRA:                  -3.952
REMARK UNBOUND:                -4.179
REMARK SMILES CCCCCCCCCCCCCCCCCCCCCCCCCCCCCC(=O)[O-]
REMARK SMILES IDX 16 1 17 2 18 3 19 4 20 5 21 6 22 7 23 8 24 9 25 10 26 11
REMARK SMILES IDX 27 12 28 13 29 14 30 15 31 16 32 17 15 18 14 19 13 20 12 21
REMARK SMILES IDX 11 22 10 23 9 24 8 25 7 26 6 27 5 28 4 29 3 30 2 31 1 32
REMARK H PARENT
REMARK Flexibility Score: inf
ROOT
ATOM      1  C   UNL     1     -48.587  11.530 -28.925  1.00  0.00     0.000 C 
ENDROOT
BRANCH   1   2
ATOM      2  C   UNL     1     -47.877  10.261 -29.440  1.00  0.00     0.000 C 
BRANCH   2   3
ATOM      3  C   UNL     1     -48.609   8.935 -29.153  1.00  0.00     0.000 C 
BRANCH   3   4
ATOM      4  C   UNL     1     -47.895   7.665 -29.652  1.00  0.00     0.000 C 
BRANCH   4   5
ATOM      5  C   UNL     1     -48.830   6.451 -29.766  1.00  0.00     0.000 C 
BRANCH   5   6
ATOM      6  C   UNL     1     -50.249   6.737 -29.246  1.00  0.00     0.000 C 
BRANCH   6   7
ATOM      7  C   UNL     1     -51.365   6.389 -30.252  1.00  0.00     0.000 C 
BRANCH   7   8
ATOM      8  C   UNL     1     -52.502   7.428 -30.250  1.00  0.00     0.000 C 
BRANCH   8   9
ATOM      9  C   UNL     1     -53.690   6.986 -31.135  1.00  0.00     0.000 C 
BRANCH   9  10
ATOM     10  C   UNL     1     -53.938   7.911 -32.337  1.00  0.00     0.000 C 
BRANCH  10  11
ATOM     11  C   UNL     1     -53.684   7.221 -33.685  1.00  0.00     0.000 C 
BRANCH  11  12
ATOM     12  C   UNL     1     -52.227   6.747 -33.797  1.00  0.00     0.000 C 
BRANCH  12  13
ATOM     13  C   UNL     1     -51.215   7.902 -33.729  1.00  0.00     0.006 C 
BRANCH  13  14
ATOM     14  C   UNL     1     -49.825   7.454 -33.257  1.00  0.00     0.053 C 
BRANCH  14  15
ATOM     15  C   UNL     1     -48.880   8.613 -33.179  1.00  0.00     0.041 C 
ATOM     16  O   UNL     1     -47.636   8.418 -33.143  1.00  0.00    -0.550 OA
ATOM     17  O   UNL     1     -49.376   9.911 -33.109  1.00  0.00    -0.550 OA
ENDBRANCH  14  15
ENDBRANCH  13  14
ENDBRANCH  12  13
ENDBRANCH  11  12
ENDBRANCH  10  11
ENDBRANCH   9  10
ENDBRANCH   8   9
ENDBRANCH   7   8
ENDBRANCH   6   7
ENDBRANCH   5   6
ENDBRANCH   4   5
ENDBRANCH   3   4
ENDBRANCH   2   3
ENDBRANCH   1   2
BRANCH   1  18
ATOM     18  C   UNL     1     -49.928  11.851 -29.608  1.00  0.00     0.000 C 
BRANCH  18  19
ATOM     19  C   UNL     1     -51.142  11.390 -28.784  1.00  0.00     0.000 C 
BRANCH  19  20
ATOM     20  C   UNL     1     -52.361  11.061 -29.663  1.00  0.00     0.000 C 
BRANCH  20  21
ATOM     21  C   UNL     1     -52.068  11.220 -31.166  1.00  0.00     0.000 C 
BRANCH  21  22
ATOM     22  C   UNL     1     -52.880  12.357 -31.806  1.00  0.00     0.000 C 
BRANCH  22  23
ATOM     23  C   UNL     1     -53.922  12.953 -30.842  1.00  0.00     0.000 C 
BRANCH  23  24
ATOM     24  C   UNL     1     -53.766  14.473 -30.661  1.00  0.00    -0.000 C 
BRANCH  24  25
ATOM     25  C   UNL     1     -52.410  14.929 -30.084  1.00  0.00    -0.000 C 
BRANCH  25  26
ATOM     26  C   UNL     1     -51.257  15.016 -31.102  1.00  0.00    -0.000 C 
BRANCH  26  27
ATOM     27  C   UNL     1     -51.005  16.448 -31.603  1.00  0.00    -0.000 C 
BRANCH  27  28
ATOM     28  C   UNL     1     -51.438  17.519 -30.589  1.00  0.00    -0.000 C 
BRANCH  28  29
ATOM     29  C   UNL     1     -52.467  18.523 -31.148  1.00  0.00    -0.000 C 
BRANCH  29  30
ATOM     30  C   UNL     1     -53.891  18.229 -30.654  1.00  0.00    -0.000 C 
BRANCH  30  31
ATOM     31  C   UNL     1     -54.123  18.812 -29.256  1.00  0.00    -0.003 C 
ATOM     32  C   UNL     1     -53.583  17.877 -28.174  1.00  0.00     0.004 C 
ENDBRANCH  30  31
ENDBRANCH  29  30
ENDBRANCH  28  29
ENDBRANCH  27  28
ENDBRANCH  26  27
ENDBRANCH  25  26
ENDBRANCH  24  25
ENDBRANCH  23  24
ENDBRANCH  22  23
ENDBRANCH  21  22
ENDBRANCH  20  21
ENDBRANCH  19  20
ENDBRANCH  18  19
ENDBRANCH   1  18
TORSDOF 28
ENDMDL
MODEL 4
REMARK VINA RESULT:    -4.156      4.433     11.125
REMARK INTER + INTRA:         -15.137
REMARK INTER:                 -12.799
REMARK INTRA:                  -2.339
REMARK UNBOUND:                -4.179
REMARK SMILES CCCCCCCCCCCCCCCCCCCCCCCCCCCCCC(=O)[O-]
REMARK SMILES IDX 16 1 17 2 18 3 19 4 20 5 21 6 22 7 23 8 24 9 25 10 26 11
REMARK SMILES IDX 27 12 28 13 29 14 30 15 31 16 32 17 15 18 14 19 13 20 12 21
REMARK SMILES IDX 11 22 10 23 9 24 8 25 7 26 6 27 5 28 4 29 3 30 2 31 1 32
REMARK H PARENT
REMARK Flexibility Score: inf
ROOT
ATOM      1  C   UNL     1     -51.394  13.056 -30.922  1.00  0.00     0.000 C 
ENDROOT
BRANCH   1   2
ATOM      2  C   UNL     1     -52.173  12.832 -29.610  1.00  0.00     0.000 C 
BRANCH   2   3
ATOM      3  C   UNL     1     -52.582  11.373 -29.326  1.00  0.00     0.000 C 
BRANCH   3   4
ATOM      4  C   UNL     1     -52.209  10.358 -30.423  1.00  0.00     0.000 C 
BRANCH   4   5
ATOM      5  C   UNL     1     -52.637   8.921 -30.088  1.00  0.00     0.000 C 
BRANCH   5   6
ATOM      6  C   UNL     1     -53.669   8.357 -31.080  1.00  0.00     0.000 C 
BRANCH   6   7
ATOM      7  C   UNL     1     -53.219   7.058 -31.778  1.00  0.00     0.000 C 
BRANCH   7   8
ATOM      8  C   UNL     1     -52.900   7.272 -33.269  1.00  0.00     0.000 C 
BRANCH   8   9
ATOM      9  C   UNL     1     -51.559   6.619 -33.674  1.00  0.00     0.000 C 
BRANCH   9  10
ATOM     10  C   UNL     1     -50.326   7.355 -33.125  1.00  0.00     0.000 C 
BRANCH  10  11
ATOM     11  C   UNL     1     -50.460   8.882 -33.201  1.00  0.00     0.000 C 
BRANCH  11  12
ATOM     12  C   UNL     1     -49.274   9.577 -32.514  1.00  0.00     0.000 C 
BRANCH  12  13
ATOM     13  C   UNL     1     -48.106   8.619 -32.225  1.00  0.00     0.006 C 
BRANCH  13  14
ATOM     14  C   UNL     1     -47.474   8.846 -30.845  1.00  0.00     0.053 C 
BRANCH  14  15
ATOM     15  C   UNL     1     -48.523   8.969 -29.783  1.00  0.00     0.041 C 
ATOM     16  O   UNL     1     -49.192   7.962 -29.430  1.00  0.00    -0.550 OA
ATOM     17  O   UNL     1     -48.789  10.207 -29.207  1.00  0.00    -0.550 OA
ENDBRANCH  14  15
ENDBRANCH  13  14
ENDBRANCH  12  13
ENDBRANCH  11  12
ENDBRANCH  10  11
ENDBRANCH   9  10
ENDBRANCH   8   9
ENDBRANCH   7   8
ENDBRANCH   6   7
ENDBRANCH   5   6
ENDBRANCH   4   5
ENDBRANCH   3   4
ENDBRANCH   2   3
ENDBRANCH   1   2
BRANCH   1  18
ATOM     18  C   UNL     1     -51.877  14.244 -31.774  1.00  0.00     0.000 C 
BRANCH  18  19
ATOM     19  C   UNL     1     -51.111  15.543 -31.473  1.00  0.00     0.000 C 
BRANCH  19  20
ATOM     20  C   UNL     1     -51.827  16.421 -30.432  1.00  0.00     0.000 C 
BRANCH  20  21
ATOM     21  C   UNL     1     -53.070  17.126 -31.005  1.00  0.00     0.000 C 
BRANCH  21  22
ATOM     22  C   UNL     1     -53.075  18.635 -30.719  1.00  0.00     0.000 C 
BRANCH  22  23
ATOM     23  C   UNL     1     -52.401  19.450 -31.837  1.00  0.00     0.000 C 
BRANCH  23  24
ATOM     24  C   UNL     1     -53.397  20.320 -32.624  1.00  0.00    -0.000 C 
BRANCH  24  25
ATOM     25  C   UNL     1     -52.818  21.012 -33.875  1.00  0.00    -0.000 C 
BRANCH  25  26
ATOM     26  C   UNL     1     -53.861  21.511 -34.893  1.00  0.00    -0.000 C 
BRANCH  26  27
ATOM     27  C   UNL     1     -53.275  21.727 -36.298  1.00  0.00    -0.000 C 
BRANCH  27  28
ATOM     28  C   UNL     1     -53.351  23.192 -36.756  1.00  0.00    -0.000 C 
BRANCH  28  29
ATOM     29  C   UNL     1     -52.042  23.716 -37.380  1.00  0.00    -0.000 C 
BRANCH  29  30
ATOM     30  C   UNL     1     -52.301  24.709 -38.524  1.00  0.00    -0.000 C 
BRANCH  30  31
ATOM     31  C   UNL     1     -52.128  24.037 -39.890  1.00  0.00    -0.003 C 
ATOM     32  C   UNL     1     -51.255  22.787 -39.781  1.00  0.00     0.004 C 
ENDBRANCH  30  31
ENDBRANCH  29  30
ENDBRANCH  28  29
ENDBRANCH  27  28
ENDBRANCH  26  27
ENDBRANCH  25  26
ENDBRANCH  24  25
ENDBRANCH  23  24
ENDBRANCH  22  23
ENDBRANCH  21  22
ENDBRANCH  20  21
ENDBRANCH  19  20
ENDBRANCH  18  19
ENDBRANCH   1  18
TORSDOF 28
ENDMDL
MODEL 5
REMARK VINA RESULT:    -4.129      2.069      8.540
REMARK INTER + INTRA:         -15.067
REMARK INTER:                 -11.718
REMARK INTRA:                  -3.349
REMARK UNBOUND:                -4.179
REMARK SMILES CCCCCCCCCCCCCCCCCCCCCCCCCCCCCC(=O)[O-]
REMARK SMILES IDX 16 1 17 2 18 3 19 4 20 5 21 6 22 7 23 8 24 9 25 10 26 11
REMARK SMILES IDX 27 12 28 13 29 14 30 15 31 16 32 17 15 18 14 19 13 20 12 21
REMARK SMILES IDX 11 22 10 23 9 24 8 25 7 26 6 27 5 28 4 29 3 30 2 31 1 32
REMARK H PARENT
REMARK Flexibility Score: inf
ROOT
ATOM      1  C   UNL     1     -47.898  11.281 -29.549  1.00  0.00     0.000 C 
ENDROOT
BRANCH   1   2
ATOM      2  C   UNL     1     -47.681   9.762 -29.697  1.00  0.00     0.000 C 
BRANCH   2   3
ATOM      3  C   UNL     1     -48.805   8.877 -29.121  1.00  0.00     0.000 C 
BRANCH   3   4
ATOM      4  C   UNL     1     -50.038   8.703 -30.027  1.00  0.00     0.000 C 
BRANCH   4   5
ATOM      5  C   UNL     1     -50.791   7.387 -29.777  1.00  0.00     0.000 C 
BRANCH   5   6
ATOM      6  C   UNL     1     -52.275   7.462 -30.176  1.00  0.00     0.000 C 
BRANCH   6   7
ATOM      7  C   UNL     1     -52.829   8.899 -30.252  1.00  0.00     0.000 C 
BRANCH   7   8
ATOM      8  C   UNL     1     -53.844   9.077 -31.397  1.00  0.00     0.000 C 
BRANCH   8   9
ATOM      9  C   UNL     1     -53.931   7.819 -32.292  1.00  0.00     0.000 C 
BRANCH   9  10
ATOM     10  C   UNL     1     -53.783   8.120 -33.792  1.00  0.00     0.000 C 
BRANCH  10  11
ATOM     11  C   UNL     1     -52.826   7.153 -34.503  1.00  0.00     0.000 C 
BRANCH  11  12
ATOM     12  C   UNL     1     -51.993   6.353 -33.489  1.00  0.00     0.000 C 
BRANCH  12  13
ATOM     13  C   UNL     1     -50.578   6.034 -33.998  1.00  0.00     0.006 C 
BRANCH  13  14
ATOM     14  C   UNL     1     -49.475   6.565 -33.071  1.00  0.00     0.053 C 
BRANCH  14  15
ATOM     15  C   UNL     1     -49.272   8.036 -33.259  1.00  0.00     0.041 C 
ATOM     16  O   UNL     1     -50.255   8.823 -33.222  1.00  0.00    -0.550 OA
ATOM     17  O   UNL     1     -47.999   8.537 -33.512  1.00  0.00    -0.550 OA
ENDBRANCH  14  15
ENDBRANCH  13  14
ENDBRANCH  12  13
ENDBRANCH  11  12
ENDBRANCH  10  11
ENDBRANCH   9  10
ENDBRANCH   8   9
ENDBRANCH   7   8
ENDBRANCH   6   7
ENDBRANCH   5   6
ENDBRANCH   4   5
ENDBRANCH   3   4
ENDBRANCH   2   3
ENDBRANCH   1   2
BRANCH   1  18
ATOM     18  C   UNL     1     -49.204  11.689 -28.843  1.00  0.00     0.000 C 
BRANCH  18  19
ATOM     19  C   UNL     1     -50.072  12.632 -29.693  1.00  0.00     0.000 C 
BRANCH  19  20
ATOM     20  C   UNL     1     -50.492  12.001 -31.031  1.00  0.00     0.000 C 
BRANCH  20  21
ATOM     21  C   UNL     1     -51.959  12.300 -31.392  1.00  0.00     0.000 C 
BRANCH  21  22
ATOM     22  C   UNL     1     -52.651  13.193 -30.351  1.00  0.00     0.000 C 
BRANCH  22  23
ATOM     23  C   UNL     1     -53.166  12.396 -29.140  1.00  0.00     0.000 C 
BRANCH  23  24
ATOM     24  C   UNL     1     -53.529  13.296 -27.946  1.00  0.00    -0.000 C 
BRANCH  24  25
ATOM     25  C   UNL     1     -54.079  14.689 -28.316  1.00  0.00    -0.000 C 
BRANCH  25  26
ATOM     26  C   UNL     1     -53.302  15.881 -27.727  1.00  0.00    -0.000 C 
BRANCH  26  27
ATOM     27  C   UNL     1     -53.970  17.235 -28.015  1.00  0.00    -0.000 C 
BRANCH  27  28
ATOM     28  C   UNL     1     -52.989  18.274 -28.583  1.00  0.00    -0.000 C 
BRANCH  28  29
ATOM     29  C   UNL     1     -52.781  18.161 -30.107  1.00  0.00    -0.000 C 
BRANCH  29  30
ATOM     30  C   UNL     1     -51.461  17.460 -30.462  1.00  0.00    -0.000 C 
BRANCH  30  31
ATOM     31  C   UNL     1     -51.640  16.512 -31.652  1.00  0.00    -0.003 C 
ATOM     32  C   UNL     1     -50.388  15.664 -31.872  1.00  0.00     0.004 C 
ENDBRANCH  30  31
ENDBRANCH  29  30
ENDBRANCH  28  29
ENDBRANCH  27  28
ENDBRANCH  26  27
ENDBRANCH  25  26
ENDBRANCH  24  25
ENDBRANCH  23  24
ENDBRANCH  22  23
ENDBRANCH  21  22
ENDBRANCH  20  21
ENDBRANCH  19  20
ENDBRANCH  18  19
ENDBRANCH   1  18
TORSDOF 28
ENDMDL
MODEL 6
REMARK VINA RESULT:    -4.039      1.102      2.074
REMARK INTER + INTRA:         -14.830
REMARK INTER:                 -11.109
REMARK INTRA:                  -3.721
REMARK UNBOUND:                -4.179
REMARK SMILES CCCCCCCCCCCCCCCCCCCCCCCCCCCCCC(=O)[O-]
REMARK SMILES IDX 16 1 17 2 18 3 19 4 20 5 21 6 22 7 23 8 24 9 25 10 26 11
REMARK SMILES IDX 27 12 28 13 29 14 30 15 31 16 32 17 15 18 14 19 13 20 12 21
REMARK SMILES IDX 11 22 10 23 9 24 8 25 7 26 6 27 5 28 4 29 3 30 2 31 1 32
REMARK H PARENT
REMARK Flexibility Score: inf
ROOT
ATOM      1  C   UNL     1     -47.818  10.126 -29.267  1.00  0.00     0.000 C 
ENDROOT
BRANCH   1   2
ATOM      2  C   UNL     1     -49.194  10.599 -29.775  1.00  0.00     0.000 C 
BRANCH   2   3
ATOM      3  C   UNL     1     -49.912  11.624 -28.874  1.00  0.00     0.000 C 
BRANCH   3   4
ATOM      4  C   UNL     1     -51.183  12.255 -29.475  1.00  0.00     0.000 C 
BRANCH   4   5
ATOM      5  C   UNL     1     -52.463  11.875 -28.714  1.00  0.00     0.000 C 
BRANCH   5   6
ATOM      6  C   UNL     1     -53.740  12.394 -29.397  1.00  0.00     0.000 C 
BRANCH   6   7
ATOM      7  C   UNL     1     -53.923  13.923 -29.302  1.00  0.00     0.000 C 
BRANCH   7   8
ATOM      8  C   UNL     1     -53.786  14.441 -27.859  1.00  0.00     0.000 C 
BRANCH   8   9
ATOM      9  C   UNL     1     -53.145  15.847 -27.809  1.00  0.00     0.000 C 
BRANCH   9  10
ATOM     10  C   UNL     1     -54.125  16.982 -28.148  1.00  0.00     0.000 C 
BRANCH  10  11
ATOM     11  C   UNL     1     -53.501  18.062 -29.044  1.00  0.00     0.000 C 
BRANCH  11  12
ATOM     12  C   UNL     1     -51.993  17.828 -29.223  1.00  0.00     0.000 C 
BRANCH  12  13
ATOM     13  C   UNL     1     -51.574  17.732 -30.700  1.00  0.00     0.006 C 
BRANCH  13  14
ATOM     14  C   UNL     1     -52.293  16.605 -31.454  1.00  0.00     0.053 C 
BRANCH  14  15
ATOM     15  C   UNL     1     -51.363  15.466 -31.739  1.00  0.00     0.041 C 
ATOM     16  O   UNL     1     -51.821  14.325 -32.011  1.00  0.00    -0.550 OA
ATOM     17  O   UNL     1     -49.987  15.657 -31.667  1.00  0.00    -0.550 OA
ENDBRANCH  14  15
ENDBRANCH  13  14
ENDBRANCH  12  13
ENDBRANCH  11  12
ENDBRANCH  10  11
ENDBRANCH   9  10
ENDBRANCH   8   9
ENDBRANCH   7   8
ENDBRANCH   6   7
ENDBRANCH   5   6
ENDBRANCH   4   5
ENDBRANCH   3   4
ENDBRANCH   2   3
ENDBRANCH   1   2
BRANCH   1  18
ATOM     18  C   UNL     1     -47.146   9.035 -30.121  1.00  0.00     0.000 C 
BRANCH  18  19
ATOM     19  C   UNL     1     -47.284   7.631 -29.510  1.00  0.00     0.000 C 
BRANCH  19  20
ATOM     20  C   UNL     1     -47.345   6.526 -30.579  1.00  0.00     0.000 C 
BRANCH  20  21
ATOM     21  C   UNL     1     -48.641   6.576 -31.409  1.00  0.00     0.000 C 
BRANCH  21  22
ATOM     22  C   UNL     1     -48.510   7.474 -32.649  1.00  0.00     0.000 C 
BRANCH  22  23
ATOM     23  C   UNL     1     -49.855   7.690 -33.365  1.00  0.00     0.000 C 
BRANCH  23  24
ATOM     24  C   UNL     1     -50.805   6.488 -33.224  1.00  0.00    -0.000 C 
BRANCH  24  25
ATOM     25  C   UNL     1     -52.046   6.521 -34.141  1.00  0.00    -0.000 C 
BRANCH  25  26
ATOM     26  C   UNL     1     -53.361   6.062 -33.484  1.00  0.00    -0.000 C 
BRANCH  26  27
ATOM     27  C   UNL     1     -53.803   6.971 -32.325  1.00  0.00    -0.000 C 
BRANCH  27  28
ATOM     28  C   UNL     1     -54.021   8.429 -32.760  1.00  0.00    -0.000 C 
BRANCH  28  29
ATOM     29  C   UNL     1     -53.602   9.463 -31.695  1.00  0.00    -0.000 C 
BRANCH  29  30
ATOM     30  C   UNL     1     -52.222   9.152 -31.095  1.00  0.00    -0.000 C 
BRANCH  30  31
ATOM     31  C   UNL     1     -52.348   8.278 -29.843  1.00  0.00    -0.003 C 
ATOM     32  C   UNL     1     -51.118   7.388 -29.669  1.00  0.00     0.004 C 
ENDBRANCH  30  31
ENDBRANCH  29  30
ENDBRANCH  28  29
ENDBRANCH  27  28
ENDBRANCH  26  27
ENDBRANCH  25  26
ENDBRANCH  24  25
ENDBRANCH  23  24
ENDBRANCH  22  23
ENDBRANCH  21  22
ENDBRANCH  20  21
ENDBRANCH  19  20
ENDBRANCH  18  19
ENDBRANCH   1  18
TORSDOF 28
ENDMDL
MODEL 7
REMARK VINA RESULT:    -4.013      1.658      3.053
REMARK INTER + INTRA:         -14.761
REMARK INTER:                 -10.973
REMARK INTRA:                  -3.788
REMARK UNBOUND:                -4.179
REMARK SMILES CCCCCCCCCCCCCCCCCCCCCCCCCCCCCC(=O)[O-]
REMARK SMILES IDX 16 1 17 2 18 3 19 4 20 5 21 6 22 7 23 8 24 9 25 10 26 11
REMARK SMILES IDX 27 12 28 13 29 14 30 15 31 16 32 17 15 18 14 19 13 20 12 21
REMARK SMILES IDX 11 22 10 23 9 24 8 25 7 26 6 27 5 28 4 29 3 30 2 31 1 32
REMARK H PARENT
REMARK Flexibility Score: inf
ROOT
ATOM      1  C   UNL     1     -47.564  10.239 -29.783  1.00  0.00     0.000 C 
ENDROOT
BRANCH   1   2
ATOM      2  C   UNL     1     -48.397  11.151 -28.859  1.00  0.00     0.000 C 
BRANCH   2   3
ATOM      3  C   UNL     1     -49.871  11.336 -29.271  1.00  0.00     0.000 C 
BRANCH   3   4
ATOM      4  C   UNL     1     -50.345  12.797 -29.388  1.00  0.00     0.000 C 
BRANCH   4   5
ATOM      5  C   UNL     1     -50.332  13.322 -30.833  1.00  0.00     0.000 C 
BRANCH   5   6
ATOM      6  C   UNL     1     -51.033  14.683 -30.980  1.00  0.00     0.000 C 
BRANCH   6   7
ATOM      7  C   UNL     1     -52.450  14.594 -31.583  1.00  0.00     0.000 C 
BRANCH   7   8
ATOM      8  C   UNL     1     -53.538  15.055 -30.596  1.00  0.00     0.000 C 
BRANCH   8   9
ATOM      9  C   UNL     1     -53.445  14.309 -29.245  1.00  0.00     0.000 C 
BRANCH   9  10
ATOM     10  C   UNL     1     -53.032  15.212 -28.071  1.00  0.00     0.000 C 
BRANCH  10  11
ATOM     11  C   UNL     1     -54.121  16.221 -27.681  1.00  0.00     0.000 C 
BRANCH  11  12
ATOM     12  C   UNL     1     -53.532  17.627 -27.496  1.00  0.00     0.000 C 
BRANCH  12  13
ATOM     13  C   UNL     1     -52.874  18.173 -28.774  1.00  0.00     0.006 C 
BRANCH  13  14
ATOM     14  C   UNL     1     -53.889  18.760 -29.765  1.00  0.00     0.053 C 
BRANCH  14  15
ATOM     15  C   UNL     1     -53.262  18.995 -31.105  1.00  0.00     0.041 C 
ATOM     16  O   UNL     1     -53.795  19.787 -31.926  1.00  0.00    -0.550 OA
ATOM     17  O   UNL     1     -52.105  18.309 -31.462  1.00  0.00    -0.550 OA
ENDBRANCH  14  15
ENDBRANCH  13  14
ENDBRANCH  12  13
ENDBRANCH  11  12
ENDBRANCH  10  11
ENDBRANCH   9  10
ENDBRANCH   8   9
ENDBRANCH   7   8
ENDBRANCH   6   7
ENDBRANCH   5   6
ENDBRANCH   4   5
ENDBRANCH   3   4
ENDBRANCH   2   3
ENDBRANCH   1   2
BRANCH   1  18
ATOM     18  C   UNL     1     -47.408   8.786 -29.297  1.00  0.00     0.000 C 
BRANCH  18  19
ATOM     19  C   UNL     1     -47.260   7.784 -30.454  1.00  0.00     0.000 C 
BRANCH  19  20
ATOM     20  C   UNL     1     -47.675   6.358 -30.056  1.00  0.00     0.000 C 
BRANCH  20  21
ATOM     21  C   UNL     1     -49.129   6.283 -29.552  1.00  0.00     0.000 C 
BRANCH  21  22
ATOM     22  C   UNL     1     -50.126   5.971 -30.679  1.00  0.00     0.000 C 
BRANCH  22  23
ATOM     23  C   UNL     1     -49.494   6.094 -32.076  1.00  0.00     0.000 C 
BRANCH  23  24
ATOM     24  C   UNL     1     -50.174   7.167 -32.945  1.00  0.00    -0.000 C 
BRANCH  24  25
ATOM     25  C   UNL     1     -49.366   8.468 -33.133  1.00  0.00    -0.000 C 
BRANCH  25  26
ATOM     26  C   UNL     1     -49.881   9.683 -32.339  1.00  0.00    -0.000 C 
BRANCH  26  27
ATOM     27  C   UNL     1     -51.064  10.389 -33.021  1.00  0.00    -0.000 C 
BRANCH  27  28
ATOM     28  C   UNL     1     -52.371  10.272 -32.219  1.00  0.00    -0.000 C 
BRANCH  28  29
ATOM     29  C   UNL     1     -52.831   8.818 -31.992  1.00  0.00    -0.000 C 
BRANCH  29  30
ATOM     30  C   UNL     1     -52.844   8.438 -30.504  1.00  0.00    -0.000 C 
BRANCH  30  31
ATOM     31  C   UNL     1     -53.665   7.168 -30.264  1.00  0.00    -0.003 C 
ATOM     32  C   UNL     1     -54.122   6.550 -31.585  1.00  0.00     0.004 C 
ENDBRANCH  30  31
ENDBRANCH  29  30
ENDBRANCH  28  29
ENDBRANCH  27  28
ENDBRANCH  26  27
ENDBRANCH  25  26
ENDBRANCH  24  25
ENDBRANCH  23  24
ENDBRANCH  22  23
ENDBRANCH  21  22
ENDBRANCH  20  21
ENDBRANCH  19  20
ENDBRANCH  18  19
ENDBRANCH   1  18
TORSDOF 28
ENDMDL
MODEL 8
REMARK VINA RESULT:    -4.013      2.481      8.781
REMARK INTER + INTRA:         -14.760
REMARK INTER:                 -10.697
REMARK INTRA:                  -4.063
REMARK UNBOUND:                -4.179
REMARK SMILES CCCCCCCCCCCCCCCCCCCCCCCCCCCCCC(=O)[O-]
REMARK SMILES IDX 16 1 17 2 18 3 19 4 20 5 21 6 22 7 23 8 24 9 25 10 26 11
REMARK SMILES IDX 27 12 28 13 29 14 30 15 31 16 32 17 15 18 14 19 13 20 12 21
REMARK SMILES IDX 11 22 10 23 9 24 8 25 7 26 6 27 5 28 4 29 3 30 2 31 1 32
REMARK H PARENT
REMARK Flexibility Score: inf
ROOT
ATOM      1  C   UNL     1     -50.581  11.834 -29.523  1.00  0.00     0.000 C 
ENDROOT
BRANCH   1   2
ATOM      2  C   UNL     1     -49.115  11.925 -29.054  1.00  0.00     0.000 C 
BRANCH   2   3
ATOM      3  C   UNL     1     -48.464  10.584 -28.664  1.00  0.00     0.000 C 
BRANCH   3   4
ATOM      4  C   UNL     1     -48.319   9.563 -29.807  1.00  0.00     0.000 C 
BRANCH   4   5
ATOM      5  C   UNL     1     -46.977   8.815 -29.784  1.00  0.00     0.000 C 
BRANCH   5   6
ATOM      6  C   UNL     1     -46.947   7.671 -28.757  1.00  0.00     0.000 C 
BRANCH   6   7
ATOM      7  C   UNL     1     -47.124   6.270 -29.377  1.00  0.00     0.000 C 
BRANCH   7   8
ATOM      8  C   UNL     1     -48.605   5.896 -29.569  1.00  0.00     0.000 C 
BRANCH   8   9
ATOM      9  C   UNL     1     -49.014   5.901 -31.059  1.00  0.00     0.000 C 
BRANCH   9  10
ATOM     10  C   UNL     1     -47.820   5.987 -32.024  1.00  0.00     0.000 C 
BRANCH  10  11
ATOM     11  C   UNL     1     -48.138   6.784 -33.297  1.00  0.00     0.000 C 
BRANCH  11  12
ATOM     12  C   UNL     1     -48.235   8.288 -32.998  1.00  0.00     0.000 C 
BRANCH  12  13
ATOM     13  C   UNL     1     -49.574   8.900 -33.440  1.00  0.00     0.006 C 
BRANCH  13  14
ATOM     14  C   UNL     1     -50.626   8.907 -32.323  1.00  0.00     0.053 C 
BRANCH  14  15
ATOM     15  C   UNL     1     -51.875   8.202 -32.753  1.00  0.00     0.041 C 
ATOM     16  O   UNL     1     -52.029   6.975 -32.509  1.00  0.00    -0.550 OA
ATOM     17  O   UNL     1     -52.857   8.892 -33.457  1.00  0.00    -0.550 OA
ENDBRANCH  14  15
ENDBRANCH  13  14
ENDBRANCH  12  13
ENDBRANCH  11  12
ENDBRANCH  10  11
ENDBRANCH   9  10
ENDBRANCH   8   9
ENDBRANCH   7   8
ENDBRANCH   6   7
ENDBRANCH   5   6
ENDBRANCH   4   5
ENDBRANCH   3   4
ENDBRANCH   2   3
ENDBRANCH   1   2
BRANCH   1  18
ATOM     18  C   UNL     1     -51.471  10.881 -28.705  1.00  0.00     0.000 C 
BRANCH  18  19
ATOM     19  C   UNL     1     -52.558  10.203 -29.555  1.00  0.00     0.000 C 
BRANCH  19  20
ATOM     20  C   UNL     1     -53.816  11.075 -29.709  1.00  0.00     0.000 C 
BRANCH  20  21
ATOM     21  C   UNL     1     -54.125  11.415 -31.178  1.00  0.00     0.000 C 
BRANCH  21  22
ATOM     22  C   UNL     1     -54.051  12.924 -31.461  1.00  0.00     0.000 C 
BRANCH  22  23
ATOM     23  C   UNL     1     -52.651  13.370 -31.918  1.00  0.00     0.000 C 
BRANCH  23  24
ATOM     24  C   UNL     1     -52.113  14.564 -31.109  1.00  0.00    -0.000 C 
BRANCH  24  25
ATOM     25  C   UNL     1     -51.334  15.613 -31.929  1.00  0.00    -0.000 C 
BRANCH  25  26
ATOM     26  C   UNL     1     -50.759  16.788 -31.115  1.00  0.00    -0.000 C 
BRANCH  26  27
ATOM     27  C   UNL     1     -51.802  17.874 -30.807  1.00  0.00    -0.000 C 
BRANCH  27  28
ATOM     28  C   UNL     1     -52.121  17.984 -29.307  1.00  0.00    -0.000 C 
BRANCH  28  29
ATOM     29  C   UNL     1     -53.632  17.982 -28.992  1.00  0.00    -0.000 C 
BRANCH  29  30
ATOM     30  C   UNL     1     -54.029  16.829 -28.059  1.00  0.00    -0.000 C 
BRANCH  30  31
ATOM     31  C   UNL     1     -52.926  15.767 -27.991  1.00  0.00    -0.003 C 
ATOM     32  C   UNL     1     -53.521  14.362 -27.900  1.00  0.00     0.004 C 
ENDBRANCH  30  31
ENDBRANCH  29  30
ENDBRANCH  28  29
ENDBRANCH  27  28
ENDBRANCH  26  27
ENDBRANCH  25  26
ENDBRANCH  24  25
ENDBRANCH  23  24
ENDBRANCH  22  23
ENDBRANCH  21  22
ENDBRANCH  20  21
ENDBRANCH  19  20
ENDBRANCH  18  19
ENDBRANCH   1  18
TORSDOF 28
ENDMDL
MODEL 9
REMARK VINA RESULT:    -3.934      1.204      2.919
REMARK INTER + INTRA:         -14.553
REMARK INTER:                 -11.187
REMARK INTRA:                  -3.367
REMARK UNBOUND:                -4.179
REMARK SMILES CCCCCCCCCCCCCCCCCCCCCCCCCCCCCC(=O)[O-]
REMARK SMILES IDX 16 1 17 2 18 3 19 4 20 5 21 6 22 7 23 8 24 9 25 10 26 11
REMARK SMILES IDX 27 12 28 13 29 14 30 15 31 16 32 17 15 18 14 19 13 20 12 21
REMARK SMILES IDX 11 22 10 23 9 24 8 25 7 26 6 27 5 28 4 29 3 30 2 31 1 32
REMARK H PARENT
REMARK Flexibility Score: inf
ROOT
ATOM      1  C   UNL     1     -47.753  10.086 -29.563  1.00  0.00     0.000 C 
ENDROOT
BRANCH   1   2
ATOM      2  C   UNL     1     -49.218  10.203 -30.032  1.00  0.00     0.000 C 
BRANCH   2   3
ATOM      3  C   UNL     1     -50.153  10.977 -29.082  1.00  0.00     0.000 C 
BRANCH   3   4
ATOM      4  C   UNL     1     -51.361  11.656 -29.753  1.00  0.00     0.000 C 
BRANCH   4   5
ATOM      5  C   UNL     1     -52.683  11.412 -29.008  1.00  0.00     0.000 C 
BRANCH   5   6
ATOM      6  C   UNL     1     -53.886  12.092 -29.685  1.00  0.00     0.000 C 
BRANCH   6   7
ATOM      7  C   UNL     1     -53.894  13.628 -29.546  1.00  0.00     0.000 C 
BRANCH   7   8
ATOM      8  C   UNL     1     -53.579  14.089 -28.110  1.00  0.00     0.000 C 
BRANCH   8   9
ATOM      9  C   UNL     1     -53.024  15.532 -28.075  1.00  0.00     0.000 C 
BRANCH   9  10
ATOM     10  C   UNL     1     -54.118  16.612 -28.087  1.00  0.00     0.000 C 
BRANCH  10  11
ATOM     11  C   UNL     1     -53.688  17.889 -28.821  1.00  0.00     0.000 C 
BRANCH  11  12
ATOM     12  C   UNL     1     -52.168  17.915 -29.042  1.00  0.00     0.000 C 
BRANCH  12  13
ATOM     13  C   UNL     1     -51.780  17.905 -30.530  1.00  0.00     0.006 C 
BRANCH  13  14
ATOM     14  C   UNL     1     -52.332  16.687 -31.284  1.00  0.00     0.053 C 
BRANCH  14  15
ATOM     15  C   UNL     1     -51.247  15.701 -31.587  1.00  0.00     0.041 C 
ATOM     16  O   UNL     1     -50.037  16.049 -31.530  1.00  0.00    -0.550 OA
ATOM     17  O   UNL     1     -51.572  14.404 -31.970  1.00  0.00    -0.550 OA
ENDBRANCH  14  15
ENDBRANCH  13  14
ENDBRANCH  12  13
ENDBRANCH  11  12
ENDBRANCH  10  11
ENDBRANCH   9  10
ENDBRANCH   8   9
ENDBRANCH   7   8
ENDBRANCH   6   7
ENDBRANCH   5   6
ENDBRANCH   4   5
ENDBRANCH   3   4
ENDBRANCH   2   3
ENDBRANCH   1   2
BRANCH   1  18
ATOM     18  C   UNL     1     -46.998   8.849 -30.083  1.00  0.00     0.000 C 
BRANCH  18  19
ATOM     19  C   UNL     1     -46.858   7.747 -29.020  1.00  0.00     0.000 C 
BRANCH  19  20
ATOM     20  C   UNL     1     -47.768   6.539 -29.299  1.00  0.00     0.000 C 
BRANCH  20  21
ATOM     21  C   UNL     1     -49.194   6.953 -29.706  1.00  0.00     0.000 C 
BRANCH  21  22
ATOM     22  C   UNL     1     -50.257   5.956 -29.220  1.00  0.00     0.000 C 
BRANCH  22  23
ATOM     23  C   UNL     1     -51.604   6.130 -29.944  1.00  0.00     0.000 C 
BRANCH  23  24
ATOM     24  C   UNL     1     -51.858   7.581 -30.389  1.00  0.00    -0.000 C 
BRANCH  24  25
ATOM     25  C   UNL     1     -53.335   7.934 -30.663  1.00  0.00    -0.000 C 
BRANCH  25  26
ATOM     26  C   UNL     1     -53.573   8.895 -31.843  1.00  0.00    -0.000 C 
BRANCH  26  27
ATOM     27  C   UNL     1     -52.694   8.577 -33.064  1.00  0.00    -0.000 C 
BRANCH  27  28
ATOM     28  C   UNL     1     -52.847   7.125 -33.547  1.00  0.00    -0.000 C 
BRANCH  28  29
ATOM     29  C   UNL     1     -51.553   6.529 -34.139  1.00  0.00    -0.000 C 
BRANCH  29  30
ATOM     30  C   UNL     1     -50.410   6.491 -33.114  1.00  0.00    -0.000 C 
BRANCH  30  31
ATOM     31  C   UNL     1     -49.091   6.957 -33.739  1.00  0.00    -0.003 C 
ATOM     32  C   UNL     1     -48.592   8.241 -33.077  1.00  0.00     0.004 C 
ENDBRANCH  30  31
ENDBRANCH  29  30
ENDBRANCH  28  29
ENDBRANCH  27  28
ENDBRANCH  26  27
ENDBRANCH  25  26
ENDBRANCH  24  25
ENDBRANCH  23  24
ENDBRANCH  22  23
ENDBRANCH  21  22
ENDBRANCH  20  21
ENDBRANCH  19  20
ENDBRANCH  18  19
ENDBRANCH   1  18
TORSDOF 28
ENDMDL
