MODEL 1
REMARK VINA RESULT:    -6.222      0.000      0.000
REMARK INTER + INTRA:          -7.578
REMARK INTER:                  -7.313
REMARK INTRA:                  -0.265
REMARK UNBOUND:                -0.265
REMARK SMILES O=c1cc(-c2ccc(O)c(O)c2)oc2cc(O)cc(O)c12
REMARK SMILES IDX 4 1 3 2 2 3 1 4 21 5 19 6 18 7 16 8 15 9 14 10 13 11 5 12
REMARK SMILES IDX 6 13 7 14 8 15 12 16 10 17 9 18 11 20 20 22 17 24
REMARK H PARENT 9 19 11 21 20 23 17 25
REMARK Flexibility Score: inf
ROOT
ATOM      1  C   UNL     1      -3.345  14.244 -26.726  1.00  0.00     0.138 A 
ATOM      2  C   UNL     1      -4.203  13.601 -25.822  1.00  0.00     0.100 A 
ATOM      3  C   UNL     1      -4.885  12.449 -26.218  1.00  0.00     0.197 A 
ATOM      4  O   UNL     1      -5.688  11.927 -25.403  1.00  0.00    -0.289 OA
ATOM      5  C   UNL     1      -4.677  11.918 -27.514  1.00  0.00     0.107 A 
ATOM      6  C   UNL     1      -5.291  10.731 -28.015  1.00  0.00     0.134 A 
ATOM      7  C   UNL     1      -5.085  10.359 -29.349  1.00  0.00     0.093 A 
ATOM      8  C   UNL     1      -4.245  11.096 -30.183  1.00  0.00     0.123 A 
ATOM      9  C   UNL     1      -3.600  12.230 -29.689  1.00  0.00     0.094 A 
ATOM     10  C   UNL     1      -3.812  12.648 -28.373  1.00  0.00     0.146 A 
ATOM     11  O   UNL     1      -3.193  13.744 -27.947  1.00  0.00    -0.456 OA
ENDROOT
BRANCH   1  12
ATOM     12  C   UNL     1      -2.594  15.471 -26.358  1.00  0.00     0.021 A 
ATOM     13  C   UNL     1      -2.833  16.704 -26.994  1.00  0.00     0.016 A 
ATOM     14  C   UNL     1      -2.103  17.840 -26.634  1.00  0.00     0.051 A 
ATOM     15  C   UNL     1      -1.120  17.764 -25.640  1.00  0.00     0.157 A 
ATOM     16  C   UNL     1      -1.596  15.400 -25.371  1.00  0.00     0.062 A 
ATOM     17  C   UNL     1      -0.865  16.537 -25.007  1.00  0.00     0.158 A 
BRANCH  15  18
ATOM     18  O   UNL     1      -0.395  18.900 -25.282  1.00  0.00    -0.504 OA
ATOM     19  H   UNL     1      -0.137  19.602 -25.966  1.00  0.00     0.293 HD
ENDBRANCH  15  18
BRANCH  17  20
ATOM     20  O   UNL     1       0.111  16.427 -24.016  1.00  0.00    -0.504 OA
ATOM     21  H   UNL     1       1.031  16.841 -24.117  1.00  0.00     0.293 HD
ENDBRANCH  17  20
ENDBRANCH   1  12
BRANCH   6  22
ATOM     22  O   UNL     1      -6.086   9.875 -27.247  1.00  0.00    -0.507 OA
ATOM     23  H   UNL     1      -6.988  10.110 -26.863  1.00  0.00     0.293 HD
ENDBRANCH   6  22
BRANCH   8  24
ATOM     24  O   UNL     1      -4.051  10.686 -31.500  1.00  0.00    -0.508 OA
ATOM     25  H   UNL     1      -3.254  11.000 -32.042  1.00  0.00     0.293 HD
ENDBRANCH   8  24
TORSDOF 5
ENDMDL
MODEL 2
REMARK VINA RESULT:    -6.012      1.234      2.778
REMARK INTER + INTRA:          -7.332
REMARK INTER:                  -7.048
REMARK INTRA:                  -0.283
REMARK UNBOUND:                -0.265
REMARK SMILES O=c1cc(-c2ccc(O)c(O)c2)oc2cc(O)cc(O)c12
REMARK SMILES IDX 4 1 3 2 2 3 1 4 21 5 19 6 18 7 16 8 15 9 14 10 13 11 5 12
REMARK SMILES IDX 6 13 7 14 8 15 12 16 10 17 9 18 11 20 20 22 17 24
REMARK H PARENT 9 19 11 21 20 23 17 25
REMARK Flexibility Score: inf
ROOT
ATOM      1  C   UNL     1      -3.163  14.355 -26.853  1.00  0.00     0.138 A 
ATOM      2  C   UNL     1      -3.178  13.932 -28.190  1.00  0.00     0.100 A 
ATOM      3  C   UNL     1      -3.837  12.751 -28.533  1.00  0.00     0.197 A 
ATOM      4  O   UNL     1      -3.786  12.371 -29.731  1.00  0.00    -0.289 OA
ATOM      5  C   UNL     1      -4.516  12.008 -27.537  1.00  0.00     0.107 A 
ATOM      6  C   UNL     1      -5.250  10.807 -27.776  1.00  0.00     0.134 A 
ATOM      7  C   UNL     1      -5.796  10.107 -26.694  1.00  0.00     0.093 A 
ATOM      8  C   UNL     1      -5.686  10.591 -25.391  1.00  0.00     0.123 A 
ATOM      9  C   UNL     1      -5.014  11.789 -25.151  1.00  0.00     0.094 A 
ATOM     10  C   UNL     1      -4.427  12.494 -26.205  1.00  0.00     0.146 A 
ATOM     11  O   UNL     1      -3.780  13.622 -25.932  1.00  0.00    -0.456 OA
ENDROOT
BRANCH   1  12
ATOM     12  C   UNL     1      -2.479  15.604 -26.431  1.00  0.00     0.021 A 
ATOM     13  C   UNL     1      -2.764  16.844 -27.035  1.00  0.00     0.016 A 
ATOM     14  C   UNL     1      -2.098  18.001 -26.623  1.00  0.00     0.051 A 
ATOM     15  C   UNL     1      -1.134  17.941 -25.610  1.00  0.00     0.157 A 
ATOM     16  C   UNL     1      -1.501  15.550 -25.424  1.00  0.00     0.062 A 
ATOM     17  C   UNL     1      -0.834  16.708 -25.009  1.00  0.00     0.158 A 
BRANCH  15  18
ATOM     18  O   UNL     1      -0.473  19.098 -25.200  1.00  0.00    -0.504 OA
ATOM     19  H   UNL     1       0.459  19.321 -25.529  1.00  0.00     0.293 HD
ENDBRANCH  15  18
BRANCH  17  20
ATOM     20  O   UNL     1       0.125  16.613 -23.999  1.00  0.00    -0.504 OA
ATOM     21  H   UNL     1       0.568  15.734 -23.758  1.00  0.00     0.293 HD
ENDBRANCH  17  20
ENDBRANCH   1  12
BRANCH   6  22
ATOM     22  O   UNL     1      -5.491  10.275 -29.046  1.00  0.00    -0.507 OA
ATOM     23  H   UNL     1      -5.270   9.334 -29.332  1.00  0.00     0.293 HD
ENDBRANCH   6  22
BRANCH   8  24
ATOM     24  O   UNL     1      -6.257   9.875 -24.340  1.00  0.00    -0.508 OA
ATOM     25  H   UNL     1      -7.255   9.713 -24.290  1.00  0.00     0.293 HD
ENDBRANCH   8  24
TORSDOF 5
ENDMDL
MODEL 3
REMARK VINA RESULT:    -5.961      0.718      1.501
REMARK INTER + INTRA:          -7.272
REMARK INTER:                  -7.003
REMARK INTRA:                  -0.269
REMARK UNBOUND:                -0.265
REMARK SMILES O=c1cc(-c2ccc(O)c(O)c2)oc2cc(O)cc(O)c12
REMARK SMILES IDX 4 1 3 2 2 3 1 4 21 5 19 6 18 7 16 8 15 9 14 10 13 11 5 12
REMARK SMILES IDX 6 13 7 14 8 15 12 16 10 17 9 18 11 20 20 22 17 24
REMARK H PARENT 9 19 11 21 20 23 17 25
REMARK Flexibility Score: inf
ROOT
ATOM      1  C   UNL     1      -3.167  14.242 -26.310  1.00  0.00     0.138 A 
ATOM      2  C   UNL     1      -4.100  13.620 -25.468  1.00  0.00     0.100 A 
ATOM      3  C   UNL     1      -4.796  12.497 -25.918  1.00  0.00     0.197 A 
ATOM      4  O   UNL     1      -5.665  11.995 -25.160  1.00  0.00    -0.289 OA
ATOM      5  C   UNL     1      -4.528  11.972 -27.206  1.00  0.00     0.107 A 
ATOM      6  C   UNL     1      -5.151  10.812 -27.758  1.00  0.00     0.134 A 
ATOM      7  C   UNL     1      -4.877  10.447 -29.081  1.00  0.00     0.093 A 
ATOM      8  C   UNL     1      -3.963  11.162 -29.854  1.00  0.00     0.123 A 
ATOM      9  C   UNL     1      -3.310  12.267 -29.308  1.00  0.00     0.094 A 
ATOM     10  C   UNL     1      -3.587  12.679 -28.002  1.00  0.00     0.146 A 
ATOM     11  O   UNL     1      -2.958  13.749 -27.526  1.00  0.00    -0.456 OA
ENDROOT
BRANCH   1  12
ATOM     12  C   UNL     1      -2.397  15.437 -25.883  1.00  0.00     0.021 A 
ATOM     13  C   UNL     1      -1.337  15.345 -24.961  1.00  0.00     0.016 A 
ATOM     14  C   UNL     1      -0.637  16.489 -24.570  1.00  0.00     0.051 A 
ATOM     15  C   UNL     1      -0.985  17.743 -25.086  1.00  0.00     0.157 A 
ATOM     16  C   UNL     1      -2.749  16.702 -26.386  1.00  0.00     0.062 A 
ATOM     17  C   UNL     1      -2.047  17.849 -25.998  1.00  0.00     0.158 A 
BRANCH  15  18
ATOM     18  O   UNL     1      -0.282  18.882 -24.695  1.00  0.00    -0.504 OA
ATOM     19  H   UNL     1       0.296  19.399 -25.349  1.00  0.00     0.293 HD
ENDBRANCH  15  18
BRANCH  17  20
ATOM     20  O   UNL     1      -2.422  19.084 -26.527  1.00  0.00    -0.504 OA
ATOM     21  H   UNL     1      -1.928  19.509 -27.303  1.00  0.00     0.293 HD
ENDBRANCH  17  20
ENDBRANCH   1  12
BRANCH   6  22
ATOM     22  O   UNL     1      -6.020   9.977 -27.049  1.00  0.00    -0.507 OA
ATOM     23  H   UNL     1      -6.866  10.277 -26.589  1.00  0.00     0.293 HD
ENDBRANCH   6  22
BRANCH   8  24
ATOM     24  O   UNL     1      -3.703  10.759 -31.162  1.00  0.00    -0.508 OA
ATOM     25  H   UNL     1      -2.933  11.147 -31.693  1.00  0.00     0.293 HD
ENDBRANCH   8  24
TORSDOF 5
ENDMDL
MODEL 4
REMARK VINA RESULT:    -5.960      1.561      7.123
REMARK INTER + INTRA:          -7.270
REMARK INTER:                  -7.004
REMARK INTRA:                  -0.266
REMARK UNBOUND:                -0.265
REMARK SMILES O=c1cc(-c2ccc(O)c(O)c2)oc2cc(O)cc(O)c12
REMARK SMILES IDX 4 1 3 2 2 3 1 4 21 5 19 6 18 7 16 8 15 9 14 10 13 11 5 12
REMARK SMILES IDX 6 13 7 14 8 15 12 16 10 17 9 18 11 20 20 22 17 24
REMARK H PARENT 9 19 11 21 20 23 17 25
REMARK Flexibility Score: inf
ROOT
ATOM      1  C   UNL     1      -2.584  15.066 -26.338  1.00  0.00     0.138 A 
ATOM      2  C   UNL     1      -1.673  15.221 -25.284  1.00  0.00     0.100 A 
ATOM      3  C   UNL     1      -1.016  16.441 -25.113  1.00  0.00     0.197 A 
ATOM      4  O   UNL     1      -0.165  16.531 -24.192  1.00  0.00    -0.289 OA
ATOM      5  C   UNL     1      -1.302  17.522 -25.981  1.00  0.00     0.107 A 
ATOM      6  C   UNL     1      -0.719  18.822 -25.882  1.00  0.00     0.134 A 
ATOM      7  C   UNL     1      -1.005  19.782 -26.860  1.00  0.00     0.093 A 
ATOM      8  C   UNL     1      -1.895  19.511 -27.899  1.00  0.00     0.123 A 
ATOM      9  C   UNL     1      -2.509  18.261 -27.978  1.00  0.00     0.094 A 
ATOM     10  C   UNL     1      -2.218  17.270 -27.038  1.00  0.00     0.146 A 
ATOM     11  O   UNL     1      -2.810  16.086 -27.159  1.00  0.00    -0.456 OA
ENDROOT
BRANCH   1  12
ATOM     12  C   UNL     1      -3.313  13.792 -26.566  1.00  0.00     0.021 A 
ATOM     13  C   UNL     1      -2.947  12.904 -27.595  1.00  0.00     0.016 A 
ATOM     14  C   UNL     1      -3.657  11.717 -27.791  1.00  0.00     0.051 A 
ATOM     15  C   UNL     1      -4.746  11.399 -26.972  1.00  0.00     0.157 A 
ATOM     16  C   UNL     1      -4.416  13.473 -25.755  1.00  0.00     0.062 A 
ATOM     17  C   UNL     1      -5.128  12.283 -25.950  1.00  0.00     0.158 A 
BRANCH  15  18
ATOM     18  O   UNL     1      -5.451  10.213 -27.169  1.00  0.00    -0.504 OA
ATOM     19  H   UNL     1      -6.435  10.215 -27.414  1.00  0.00     0.293 HD
ENDBRANCH  15  18
BRANCH  17  20
ATOM     20  O   UNL     1      -6.211  11.999 -25.118  1.00  0.00    -0.504 OA
ATOM     21  H   UNL     1      -6.179  11.258 -24.427  1.00  0.00     0.293 HD
ENDBRANCH  17  20
ENDBRANCH   1  12
BRANCH   6  22
ATOM     22  O   UNL     1       0.121  19.227 -24.841  1.00  0.00    -0.507 OA
ATOM     23  H   UNL     1       0.312  18.691 -24.008  1.00  0.00     0.293 HD
ENDBRANCH   6  22
BRANCH   8  24
ATOM     24  O   UNL     1      -2.168  20.497 -28.845  1.00  0.00    -0.508 OA
ATOM     25  H   UNL     1      -1.427  20.959 -29.359  1.00  0.00     0.293 HD
ENDBRANCH   8  24
TORSDOF 5
ENDMDL
MODEL 5
REMARK VINA RESULT:    -5.883      1.786      2.368
REMARK INTER + INTRA:          -7.180
REMARK INTER:                  -6.917
REMARK INTRA:                  -0.263
REMARK UNBOUND:                -0.265
REMARK SMILES O=c1cc(-c2ccc(O)c(O)c2)oc2cc(O)cc(O)c12
REMARK SMILES IDX 4 1 3 2 2 3 1 4 21 5 19 6 18 7 16 8 15 9 14 10 13 11 5 12
REMARK SMILES IDX 6 13 7 14 8 15 12 16 10 17 9 18 11 20 20 22 17 24
REMARK H PARENT 9 19 11 21 20 23 17 25
REMARK Flexibility Score: inf
ROOT
ATOM      1  C   UNL     1      -3.012  15.973 -26.825  1.00  0.00     0.138 A 
ATOM      2  C   UNL     1      -4.275  15.848 -26.230  1.00  0.00     0.100 A 
ATOM      3  C   UNL     1      -4.882  14.593 -26.157  1.00  0.00     0.197 A 
ATOM      4  O   UNL     1      -6.038  14.523 -25.666  1.00  0.00    -0.289 OA
ATOM      5  C   UNL     1      -4.204  13.452 -26.649  1.00  0.00     0.107 A 
ATOM      6  C   UNL     1      -4.710  12.119 -26.598  1.00  0.00     0.134 A 
ATOM      7  C   UNL     1      -3.991  11.084 -27.208  1.00  0.00     0.093 A 
ATOM      8  C   UNL     1      -2.759  11.322 -27.817  1.00  0.00     0.123 A 
ATOM      9  C   UNL     1      -2.231  12.613 -27.829  1.00  0.00     0.094 A 
ATOM     10  C   UNL     1      -2.940  13.673 -27.260  1.00  0.00     0.146 A 
ATOM     11  O   UNL     1      -2.410  14.891 -27.310  1.00  0.00    -0.456 OA
ENDROOT
BRANCH   1  12
ATOM     12  C   UNL     1      -2.318  17.282 -26.928  1.00  0.00     0.021 A 
ATOM     13  C   UNL     1      -2.495  18.128 -28.039  1.00  0.00     0.016 A 
ATOM     14  C   UNL     1      -1.822  19.350 -28.113  1.00  0.00     0.051 A 
ATOM     15  C   UNL     1      -0.956  19.744 -27.087  1.00  0.00     0.157 A 
ATOM     16  C   UNL     1      -1.437  17.679 -25.908  1.00  0.00     0.062 A 
ATOM     17  C   UNL     1      -0.762  18.903 -25.979  1.00  0.00     0.158 A 
BRANCH  15  18
ATOM     18  O   UNL     1      -0.287  20.965 -27.163  1.00  0.00    -0.504 OA
ATOM     19  H   UNL     1      -0.726  21.830 -26.867  1.00  0.00     0.293 HD
ENDBRANCH  15  18
BRANCH  17  20
ATOM     20  O   UNL     1       0.097  19.265 -24.941  1.00  0.00    -0.504 OA
ATOM     21  H   UNL     1       0.893  18.697 -24.678  1.00  0.00     0.293 HD
ENDBRANCH  17  20
ENDBRANCH   1  12
BRANCH   6  22
ATOM     22  O   UNL     1      -5.892  11.753 -25.946  1.00  0.00    -0.507 OA
ATOM     23  H   UNL     1      -6.043  10.880 -25.465  1.00  0.00     0.293 HD
ENDBRANCH   6  22
BRANCH   8  24
ATOM     24  O   UNL     1      -2.064  10.265 -28.399  1.00  0.00    -0.508 OA
ATOM     25  H   UNL     1      -2.118   9.325 -28.027  1.00  0.00     0.293 HD
ENDBRANCH   8  24
TORSDOF 5
ENDMDL
MODEL 6
REMARK VINA RESULT:    -5.860      1.369      3.067
REMARK INTER + INTRA:          -7.153
REMARK INTER:                  -6.888
REMARK INTRA:                  -0.265
REMARK UNBOUND:                -0.265
REMARK SMILES O=c1cc(-c2ccc(O)c(O)c2)oc2cc(O)cc(O)c12
REMARK SMILES IDX 4 1 3 2 2 3 1 4 21 5 19 6 18 7 16 8 15 9 14 10 13 11 5 12
REMARK SMILES IDX 6 13 7 14 8 15 12 16 10 17 9 18 11 20 20 22 17 24
REMARK H PARENT 9 19 11 21 20 23 17 25
REMARK Flexibility Score: inf
ROOT
ATOM      1  C   UNL     1      -2.711  14.392 -26.773  1.00  0.00     0.138 A 
ATOM      2  C   UNL     1      -2.562  14.068 -28.128  1.00  0.00     0.100 A 
ATOM      3  C   UNL     1      -3.207  12.943 -28.645  1.00  0.00     0.197 A 
ATOM      4  O   UNL     1      -3.010  12.649 -29.851  1.00  0.00    -0.289 OA
ATOM      5  C   UNL     1      -4.036  12.159 -27.806  1.00  0.00     0.107 A 
ATOM      6  C   UNL     1      -4.769  11.010 -28.229  1.00  0.00     0.134 A 
ATOM      7  C   UNL     1      -5.476  10.257 -27.285  1.00  0.00     0.093 A 
ATOM      8  C   UNL     1      -5.524  10.640 -25.945  1.00  0.00     0.123 A 
ATOM      9  C   UNL     1      -4.852  11.789 -25.528  1.00  0.00     0.094 A 
ATOM     10  C   UNL     1      -4.109  12.543 -26.440  1.00  0.00     0.146 A 
ATOM     11  O   UNL     1      -3.468  13.621 -25.999  1.00  0.00    -0.456 OA
ENDROOT
BRANCH   1  12
ATOM     12  C   UNL     1      -2.051  15.578 -26.170  1.00  0.00     0.021 A 
ATOM     13  C   UNL     1      -1.132  15.455 -25.111  1.00  0.00     0.016 A 
ATOM     14  C   UNL     1      -0.533  16.590 -24.558  1.00  0.00     0.051 A 
ATOM     15  C   UNL     1      -0.845  17.864 -25.046  1.00  0.00     0.157 A 
ATOM     16  C   UNL     1      -2.368  16.862 -26.647  1.00  0.00     0.062 A 
ATOM     17  C   UNL     1      -1.768  18.000 -26.096  1.00  0.00     0.158 A 
BRANCH  15  18
ATOM     18  O   UNL     1      -0.243  18.994 -24.494  1.00  0.00    -0.504 OA
ATOM     19  H   UNL     1       0.086  19.757 -25.074  1.00  0.00     0.293 HD
ENDBRANCH  15  18
BRANCH  17  20
ATOM     20  O   UNL     1      -2.103  19.255 -26.603  1.00  0.00    -0.504 OA
ATOM     21  H   UNL     1      -2.360  19.393 -27.573  1.00  0.00     0.293 HD
ENDBRANCH  17  20
ENDBRANCH   1  12
BRANCH   6  22
ATOM     22  O   UNL     1      -4.856  10.582 -29.557  1.00  0.00    -0.507 OA
ATOM     23  H   UNL     1      -4.289   9.859 -29.972  1.00  0.00     0.293 HD
ENDBRANCH   6  22
BRANCH   8  24
ATOM     24  O   UNL     1      -6.252   9.875 -25.036  1.00  0.00    -0.508 OA
ATOM     25  H   UNL     1      -6.085   9.935 -24.038  1.00  0.00     0.293 HD
ENDBRANCH   8  24
TORSDOF 5
ENDMDL
MODEL 7
REMARK VINA RESULT:    -5.653      1.908      7.352
REMARK INTER + INTRA:          -6.910
REMARK INTER:                  -6.631
REMARK INTRA:                  -0.279
REMARK UNBOUND:                -0.265
REMARK SMILES O=c1cc(-c2ccc(O)c(O)c2)oc2cc(O)cc(O)c12
REMARK SMILES IDX 4 1 3 2 2 3 1 4 21 5 19 6 18 7 16 8 15 9 14 10 13 11 5 12
REMARK SMILES IDX 6 13 7 14 8 15 12 16 10 17 9 18 11 20 20 22 17 24
REMARK H PARENT 9 19 11 21 20 23 17 25
REMARK Flexibility Score: inf
ROOT
ATOM      1  C   UNL     1      -3.212  14.622 -28.486  1.00  0.00     0.138 A 
ATOM      2  C   UNL     1      -3.686  15.888 -28.856  1.00  0.00     0.100 A 
ATOM      3  C   UNL     1      -3.292  17.013 -28.130  1.00  0.00     0.197 A 
ATOM      4  O   UNL     1      -3.776  18.127 -28.453  1.00  0.00    -0.289 OA
ATOM      5  C   UNL     1      -2.388  16.872 -27.049  1.00  0.00     0.107 A 
ATOM      6  C   UNL     1      -1.890  17.951 -26.258  1.00  0.00     0.134 A 
ATOM      7  C   UNL     1      -1.077  17.676 -25.151  1.00  0.00     0.093 A 
ATOM      8  C   UNL     1      -0.698  16.371 -24.840  1.00  0.00     0.123 A 
ATOM      9  C   UNL     1      -1.138  15.313 -25.635  1.00  0.00     0.094 A 
ATOM     10  C   UNL     1      -1.978  15.550 -26.726  1.00  0.00     0.146 A 
ATOM     11  O   UNL     1      -2.391  14.512 -27.447  1.00  0.00    -0.456 OA
ENDROOT
BRANCH   1  12
ATOM     12  C   UNL     1      -3.597  13.392 -29.224  1.00  0.00     0.021 A 
ATOM     13  C   UNL     1      -3.880  12.186 -28.556  1.00  0.00     0.016 A 
ATOM     14  C   UNL     1      -4.230  11.042 -29.277  1.00  0.00     0.051 A 
ATOM     15  C   UNL     1      -4.298  11.080 -30.675  1.00  0.00     0.157 A 
ATOM     16  C   UNL     1      -3.655  13.418 -30.628  1.00  0.00     0.062 A 
ATOM     17  C   UNL     1      -4.007  12.274 -31.353  1.00  0.00     0.158 A 
BRANCH  15  18
ATOM     18  O   UNL     1      -4.651   9.937 -31.392  1.00  0.00    -0.504 OA
ATOM     19  H   UNL     1      -4.967   9.094 -30.924  1.00  0.00     0.293 HD
ENDBRANCH  15  18
BRANCH  17  20
ATOM     20  O   UNL     1      -4.062  12.344 -32.745  1.00  0.00    -0.504 OA
ATOM     21  H   UNL     1      -4.830  12.791 -33.232  1.00  0.00     0.293 HD
ENDBRANCH  17  20
ENDBRANCH   1  12
BRANCH   6  22
ATOM     22  O   UNL     1      -2.139  19.300 -26.527  1.00  0.00    -0.507 OA
ATOM     23  H   UNL     1      -1.461  20.042 -26.446  1.00  0.00     0.293 HD
ENDBRANCH   6  22
BRANCH   8  24
ATOM     24  O   UNL     1       0.125  16.137 -23.740  1.00  0.00    -0.508 OA
ATOM     25  H   UNL     1       0.685  15.296 -23.666  1.00  0.00     0.293 HD
ENDBRANCH   8  24
TORSDOF 5
ENDMDL
MODEL 8
REMARK VINA RESULT:    -5.515      2.512      4.106
REMARK INTER + INTRA:          -6.747
REMARK INTER:                  -6.471
REMARK INTRA:                  -0.276
REMARK UNBOUND:                -0.265
REMARK SMILES O=c1cc(-c2ccc(O)c(O)c2)oc2cc(O)cc(O)c12
REMARK SMILES IDX 4 1 3 2 2 3 1 4 21 5 19 6 18 7 16 8 15 9 14 10 13 11 5 12
REMARK SMILES IDX 6 13 7 14 8 15 12 16 10 17 9 18 11 20 20 22 17 24
REMARK H PARENT 9 19 11 21 20 23 17 25
REMARK Flexibility Score: inf
ROOT
ATOM      1  C   UNL     1      -2.122  16.396 -26.733  1.00  0.00     0.138 A 
ATOM      2  C   UNL     1      -1.397  15.252 -27.098  1.00  0.00     0.100 A 
ATOM      3  C   UNL     1      -2.008  13.999 -27.035  1.00  0.00     0.197 A 
ATOM      4  O   UNL     1      -1.315  12.988 -27.316  1.00  0.00    -0.289 OA
ATOM      5  C   UNL     1      -3.364  13.895 -26.639  1.00  0.00     0.107 A 
ATOM      6  C   UNL     1      -4.100  12.674 -26.570  1.00  0.00     0.134 A 
ATOM      7  C   UNL     1      -5.407  12.685 -26.068  1.00  0.00     0.093 A 
ATOM      8  C   UNL     1      -6.024  13.876 -25.687  1.00  0.00     0.123 A 
ATOM      9  C   UNL     1      -5.332  15.082 -25.798  1.00  0.00     0.094 A 
ATOM     10  C   UNL     1      -4.014  15.100 -26.261  1.00  0.00     0.146 A 
ATOM     11  O   UNL     1      -3.383  16.268 -26.333  1.00  0.00    -0.456 OA
ENDROOT
BRANCH   1  12
ATOM     12  C   UNL     1      -1.524  17.754 -26.783  1.00  0.00     0.021 A 
ATOM     13  C   UNL     1      -0.427  18.110 -25.975  1.00  0.00     0.016 A 
ATOM     14  C   UNL     1       0.109  19.399 -26.037  1.00  0.00     0.051 A 
ATOM     15  C   UNL     1      -0.443  20.355 -26.898  1.00  0.00     0.157 A 
ATOM     16  C   UNL     1      -2.080  18.723 -27.636  1.00  0.00     0.062 A 
ATOM     17  C   UNL     1      -1.544  20.014 -27.700  1.00  0.00     0.158 A 
BRANCH  15  18
ATOM     18  O   UNL     1       0.096  21.639 -26.959  1.00  0.00    -0.504 OA
ATOM     19  H   UNL     1       0.742  21.909 -27.692  1.00  0.00     0.293 HD
ENDBRANCH  15  18
BRANCH  17  20
ATOM     20  O   UNL     1      -2.120  20.945 -28.566  1.00  0.00    -0.504 OA
ATOM     21  H   UNL     1      -2.555  20.670 -29.439  1.00  0.00     0.293 HD
ENDBRANCH  17  20
ENDBRANCH   1  12
BRANCH   6  22
ATOM     22  O   UNL     1      -3.610  11.437 -26.999  1.00  0.00    -0.507 OA
ATOM     23  H   UNL     1      -3.575  11.128 -27.958  1.00  0.00     0.293 HD
ENDBRANCH   6  22
BRANCH   8  24
ATOM     24  O   UNL     1      -7.332  13.851 -25.208  1.00  0.00    -0.508 OA
ATOM     25  H   UNL     1      -8.093  13.473 -25.761  1.00  0.00     0.293 HD
ENDBRANCH   8  24
TORSDOF 5
ENDMDL
MODEL 9
REMARK VINA RESULT:    -5.339      1.807      7.291
REMARK INTER + INTRA:          -6.540
REMARK INTER:                  -6.252
REMARK INTRA:                  -0.289
REMARK UNBOUND:                -0.265
REMARK SMILES O=c1cc(-c2ccc(O)c(O)c2)oc2cc(O)cc(O)c12
REMARK SMILES IDX 4 1 3 2 2 3 1 4 21 5 19 6 18 7 16 8 15 9 14 10 13 11 5 12
REMARK SMILES IDX 6 13 7 14 8 15 12 16 10 17 9 18 11 20 20 22 17 24
REMARK H PARENT 9 19 11 21 20 23 17 25
REMARK Flexibility Score: inf
ROOT
ATOM      1  C   UNL     1      -3.543  15.086 -26.900  1.00  0.00     0.138 A 
ATOM      2  C   UNL     1      -3.827  15.966 -27.953  1.00  0.00     0.100 A 
ATOM      3  C   UNL     1      -3.243  17.234 -27.971  1.00  0.00     0.197 A 
ATOM      4  O   UNL     1      -3.561  18.020 -28.900  1.00  0.00    -0.289 OA
ATOM      5  C   UNL     1      -2.341  17.608 -26.946  1.00  0.00     0.107 A 
ATOM      6  C   UNL     1      -1.660  18.860 -26.878  1.00  0.00     0.134 A 
ATOM      7  C   UNL     1      -0.867  19.154 -25.761  1.00  0.00     0.093 A 
ATOM      8  C   UNL     1      -0.684  18.223 -24.740  1.00  0.00     0.123 A 
ATOM      9  C   UNL     1      -1.305  16.976 -24.820  1.00  0.00     0.094 A 
ATOM     10  C   UNL     1      -2.130  16.665 -25.904  1.00  0.00     0.146 A 
ATOM     11  O   UNL     1      -2.718  15.473 -25.933  1.00  0.00    -0.456 OA
ENDROOT
BRANCH   1  12
ATOM     12  C   UNL     1      -4.134  13.725 -26.832  1.00  0.00     0.021 A 
ATOM     13  C   UNL     1      -4.115  12.854 -27.937  1.00  0.00     0.016 A 
ATOM     14  C   UNL     1      -4.687  11.582 -27.846  1.00  0.00     0.051 A 
ATOM     15  C   UNL     1      -5.292  11.162 -26.656  1.00  0.00     0.157 A 
ATOM     16  C   UNL     1      -4.755  13.300 -25.644  1.00  0.00     0.062 A 
ATOM     17  C   UNL     1      -5.327  12.027 -25.550  1.00  0.00     0.158 A 
BRANCH  15  18
ATOM     18  O   UNL     1      -5.860   9.891 -26.568  1.00  0.00    -0.504 OA
ATOM     19  H   UNL     1      -5.296   9.070 -26.380  1.00  0.00     0.293 HD
ENDBRANCH  15  18
BRANCH  17  20
ATOM     20  O   UNL     1      -5.926  11.640 -24.351  1.00  0.00    -0.504 OA
ATOM     21  H   UNL     1      -6.216  10.685 -24.178  1.00  0.00     0.293 HD
ENDBRANCH  17  20
ENDBRANCH   1  12
BRANCH   6  22
ATOM     22  O   UNL     1      -1.707  19.834 -27.880  1.00  0.00    -0.507 OA
ATOM     23  H   UNL     1      -2.550  20.246 -28.249  1.00  0.00     0.293 HD
ENDBRANCH   6  22
BRANCH   8  24
ATOM     24  O   UNL     1       0.125  18.544 -23.653  1.00  0.00    -0.508 OA
ATOM     25  H   UNL     1      -0.166  19.220 -22.956  1.00  0.00     0.293 HD
ENDBRANCH   8  24
TORSDOF 5
ENDMDL
