MODEL 1
REMARK VINA RESULT:    -3.317      0.000      0.000
REMARK INTER + INTRA:          -5.457
REMARK INTER:                  -5.063
REMARK INTRA:                  -0.394
REMARK UNBOUND:                -0.394
REMARK SMILES CC1=CCC[C@H](C)C(=O)C[C@@H](C(C)C)C(=O)C1
REMARK SMILES IDX 8 1 9 2 6 3 7 4 5 5 4 6 3 7 2 8 1 9 10 11 11 12 15 13 16 14
REMARK SMILES IDX 17 15 12 17 13 18 14 19
REMARK H PARENT
REMARK Flexibility Score: 70.00
ROOT
ATOM      1  C   UNL     1      15.069  55.341  34.205  1.00  0.00     0.136 C 
ATOM      2  O   UNL     1      13.903  55.296  34.571  1.00  0.00    -0.299 OA
ENDROOT
BRANCH   1   3
ATOM      3  C   UNL     1      15.814  56.656  34.238  1.00  0.00     0.053 C 
ATOM      4  C   UNL     1      16.306  56.981  35.653  1.00  0.00     0.016 C 
BRANCH   3   5
ATOM      5  C   UNL     1      16.986  56.596  33.228  1.00  0.00     0.015 C 
BRANCH   5   6
ATOM      6  C   UNL     1      18.399  56.508  33.838  1.00  0.00     0.028 C 
BRANCH   6   7
ATOM      7  C   UNL     1      19.366  55.536  33.198  1.00  0.00    -0.028 C 
ATOM      8  C   UNL     1      19.764  54.337  33.691  1.00  0.00    -0.070 CG0
ATOM      9  C   UNL     1      20.832  53.588  32.931  1.00  0.00     0.039 C 
ATOM     10  G   UNL     1      19.147  53.667  34.906  1.00  0.00     0.000 G0
ENDBRANCH   6   7
ENDBRANCH   5   6
ENDBRANCH   3   5
ENDBRANCH   1   3
BRANCH   1  11
ATOM     11  C   UNL     1      15.764  54.061  33.796  1.00  0.00     0.087 C 
BRANCH  11  12
ATOM     12  C   UNL     1      16.509  53.382  34.983  1.00  0.00     0.066 C 
BRANCH  12  13
ATOM     13  C   UNL     1      17.887  52.892  34.558  1.00  0.00     0.140 C 
ATOM     14  O   UNL     1      17.982  51.841  33.940  1.00  0.00    -0.299 OA
BRANCH  13  15
ATOM     15  C   UNL     1      19.154  53.649  34.904  1.00  0.00     0.106 CG0
ATOM     16  G   UNL     1      19.731  54.326  33.674  1.00  0.00     0.000 G0
ENDBRANCH  13  15
ENDBRANCH  12  13
BRANCH  12  17
ATOM     17  C   UNL     1      15.698  52.221  35.645  1.00  0.00    -0.006 C 
ATOM     18  C   UNL     1      15.209  52.603  37.053  1.00  0.00     0.008 C 
ATOM     19  C   UNL     1      14.515  51.716  34.798  1.00  0.00     0.008 C 
ENDBRANCH  12  17
ENDBRANCH  11  12
ENDBRANCH   1  11
TORSDOF 1
ENDMDL
MODEL 2
REMARK VINA RESULT:    -3.106     12.403     14.495
REMARK INTER + INTRA:          -5.134
REMARK INTER:                  -4.728
REMARK INTRA:                  -0.406
REMARK UNBOUND:                -0.394
REMARK SMILES CC1=CCC[C@H](C)C(=O)C[C@@H](C(C)C)C(=O)C1
REMARK SMILES IDX 8 1 9 2 6 3 7 4 5 5 4 6 3 7 2 8 1 9 10 11 11 12 15 13 16 14
REMARK SMILES IDX 17 15 12 17 13 18 14 19
REMARK H PARENT
REMARK Flexibility Score: 70.00
ROOT
ATOM      1  C   UNL     1      14.860  61.556  20.865  1.00  0.00     0.136 C 
ATOM      2  O   UNL     1      15.199  60.741  20.018  1.00  0.00    -0.299 OA
ENDROOT
BRANCH   1   3
ATOM      3  C   UNL     1      13.390  61.812  21.112  1.00  0.00     0.053 C 
ATOM      4  C   UNL     1      12.638  62.049  19.797  1.00  0.00     0.016 C 
BRANCH   3   5
ATOM      5  C   UNL     1      12.797  60.619  21.900  1.00  0.00     0.015 C 
BRANCH   5   6
ATOM      6  C   UNL     1      12.533  60.864  23.398  1.00  0.00     0.028 C 
BRANCH   6   7
ATOM      7  C   UNL     1      12.625  62.294  23.889  1.00  0.00    -0.028 C 
ATOM      8  C   UNL     1      13.556  62.809  24.729  1.00  0.00    -0.070 CG0
ATOM      9  C   UNL     1      13.379  64.241  25.174  1.00  0.00     0.039 C 
ATOM     10  G   UNL     1      14.802  62.067  25.181  1.00  0.00     0.000 G0
ENDBRANCH   6   7
ENDBRANCH   5   6
ENDBRANCH   3   5
ENDBRANCH   1   3
BRANCH   1  11
ATOM     11  C   UNL     1      15.921  62.237  21.700  1.00  0.00     0.087 C 
BRANCH  11  12
ATOM     12  C   UNL     1      16.232  61.463  23.015  1.00  0.00     0.066 C 
BRANCH  12  13
ATOM     13  C   UNL     1      15.983  62.337  24.238  1.00  0.00     0.140 C 
ATOM     14  O   UNL     1      16.752  63.256  24.481  1.00  0.00    -0.299 OA
BRANCH  13  15
ATOM     15  C   UNL     1      14.828  62.085  25.187  1.00  0.00     0.106 CG0
ATOM     16  G   UNL     1      13.580  62.814  24.723  1.00  0.00     0.000 G0
ENDBRANCH  13  15
ENDBRANCH  12  13
BRANCH  12  17
ATOM     17  C   UNL     1      17.675  60.864  23.059  1.00  0.00    -0.006 C 
ATOM     18  C   UNL     1      17.870  59.947  24.279  1.00  0.00     0.008 C 
ATOM     19  C   UNL     1      18.088  60.121  21.773  1.00  0.00     0.008 C 
ENDBRANCH  12  17
ENDBRANCH  11  12
ENDBRANCH   1  11
TORSDOF 1
ENDMDL
MODEL 3
REMARK VINA RESULT:    -3.086     12.383     13.734
REMARK INTER + INTRA:          -5.104
REMARK INTER:                  -4.831
REMARK INTRA:                  -0.272
REMARK UNBOUND:                -0.394
REMARK SMILES CC1=CCC[C@H](C)C(=O)C[C@@H](C(C)C)C(=O)C1
REMARK SMILES IDX 8 1 9 2 6 3 7 4 5 5 4 6 3 7 2 8 1 9 10 11 11 12 15 13 16 14
REMARK SMILES IDX 17 15 12 17 13 18 14 19
REMARK H PARENT
REMARK Flexibility Score: 70.00
ROOT
ATOM      1  C   UNL     1      12.812  59.624  21.003  1.00  0.00     0.136 C 
ATOM      2  O   UNL     1      11.715  59.682  21.539  1.00  0.00    -0.299 OA
ENDROOT
BRANCH   1   3
ATOM      3  C   UNL     1      13.384  60.853  20.333  1.00  0.00     0.053 C 
ATOM      4  C   UNL     1      12.299  61.631  19.579  1.00  0.00     0.016 C 
BRANCH   3   5
ATOM      5  C   UNL     1      14.075  61.734  21.403  1.00  0.00     0.015 C 
BRANCH   5   6
ATOM      6  C   UNL     1      15.572  62.022  21.175  1.00  0.00     0.028 C 
BRANCH   6   7
ATOM      7  C   UNL     1      16.534  61.560  22.248  1.00  0.00    -0.028 C 
ATOM      8  C   UNL     1      16.925  60.286  22.499  1.00  0.00    -0.070 CG0
ATOM      9  C   UNL     1      17.806  60.050  23.702  1.00  0.00     0.039 C 
ATOM     10  G   UNL     1      16.604  59.103  21.604  1.00  0.00     0.000 G0
ENDBRANCH   6   7
ENDBRANCH   5   6
ENDBRANCH   3   5
ENDBRANCH   1   3
BRANCH   1  11
ATOM     11  C   UNL     1      13.608  58.341  21.088  1.00  0.00     0.087 C 
BRANCH  11  12
ATOM     12  C   UNL     1      14.275  58.143  22.481  1.00  0.00     0.066 C 
BRANCH  12  13
ATOM     13  C   UNL     1      15.790  58.041  22.354  1.00  0.00     0.140 C 
ATOM     14  O   UNL     1      16.372  57.110  22.893  1.00  0.00    -0.299 OA
BRANCH  13  15
ATOM     15  C   UNL     1      16.608  59.077  21.609  1.00  0.00     0.106 CG0
ATOM     16  G   UNL     1      16.919  60.265  22.502  1.00  0.00     0.000 G0
ENDBRANCH  13  15
ENDBRANCH  12  13
BRANCH  12  17
ATOM     17  C   UNL     1      13.711  56.921  23.274  1.00  0.00    -0.006 C 
ATOM     18  C   UNL     1      12.685  57.358  24.334  1.00  0.00     0.008 C 
ATOM     19  C   UNL     1      13.109  55.816  22.385  1.00  0.00     0.008 C 
ENDBRANCH  12  17
ENDBRANCH  11  12
ENDBRANCH   1  11
TORSDOF 1
ENDMDL
MODEL 4
REMARK VINA RESULT:    -3.041      2.782      5.078
REMARK INTER + INTRA:          -5.035
REMARK INTER:                  -4.704
REMARK INTRA:                  -0.330
REMARK UNBOUND:                -0.394
REMARK SMILES CC1=CCC[C@H](C)C(=O)C[C@@H](C(C)C)C(=O)C1
REMARK SMILES IDX 8 1 9 2 6 3 7 4 5 5 4 6 3 7 2 8 1 9 10 11 11 12 15 13 16 14
REMARK SMILES IDX 17 15 12 17 13 18 14 19
REMARK H PARENT
REMARK Flexibility Score: 70.00
ROOT
ATOM      1  C   UNL     1      16.673  52.855  35.117  1.00  0.00     0.136 C 
ATOM      2  O   UNL     1      16.722  54.067  35.273  1.00  0.00    -0.299 OA
ENDROOT
BRANCH   1   3
ATOM      3  C   UNL     1      15.445  52.092  35.560  1.00  0.00     0.053 C 
ATOM      4  C   UNL     1      15.253  52.181  37.079  1.00  0.00     0.016 C 
BRANCH   3   5
ATOM      5  C   UNL     1      14.212  52.635  34.798  1.00  0.00     0.015 C 
BRANCH   5   6
ATOM      6  C   UNL     1      14.319  52.643  33.261  1.00  0.00     0.028 C 
BRANCH   6   7
ATOM      7  C   UNL     1      14.396  51.299  32.568  1.00  0.00    -0.028 C 
ATOM      8  C   UNL     1      15.243  50.942  31.572  1.00  0.00    -0.070 CG0
ATOM      9  C   UNL     1      15.058  49.578  30.952  1.00  0.00     0.039 C 
ATOM     10  G   UNL     1      16.411  51.790  31.100  1.00  0.00     0.000 G0
ENDBRANCH   6   7
ENDBRANCH   5   6
ENDBRANCH   3   5
ENDBRANCH   1   3
BRANCH   1  11
ATOM     11  C   UNL     1      17.814  52.155  34.413  1.00  0.00     0.087 C 
BRANCH  11  12
ATOM     12  C   UNL     1      18.038  52.686  32.967  1.00  0.00     0.066 C 
BRANCH  12  13
ATOM     13  C   UNL     1      17.642  51.642  31.930  1.00  0.00     0.140 C 
ATOM     14  O   UNL     1      18.356  50.663  31.767  1.00  0.00    -0.299 OA
BRANCH  13  15
ATOM     15  C   UNL     1      16.404  51.792  31.068  1.00  0.00     0.106 CG0
ATOM     16  G   UNL     1      15.271  50.931  31.596  1.00  0.00     0.000 G0
ENDBRANCH  13  15
ENDBRANCH  12  13
BRANCH  12  17
ATOM     17  C   UNL     1      19.496  53.186  32.706  1.00  0.00    -0.006 C 
ATOM     18  C   UNL     1      19.583  54.032  31.424  1.00  0.00     0.008 C 
ATOM     19  C   UNL     1      20.118  53.957  33.886  1.00  0.00     0.008 C 
ENDBRANCH  12  17
ENDBRANCH  11  12
ENDBRANCH   1  11
TORSDOF 1
ENDMDL
MODEL 5
REMARK VINA RESULT:    -2.851      2.413      3.656
REMARK INTER + INTRA:          -4.745
REMARK INTER:                  -5.135
REMARK INTRA:                   0.390
REMARK UNBOUND:                -0.394
REMARK SMILES CC1=CCC[C@H](C)C(=O)C[C@@H](C(C)C)C(=O)C1
REMARK SMILES IDX 8 1 9 2 6 3 7 4 5 5 4 6 3 7 2 8 1 9 10 11 11 12 15 13 16 14
REMARK SMILES IDX 17 15 12 17 13 18 14 19
REMARK H PARENT
REMARK Flexibility Score: 70.00
ROOT
ATOM      1  C   UNL     1      14.813  53.567  35.705  1.00  0.00     0.136 C 
ATOM      2  O   UNL     1      14.727  54.733  36.061  1.00  0.00    -0.299 OA
ENDROOT
BRANCH   1   3
ATOM      3  C   UNL     1      15.690  52.609  36.480  1.00  0.00     0.053 C 
ATOM      4  C   UNL     1      14.849  51.571  37.233  1.00  0.00     0.016 C 
BRANCH   3   5
ATOM      5  C   UNL     1      16.686  51.937  35.505  1.00  0.00     0.015 C 
BRANCH   5   6
ATOM      6  C   UNL     1      17.933  52.763  35.138  1.00  0.00     0.028 C 
BRANCH   6   7
ATOM      7  C   UNL     1      18.414  52.685  33.704  1.00  0.00    -0.028 C 
ATOM      8  C   UNL     1      17.846  53.267  32.620  1.00  0.00    -0.070 CG0
ATOM      9  C   UNL     1      18.437  52.952  31.267  1.00  0.00     0.039 C 
ATOM     10  G   UNL     1      16.711  54.274  32.689  1.00  0.00     0.000 G0
ENDBRANCH   6   7
ENDBRANCH   5   6
ENDBRANCH   3   5
ENDBRANCH   1   3
BRANCH   1  11
ATOM     11  C   UNL     1      13.979  53.089  34.537  1.00  0.00     0.087 C 
BRANCH  11  12
ATOM     12  C   UNL     1      14.847  52.502  33.385  1.00  0.00     0.066 C 
BRANCH  12  13
ATOM     13  C   UNL     1      15.361  53.606  32.469  1.00  0.00     0.140 C 
ATOM     14  O   UNL     1      14.692  53.938  31.501  1.00  0.00    -0.299 OA
BRANCH  13  15
ATOM     15  C   UNL     1      16.696  54.287  32.699  1.00  0.00     0.106 CG0
ATOM     16  G   UNL     1      17.833  53.283  32.624  1.00  0.00     0.000 G0
ENDBRANCH  13  15
ENDBRANCH  12  13
BRANCH  12  17
ATOM     17  C   UNL     1      14.115  51.401  32.552  1.00  0.00    -0.006 C 
ATOM     18  C   UNL     1      15.075  50.692  31.582  1.00  0.00     0.008 C 
ATOM     19  C   UNL     1      13.369  50.358  33.406  1.00  0.00     0.008 C 
ENDBRANCH  12  17
ENDBRANCH  11  12
ENDBRANCH   1  11
TORSDOF 1
ENDMDL
MODEL 6
REMARK VINA RESULT:    -2.839      1.824      3.952
REMARK INTER + INTRA:          -4.727
REMARK INTER:                  -4.442
REMARK INTRA:                  -0.285
REMARK UNBOUND:                -0.394
REMARK SMILES CC1=CCC[C@H](C)C(=O)C[C@@H](C(C)C)C(=O)C1
REMARK SMILES IDX 8 1 9 2 6 3 7 4 5 5 4 6 3 7 2 8 1 9 10 11 11 12 15 13 16 14
REMARK SMILES IDX 17 15 12 17 13 18 14 19
REMARK H PARENT
REMARK Flexibility Score: 70.00
ROOT
ATOM      1  C   UNL     1      14.855  54.209  35.765  1.00  0.00     0.136 C 
ATOM      2  O   UNL     1      13.633  54.268  35.782  1.00  0.00    -0.299 OA
ENDROOT
BRANCH   1   3
ATOM      3  C   UNL     1      15.540  52.865  35.865  1.00  0.00     0.053 C 
ATOM      4  C   UNL     1      15.242  52.187  37.207  1.00  0.00     0.016 C 
BRANCH   3   5
ATOM      5  C   UNL     1      15.096  51.983  34.672  1.00  0.00     0.015 C 
BRANCH   5   6
ATOM      6  C   UNL     1      15.909  52.148  33.373  1.00  0.00     0.028 C 
BRANCH   6   7
ATOM      7  C   UNL     1      17.411  52.274  33.511  1.00  0.00    -0.028 C 
ATOM      8  C   UNL     1      18.189  53.292  33.068  1.00  0.00    -0.070 CG0
ATOM      9  C   UNL     1      19.684  53.145  33.216  1.00  0.00     0.039 C 
ATOM     10  G   UNL     1      17.649  54.599  32.513  1.00  0.00     0.000 G0
ENDBRANCH   6   7
ENDBRANCH   5   6
ENDBRANCH   3   5
ENDBRANCH   1   3
BRANCH   1  11
ATOM     11  C   UNL     1      15.652  55.478  35.567  1.00  0.00     0.087 C 
BRANCH  11  12
ATOM     12  C   UNL     1      15.862  55.823  34.063  1.00  0.00     0.066 C 
BRANCH  12  13
ATOM     13  C   UNL     1      17.302  55.567  33.637  1.00  0.00     0.140 C 
ATOM     14  O   UNL     1      18.206  56.174  34.194  1.00  0.00    -0.299 OA
BRANCH  13  15
ATOM     15  C   UNL     1      17.653  54.606  32.518  1.00  0.00     0.106 CG0
ATOM     16  G   UNL     1      18.183  53.298  33.077  1.00  0.00     0.000 G0
ENDBRANCH  13  15
ENDBRANCH  12  13
BRANCH  12  17
ATOM     17  C   UNL     1      15.435  57.280  33.693  1.00  0.00    -0.006 C 
ATOM     18  C   UNL     1      14.186  57.293  32.796  1.00  0.00     0.008 C 
ATOM     19  C   UNL     1      15.217  58.201  34.909  1.00  0.00     0.008 C 
ENDBRANCH  12  17
ENDBRANCH  11  12
ENDBRANCH   1  11
TORSDOF 1
ENDMDL
MODEL 7
REMARK VINA RESULT:    -2.701     11.906     13.626
REMARK INTER + INTRA:          -4.517
REMARK INTER:                  -4.133
REMARK INTRA:                  -0.383
REMARK UNBOUND:                -0.394
REMARK SMILES CC1=CCC[C@H](C)C(=O)C[C@@H](C(C)C)C(=O)C1
REMARK SMILES IDX 8 1 9 2 6 3 7 4 5 5 4 6 3 7 2 8 1 9 10 11 11 12 15 13 16 14
REMARK SMILES IDX 17 15 12 17 13 18 14 19
REMARK H PARENT
REMARK Flexibility Score: 70.00
ROOT
ATOM      1  C   UNL     1      15.147  62.042  23.962  1.00  0.00     0.136 C 
ATOM      2  O   UNL     1      14.050  62.320  24.428  1.00  0.00    -0.299 OA
ENDROOT
BRANCH   1   3
ATOM      3  C   UNL     1      16.259  61.592  24.883  1.00  0.00     0.053 C 
ATOM      4  C   UNL     1      16.424  62.554  26.066  1.00  0.00     0.016 C 
BRANCH   3   5
ATOM      5  C   UNL     1      15.965  60.149  25.359  1.00  0.00     0.015 C 
BRANCH   5   6
ATOM      6  C   UNL     1      16.886  59.051  24.793  1.00  0.00     0.028 C 
BRANCH   6   7
ATOM      7  C   UNL     1      18.059  59.503  23.950  1.00  0.00    -0.028 C 
ATOM      8  C   UNL     1      18.186  59.396  22.604  1.00  0.00    -0.070 CG0
ATOM      9  C   UNL     1      19.501  59.812  21.990  1.00  0.00     0.039 C 
ATOM     10  G   UNL     1      17.066  58.967  21.673  1.00  0.00     0.000 G0
ENDBRANCH   6   7
ENDBRANCH   5   6
ENDBRANCH   3   5
ENDBRANCH   1   3
BRANCH   1  11
ATOM     11  C   UNL     1      15.344  62.084  22.464  1.00  0.00     0.087 C 
BRANCH  11  12
ATOM     12  C   UNL     1      15.055  60.712  21.786  1.00  0.00     0.066 C 
BRANCH  12  13
ATOM     13  C   UNL     1      16.306  60.156  21.117  1.00  0.00     0.140 C 
ATOM     14  O   UNL     1      16.709  60.672  20.085  1.00  0.00    -0.299 OA
BRANCH  13  15
ATOM     15  C   UNL     1      17.052  58.959  21.673  1.00  0.00     0.106 CG0
ATOM     16  G   UNL     1      18.171  59.402  22.599  1.00  0.00     0.000 G0
ENDBRANCH  13  15
ENDBRANCH  12  13
BRANCH  12  17
ATOM     17  C   UNL     1      13.868  60.756  20.770  1.00  0.00    -0.006 C 
ATOM     18  C   UNL     1      13.009  59.483  20.848  1.00  0.00     0.008 C 
ATOM     19  C   UNL     1      12.972  62.003  20.902  1.00  0.00     0.008 C 
ENDBRANCH  12  17
ENDBRANCH  11  12
ENDBRANCH   1  11
TORSDOF 1
ENDMDL
MODEL 8
REMARK VINA RESULT:    -2.651     12.865     14.475
REMARK INTER + INTRA:          -4.440
REMARK INTER:                  -4.173
REMARK INTRA:                  -0.266
REMARK UNBOUND:                -0.394
REMARK SMILES CC1=CCC[C@H](C)C(=O)C[C@@H](C(C)C)C(=O)C1
REMARK SMILES IDX 8 1 9 2 6 3 7 4 5 5 4 6 3 7 2 8 1 9 10 11 11 12 15 13 16 14
REMARK SMILES IDX 17 15 12 17 13 18 14 19
REMARK H PARENT
REMARK Flexibility Score: 70.00
ROOT
ATOM      1  C   UNL     1      16.444  58.660  22.403  1.00  0.00     0.136 C 
ATOM      2  O   UNL     1      17.048  57.676  22.000  1.00  0.00    -0.299 OA
ENDROOT
BRANCH   1   3
ATOM      3  C   UNL     1      17.096  60.022  22.326  1.00  0.00     0.053 C 
ATOM      4  C   UNL     1      18.483  60.013  22.978  1.00  0.00     0.016 C 
BRANCH   3   5
ATOM      5  C   UNL     1      17.166  60.463  20.844  1.00  0.00     0.015 C 
BRANCH   5   6
ATOM      6  C   UNL     1      16.050  61.414  20.369  1.00  0.00     0.028 C 
BRANCH   6   7
ATOM      7  C   UNL     1      15.091  61.931  21.421  1.00  0.00    -0.028 C 
ATOM      8  C   UNL     1      13.786  61.595  21.569  1.00  0.00    -0.070 CG0
ATOM      9  C   UNL     1      12.992  62.329  22.622  1.00  0.00     0.039 C 
ATOM     10  G   UNL     1      13.100  60.477  20.805  1.00  0.00     0.000 G0
ENDBRANCH   6   7
ENDBRANCH   5   6
ENDBRANCH   3   5
ENDBRANCH   1   3
BRANCH   1  11
ATOM     11  C   UNL     1      15.025  58.501  22.903  1.00  0.00     0.087 C 
BRANCH  11  12
ATOM     12  C   UNL     1      14.023  58.171  21.757  1.00  0.00     0.066 C 
BRANCH  12  13
ATOM     13  C   UNL     1      12.942  59.239  21.648  1.00  0.00     0.140 C 
ATOM     14  O   UNL     1      11.890  59.086  22.252  1.00  0.00    -0.299 OA
BRANCH  13  15
ATOM     15  C   UNL     1      13.114  60.475  20.787  1.00  0.00     0.106 CG0
ATOM     16  G   UNL     1      13.789  61.588  21.569  1.00  0.00     0.000 G0
ENDBRANCH  13  15
ENDBRANCH  12  13
BRANCH  12  17
ATOM     17  C   UNL     1      13.378  56.754  21.883  1.00  0.00    -0.006 C 
ATOM     18  C   UNL     1      13.015  56.172  20.506  1.00  0.00     0.008 C 
ATOM     19  C   UNL     1      14.230  55.741  22.672  1.00  0.00     0.008 C 
ENDBRANCH  12  17
ENDBRANCH  11  12
ENDBRANCH   1  11
TORSDOF 1
ENDMDL
MODEL 9
REMARK VINA RESULT:    -2.630     11.770     13.487
REMARK INTER + INTRA:          -4.408
REMARK INTER:                  -4.139
REMARK INTRA:                  -0.269
REMARK UNBOUND:                -0.394
REMARK SMILES CC1=CCC[C@H](C)C(=O)C[C@@H](C(C)C)C(=O)C1
REMARK SMILES IDX 8 1 9 2 6 3 7 4 5 5 4 6 3 7 2 8 1 9 10 11 11 12 15 13 16 14
REMARK SMILES IDX 17 15 12 17 13 18 14 19
REMARK H PARENT
REMARK Flexibility Score: 70.00
ROOT
ATOM      1  C   UNL     1      12.978  61.685  22.562  1.00  0.00     0.136 C 
ATOM      2  O   UNL     1      12.384  62.746  22.691  1.00  0.00    -0.299 OA
ENDROOT
BRANCH   1   3
ATOM      3  C   UNL     1      13.545  61.305  21.213  1.00  0.00     0.053 C 
ATOM      4  C   UNL     1      12.575  61.663  20.081  1.00  0.00     0.016 C 
BRANCH   3   5
ATOM      5  C   UNL     1      14.916  62.000  21.029  1.00  0.00     0.015 C 
BRANCH   5   6
ATOM      6  C   UNL     1      16.094  61.080  20.653  1.00  0.00     0.028 C 
BRANCH   6   7
ATOM      7  C   UNL     1      15.931  59.602  20.936  1.00  0.00    -0.028 C 
ATOM      8  C   UNL     1      16.238  58.953  22.086  1.00  0.00    -0.070 CG0
ATOM      9  C   UNL     1      16.100  57.449  22.098  1.00  0.00     0.039 C 
ATOM     10  G   UNL     1      16.629  59.646  23.379  1.00  0.00     0.000 G0
ENDBRANCH   6   7
ENDBRANCH   5   6
ENDBRANCH   3   5
ENDBRANCH   1   3
BRANCH   1  11
ATOM     11  C   UNL     1      13.198  60.810  23.776  1.00  0.00     0.087 C 
BRANCH  11  12
ATOM     12  C   UNL     1      14.601  61.020  24.417  1.00  0.00     0.066 C 
BRANCH  12  13
ATOM     13  C   UNL     1      15.444  59.754  24.321  1.00  0.00     0.140 C 
ATOM     14  O   UNL     1      15.172  58.802  25.038  1.00  0.00    -0.299 OA
BRANCH  13  15
ATOM     15  C   UNL     1      16.633  59.646  23.386  1.00  0.00     0.106 CG0
ATOM     16  G   UNL     1      16.239  58.961  22.090  1.00  0.00     0.000 G0
ENDBRANCH  13  15
ENDBRANCH  12  13
BRANCH  12  17
ATOM     17  C   UNL     1      14.542  61.525  25.894  1.00  0.00    -0.006 C 
ATOM     18  C   UNL     1      15.498  62.707  26.128  1.00  0.00     0.008 C 
ATOM     19  C   UNL     1      13.126  61.892  26.378  1.00  0.00     0.008 C 
ENDBRANCH  12  17
ENDBRANCH  11  12
ENDBRANCH   1  11
TORSDOF 1
ENDMDL
