MODEL 1
REMARK VINA RESULT:    -6.780      0.000      0.000
REMARK INTER + INTRA:          -8.189
REMARK INTER:                  -7.969
REMARK INTRA:                  -0.219
REMARK UNBOUND:                -0.219
REMARK SMILES O=c1c(O)c(-c2ccc(O)cc2)oc2cc(O)cc(O)c12
REMARK SMILES IDX 5 1 3 2 2 3 1 4 21 5 19 6 18 7 16 8 15 9 14 10 13 11 6 12
REMARK SMILES IDX 7 13 8 14 9 15 12 16 11 17 10 18 4 20 20 22 17 24
REMARK H PARENT 10 19 4 21 20 23 17 25
REMARK Flexibility Score: inf
ROOT
ATOM      1  C   UNL     1      23.094  16.337   4.040  1.00  0.00     0.180 A 
ATOM      2  C   UNL     1      24.129  15.421   3.788  1.00  0.00     0.208 A 
ATOM      3  C   UNL     1      23.802  14.113   3.398  1.00  0.00     0.238 A 
ATOM      4  O   UNL     1      24.732  13.282   3.227  1.00  0.00    -0.285 OA
ATOM      5  C   UNL     1      22.444  13.743   3.246  1.00  0.00     0.111 A 
ATOM      6  C   UNL     1      21.999  12.457   2.816  1.00  0.00     0.134 A 
ATOM      7  C   UNL     1      20.630  12.161   2.828  1.00  0.00     0.093 A 
ATOM      8  C   UNL     1      19.687  13.126   3.192  1.00  0.00     0.123 A 
ATOM      9  C   UNL     1      20.109  14.402   3.556  1.00  0.00     0.094 A 
ATOM     10  C   UNL     1      21.470  14.716   3.589  1.00  0.00     0.146 A 
ATOM     11  O   UNL     1      21.830  15.941   3.952  1.00  0.00    -0.452 OA
ENDROOT
BRANCH   1  12
ATOM     12  C   UNL     1      23.361  17.741   4.430  1.00  0.00     0.021 A 
ATOM     13  C   UNL     1      23.036  18.171   5.728  1.00  0.00     0.016 A 
ATOM     14  C   UNL     1      23.259  19.497   6.111  1.00  0.00     0.047 A 
ATOM     15  C   UNL     1      23.794  20.412   5.201  1.00  0.00     0.115 A 
ATOM     16  C   UNL     1      23.880  18.672   3.513  1.00  0.00     0.016 A 
ATOM     17  C   UNL     1      24.101  19.997   3.899  1.00  0.00     0.047 A 
BRANCH  15  18
ATOM     18  O   UNL     1      24.011  21.730   5.597  1.00  0.00    -0.508 OA
ATOM     19  H   UNL     1      23.251  22.398   5.653  1.00  0.00     0.293 HD
ENDBRANCH  15  18
ENDBRANCH   1  12
BRANCH   2  20
ATOM     20  O   UNL     1      25.463  15.802   3.966  1.00  0.00    -0.502 OA
ATOM     21  H   UNL     1      25.797  16.231   4.821  1.00  0.00     0.293 HD
ENDBRANCH   2  20
BRANCH   6  22
ATOM     22  O   UNL     1      22.850  11.453   2.345  1.00  0.00    -0.507 OA
ATOM     23  H   UNL     1      22.881  10.511   2.704  1.00  0.00     0.293 HD
ENDBRANCH   6  22
BRANCH   8  24
ATOM     24  O   UNL     1      18.326  12.828   3.185  1.00  0.00    -0.508 OA
ATOM     25  H   UNL     1      17.657  13.393   3.696  1.00  0.00     0.293 HD
ENDBRANCH   8  24
TORSDOF 5
ENDMDL
MODEL 2
REMARK VINA RESULT:    -6.308      1.287      3.176
REMARK INTER + INTRA:          -7.634
REMARK INTER:                  -7.355
REMARK INTRA:                  -0.278
REMARK UNBOUND:                -0.219
REMARK SMILES O=c1c(O)c(-c2ccc(O)cc2)oc2cc(O)cc(O)c12
REMARK SMILES IDX 5 1 3 2 2 3 1 4 21 5 19 6 18 7 16 8 15 9 14 10 13 11 6 12
REMARK SMILES IDX 7 13 8 14 9 15 12 16 11 17 10 18 4 20 20 22 17 24
REMARK H PARENT 10 19 4 21 20 23 17 25
REMARK Flexibility Score: inf
ROOT
ATOM      1  C   UNL     1      22.821  16.660   3.908  1.00  0.00     0.180 A 
ATOM      2  C   UNL     1      21.528  16.299   3.493  1.00  0.00     0.208 A 
ATOM      3  C   UNL     1      21.283  14.974   3.099  1.00  0.00     0.238 A 
ATOM      4  O   UNL     1      20.137  14.671   2.676  1.00  0.00    -0.285 OA
ATOM      5  C   UNL     1      22.330  14.022   3.143  1.00  0.00     0.111 A 
ATOM      6  C   UNL     1      22.185  12.643   2.806  1.00  0.00     0.134 A 
ATOM      7  C   UNL     1      23.317  11.820   2.760  1.00  0.00     0.093 A 
ATOM      8  C   UNL     1      24.580  12.313   3.102  1.00  0.00     0.123 A 
ATOM      9  C   UNL     1      24.722  13.643   3.490  1.00  0.00     0.094 A 
ATOM     10  C   UNL     1      23.616  14.497   3.511  1.00  0.00     0.146 A 
ATOM     11  O   UNL     1      23.796  15.760   3.876  1.00  0.00    -0.452 OA
ENDROOT
BRANCH   1  12
ATOM     12  C   UNL     1      23.150  18.031   4.361  1.00  0.00     0.021 A 
ATOM     13  C   UNL     1      23.830  18.902   3.493  1.00  0.00     0.016 A 
ATOM     14  C   UNL     1      24.169  20.194   3.908  1.00  0.00     0.047 A 
ATOM     15  C   UNL     1      23.849  20.625   5.198  1.00  0.00     0.115 A 
ATOM     16  C   UNL     1      22.848  18.465   5.664  1.00  0.00     0.016 A 
ATOM     17  C   UNL     1      23.190  19.756   6.077  1.00  0.00     0.047 A 
BRANCH  15  18
ATOM     18  O   UNL     1      24.193  21.915   5.598  1.00  0.00    -0.508 OA
ATOM     19  H   UNL     1      24.019  22.717   5.004  1.00  0.00     0.293 HD
ENDBRANCH  15  18
ENDBRANCH   1  12
BRANCH   2  20
ATOM     20  O   UNL     1      20.514  17.262   3.435  1.00  0.00    -0.502 OA
ATOM     21  H   UNL     1      20.457  17.947   2.692  1.00  0.00     0.293 HD
ENDBRANCH   2  20
BRANCH   6  22
ATOM     22  O   UNL     1      20.958  12.030   2.537  1.00  0.00    -0.507 OA
ATOM     23  H   UNL     1      20.290  11.749   3.239  1.00  0.00     0.293 HD
ENDBRANCH   6  22
BRANCH   8  24
ATOM     24  O   UNL     1      25.699  11.484   3.069  1.00  0.00    -0.508 OA
ATOM     25  H   UNL     1      26.069  11.127   2.196  1.00  0.00     0.293 HD
ENDBRANCH   8  24
TORSDOF 5
ENDMDL
MODEL 3
REMARK VINA RESULT:    -6.286      1.388      6.387
REMARK INTER + INTRA:          -7.608
REMARK INTER:                  -7.773
REMARK INTRA:                   0.165
REMARK UNBOUND:                -0.219
REMARK SMILES O=c1c(O)c(-c2ccc(O)cc2)oc2cc(O)cc(O)c12
REMARK SMILES IDX 5 1 3 2 2 3 1 4 21 5 19 6 18 7 16 8 15 9 14 10 13 11 6 12
REMARK SMILES IDX 7 13 8 14 9 15 12 16 11 17 10 18 4 20 20 22 17 24
REMARK H PARENT 10 19 4 21 20 23 17 25
REMARK Flexibility Score: inf
ROOT
ATOM      1  C   UNL     1      21.553  15.119   3.699  1.00  0.00     0.180 A 
ATOM      2  C   UNL     1      22.857  14.713   3.374  1.00  0.00     0.208 A 
ATOM      3  C   UNL     1      23.937  15.537   3.730  1.00  0.00     0.238 A 
ATOM      4  O   UNL     1      25.099  15.194   3.388  1.00  0.00    -0.285 OA
ATOM      5  C   UNL     1      23.699  16.748   4.425  1.00  0.00     0.111 A 
ATOM      6  C   UNL     1      24.720  17.639   4.870  1.00  0.00     0.134 A 
ATOM      7  C   UNL     1      24.364  18.872   5.431  1.00  0.00     0.093 A 
ATOM      8  C   UNL     1      23.023  19.217   5.620  1.00  0.00     0.123 A 
ATOM      9  C   UNL     1      22.020  18.327   5.243  1.00  0.00     0.094 A 
ATOM     10  C   UNL     1      22.344  17.106   4.647  1.00  0.00     0.146 A 
ATOM     11  O   UNL     1      21.358  16.292   4.292  1.00  0.00    -0.452 OA
ENDROOT
BRANCH   1  12
ATOM     12  C   UNL     1      20.366  14.292   3.379  1.00  0.00     0.021 A 
ATOM     13  C   UNL     1      19.364  14.118   4.348  1.00  0.00     0.016 A 
ATOM     14  C   UNL     1      18.245  13.323   4.074  1.00  0.00     0.047 A 
ATOM     15  C   UNL     1      18.122  12.683   2.838  1.00  0.00     0.115 A 
ATOM     16  C   UNL     1      20.247  13.629   2.145  1.00  0.00     0.016 A 
ATOM     17  C   UNL     1      19.128  12.834   1.875  1.00  0.00     0.047 A 
BRANCH  15  18
ATOM     18  O   UNL     1      17.003  11.895   2.580  1.00  0.00    -0.508 OA
ATOM     19  H   UNL     1      16.565  11.343   3.307  1.00  0.00     0.293 HD
ENDBRANCH  15  18
ENDBRANCH   1  12
BRANCH   2  20
ATOM     20  O   UNL     1      23.068  13.524   2.669  1.00  0.00    -0.502 OA
ATOM     21  H   UNL     1      22.479  12.709   2.789  1.00  0.00     0.293 HD
ENDBRANCH   2  20
BRANCH   6  22
ATOM     22  O   UNL     1      26.087  17.353   4.812  1.00  0.00    -0.507 OA
ATOM     23  H   UNL     1      26.528  16.797   4.095  1.00  0.00     0.293 HD
ENDBRANCH   6  22
BRANCH   8  24
ATOM     24  O   UNL     1      22.677  20.439   6.193  1.00  0.00    -0.508 OA
ATOM     25  H   UNL     1      23.047  20.727   7.092  1.00  0.00     0.293 HD
ENDBRANCH   8  24
TORSDOF 5
ENDMDL
MODEL 4
REMARK VINA RESULT:    -4.765      4.074      8.006
REMARK INTER + INTRA:          -5.820
REMARK INTER:                  -6.037
REMARK INTRA:                   0.218
REMARK UNBOUND:                -0.219
REMARK SMILES O=c1c(O)c(-c2ccc(O)cc2)oc2cc(O)cc(O)c12
REMARK SMILES IDX 5 1 3 2 2 3 1 4 21 5 19 6 18 7 16 8 15 9 14 10 13 11 6 12
REMARK SMILES IDX 7 13 8 14 9 15 12 16 11 17 10 18 4 20 20 22 17 24
REMARK H PARENT 10 19 4 21 20 23 17 25
REMARK Flexibility Score: inf
ROOT
ATOM      1  C   UNL     1      23.537  19.401   7.546  1.00  0.00     0.180 A 
ATOM      2  C   UNL     1      24.671  20.113   7.972  1.00  0.00     0.208 A 
ATOM      3  C   UNL     1      24.754  20.522   9.312  1.00  0.00     0.238 A 
ATOM      4  O   UNL     1      25.747  21.207   9.675  1.00  0.00    -0.285 OA
ATOM      5  C   UNL     1      23.712  20.198  10.214  1.00  0.00     0.111 A 
ATOM      6  C   UNL     1      23.711  20.527  11.602  1.00  0.00     0.134 A 
ATOM      7  C   UNL     1      22.568  20.272  12.371  1.00  0.00     0.093 A 
ATOM      8  C   UNL     1      21.452  19.642  11.816  1.00  0.00     0.123 A 
ATOM      9  C   UNL     1      21.466  19.263  10.476  1.00  0.00     0.094 A 
ATOM     10  C   UNL     1      22.578  19.537   9.674  1.00  0.00     0.146 A 
ATOM     11  O   UNL     1      22.547  19.170   8.399  1.00  0.00    -0.452 OA
ENDROOT
BRANCH   1  12
ATOM     12  C   UNL     1      23.389  18.914   6.155  1.00  0.00     0.021 A 
ATOM     13  C   UNL     1      22.847  17.639   5.923  1.00  0.00     0.016 A 
ATOM     14  C   UNL     1      22.718  17.151   4.618  1.00  0.00     0.047 A 
ATOM     15  C   UNL     1      23.141  17.922   3.533  1.00  0.00     0.115 A 
ATOM     16  C   UNL     1      23.832  19.677   5.060  1.00  0.00     0.016 A 
ATOM     17  C   UNL     1      23.703  19.186   3.757  1.00  0.00     0.047 A 
BRANCH  15  18
ATOM     18  O   UNL     1      23.007  17.423   2.239  1.00  0.00    -0.508 OA
ATOM     19  H   UNL     1      23.572  17.774   1.475  1.00  0.00     0.293 HD
ENDBRANCH  15  18
ENDBRANCH   1  12
BRANCH   2  20
ATOM     20  O   UNL     1      25.679  20.441   7.059  1.00  0.00    -0.502 OA
ATOM     21  H   UNL     1      26.596  20.014   7.086  1.00  0.00     0.293 HD
ENDBRANCH   2  20
BRANCH   6  22
ATOM     22  O   UNL     1      24.807  21.074  12.276  1.00  0.00    -0.507 OA
ATOM     23  H   UNL     1      25.243  21.954  12.044  1.00  0.00     0.293 HD
ENDBRANCH   6  22
BRANCH   8  24
ATOM     24  O   UNL     1      20.326  19.378  12.592  1.00  0.00    -0.508 OA
ATOM     25  H   UNL     1      19.391  19.420  12.202  1.00  0.00     0.293 HD
ENDBRANCH   8  24
TORSDOF 5
ENDMDL
MODEL 5
REMARK VINA RESULT:    -4.764      2.645      4.551
REMARK INTER + INTRA:          -5.819
REMARK INTER:                  -5.733
REMARK INTRA:                  -0.086
REMARK UNBOUND:                -0.219
REMARK SMILES O=c1c(O)c(-c2ccc(O)cc2)oc2cc(O)cc(O)c12
REMARK SMILES IDX 5 1 3 2 2 3 1 4 21 5 19 6 18 7 16 8 15 9 14 10 13 11 6 12
REMARK SMILES IDX 7 13 8 14 9 15 12 16 11 17 10 18 4 20 20 22 17 24
REMARK H PARENT 10 19 4 21 20 23 17 25
REMARK Flexibility Score: inf
ROOT
ATOM      1  C   UNL     1      23.613  18.491   5.665  1.00  0.00     0.180 A 
ATOM      2  C   UNL     1      22.322  18.675   5.140  1.00  0.00     0.208 A 
ATOM      3  C   UNL     1      21.913  17.892   4.049  1.00  0.00     0.238 A 
ATOM      4  O   UNL     1      20.776  18.100   3.548  1.00  0.00    -0.285 OA
ATOM      5  C   UNL     1      22.792  16.922   3.509  1.00  0.00     0.111 A 
ATOM      6  C   UNL     1      22.466  16.047   2.430  1.00  0.00     0.134 A 
ATOM      7  C   UNL     1      23.458  15.217   1.891  1.00  0.00     0.093 A 
ATOM      8  C   UNL     1      24.745  15.186   2.435  1.00  0.00     0.123 A 
ATOM      9  C   UNL     1      25.055  15.994   3.526  1.00  0.00     0.094 A 
ATOM     10  C   UNL     1      24.097  16.859   4.062  1.00  0.00     0.146 A 
ATOM     11  O   UNL     1      24.436  17.620   5.094  1.00  0.00    -0.452 OA
ENDROOT
BRANCH   1  12
ATOM     12  C   UNL     1      24.107  19.261   6.830  1.00  0.00     0.021 A 
ATOM     13  C   UNL     1      25.306  19.985   6.721  1.00  0.00     0.016 A 
ATOM     14  C   UNL     1      25.803  20.702   7.815  1.00  0.00     0.047 A 
ATOM     15  C   UNL     1      25.117  20.691   9.033  1.00  0.00     0.115 A 
ATOM     16  C   UNL     1      23.433  19.238   8.063  1.00  0.00     0.016 A 
ATOM     17  C   UNL     1      23.932  19.955   9.156  1.00  0.00     0.047 A 
BRANCH  15  18
ATOM     18  O   UNL     1      25.623  21.410  10.114  1.00  0.00    -0.508 OA
ATOM     19  H   UNL     1      25.035  22.026  10.661  1.00  0.00     0.293 HD
ENDBRANCH  15  18
ENDBRANCH   1  12
BRANCH   2  20
ATOM     20  O   UNL     1      21.479  19.654   5.675  1.00  0.00    -0.502 OA
ATOM     21  H   UNL     1      20.609  19.924   5.231  1.00  0.00     0.293 HD
ENDBRANCH   2  20
BRANCH   6  22
ATOM     22  O   UNL     1      21.188  15.932   1.875  1.00  0.00    -0.507 OA
ATOM     23  H   UNL     1      20.975  15.440   1.021  1.00  0.00     0.293 HD
ENDBRANCH   6  22
BRANCH   8  24
ATOM     24  O   UNL     1      25.721  14.346   1.903  1.00  0.00    -0.508 OA
ATOM     25  H   UNL     1      25.731  13.352   2.101  1.00  0.00     0.293 HD
ENDBRANCH   8  24
TORSDOF 5
ENDMDL
MODEL 6
REMARK VINA RESULT:    -4.677      5.867      9.279
REMARK INTER + INTRA:          -5.717
REMARK INTER:                  -6.092
REMARK INTRA:                   0.375
REMARK UNBOUND:                -0.219
REMARK SMILES O=c1c(O)c(-c2ccc(O)cc2)oc2cc(O)cc(O)c12
REMARK SMILES IDX 5 1 3 2 2 3 1 4 21 5 19 6 18 7 16 8 15 9 14 10 13 11 6 12
REMARK SMILES IDX 7 13 8 14 9 15 12 16 11 17 10 18 4 20 20 22 17 24
REMARK H PARENT 10 19 4 21 20 23 17 25
REMARK Flexibility Score: inf
ROOT
ATOM      1  C   UNL     1      21.275  19.728  10.716  1.00  0.00     0.180 A 
ATOM      2  C   UNL     1      22.336  20.194  11.511  1.00  0.00     0.208 A 
ATOM      3  C   UNL     1      23.592  20.399  10.919  1.00  0.00     0.238 A 
ATOM      4  O   UNL     1      24.552  20.765  11.647  1.00  0.00    -0.285 OA
ATOM      5  C   UNL     1      23.767  20.154   9.535  1.00  0.00     0.111 A 
ATOM      6  C   UNL     1      24.985  20.366   8.823  1.00  0.00     0.134 A 
ATOM      7  C   UNL     1      25.081  19.966   7.484  1.00  0.00     0.093 A 
ATOM      8  C   UNL     1      23.982  19.419   6.815  1.00  0.00     0.123 A 
ATOM      9  C   UNL     1      22.772  19.263   7.486  1.00  0.00     0.094 A 
ATOM     10  C   UNL     1      22.656  19.620   8.832  1.00  0.00     0.146 A 
ATOM     11  O   UNL     1      21.488  19.444   9.437  1.00  0.00    -0.452 OA
ENDROOT
BRANCH   1  12
ATOM     12  C   UNL     1      19.916  19.511  11.264  1.00  0.00     0.021 A 
ATOM     13  C   UNL     1      18.804  19.612  10.411  1.00  0.00     0.016 A 
ATOM     14  C   UNL     1      17.510  19.433  10.912  1.00  0.00     0.047 A 
ATOM     15  C   UNL     1      17.311  19.167  12.269  1.00  0.00     0.115 A 
ATOM     16  C   UNL     1      19.708  19.264  12.632  1.00  0.00     0.016 A 
ATOM     17  C   UNL     1      18.413  19.086  13.129  1.00  0.00     0.047 A 
BRANCH  15  18
ATOM     18  O   UNL     1      16.016  18.990  12.753  1.00  0.00    -0.508 OA
ATOM     19  H   UNL     1      15.233  19.505  12.369  1.00  0.00     0.293 HD
ENDBRANCH  15  18
ENDBRANCH   1  12
BRANCH   2  20
ATOM     20  O   UNL     1      22.147  20.409  12.880  1.00  0.00    -0.502 OA
ATOM     21  H   UNL     1      21.341  20.901  13.247  1.00  0.00     0.293 HD
ENDBRANCH   2  20
BRANCH   6  22
ATOM     22  O   UNL     1      26.111  20.988   9.370  1.00  0.00    -0.507 OA
ATOM     23  H   UNL     1      26.527  21.836   9.017  1.00  0.00     0.293 HD
ENDBRANCH   6  22
BRANCH   8  24
ATOM     24  O   UNL     1      24.082  19.038   5.479  1.00  0.00    -0.508 OA
ATOM     25  H   UNL     1      23.446  19.397   4.776  1.00  0.00     0.293 HD
ENDBRANCH   8  24
TORSDOF 5
ENDMDL
MODEL 7
REMARK VINA RESULT:    -4.375      5.150      8.373
REMARK INTER + INTRA:          -5.362
REMARK INTER:                  -5.422
REMARK INTRA:                   0.060
REMARK UNBOUND:                -0.219
REMARK SMILES O=c1c(O)c(-c2ccc(O)cc2)oc2cc(O)cc(O)c12
REMARK SMILES IDX 5 1 3 2 2 3 1 4 21 5 19 6 18 7 16 8 15 9 14 10 13 11 6 12
REMARK SMILES IDX 7 13 8 14 9 15 12 16 11 17 10 18 4 20 20 22 17 24
REMARK H PARENT 10 19 4 21 20 23 17 25
REMARK Flexibility Score: inf
ROOT
ATOM      1  C   UNL     1      22.733  19.660   8.811  1.00  0.00     0.180 A 
ATOM      2  C   UNL     1      23.648  20.086   9.788  1.00  0.00     0.208 A 
ATOM      3  C   UNL     1      23.220  20.197  11.120  1.00  0.00     0.238 A 
ATOM      4  O   UNL     1      24.030  20.631  11.981  1.00  0.00    -0.285 OA
ATOM      5  C   UNL     1      21.887  19.863  11.462  1.00  0.00     0.111 A 
ATOM      6  C   UNL     1      21.358  19.901  12.786  1.00  0.00     0.134 A 
ATOM      7  C   UNL     1      19.990  19.676  12.989  1.00  0.00     0.093 A 
ATOM      8  C   UNL     1      19.147  19.353  11.923  1.00  0.00     0.123 A 
ATOM      9  C   UNL     1      19.667  19.256  10.634  1.00  0.00     0.094 A 
ATOM     10  C   UNL     1      21.020  19.510  10.396  1.00  0.00     0.146 A 
ATOM     11  O   UNL     1      21.473  19.418   9.152  1.00  0.00    -0.452 OA
ENDROOT
BRANCH   1  12
ATOM     12  C   UNL     1      23.117  19.494   7.390  1.00  0.00     0.021 A 
ATOM     13  C   UNL     1      23.751  20.553   6.717  1.00  0.00     0.016 A 
ATOM     14  C   UNL     1      24.102  20.425   5.369  1.00  0.00     0.047 A 
ATOM     15  C   UNL     1      23.812  19.248   4.674  1.00  0.00     0.115 A 
ATOM     16  C   UNL     1      22.809  18.321   6.679  1.00  0.00     0.016 A 
ATOM     17  C   UNL     1      23.161  18.197   5.331  1.00  0.00     0.047 A 
BRANCH  15  18
ATOM     18  O   UNL     1      24.168  19.136   3.332  1.00  0.00    -0.508 OA
ATOM     19  H   UNL     1      23.477  18.948   2.615  1.00  0.00     0.293 HD
ENDBRANCH  15  18
ENDBRANCH   1  12
BRANCH   2  20
ATOM     20  O   UNL     1      24.954  20.431   9.425  1.00  0.00    -0.502 OA
ATOM     21  H   UNL     1      25.627  19.747   9.101  1.00  0.00     0.293 HD
ENDBRANCH   2  20
BRANCH   6  22
ATOM     22  O   UNL     1      22.130  20.123  13.930  1.00  0.00    -0.507 OA
ATOM     23  H   UNL     1      22.964  19.609  14.169  1.00  0.00     0.293 HD
ENDBRANCH   6  22
BRANCH   8  24
ATOM     24  O   UNL     1      17.791  19.116  12.136  1.00  0.00    -0.508 OA
ATOM     25  H   UNL     1      17.472  18.395  12.772  1.00  0.00     0.293 HD
ENDBRANCH   8  24
TORSDOF 5
ENDMDL
MODEL 8
REMARK VINA RESULT:    -4.351      3.835      6.560
REMARK INTER + INTRA:          -5.334
REMARK INTER:                  -5.085
REMARK INTRA:                  -0.249
REMARK UNBOUND:                -0.219
REMARK SMILES O=c1c(O)c(-c2ccc(O)cc2)oc2cc(O)cc(O)c12
REMARK SMILES IDX 5 1 3 2 2 3 1 4 21 5 19 6 18 7 16 8 15 9 14 10 13 11 6 12
REMARK SMILES IDX 7 13 8 14 9 15 12 16 11 17 10 18 4 20 20 22 17 24
REMARK H PARENT 10 19 4 21 20 23 17 25
REMARK Flexibility Score: inf
ROOT
ATOM      1  C   UNL     1      22.838  19.415   8.304  1.00  0.00     0.180 A 
ATOM      2  C   UNL     1      24.053  20.018   7.937  1.00  0.00     0.208 A 
ATOM      3  C   UNL     1      24.457  19.973   6.594  1.00  0.00     0.238 A 
ATOM      4  O   UNL     1      25.572  20.467   6.281  1.00  0.00    -0.285 OA
ATOM      5  C   UNL     1      23.633  19.342   5.631  1.00  0.00     0.111 A 
ATOM      6  C   UNL     1      23.925  19.273   4.236  1.00  0.00     0.134 A 
ATOM      7  C   UNL     1      23.103  18.510   3.395  1.00  0.00     0.093 A 
ATOM      8  C   UNL     1      21.965  17.868   3.890  1.00  0.00     0.123 A 
ATOM      9  C   UNL     1      21.639  17.979   5.239  1.00  0.00     0.094 A 
ATOM     10  C   UNL     1      22.459  18.703   6.109  1.00  0.00     0.146 A 
ATOM     11  O   UNL     1      22.119  18.774   7.390  1.00  0.00    -0.452 OA
ENDROOT
BRANCH   1  12
ATOM     12  C   UNL     1      22.333  19.443   9.696  1.00  0.00     0.021 A 
ATOM     13  C   UNL     1      21.357  20.388  10.059  1.00  0.00     0.016 A 
ATOM     14  C   UNL     1      20.882  20.446  11.373  1.00  0.00     0.047 A 
ATOM     15  C   UNL     1      21.385  19.574  12.343  1.00  0.00     0.115 A 
ATOM     16  C   UNL     1      22.849  18.583  10.681  1.00  0.00     0.016 A 
ATOM     17  C   UNL     1      22.373  18.645  11.995  1.00  0.00     0.047 A 
BRANCH  15  18
ATOM     18  O   UNL     1      20.902  19.644  13.648  1.00  0.00    -0.508 OA
ATOM     19  H   UNL     1      20.592  20.520  14.051  1.00  0.00     0.293 HD
ENDBRANCH  15  18
ENDBRANCH   1  12
BRANCH   2  20
ATOM     20  O   UNL     1      24.862  20.616   8.908  1.00  0.00    -0.502 OA
ATOM     21  H   UNL     1      24.639  21.512   9.325  1.00  0.00     0.293 HD
ENDBRANCH   2  20
BRANCH   6  22
ATOM     22  O   UNL     1      24.983  19.952   3.625  1.00  0.00    -0.507 OA
ATOM     23  H   UNL     1      25.754  20.375   4.117  1.00  0.00     0.293 HD
ENDBRANCH   6  22
BRANCH   8  24
ATOM     24  O   UNL     1      21.145  17.125   3.044  1.00  0.00    -0.508 OA
ATOM     25  H   UNL     1      20.856  17.479   2.139  1.00  0.00     0.293 HD
ENDBRANCH   8  24
TORSDOF 5
ENDMDL
MODEL 9
REMARK VINA RESULT:    -4.200      2.961      5.198
REMARK INTER + INTRA:          -5.156
REMARK INTER:                  -4.877
REMARK INTRA:                  -0.279
REMARK UNBOUND:                -0.219
REMARK SMILES O=c1c(O)c(-c2ccc(O)cc2)oc2cc(O)cc(O)c12
REMARK SMILES IDX 5 1 3 2 2 3 1 4 21 5 19 6 18 7 16 8 15 9 14 10 13 11 6 12
REMARK SMILES IDX 7 13 8 14 9 15 12 16 11 17 10 18 4 20 20 22 17 24
REMARK H PARENT 10 19 4 21 20 23 17 25
REMARK Flexibility Score: inf
ROOT
ATOM      1  C   UNL     1      23.095  19.057   6.927  1.00  0.00     0.180 A 
ATOM      2  C   UNL     1      23.714  19.911   5.999  1.00  0.00     0.208 A 
ATOM      3  C   UNL     1      23.922  19.455   4.687  1.00  0.00     0.238 A 
ATOM      4  O   UNL     1      24.526  20.204   3.875  1.00  0.00    -0.285 OA
ATOM      5  C   UNL     1      23.491  18.158   4.316  1.00  0.00     0.111 A 
ATOM      6  C   UNL     1      23.615  17.609   3.005  1.00  0.00     0.134 A 
ATOM      7  C   UNL     1      23.274  16.268   2.783  1.00  0.00     0.093 A 
ATOM      8  C   UNL     1      22.755  15.477   3.811  1.00  0.00     0.123 A 
ATOM      9  C   UNL     1      22.575  16.023   5.080  1.00  0.00     0.094 A 
ATOM     10  C   UNL     1      22.940  17.346   5.341  1.00  0.00     0.146 A 
ATOM     11  O   UNL     1      22.763  17.823   6.566  1.00  0.00    -0.452 OA
ENDROOT
BRANCH   1  12
ATOM     12  C   UNL     1      22.819  19.476   8.321  1.00  0.00     0.021 A 
ATOM     13  C   UNL     1      23.819  19.329   9.297  1.00  0.00     0.016 A 
ATOM     14  C   UNL     1      23.573  19.697  10.624  1.00  0.00     0.047 A 
ATOM     15  C   UNL     1      22.323  20.202  10.994  1.00  0.00     0.115 A 
ATOM     16  C   UNL     1      21.558  19.964   8.704  1.00  0.00     0.016 A 
ATOM     17  C   UNL     1      21.314  20.331  10.031  1.00  0.00     0.047 A 
BRANCH  15  18
ATOM     18  O   UNL     1      22.092  20.565  12.319  1.00  0.00    -0.508 OA
ATOM     19  H   UNL     1      21.908  21.526  12.580  1.00  0.00     0.293 HD
ENDBRANCH  15  18
ENDBRANCH   1  12
BRANCH   2  20
ATOM     20  O   UNL     1      24.151  21.180   6.393  1.00  0.00    -0.502 OA
ATOM     21  H   UNL     1      23.547  21.839   6.869  1.00  0.00     0.293 HD
ENDBRANCH   2  20
BRANCH   6  22
ATOM     22  O   UNL     1      24.035  18.338   1.889  1.00  0.00    -0.507 OA
ATOM     23  H   UNL     1      23.693  19.253   1.638  1.00  0.00     0.293 HD
ENDBRANCH   6  22
BRANCH   8  24
ATOM     24  O   UNL     1      22.404  14.150   3.578  1.00  0.00    -0.508 OA
ATOM     25  H   UNL     1      22.693  13.407   4.204  1.00  0.00     0.293 HD
ENDBRANCH   8  24
TORSDOF 5
ENDMDL
