MODEL 1
REMARK VINA RESULT:     0.673      0.000      0.000
REMARK INTER + INTRA:          -1.192
REMARK INTER:                   1.775
REMARK INTRA:                  -2.967
REMARK UNBOUND:                -2.967
REMARK SMILES CCCCCCCCCCCCCCCCCCCCCCCCCCCCCC(=O)[O-]
REMARK SMILES IDX 16 1 17 2 18 3 19 4 20 5 21 6 22 7 23 8 24 9 25 10 26 11
REMARK SMILES IDX 27 12 28 13 29 14 30 15 31 16 32 17 15 18 14 19 13 20 12 21
REMARK SMILES IDX 11 22 10 23 9 24 8 25 7 26 6 27 5 28 4 29 3 30 2 31 1 32
REMARK H PARENT
REMARK Flexibility Score: inf
ROOT
ATOM      1  C   UNL     1      14.802  14.553   8.662  1.00  0.00     0.000 C 
ENDROOT
BRANCH   1   2
ATOM      2  C   UNL     1      16.326  14.430   8.852  1.00  0.00     0.000 C 
BRANCH   2   3
ATOM      3  C   UNL     1      17.113  15.547   8.136  1.00  0.00     0.000 C 
BRANCH   3   4
ATOM      4  C   UNL     1      17.125  16.898   8.879  1.00  0.00     0.000 C 
BRANCH   4   5
ATOM      5  C   UNL     1      16.427  18.062   8.156  1.00  0.00     0.000 C 
BRANCH   5   6
ATOM      6  C   UNL     1      15.556  18.915   9.093  1.00  0.00     0.000 C 
BRANCH   6   7
ATOM      7  C   UNL     1      16.220  19.165  10.459  1.00  0.00     0.000 C 
BRANCH   7   8
ATOM      8  C   UNL     1      15.261  19.127  11.667  1.00  0.00     0.000 C 
BRANCH   8   9
ATOM      9  C   UNL     1      15.662  18.158  12.799  1.00  0.00     0.000 C 
BRANCH   9  10
ATOM     10  C   UNL     1      17.005  17.431  12.598  1.00  0.00     0.000 C 
BRANCH  10  11
ATOM     11  C   UNL     1      16.980  15.976  13.097  1.00  0.00     0.000 C 
BRANCH  11  12
ATOM     12  C   UNL     1      15.901  15.124  12.403  1.00  0.00     0.000 C 
BRANCH  12  13
ATOM     13  C   UNL     1      15.827  13.655  12.867  1.00  0.00     0.006 C 
BRANCH  13  14
ATOM     14  C   UNL     1      16.529  12.657  11.934  1.00  0.00     0.053 C 
BRANCH  14  15
ATOM     15  C   UNL     1      15.852  11.320  11.936  1.00  0.00     0.041 C 
ATOM     16  O   UNL     1      16.011  10.529  12.902  1.00  0.00    -0.550 OA
ATOM     17  O   UNL     1      15.016  10.963  10.885  1.00  0.00    -0.550 OA
ENDBRANCH  14  15
ENDBRANCH  13  14
ENDBRANCH  12  13
ENDBRANCH  11  12
ENDBRANCH  10  11
ENDBRANCH   9  10
ENDBRANCH   8   9
ENDBRANCH   7   8
ENDBRANCH   6   7
ENDBRANCH   5   6
ENDBRANCH   4   5
ENDBRANCH   3   4
ENDBRANCH   2   3
ENDBRANCH   1   2
BRANCH   1  18
ATOM     18  C   UNL     1      14.206  13.321   7.957  1.00  0.00     0.000 C 
BRANCH  18  19
ATOM     19  C   UNL     1      13.720  13.619   6.526  1.00  0.00     0.000 C 
BRANCH  19  20
ATOM     20  C   UNL     1      14.266  14.957   6.000  1.00  0.00     0.000 C 
BRANCH  20  21
ATOM     21  C   UNL     1      13.490  15.485   4.783  1.00  0.00     0.000 C 
BRANCH  21  22
ATOM     22  C   UNL     1      14.036  16.822   4.262  1.00  0.00     0.000 C 
BRANCH  22  23
ATOM     23  C   UNL     1      14.429  16.717   2.784  1.00  0.00     0.000 C 
BRANCH  23  24
ATOM     24  C   UNL     1      14.943  18.059   2.250  1.00  0.00    -0.000 C 
BRANCH  24  25
ATOM     25  C   UNL     1      16.475  18.073   2.181  1.00  0.00    -0.000 C 
BRANCH  25  26
ATOM     26  C   UNL     1      16.984  19.329   1.457  1.00  0.00    -0.000 C 
BRANCH  26  27
ATOM     27  C   UNL     1      16.360  19.494   0.054  1.00  0.00    -0.000 C 
BRANCH  27  28
ATOM     28  C   UNL     1      15.749  20.887  -0.197  1.00  0.00    -0.000 C 
BRANCH  28  29
ATOM     29  C   UNL     1      14.416  20.880  -0.962  1.00  0.00    -0.000 C 
BRANCH  29  30
ATOM     30  C   UNL     1      13.271  20.244  -0.155  1.00  0.00    -0.000 C 
BRANCH  30  31
ATOM     31  C   UNL     1      12.732  18.963  -0.812  1.00  0.00    -0.003 C 
ATOM     32  C   UNL     1      11.409  19.190  -1.542  1.00  0.00     0.004 C 
ENDBRANCH  30  31
ENDBRANCH  29  30
ENDBRANCH  28  29
ENDBRANCH  27  28
ENDBRANCH  26  27
ENDBRANCH  25  26
ENDBRANCH  24  25
ENDBRANCH  23  24
ENDBRANCH  22  23
ENDBRANCH  21  22
ENDBRANCH  20  21
ENDBRANCH  19  20
ENDBRANCH  18  19
ENDBRANCH   1  18
TORSDOF 28
ENDMDL
MODEL 2
REMARK VINA RESULT:     1.312      1.823      3.349
REMARK INTER + INTRA:           0.493
REMARK INTER:                   1.955
REMARK INTRA:                  -1.463
REMARK UNBOUND:                -2.967
REMARK SMILES CCCCCCCCCCCCCCCCCCCCCCCCCCCCCC(=O)[O-]
REMARK SMILES IDX 16 1 17 2 18 3 19 4 20 5 21 6 22 7 23 8 24 9 25 10 26 11
REMARK SMILES IDX 27 12 28 13 29 14 30 15 31 16 32 17 15 18 14 19 13 20 12 21
REMARK SMILES IDX 11 22 10 23 9 24 8 25 7 26 6 27 5 28 4 29 3 30 2 31 1 32
REMARK H PARENT
REMARK Flexibility Score: inf
ROOT
ATOM      1  C   UNL     1      17.115  17.664   7.352  1.00  0.00     0.000 C 
ENDROOT
BRANCH   1   2
ATOM      2  C   UNL     1      17.059  18.057   8.841  1.00  0.00     0.000 C 
BRANCH   2   3
ATOM      3  C   UNL     1      16.215  19.323   9.097  1.00  0.00     0.000 C 
BRANCH   3   4
ATOM      4  C   UNL     1      16.707  20.191  10.272  1.00  0.00     0.000 C 
BRANCH   4   5
ATOM      5  C   UNL     1      16.157  19.810  11.657  1.00  0.00     0.000 C 
BRANCH   5   6
ATOM      6  C   UNL     1      16.459  18.352  12.043  1.00  0.00     0.000 C 
BRANCH   6   7
ATOM      7  C   UNL     1      15.417  17.765  13.011  1.00  0.00     0.000 C 
BRANCH   7   8
ATOM      8  C   UNL     1      15.308  16.226  12.996  1.00  0.00     0.000 C 
BRANCH   8   9
ATOM      9  C   UNL     1      16.580  15.476  12.549  1.00  0.00     0.000 C 
BRANCH   9  10
ATOM     10  C   UNL     1      16.681  14.013  13.021  1.00  0.00     0.000 C 
BRANCH  10  11
ATOM     11  C   UNL     1      16.932  13.027  11.867  1.00  0.00     0.000 C 
BRANCH  11  12
ATOM     12  C   UNL     1      15.697  12.832  10.968  1.00  0.00     0.000 C 
BRANCH  12  13
ATOM     13  C   UNL     1      15.853  13.341   9.521  1.00  0.00     0.006 C 
BRANCH  13  14
ATOM     14  C   UNL     1      14.529  13.687   8.822  1.00  0.00     0.053 C 
BRANCH  14  15
ATOM     15  C   UNL     1      14.476  13.142   7.427  1.00  0.00     0.041 C 
ATOM     16  O   UNL     1      15.538  12.869   6.811  1.00  0.00    -0.550 OA
ATOM     17  O   UNL     1      13.248  12.904   6.821  1.00  0.00    -0.550 OA
ENDBRANCH  14  15
ENDBRANCH  13  14
ENDBRANCH  12  13
ENDBRANCH  11  12
ENDBRANCH  10  11
ENDBRANCH   9  10
ENDBRANCH   8   9
ENDBRANCH   7   8
ENDBRANCH   6   7
ENDBRANCH   5   6
ENDBRANCH   4   5
ENDBRANCH   3   4
ENDBRANCH   2   3
ENDBRANCH   1   2
BRANCH   1  18
ATOM     18  C   UNL     1      16.332  16.369   7.066  1.00  0.00     0.000 C 
BRANCH  18  19
ATOM     19  C   UNL     1      15.052  16.605   6.241  1.00  0.00     0.000 C 
BRANCH  19  20
ATOM     20  C   UNL     1      15.369  17.054   4.804  1.00  0.00     0.000 C 
BRANCH  20  21
ATOM     21  C   UNL     1      16.865  17.327   4.578  1.00  0.00     0.000 C 
BRANCH  21  22
ATOM     22  C   UNL     1      17.124  18.297   3.416  1.00  0.00     0.000 C 
BRANCH  22  23
ATOM     23  C   UNL     1      16.050  18.155   2.331  1.00  0.00     0.000 C 
BRANCH  23  24
ATOM     24  C   UNL     1      16.565  18.648   0.974  1.00  0.00    -0.000 C 
BRANCH  24  25
ATOM     25  C   UNL     1      16.798  20.164   0.991  1.00  0.00    -0.000 C 
BRANCH  25  26
ATOM     26  C   UNL     1      16.608  20.767  -0.409  1.00  0.00    -0.000 C 
BRANCH  26  27
ATOM     27  C   UNL     1      15.177  21.304  -0.631  1.00  0.00    -0.000 C 
BRANCH  27  28
ATOM     28  C   UNL     1      14.153  20.214  -1.005  1.00  0.00    -0.000 C 
BRANCH  28  29
ATOM     29  C   UNL     1      13.306  19.691   0.167  1.00  0.00    -0.000 C 
BRANCH  29  30
ATOM     30  C   UNL     1      12.718  18.295  -0.102  1.00  0.00    -0.000 C 
BRANCH  30  31
ATOM     31  C   UNL     1      11.932  18.233  -1.421  1.00  0.00    -0.003 C 
ATOM     32  C   UNL     1      10.806  19.265  -1.482  1.00  0.00     0.004 C 
ENDBRANCH  30  31
ENDBRANCH  29  30
ENDBRANCH  28  29
ENDBRANCH  27  28
ENDBRANCH  26  27
ENDBRANCH  25  26
ENDBRANCH  24  25
ENDBRANCH  23  24
ENDBRANCH  22  23
ENDBRANCH  21  22
ENDBRANCH  20  21
ENDBRANCH  19  20
ENDBRANCH  18  19
ENDBRANCH   1  18
TORSDOF 28
ENDMDL
MODEL 3
REMARK VINA RESULT:     1.624      2.421      4.140
REMARK INTER + INTRA:           1.316
REMARK INTER:                   2.728
REMARK INTRA:                  -1.412
REMARK UNBOUND:                -2.967
REMARK SMILES CCCCCCCCCCCCCCCCCCCCCCCCCCCCCC(=O)[O-]
REMARK SMILES IDX 16 1 17 2 18 3 19 4 20 5 21 6 22 7 23 8 24 9 25 10 26 11
REMARK SMILES IDX 27 12 28 13 29 14 30 15 31 16 32 17 15 18 14 19 13 20 12 21
REMARK SMILES IDX 11 22 10 23 9 24 8 25 7 26 6 27 5 28 4 29 3 30 2 31 1 32
REMARK H PARENT
REMARK Flexibility Score: inf
ROOT
ATOM      1  C   UNL     1      16.733  15.514   5.864  1.00  0.00     0.000 C 
ENDROOT
BRANCH   1   2
ATOM      2  C   UNL     1      17.058  14.849   7.215  1.00  0.00     0.000 C 
BRANCH   2   3
ATOM      3  C   UNL     1      16.550  13.394   7.306  1.00  0.00     0.000 C 
BRANCH   3   4
ATOM      4  C   UNL     1      15.039  13.229   7.053  1.00  0.00     0.000 C 
BRANCH   4   5
ATOM      5  C   UNL     1      14.250  12.525   8.170  1.00  0.00     0.000 C 
BRANCH   5   6
ATOM      6  C   UNL     1      14.437  13.186   9.546  1.00  0.00     0.000 C 
BRANCH   6   7
ATOM      7  C   UNL     1      14.009  12.273  10.708  1.00  0.00     0.000 C 
BRANCH   7   8
ATOM      8  C   UNL     1      13.552  13.011  11.983  1.00  0.00     0.000 C 
BRANCH   8   9
ATOM      9  C   UNL     1      14.640  13.209  13.060  1.00  0.00     0.000 C 
BRANCH   9  10
ATOM     10  C   UNL     1      16.056  12.758  12.654  1.00  0.00     0.000 C 
BRANCH  10  11
ATOM     11  C   UNL     1      17.110  13.864  12.827  1.00  0.00     0.000 C 
BRANCH  11  12
ATOM     12  C   UNL     1      17.099  14.886  11.675  1.00  0.00     0.000 C 
BRANCH  12  13
ATOM     13  C   UNL     1      16.139  16.078  11.865  1.00  0.00     0.006 C 
BRANCH  13  14
ATOM     14  C   UNL     1      16.776  17.454  11.616  1.00  0.00     0.053 C 
BRANCH  14  15
ATOM     15  C   UNL     1      15.789  18.432  11.054  1.00  0.00     0.041 C 
ATOM     16  O   UNL     1      14.856  18.876  11.772  1.00  0.00    -0.550 OA
ATOM     17  O   UNL     1      15.922  18.879   9.745  1.00  0.00    -0.550 OA
ENDBRANCH  14  15
ENDBRANCH  13  14
ENDBRANCH  12  13
ENDBRANCH  11  12
ENDBRANCH  10  11
ENDBRANCH   9  10
ENDBRANCH   8   9
ENDBRANCH   7   8
ENDBRANCH   6   7
ENDBRANCH   5   6
ENDBRANCH   4   5
ENDBRANCH   3   4
ENDBRANCH   2   3
ENDBRANCH   1   2
BRANCH   1  18
ATOM     18  C   UNL     1      16.239  16.963   6.036  1.00  0.00     0.000 C 
BRANCH  18  19
ATOM     19  C   UNL     1      14.710  17.065   6.193  1.00  0.00     0.000 C 
BRANCH  19  20
ATOM     20  C   UNL     1      13.966  16.283   5.098  1.00  0.00     0.000 C 
BRANCH  20  21
ATOM     21  C   UNL     1      14.073  16.941   3.713  1.00  0.00     0.000 C 
BRANCH  21  22
ATOM     22  C   UNL     1      15.432  17.619   3.479  1.00  0.00     0.000 C 
BRANCH  22  23
ATOM     23  C   UNL     1      15.575  18.076   2.023  1.00  0.00     0.000 C 
BRANCH  23  24
ATOM     24  C   UNL     1      17.021  18.475   1.707  1.00  0.00    -0.000 C 
BRANCH  24  25
ATOM     25  C   UNL     1      17.125  19.975   1.406  1.00  0.00    -0.000 C 
BRANCH  25  26
ATOM     26  C   UNL     1      16.921  20.254  -0.090  1.00  0.00    -0.000 C 
BRANCH  26  27
ATOM     27  C   UNL     1      16.381  21.676  -0.357  1.00  0.00    -0.000 C 
BRANCH  27  28
ATOM     28  C   UNL     1      15.543  21.793  -1.645  1.00  0.00    -0.000 C 
BRANCH  28  29
ATOM     29  C   UNL     1      14.144  21.162  -1.567  1.00  0.00    -0.000 C 
BRANCH  29  30
ATOM     30  C   UNL     1      13.851  20.535  -0.192  1.00  0.00    -0.000 C 
BRANCH  30  31
ATOM     31  C   UNL     1      13.234  19.132  -0.306  1.00  0.00    -0.003 C 
ATOM     32  C   UNL     1      11.828  19.156  -0.905  1.00  0.00     0.004 C 
ENDBRANCH  30  31
ENDBRANCH  29  30
ENDBRANCH  28  29
ENDBRANCH  27  28
ENDBRANCH  26  27
ENDBRANCH  25  26
ENDBRANCH  24  25
ENDBRANCH  23  24
ENDBRANCH  22  23
ENDBRANCH  21  22
ENDBRANCH  20  21
ENDBRANCH  19  20
ENDBRANCH  18  19
ENDBRANCH   1  18
TORSDOF 28
ENDMDL
MODEL 4
REMARK VINA RESULT:     1.948      1.755      3.126
REMARK INTER + INTRA:           2.169
REMARK INTER:                   2.197
REMARK INTRA:                  -0.028
REMARK UNBOUND:                -2.967
REMARK SMILES CCCCCCCCCCCCCCCCCCCCCCCCCCCCCC(=O)[O-]
REMARK SMILES IDX 16 1 17 2 18 3 19 4 20 5 21 6 22 7 23 8 24 9 25 10 26 11
REMARK SMILES IDX 27 12 28 13 29 14 30 15 31 16 32 17 15 18 14 19 13 20 12 21
REMARK SMILES IDX 11 22 10 23 9 24 8 25 7 26 6 27 5 28 4 29 3 30 2 31 1 32
REMARK H PARENT
REMARK Flexibility Score: inf
ROOT
ATOM      1  C   UNL     1      15.759  18.328   8.031  1.00  0.00     0.000 C 
ENDROOT
BRANCH   1   2
ATOM      2  C   UNL     1      16.750  19.456   8.379  1.00  0.00     0.000 C 
BRANCH   2   3
ATOM      3  C   UNL     1      17.079  19.523   9.885  1.00  0.00     0.000 C 
BRANCH   3   4
ATOM      4  C   UNL     1      16.271  20.576  10.669  1.00  0.00     0.000 C 
BRANCH   4   5
ATOM      5  C   UNL     1      14.742  20.468  10.546  1.00  0.00     0.000 C 
BRANCH   5   6
ATOM      6  C   UNL     1      14.122  19.520  11.587  1.00  0.00     0.000 C 
BRANCH   6   7
ATOM      7  C   UNL     1      15.000  19.354  12.839  1.00  0.00     0.000 C 
BRANCH   7   8
ATOM      8  C   UNL     1      15.462  17.911  13.125  1.00  0.00     0.000 C 
BRANCH   8   9
ATOM      9  C   UNL     1      16.226  17.221  11.975  1.00  0.00     0.000 C 
BRANCH   9  10
ATOM     10  C   UNL     1      16.684  15.778  12.263  1.00  0.00     0.000 C 
BRANCH  10  11
ATOM     11  C   UNL     1      15.669  14.984  13.102  1.00  0.00     0.000 C 
BRANCH  11  12
ATOM     12  C   UNL     1      15.548  13.513  12.660  1.00  0.00     0.000 C 
BRANCH  12  13
ATOM     13  C   UNL     1      16.354  13.140  11.399  1.00  0.00     0.006 C 
BRANCH  13  14
ATOM     14  C   UNL     1      15.768  11.971  10.592  1.00  0.00     0.053 C 
BRANCH  14  15
ATOM     15  C   UNL     1      14.531  12.372   9.847  1.00  0.00     0.041 C 
ATOM     16  O   UNL     1      14.616  12.847   8.685  1.00  0.00    -0.550 OA
ATOM     17  O   UNL     1      13.281  12.188  10.425  1.00  0.00    -0.550 OA
ENDBRANCH  14  15
ENDBRANCH  13  14
ENDBRANCH  12  13
ENDBRANCH  11  12
ENDBRANCH  10  11
ENDBRANCH   9  10
ENDBRANCH   8   9
ENDBRANCH   7   8
ENDBRANCH   6   7
ENDBRANCH   5   6
ENDBRANCH   4   5
ENDBRANCH   3   4
ENDBRANCH   2   3
ENDBRANCH   1   2
BRANCH   1  18
ATOM     18  C   UNL     1      15.827  17.167   9.039  1.00  0.00     0.000 C 
BRANCH  18  19
ATOM     19  C   UNL     1      15.576  15.790   8.395  1.00  0.00     0.000 C 
BRANCH  19  20
ATOM     20  C   UNL     1      16.796  15.297   7.598  1.00  0.00     0.000 C 
BRANCH  20  21
ATOM     21  C   UNL     1      17.120  16.188   6.388  1.00  0.00     0.000 C 
BRANCH  21  22
ATOM     22  C   UNL     1      15.929  17.052   5.947  1.00  0.00     0.000 C 
BRANCH  22  23
ATOM     23  C   UNL     1      15.857  17.151   4.419  1.00  0.00     0.000 C 
BRANCH  23  24
ATOM     24  C   UNL     1      17.122  17.800   3.846  1.00  0.00    -0.000 C 
BRANCH  24  25
ATOM     25  C   UNL     1      17.036  17.920   2.320  1.00  0.00    -0.000 C 
BRANCH  25  26
ATOM     26  C   UNL     1      15.858  18.812   1.901  1.00  0.00    -0.000 C 
BRANCH  26  27
ATOM     27  C   UNL     1      14.691  18.003   1.294  1.00  0.00    -0.000 C 
BRANCH  27  28
ATOM     28  C   UNL     1      13.812  18.811   0.320  1.00  0.00    -0.000 C 
BRANCH  28  29
ATOM     29  C   UNL     1      14.110  20.318   0.276  1.00  0.00    -0.000 C 
BRANCH  29  30
ATOM     30  C   UNL     1      14.590  20.788  -1.109  1.00  0.00    -0.000 C 
BRANCH  30  31
ATOM     31  C   UNL     1      16.092  21.108  -1.131  1.00  0.00    -0.003 C 
ATOM     32  C   UNL     1      16.568  21.784   0.154  1.00  0.00     0.004 C 
ENDBRANCH  30  31
ENDBRANCH  29  30
ENDBRANCH  28  29
ENDBRANCH  27  28
ENDBRANCH  26  27
ENDBRANCH  25  26
ENDBRANCH  24  25
ENDBRANCH  23  24
ENDBRANCH  22  23
ENDBRANCH  21  22
ENDBRANCH  20  21
ENDBRANCH  19  20
ENDBRANCH  18  19
ENDBRANCH   1  18
TORSDOF 28
ENDMDL
MODEL 5
REMARK VINA RESULT:     2.098      4.253     10.874
REMARK INTER + INTRA:           2.564
REMARK INTER:                   4.047
REMARK INTRA:                  -1.483
REMARK UNBOUND:                -2.967
REMARK SMILES CCCCCCCCCCCCCCCCCCCCCCCCCCCCCC(=O)[O-]
REMARK SMILES IDX 16 1 17 2 18 3 19 4 20 5 21 6 22 7 23 8 24 9 25 10 26 11
REMARK SMILES IDX 27 12 28 13 29 14 30 15 31 16 32 17 15 18 14 19 13 20 12 21
REMARK SMILES IDX 11 22 10 23 9 24 8 25 7 26 6 27 5 28 4 29 3 30 2 31 1 32
REMARK H PARENT
REMARK Flexibility Score: inf
ROOT
ATOM      1  C   UNL     1      14.760  15.401   6.448  1.00  0.00     0.000 C 
ENDROOT
BRANCH   1   2
ATOM      2  C   UNL     1      14.404  16.550   5.485  1.00  0.00     0.000 C 
BRANCH   2   3
ATOM      3  C   UNL     1      14.132  16.065   4.046  1.00  0.00     0.000 C 
BRANCH   3   4
ATOM      4  C   UNL     1      13.817  17.192   3.042  1.00  0.00     0.000 C 
BRANCH   4   5
ATOM      5  C   UNL     1      14.947  17.544   2.061  1.00  0.00     0.000 C 
BRANCH   5   6
ATOM      6  C   UNL     1      16.090  18.336   2.720  1.00  0.00     0.000 C 
BRANCH   6   7
ATOM      7  C   UNL     1      17.115  18.862   1.700  1.00  0.00     0.000 C 
BRANCH   7   8
ATOM      8  C   UNL     1      16.642  18.848   0.232  1.00  0.00     0.000 C 
BRANCH   8   9
ATOM      9  C   UNL     1      17.124  20.033  -0.630  1.00  0.00     0.000 C 
BRANCH   9  10
ATOM     10  C   UNL     1      16.330  21.342  -0.452  1.00  0.00     0.000 C 
BRANCH  10  11
ATOM     11  C   UNL     1      14.996  21.342  -1.218  1.00  0.00     0.000 C 
BRANCH  11  12
ATOM     12  C   UNL     1      13.810  20.877  -0.353  1.00  0.00     0.000 C 
BRANCH  12  13
ATOM     13  C   UNL     1      13.678  19.348  -0.188  1.00  0.00     0.006 C 
BRANCH  13  14
ATOM     14  C   UNL     1      12.236  18.849  -0.017  1.00  0.00     0.053 C 
BRANCH  14  15
ATOM     15  C   UNL     1      11.552  18.655  -1.336  1.00  0.00     0.041 C 
ATOM     16  O   UNL     1      10.729  19.509  -1.756  1.00  0.00    -0.550 OA
ATOM     17  O   UNL     1      11.852  17.546  -2.118  1.00  0.00    -0.550 OA
ENDBRANCH  14  15
ENDBRANCH  13  14
ENDBRANCH  12  13
ENDBRANCH  11  12
ENDBRANCH  10  11
ENDBRANCH   9  10
ENDBRANCH   8   9
ENDBRANCH   7   8
ENDBRANCH   6   7
ENDBRANCH   5   6
ENDBRANCH   4   5
ENDBRANCH   3   4
ENDBRANCH   2   3
ENDBRANCH   1   2
BRANCH   1  18
ATOM     18  C   UNL     1      13.633  14.355   6.542  1.00  0.00     0.000 C 
BRANCH  18  19
ATOM     19  C   UNL     1      14.155  12.916   6.710  1.00  0.00     0.000 C 
BRANCH  19  20
ATOM     20  C   UNL     1      13.831  12.345   8.101  1.00  0.00     0.000 C 
BRANCH  20  21
ATOM     21  C   UNL     1      14.573  13.070   9.234  1.00  0.00     0.000 C 
BRANCH  21  22
ATOM     22  C   UNL     1      16.036  13.384   8.884  1.00  0.00     0.000 C 
BRANCH  22  23
ATOM     23  C   UNL     1      16.774  13.981  10.087  1.00  0.00     0.000 C 
BRANCH  23  24
ATOM     24  C   UNL     1      15.814  14.233  11.256  1.00  0.00    -0.000 C 
BRANCH  24  25
ATOM     25  C   UNL     1      16.331  15.359  12.159  1.00  0.00    -0.000 C 
BRANCH  25  26
ATOM     26  C   UNL     1      16.974  16.481  11.330  1.00  0.00    -0.000 C 
BRANCH  26  27
ATOM     27  C   UNL     1      16.864  17.860  12.016  1.00  0.00    -0.000 C 
BRANCH  27  28
ATOM     28  C   UNL     1      15.414  18.351  12.200  1.00  0.00    -0.000 C 
BRANCH  28  29
ATOM     29  C   UNL     1      14.909  19.304  11.105  1.00  0.00    -0.000 C 
BRANCH  29  30
ATOM     30  C   UNL     1      15.842  20.508  10.889  1.00  0.00    -0.000 C 
BRANCH  30  31
ATOM     31  C   UNL     1      15.190  21.836  11.304  1.00  0.00    -0.003 C 
ATOM     32  C   UNL     1      13.713  21.678  11.663  1.00  0.00     0.004 C 
ENDBRANCH  30  31
ENDBRANCH  29  30
ENDBRANCH  28  29
ENDBRANCH  27  28
ENDBRANCH  26  27
ENDBRANCH  25  26
ENDBRANCH  24  25
ENDBRANCH  23  24
ENDBRANCH  22  23
ENDBRANCH  21  22
ENDBRANCH  20  21
ENDBRANCH  19  20
ENDBRANCH  18  19
ENDBRANCH   1  18
TORSDOF 28
ENDMDL
MODEL 6
REMARK VINA RESULT:     2.163      3.642     10.704
REMARK INTER + INTRA:           2.735
REMARK INTER:                   4.379
REMARK INTRA:                  -1.644
REMARK UNBOUND:                -2.967
REMARK SMILES CCCCCCCCCCCCCCCCCCCCCCCCCCCCCC(=O)[O-]
REMARK SMILES IDX 16 1 17 2 18 3 19 4 20 5 21 6 22 7 23 8 24 9 25 10 26 11
REMARK SMILES IDX 27 12 28 13 29 14 30 15 31 16 32 17 15 18 14 19 13 20 12 21
REMARK SMILES IDX 11 22 10 23 9 24 8 25 7 26 6 27 5 28 4 29 3 30 2 31 1 32
REMARK H PARENT
REMARK Flexibility Score: inf
ROOT
ATOM      1  C   UNL     1      13.767  13.588   6.628  1.00  0.00     0.000 C 
ENDROOT
BRANCH   1   2
ATOM      2  C   UNL     1      13.980  15.011   6.075  1.00  0.00     0.000 C 
BRANCH   2   3
ATOM      3  C   UNL     1      13.456  15.181   4.634  1.00  0.00     0.000 C 
BRANCH   3   4
ATOM      4  C   UNL     1      13.408  16.640   4.140  1.00  0.00     0.000 C 
BRANCH   4   5
ATOM      5  C   UNL     1      14.684  17.152   3.451  1.00  0.00     0.000 C 
BRANCH   5   6
ATOM      6  C   UNL     1      15.883  17.256   4.409  1.00  0.00     0.000 C 
BRANCH   6   7
ATOM      7  C   UNL     1      17.122  17.884   3.746  1.00  0.00     0.000 C 
BRANCH   7   8
ATOM      8  C   UNL     1      16.820  18.853   2.586  1.00  0.00     0.000 C 
BRANCH   8   9
ATOM      9  C   UNL     1      16.729  18.205   1.188  1.00  0.00     0.000 C 
BRANCH   9  10
ATOM     10  C   UNL     1      16.190  19.122   0.073  1.00  0.00     0.000 C 
BRANCH  10  11
ATOM     11  C   UNL     1      16.685  20.573   0.198  1.00  0.00     0.000 C 
BRANCH  11  12
ATOM     12  C   UNL     1      15.689  21.596  -0.380  1.00  0.00     0.000 C 
BRANCH  12  13
ATOM     13  C   UNL     1      14.513  20.990  -1.173  1.00  0.00     0.006 C 
BRANCH  13  14
ATOM     14  C   UNL     1      13.256  20.713  -0.334  1.00  0.00     0.053 C 
BRANCH  14  15
ATOM     15  C   UNL     1      12.841  19.275  -0.408  1.00  0.00     0.041 C 
ATOM     16  O   UNL     1      13.288  18.441   0.422  1.00  0.00    -0.550 OA
ATOM     17  O   UNL     1      11.933  18.863  -1.376  1.00  0.00    -0.550 OA
ENDBRANCH  14  15
ENDBRANCH  13  14
ENDBRANCH  12  13
ENDBRANCH  11  12
ENDBRANCH  10  11
ENDBRANCH   9  10
ENDBRANCH   8   9
ENDBRANCH   7   8
ENDBRANCH   6   7
ENDBRANCH   5   6
ENDBRANCH   4   5
ENDBRANCH   3   4
ENDBRANCH   2   3
ENDBRANCH   1   2
BRANCH   1  18
ATOM     18  C   UNL     1      14.933  13.136   7.526  1.00  0.00     0.000 C 
BRANCH  18  19
ATOM     19  C   UNL     1      16.316  13.443   6.922  1.00  0.00     0.000 C 
BRANCH  19  20
ATOM     20  C   UNL     1      17.094  14.473   7.760  1.00  0.00     0.000 C 
BRANCH  20  21
ATOM     21  C   UNL     1      16.247  15.698   8.140  1.00  0.00     0.000 C 
BRANCH  21  22
ATOM     22  C   UNL     1      17.083  16.838   8.740  1.00  0.00     0.000 C 
BRANCH  22  23
ATOM     23  C   UNL     1      16.362  18.183   8.596  1.00  0.00     0.000 C 
BRANCH  23  24
ATOM     24  C   UNL     1      15.710  18.606   9.918  1.00  0.00    -0.000 C 
BRANCH  24  25
ATOM     25  C   UNL     1      16.647  18.342  11.103  1.00  0.00    -0.000 C 
BRANCH  25  26
ATOM     26  C   UNL     1      15.854  17.923  12.350  1.00  0.00    -0.000 C 
BRANCH  26  27
ATOM     27  C   UNL     1      16.455  16.679  13.041  1.00  0.00    -0.000 C 
BRANCH  27  28
ATOM     28  C   UNL     1      16.966  15.606  12.060  1.00  0.00    -0.000 C 
BRANCH  28  29
ATOM     29  C   UNL     1      15.910  14.582  11.613  1.00  0.00    -0.000 C 
BRANCH  29  30
ATOM     30  C   UNL     1      15.551  13.578  12.722  1.00  0.00    -0.000 C 
BRANCH  30  31
ATOM     31  C   UNL     1      14.558  12.507  12.244  1.00  0.00    -0.003 C 
ATOM     32  C   UNL     1      14.445  12.449  10.721  1.00  0.00     0.004 C 
ENDBRANCH  30  31
ENDBRANCH  29  30
ENDBRANCH  28  29
ENDBRANCH  27  28
ENDBRANCH  26  27
ENDBRANCH  25  26
ENDBRANCH  24  25
ENDBRANCH  23  24
ENDBRANCH  22  23
ENDBRANCH  21  22
ENDBRANCH  20  21
ENDBRANCH  19  20
ENDBRANCH  18  19
ENDBRANCH   1  18
TORSDOF 28
ENDMDL
MODEL 7
REMARK VINA RESULT:     2.232      1.374      2.686
REMARK INTER + INTRA:           2.918
REMARK INTER:                   3.982
REMARK INTRA:                  -1.063
REMARK UNBOUND:                -2.967
REMARK SMILES CCCCCCCCCCCCCCCCCCCCCCCCCCCCCC(=O)[O-]
REMARK SMILES IDX 16 1 17 2 18 3 19 4 20 5 21 6 22 7 23 8 24 9 25 10 26 11
REMARK SMILES IDX 27 12 28 13 29 14 30 15 31 16 32 17 15 18 14 19 13 20 12 21
REMARK SMILES IDX 11 22 10 23 9 24 8 25 7 26 6 27 5 28 4 29 3 30 2 31 1 32
REMARK H PARENT
REMARK Flexibility Score: inf
ROOT
ATOM      1  C   UNL     1      16.526  18.081   7.439  1.00  0.00     0.000 C 
ENDROOT
BRANCH   1   2
ATOM      2  C   UNL     1      17.095  18.844   8.651  1.00  0.00     0.000 C 
BRANCH   2   3
ATOM      3  C   UNL     1      16.006  19.275   9.655  1.00  0.00     0.000 C 
BRANCH   3   4
ATOM      4  C   UNL     1      16.312  20.587  10.405  1.00  0.00     0.000 C 
BRANCH   4   5
ATOM      5  C   UNL     1      15.218  21.073  11.370  1.00  0.00     0.000 C 
BRANCH   5   6
ATOM      6  C   UNL     1      15.041  20.153  12.590  1.00  0.00     0.000 C 
BRANCH   6   7
ATOM      7  C   UNL     1      16.130  19.070  12.682  1.00  0.00     0.000 C 
BRANCH   7   8
ATOM      8  C   UNL     1      15.628  17.674  13.103  1.00  0.00     0.000 C 
BRANCH   8   9
ATOM      9  C   UNL     1      16.575  16.501  12.770  1.00  0.00     0.000 C 
BRANCH   9  10
ATOM     10  C   UNL     1      16.013  15.464  11.779  1.00  0.00     0.000 C 
BRANCH  10  11
ATOM     11  C   UNL     1      17.043  14.390  11.388  1.00  0.00     0.000 C 
BRANCH  11  12
ATOM     12  C   UNL     1      17.125  14.166   9.866  1.00  0.00     0.000 C 
BRANCH  12  13
ATOM     13  C   UNL     1      16.379  12.920   9.346  1.00  0.00     0.006 C 
BRANCH  13  14
ATOM     14  C   UNL     1      14.848  13.012   9.434  1.00  0.00     0.053 C 
BRANCH  14  15
ATOM     15  C   UNL     1      14.303  12.182  10.556  1.00  0.00     0.041 C 
ATOM     16  O   UNL     1      13.181  11.623  10.446  1.00  0.00    -0.550 OA
ATOM     17  O   UNL     1      15.052  11.997  11.712  1.00  0.00    -0.550 OA
ENDBRANCH  14  15
ENDBRANCH  13  14
ENDBRANCH  12  13
ENDBRANCH  11  12
ENDBRANCH  10  11
ENDBRANCH   9  10
ENDBRANCH   8   9
ENDBRANCH   7   8
ENDBRANCH   6   7
ENDBRANCH   5   6
ENDBRANCH   4   5
ENDBRANCH   3   4
ENDBRANCH   2   3
ENDBRANCH   1   2
BRANCH   1  18
ATOM     18  C   UNL     1      15.923  16.723   7.843  1.00  0.00     0.000 C 
BRANCH  18  19
ATOM     19  C   UNL     1      15.298  15.962   6.659  1.00  0.00     0.000 C 
BRANCH  19  20
ATOM     20  C   UNL     1      16.039  16.242   5.340  1.00  0.00     0.000 C 
BRANCH  20  21
ATOM     21  C   UNL     1      15.440  17.419   4.554  1.00  0.00     0.000 C 
BRANCH  21  22
ATOM     22  C   UNL     1      14.246  17.006   3.680  1.00  0.00     0.000 C 
BRANCH  22  23
ATOM     23  C   UNL     1      14.569  17.178   2.192  1.00  0.00     0.000 C 
BRANCH  23  24
ATOM     24  C   UNL     1      15.335  18.481   1.938  1.00  0.00    -0.000 C 
BRANCH  24  25
ATOM     25  C   UNL     1      15.774  18.585   0.472  1.00  0.00    -0.000 C 
BRANCH  25  26
ATOM     26  C   UNL     1      16.872  19.645   0.298  1.00  0.00    -0.000 C 
BRANCH  26  27
ATOM     27  C   UNL     1      16.376  21.069   0.633  1.00  0.00    -0.000 C 
BRANCH  27  28
ATOM     28  C   UNL     1      15.808  21.833  -0.578  1.00  0.00    -0.000 C 
BRANCH  28  29
ATOM     29  C   UNL     1      14.810  21.038  -1.436  1.00  0.00    -0.000 C 
BRANCH  29  30
ATOM     30  C   UNL     1      13.425  20.917  -0.776  1.00  0.00    -0.000 C 
BRANCH  30  31
ATOM     31  C   UNL     1      13.001  19.455  -0.566  1.00  0.00    -0.003 C 
ATOM     32  C   UNL     1      11.567  19.188  -1.021  1.00  0.00     0.004 C 
ENDBRANCH  30  31
ENDBRANCH  29  30
ENDBRANCH  28  29
ENDBRANCH  27  28
ENDBRANCH  26  27
ENDBRANCH  25  26
ENDBRANCH  24  25
ENDBRANCH  23  24
ENDBRANCH  22  23
ENDBRANCH  21  22
ENDBRANCH  20  21
ENDBRANCH  19  20
ENDBRANCH  18  19
ENDBRANCH   1  18
TORSDOF 28
ENDMDL
MODEL 8
REMARK VINA RESULT:     3.311      3.827      9.584
REMARK INTER + INTRA:           5.764
REMARK INTER:                   4.604
REMARK INTRA:                   1.160
REMARK UNBOUND:                -2.967
REMARK SMILES CCCCCCCCCCCCCCCCCCCCCCCCCCCCCC(=O)[O-]
REMARK SMILES IDX 16 1 17 2 18 3 19 4 20 5 21 6 22 7 23 8 24 9 25 10 26 11
REMARK SMILES IDX 27 12 28 13 29 14 30 15 31 16 32 17 15 18 14 19 13 20 12 21
REMARK SMILES IDX 11 22 10 23 9 24 8 25 7 26 6 27 5 28 4 29 3 30 2 31 1 32
REMARK H PARENT
REMARK Flexibility Score: inf
ROOT
ATOM      1  C   UNL     1      16.821  14.739   9.204  1.00  0.00     0.000 C 
ENDROOT
BRANCH   1   2
ATOM      2  C   UNL     1      16.726  13.259   9.622  1.00  0.00     0.000 C 
BRANCH   2   3
ATOM      3  C   UNL     1      16.622  13.071  11.150  1.00  0.00     0.000 C 
BRANCH   3   4
ATOM      4  C   UNL     1      15.590  12.016  11.595  1.00  0.00     0.000 C 
BRANCH   4   5
ATOM      5  C   UNL     1      14.825  11.313  10.461  1.00  0.00     0.000 C 
BRANCH   5   6
ATOM      6  C   UNL     1      13.686  12.170   9.883  1.00  0.00     0.000 C 
BRANCH   6   7
ATOM      7  C   UNL     1      14.146  13.063   8.716  1.00  0.00     0.000 C 
BRANCH   7   8
ATOM      8  C   UNL     1      13.673  12.607   7.321  1.00  0.00     0.000 C 
BRANCH   8   9
ATOM      9  C   UNL     1      12.958  13.685   6.479  1.00  0.00     0.000 C 
BRANCH   9  10
ATOM     10  C   UNL     1      13.748  14.198   5.260  1.00  0.00     0.000 C 
BRANCH  10  11
ATOM     11  C   UNL     1      13.689  15.728   5.109  1.00  0.00     0.000 C 
BRANCH  11  12
ATOM     12  C   UNL     1      13.179  16.173   3.726  1.00  0.00     0.000 C 
BRANCH  12  13
ATOM     13  C   UNL     1      14.082  17.181   2.987  1.00  0.00     0.006 C 
BRANCH  13  14
ATOM     14  C   UNL     1      13.967  17.135   1.455  1.00  0.00     0.053 C 
BRANCH  14  15
ATOM     15  C   UNL     1      14.408  18.421   0.824  1.00  0.00     0.041 C 
ATOM     16  O   UNL     1      15.611  18.783   0.894  1.00  0.00    -0.550 OA
ATOM     17  O   UNL     1      13.494  19.203   0.129  1.00  0.00    -0.550 OA
ENDBRANCH  14  15
ENDBRANCH  13  14
ENDBRANCH  12  13
ENDBRANCH  11  12
ENDBRANCH  10  11
ENDBRANCH   9  10
ENDBRANCH   8   9
ENDBRANCH   7   8
ENDBRANCH   6   7
ENDBRANCH   5   6
ENDBRANCH   4   5
ENDBRANCH   3   4
ENDBRANCH   2   3
ENDBRANCH   1   2
BRANCH   1  18
ATOM     18  C   UNL     1      16.134  15.003   7.851  1.00  0.00     0.000 C 
BRANCH  18  19
ATOM     19  C   UNL     1      15.870  16.498   7.588  1.00  0.00     0.000 C 
BRANCH  19  20
ATOM     20  C   UNL     1      17.125  17.355   7.831  1.00  0.00     0.000 C 
BRANCH  20  21
ATOM     21  C   UNL     1      16.799  18.752   8.382  1.00  0.00     0.000 C 
BRANCH  21  22
ATOM     22  C   UNL     1      16.339  18.722   9.847  1.00  0.00     0.000 C 
BRANCH  22  23
ATOM     23  C   UNL     1      16.872  17.478  10.566  1.00  0.00     0.000 C 
BRANCH  23  24
ATOM     24  C   UNL     1      15.753  16.755  11.326  1.00  0.00    -0.000 C 
BRANCH  24  25
ATOM     25  C   UNL     1      15.821  17.063  12.827  1.00  0.00    -0.000 C 
BRANCH  25  26
ATOM     26  C   UNL     1      15.326  18.487  13.121  1.00  0.00    -0.000 C 
BRANCH  26  27
ATOM     27  C   UNL     1      14.070  18.856  12.302  1.00  0.00    -0.000 C 
BRANCH  27  28
ATOM     28  C   UNL     1      13.197  19.946  12.955  1.00  0.00    -0.000 C 
BRANCH  28  29
ATOM     29  C   UNL     1      12.911  21.166  12.064  1.00  0.00    -0.000 C 
BRANCH  29  30
ATOM     30  C   UNL     1      14.111  22.125  11.966  1.00  0.00    -0.000 C 
BRANCH  30  31
ATOM     31  C   UNL     1      15.457  21.386  12.024  1.00  0.00    -0.003 C 
ATOM     32  C   UNL     1      16.483  21.959  11.046  1.00  0.00     0.004 C 
ENDBRANCH  30  31
ENDBRANCH  29  30
ENDBRANCH  28  29
ENDBRANCH  27  28
ENDBRANCH  26  27
ENDBRANCH  25  26
ENDBRANCH  24  25
ENDBRANCH  23  24
ENDBRANCH  22  23
ENDBRANCH  21  22
ENDBRANCH  20  21
ENDBRANCH  19  20
ENDBRANCH  18  19
ENDBRANCH   1  18
TORSDOF 28
ENDMDL
