MODEL 1
REMARK VINA RESULT:    -4.226      0.000      0.000
REMARK INTER + INTRA:          -5.229
REMARK INTER:                  -5.090
REMARK INTRA:                  -0.139
REMARK UNBOUND:                -0.139
REMARK SMILES Oc1cc(O)c2c(c1)O[C@@H](c1ccc(O)c(O)c1)[C@H](O)C2
REMARK SMILES IDX 21 1 19 2 10 3 9 4 7 5 8 6 2 7 3 8 4 9 6 10 20 11 11 13
REMARK SMILES IDX 18 14 12 15 16 16 13 17 14 18 17 19 15 21 5 23 1 25
REMARK H PARENT 20 12 17 20 15 22 5 24 1 26
REMARK Flexibility Score: inf
ROOT
ATOM      1  C   UNL     1     -23.911  -4.156  18.003  1.00  0.00     0.079 C 
ATOM      2  C   UNL     1     -24.371  -5.588  18.338  1.00  0.00     0.164 C 
ATOM      3  C   UNL     1     -24.547  -5.739  19.858  1.00  0.00     0.232 C 
ATOM      4  O   UNL     1     -25.469  -4.761  20.338  1.00  0.00    -0.482 OA
ATOM      5  C   UNL     1     -25.496  -3.453  19.842  1.00  0.00     0.131 A 
ATOM      6  C   UNL     1     -26.291  -2.500  20.484  1.00  0.00     0.093 A 
ATOM      7  C   UNL     1     -26.326  -1.183  20.022  1.00  0.00     0.122 A 
ATOM      8  C   UNL     1     -25.553  -0.814  18.915  1.00  0.00     0.092 A 
ATOM      9  C   UNL     1     -24.750  -1.756  18.259  1.00  0.00     0.126 A 
ATOM     10  C   UNL     1     -24.746  -3.101  18.698  1.00  0.00     0.039 A 
ENDROOT
BRANCH   2  11
ATOM     11  O   UNL     1     -23.418  -6.513  17.877  1.00  0.00    -0.389 OA
ATOM     12  H   UNL     1     -22.942  -6.079  17.122  1.00  0.00     0.211 HD
ENDBRANCH   2  11
BRANCH   3  13
ATOM     13  C   UNL     1     -25.041  -7.121  20.216  1.00  0.00    -0.001 A 
ATOM     14  C   UNL     1     -24.130  -8.177  20.386  1.00  0.00     0.057 A 
ATOM     15  C   UNL     1     -26.418  -7.378  20.336  1.00  0.00     0.012 A 
ATOM     16  C   UNL     1     -24.585  -9.467  20.691  1.00  0.00     0.157 A 
ATOM     17  C   UNL     1     -26.871  -8.664  20.640  1.00  0.00     0.050 A 
ATOM     18  C   UNL     1     -25.959  -9.711  20.821  1.00  0.00     0.157 A 
BRANCH  16  19
ATOM     19  O   UNL     1     -23.680 -10.513  20.865  1.00  0.00    -0.504 OA
ATOM     20  H   UNL     1     -22.780 -10.517  20.399  1.00  0.00     0.293 HD
ENDBRANCH  16  19
BRANCH  18  21
ATOM     21  O   UNL     1     -26.408 -10.994  21.125  1.00  0.00    -0.504 OA
ATOM     22  H   UNL     1     -26.811 -11.214  22.028  1.00  0.00     0.293 HD
ENDBRANCH  18  21
ENDBRANCH   3  13
BRANCH   9  23
ATOM     23  O   UNL     1     -23.966  -1.318  17.189  1.00  0.00    -0.507 OA
ATOM     24  H   UNL     1     -24.258  -1.383  16.223  1.00  0.00     0.293 HD
ENDBRANCH   9  23
BRANCH   7  25
ATOM     25  O   UNL     1     -27.125  -0.248  20.674  1.00  0.00    -0.508 OA
ATOM     26  H   UNL     1     -27.159  -0.193  21.685  1.00  0.00     0.293 HD
ENDBRANCH   7  25
TORSDOF 6
ENDMDL
MODEL 2
REMARK VINA RESULT:    -4.149      2.009      6.941
REMARK INTER + INTRA:          -5.137
REMARK INTER:                  -4.762
REMARK INTRA:                  -0.375
REMARK UNBOUND:                -0.139
REMARK SMILES Oc1cc(O)c2c(c1)O[C@@H](c1ccc(O)c(O)c1)[C@H](O)C2
REMARK SMILES IDX 21 1 19 2 10 3 9 4 7 5 8 6 2 7 3 8 4 9 6 10 20 11 11 13
REMARK SMILES IDX 18 14 12 15 16 16 13 17 14 18 17 19 15 21 5 23 1 25
REMARK H PARENT 20 12 17 20 15 22 5 24 1 26
REMARK Flexibility Score: inf
ROOT
ATOM      1  C   UNL     1     -25.861  -8.397  17.863  1.00  0.00     0.079 C 
ATOM      2  C   UNL     1     -25.943  -6.863  17.979  1.00  0.00     0.164 C 
ATOM      3  C   UNL     1     -25.922  -6.449  19.460  1.00  0.00     0.232 C 
ATOM      4  O   UNL     1     -24.751  -6.966  20.091  1.00  0.00    -0.482 OA
ATOM      5  C   UNL     1     -24.246  -8.238  19.800  1.00  0.00     0.131 A 
ATOM      6  C   UNL     1     -23.212  -8.753  20.587  1.00  0.00     0.093 A 
ATOM      7  C   UNL     1     -22.699 -10.026  20.331  1.00  0.00     0.122 A 
ATOM      8  C   UNL     1     -23.229 -10.793  19.287  1.00  0.00     0.092 A 
ATOM      9  C   UNL     1     -24.264 -10.292  18.489  1.00  0.00     0.126 A 
ATOM     10  C   UNL     1     -24.758  -8.986  18.717  1.00  0.00     0.039 A 
ENDROOT
BRANCH   2  11
ATOM     11  O   UNL     1     -27.125  -6.403  17.375  1.00  0.00    -0.389 OA
ATOM     12  H   UNL     1     -27.879  -6.814  17.874  1.00  0.00     0.211 HD
ENDBRANCH   2  11
BRANCH   3  13
ATOM     13  C   UNL     1     -25.956  -4.946  19.607  1.00  0.00    -0.001 A 
ATOM     14  C   UNL     1     -24.877  -4.166  19.156  1.00  0.00     0.057 A 
ATOM     15  C   UNL     1     -27.040  -4.314  20.239  1.00  0.00     0.012 A 
ATOM     16  C   UNL     1     -24.891  -2.773  19.315  1.00  0.00     0.157 A 
ATOM     17  C   UNL     1     -27.054  -2.926  20.398  1.00  0.00     0.050 A 
ATOM     18  C   UNL     1     -25.982  -2.152  19.936  1.00  0.00     0.157 A 
BRANCH  16  19
ATOM     19  O   UNL     1     -23.823  -2.000  18.862  1.00  0.00    -0.504 OA
ATOM     20  H   UNL     1     -22.894  -2.095  19.257  1.00  0.00     0.293 HD
ENDBRANCH  16  19
BRANCH  18  21
ATOM     21  O   UNL     1     -25.993  -0.767  20.092  1.00  0.00    -0.504 OA
ATOM     22  H   UNL     1     -26.834  -0.223  19.938  1.00  0.00     0.293 HD
ENDBRANCH  18  21
ENDBRANCH   3  13
BRANCH   9  23
ATOM     23  O   UNL     1     -24.784 -11.122  17.491  1.00  0.00    -0.507 OA
ATOM     24  H   UNL     1     -24.771 -12.131  17.546  1.00  0.00     0.293 HD
ENDBRANCH   9  23
BRANCH   7  25
ATOM     25  O   UNL     1     -21.668 -10.523  21.125  1.00  0.00    -0.508 OA
ATOM     26  H   UNL     1     -20.792 -10.835  20.722  1.00  0.00     0.293 HD
ENDBRANCH   7  25
TORSDOF 6
ENDMDL
MODEL 3
REMARK VINA RESULT:    -4.136      2.043      2.289
REMARK INTER + INTRA:          -5.120
REMARK INTER:                  -4.745
REMARK INTRA:                  -0.376
REMARK UNBOUND:                -0.139
REMARK SMILES Oc1cc(O)c2c(c1)O[C@@H](c1ccc(O)c(O)c1)[C@H](O)C2
REMARK SMILES IDX 21 1 19 2 10 3 9 4 7 5 8 6 2 7 3 8 4 9 6 10 20 11 11 13
REMARK SMILES IDX 18 14 12 15 16 16 13 17 14 18 17 19 15 21 5 23 1 25
REMARK H PARENT 20 12 17 20 15 22 5 24 1 26
REMARK Flexibility Score: inf
ROOT
ATOM      1  C   UNL     1     -24.022  -3.689  19.835  1.00  0.00     0.079 C 
ATOM      2  C   UNL     1     -24.302  -5.205  19.844  1.00  0.00     0.164 C 
ATOM      3  C   UNL     1     -25.819  -5.455  19.843  1.00  0.00     0.232 C 
ATOM      4  O   UNL     1     -26.415  -4.812  18.717  1.00  0.00    -0.482 OA
ATOM      5  C   UNL     1     -26.000  -3.554  18.268  1.00  0.00     0.131 A 
ATOM      6  C   UNL     1     -26.749  -2.903  17.284  1.00  0.00     0.093 A 
ATOM      7  C   UNL     1     -26.367  -1.640  16.827  1.00  0.00     0.122 A 
ATOM      8  C   UNL     1     -25.235  -1.019  17.367  1.00  0.00     0.092 A 
ATOM      9  C   UNL     1     -24.473  -1.656  18.354  1.00  0.00     0.126 A 
ATOM     10  C   UNL     1     -24.831  -2.955  18.787  1.00  0.00     0.039 A 
ENDROOT
BRANCH   2  11
ATOM     11  O   UNL     1     -23.726  -5.788  20.984  1.00  0.00    -0.389 OA
ATOM     12  H   UNL     1     -23.129  -6.513  20.662  1.00  0.00     0.211 HD
ENDBRANCH   2  11
BRANCH   3  13
ATOM     13  C   UNL     1     -26.128  -6.934  19.805  1.00  0.00    -0.001 A 
ATOM     14  C   UNL     1     -25.775  -7.703  18.683  1.00  0.00     0.057 A 
ATOM     15  C   UNL     1     -26.814  -7.548  20.867  1.00  0.00     0.012 A 
ATOM     16  C   UNL     1     -26.084  -9.069  18.631  1.00  0.00     0.157 A 
ATOM     17  C   UNL     1     -27.122  -8.909  20.815  1.00  0.00     0.050 A 
ATOM     18  C   UNL     1     -26.757  -9.674  19.700  1.00  0.00     0.157 A 
BRANCH  16  19
ATOM     19  O   UNL     1     -25.727  -9.832  17.520  1.00  0.00    -0.504 OA
ATOM     20  H   UNL     1     -26.410 -10.101  16.821  1.00  0.00     0.293 HD
ENDBRANCH  16  19
BRANCH  18  21
ATOM     21  O   UNL     1     -27.062 -11.032  19.646  1.00  0.00    -0.504 OA
ATOM     22  H   UNL     1     -27.384 -11.469  18.789  1.00  0.00     0.293 HD
ENDBRANCH  18  21
ENDBRANCH   3  13
BRANCH   9  23
ATOM     23  O   UNL     1     -23.380  -0.967  18.886  1.00  0.00    -0.507 OA
ATOM     24  H   UNL     1     -23.264   0.034  18.810  1.00  0.00     0.293 HD
ENDBRANCH   9  23
BRANCH   7  25
ATOM     25  O   UNL     1     -27.125  -1.008  15.845  1.00  0.00    -0.508 OA
ATOM     26  H   UNL     1     -28.015  -1.382  15.540  1.00  0.00     0.293 HD
ENDBRANCH   7  25
TORSDOF 6
ENDMDL
MODEL 4
REMARK VINA RESULT:    -3.960      1.458      6.890
REMARK INTER + INTRA:          -4.909
REMARK INTER:                  -4.822
REMARK INTRA:                  -0.086
REMARK UNBOUND:                -0.139
REMARK SMILES Oc1cc(O)c2c(c1)O[C@@H](c1ccc(O)c(O)c1)[C@H](O)C2
REMARK SMILES IDX 21 1 19 2 10 3 9 4 7 5 8 6 2 7 3 8 4 9 6 10 20 11 11 13
REMARK SMILES IDX 18 14 12 15 16 16 13 17 14 18 17 19 15 21 5 23 1 25
REMARK H PARENT 20 12 17 20 15 22 5 24 1 26
REMARK Flexibility Score: inf
ROOT
ATOM      1  C   UNL     1     -23.991  -7.304  18.210  1.00  0.00     0.079 C 
ATOM      2  C   UNL     1     -24.304  -5.860  18.648  1.00  0.00     0.164 C 
ATOM      3  C   UNL     1     -25.826  -5.643  18.681  1.00  0.00     0.232 C 
ATOM      4  O   UNL     1     -26.433  -6.602  19.546  1.00  0.00    -0.482 OA
ATOM      5  C   UNL     1     -26.001  -7.931  19.608  1.00  0.00     0.131 A 
ATOM      6  C   UNL     1     -26.757  -8.857  20.331  1.00  0.00     0.093 A 
ATOM      7  C   UNL     1     -26.359 -10.193  20.399  1.00  0.00     0.122 A 
ATOM      8  C   UNL     1     -25.202 -10.609  19.730  1.00  0.00     0.092 A 
ATOM      9  C   UNL     1     -24.432  -9.694  19.001  1.00  0.00     0.126 A 
ATOM     10  C   UNL     1     -24.808  -8.331  18.967  1.00  0.00     0.039 A 
ENDROOT
BRANCH   2  11
ATOM     11  O   UNL     1     -23.715  -4.954  17.751  1.00  0.00    -0.389 OA
ATOM     12  H   UNL     1     -24.223  -4.104  17.830  1.00  0.00     0.211 HD
ENDBRANCH   2  11
BRANCH   3  13
ATOM     13  C   UNL     1     -26.167  -4.248  19.152  1.00  0.00    -0.001 A 
ATOM     14  C   UNL     1     -26.124  -3.167  18.254  1.00  0.00     0.057 A 
ATOM     15  C   UNL     1     -26.484  -4.006  20.499  1.00  0.00     0.012 A 
ATOM     16  C   UNL     1     -26.414  -1.867  18.691  1.00  0.00     0.157 A 
ATOM     17  C   UNL     1     -26.773  -2.710  20.935  1.00  0.00     0.050 A 
ATOM     18  C   UNL     1     -26.740  -1.638  20.034  1.00  0.00     0.157 A 
BRANCH  16  19
ATOM     19  O   UNL     1     -26.376  -0.797  17.798  1.00  0.00    -0.504 OA
ATOM     20  H   UNL     1     -25.579  -0.173  17.752  1.00  0.00     0.293 HD
ENDBRANCH  16  19
BRANCH  18  21
ATOM     21  O   UNL     1     -27.028  -0.345  20.465  1.00  0.00    -0.504 OA
ATOM     22  H   UNL     1     -27.408   0.352  19.833  1.00  0.00     0.293 HD
ENDBRANCH  18  21
ENDBRANCH   3  13
BRANCH   9  23
ATOM     23  O   UNL     1     -23.313 -10.176  18.317  1.00  0.00    -0.507 OA
ATOM     24  H   UNL     1     -22.422  -9.699  18.305  1.00  0.00     0.293 HD
ENDBRANCH   9  23
BRANCH   7  25
ATOM     25  O   UNL     1     -27.125 -11.102  21.125  1.00  0.00    -0.508 OA
ATOM     26  H   UNL     1     -27.392 -11.999  20.737  1.00  0.00     0.293 HD
ENDBRANCH   7  25
TORSDOF 6
ENDMDL
