MODEL 1
REMARK VINA RESULT:    -5.788      0.000      0.000
REMARK INTER + INTRA:          -5.957
REMARK INTER:                  -5.957
REMARK INTRA:                   0.000
REMARK UNBOUND:                 0.000
REMARK SMILES O=c1ccc2ccc(O)cc2o1
REMARK SMILES IDX 6 1 7 2 8 3 10 4 11 5 5 6 4 7 3 8 2 9 1 10 12 11 9 12
REMARK H PARENT 9 13
REMARK Flexibility Score: inf
ROOT
ATOM      1  C   UNL     1      13.752 -17.296   7.752  1.00  0.00     0.016 A 
ATOM      2  C   UNL     1      14.617 -16.230   7.481  1.00  0.00     0.047 A 
ATOM      3  C   UNL     1      14.116 -14.931   7.340  1.00  0.00     0.119 A 
ATOM      4  C   UNL     1      12.740 -14.693   7.471  1.00  0.00     0.094 A 
ATOM      5  C   UNL     1      11.867 -15.752   7.744  1.00  0.00     0.142 A 
ATOM      6  C   UNL     1      12.376 -17.062   7.884  1.00  0.00     0.018 A 
ATOM      7  C   UNL     1      11.479 -18.100   8.156  1.00  0.00     0.019 A 
ATOM      8  C   UNL     1      10.119 -17.816   8.278  1.00  0.00     0.094 A 
ATOM      9  C   UNL     1       9.688 -16.493   8.126  1.00  0.00     0.336 A 
ATOM     10  O   UNL     1       8.464 -16.217   8.232  1.00  0.00    -0.246 OA
ATOM     11  O   UNL     1      10.562 -15.524   7.867  1.00  0.00    -0.423 OA
ENDROOT
BRANCH   3  12
ATOM     12  O   UNL     1      14.993 -13.883   7.070  1.00  0.00    -0.508 OA
ATOM     13  H   UNL     1      14.720 -13.099   6.489  1.00  0.00     0.293 HD
ENDBRANCH   3  12
TORSDOF 1
ENDMDL
MODEL 2
REMARK VINA RESULT:    -5.222      0.962      4.276
REMARK INTER + INTRA:          -5.375
REMARK INTER:                  -5.375
REMARK INTRA:                   0.000
REMARK UNBOUND:                 0.000
REMARK SMILES O=c1ccc2ccc(O)cc2o1
REMARK SMILES IDX 6 1 7 2 8 3 10 4 11 5 5 6 4 7 3 8 2 9 1 10 12 11 9 12
REMARK H PARENT 9 13
REMARK Flexibility Score: inf
ROOT
ATOM      1  C   UNL     1      11.048 -18.329   7.131  1.00  0.00     0.016 A 
ATOM      2  C   UNL     1       9.704 -18.065   7.417  1.00  0.00     0.047 A 
ATOM      3  C   UNL     1       9.299 -16.775   7.782  1.00  0.00     0.119 A 
ATOM      4  C   UNL     1      10.244 -15.742   7.862  1.00  0.00     0.094 A 
ATOM      5  C   UNL     1      11.590 -15.996   7.576  1.00  0.00     0.142 A 
ATOM      6  C   UNL     1      11.995 -17.299   7.209  1.00  0.00     0.018 A 
ATOM      7  C   UNL     1      13.346 -17.523   6.930  1.00  0.00     0.019 A 
ATOM      8  C   UNL     1      14.249 -16.463   7.022  1.00  0.00     0.094 A 
ATOM      9  C   UNL     1      13.775 -15.200   7.393  1.00  0.00     0.336 A 
ATOM     10  O   UNL     1      14.575 -14.232   7.481  1.00  0.00    -0.246 OA
ATOM     11  O   UNL     1      12.484 -15.014   7.653  1.00  0.00    -0.423 OA
ENDROOT
BRANCH   3  12
ATOM     12  O   UNL     1       7.957 -16.532   8.063  1.00  0.00    -0.508 OA
ATOM     13  H   UNL     1       7.372 -17.231   8.505  1.00  0.00     0.293 HD
ENDBRANCH   3  12
TORSDOF 1
ENDMDL
MODEL 3
REMARK VINA RESULT:    -4.736      1.843      4.646
REMARK INTER + INTRA:          -4.875
REMARK INTER:                  -4.875
REMARK INTRA:                   0.000
REMARK UNBOUND:                 0.000
REMARK SMILES O=c1ccc2ccc(O)cc2o1
REMARK SMILES IDX 6 1 7 2 8 3 10 4 11 5 5 6 4 7 3 8 2 9 1 10 12 11 9 12
REMARK H PARENT 9 13
REMARK Flexibility Score: inf
ROOT
ATOM      1  C   UNL     1       8.972 -18.481   6.860  1.00  0.00     0.016 A 
ATOM      2  C   UNL     1       7.894 -17.724   7.332  1.00  0.00     0.047 A 
ATOM      3  C   UNL     1       8.119 -16.567   8.087  1.00  0.00     0.119 A 
ATOM      4  C   UNL     1       9.431 -16.163   8.375  1.00  0.00     0.094 A 
ATOM      5  C   UNL     1      10.516 -16.913   7.906  1.00  0.00     0.142 A 
ATOM      6  C   UNL     1      10.285 -18.080   7.145  1.00  0.00     0.018 A 
ATOM      7  C   UNL     1      11.388 -18.810   6.691  1.00  0.00     0.019 A 
ATOM      8  C   UNL     1      12.675 -18.368   7.001  1.00  0.00     0.094 A 
ATOM      9  C   UNL     1      12.826 -17.203   7.760  1.00  0.00     0.336 A 
ATOM     10  O   UNL     1      13.980 -16.789   8.050  1.00  0.00    -0.246 OA
ATOM     11  O   UNL     1      11.759 -16.528   8.180  1.00  0.00    -0.423 OA
ENDROOT
BRANCH   3  12
ATOM     12  O   UNL     1       7.033 -15.827   8.549  1.00  0.00    -0.508 OA
ATOM     13  H   UNL     1       6.211 -16.276   8.936  1.00  0.00     0.293 HD
ENDBRANCH   3  12
TORSDOF 1
ENDMDL
MODEL 4
REMARK VINA RESULT:    -4.694      2.160      2.807
REMARK INTER + INTRA:          -4.831
REMARK INTER:                  -4.831
REMARK INTRA:                   0.000
REMARK UNBOUND:                 0.000
REMARK SMILES O=c1ccc2ccc(O)cc2o1
REMARK SMILES IDX 6 1 7 2 8 3 10 4 11 5 5 6 4 7 3 8 2 9 1 10 12 11 9 12
REMARK H PARENT 9 13
REMARK Flexibility Score: inf
ROOT
ATOM      1  C   UNL     1      12.101 -16.117   8.457  1.00  0.00     0.016 A 
ATOM      2  C   UNL     1      13.335 -16.713   8.171  1.00  0.00     0.047 A 
ATOM      3  C   UNL     1      13.395 -17.885   7.408  1.00  0.00     0.119 A 
ATOM      4  C   UNL     1      12.212 -18.468   6.927  1.00  0.00     0.094 A 
ATOM      5  C   UNL     1      10.974 -17.879   7.207  1.00  0.00     0.142 A 
ATOM      6  C   UNL     1      10.918 -16.697   7.977  1.00  0.00     0.018 A 
ATOM      7  C   UNL     1       9.667 -16.131   8.241  1.00  0.00     0.019 A 
ATOM      8  C   UNL     1       8.519 -16.747   7.741  1.00  0.00     0.094 A 
ATOM      9  C   UNL     1       8.652 -17.917   6.985  1.00  0.00     0.336 A 
ATOM     10  O   UNL     1       7.627 -18.487   6.526  1.00  0.00    -0.246 OA
ATOM     11  O   UNL     1       9.855 -18.434   6.749  1.00  0.00    -0.423 OA
ENDROOT
BRANCH   3  12
ATOM     12  O   UNL     1      14.632 -18.463   7.134  1.00  0.00    -0.508 OA
ATOM     13  H   UNL     1      15.040 -18.427   6.208  1.00  0.00     0.293 HD
ENDBRANCH   3  12
TORSDOF 1
ENDMDL
MODEL 5
REMARK VINA RESULT:    -4.686      1.421      4.737
REMARK INTER + INTRA:          -4.823
REMARK INTER:                  -4.823
REMARK INTRA:                   0.000
REMARK UNBOUND:                 0.000
REMARK SMILES O=c1ccc2ccc(O)cc2o1
REMARK SMILES IDX 6 1 7 2 8 3 10 4 11 5 5 6 4 7 3 8 2 9 1 10 12 11 9 12
REMARK H PARENT 9 13
REMARK Flexibility Score: inf
ROOT
ATOM      1  C   UNL     1       9.601 -18.916   8.031  1.00  0.00     0.016 A 
ATOM      2  C   UNL     1       8.246 -18.709   8.308  1.00  0.00     0.047 A 
ATOM      3  C   UNL     1       7.738 -17.410   8.429  1.00  0.00     0.119 A 
ATOM      4  C   UNL     1       8.593 -16.308   8.273  1.00  0.00     0.094 A 
ATOM      5  C   UNL     1       9.950 -16.505   7.995  1.00  0.00     0.142 A 
ATOM      6  C   UNL     1      10.458 -17.817   7.875  1.00  0.00     0.018 A 
ATOM      7  C   UNL     1      11.818 -17.983   7.597  1.00  0.00     0.019 A 
ATOM      8  C   UNL     1      12.629 -16.857   7.449  1.00  0.00     0.094 A 
ATOM      9  C   UNL     1      12.056 -15.587   7.584  1.00  0.00     0.336 A 
ATOM     10  O   UNL     1      12.771 -14.560   7.454  1.00  0.00    -0.246 OA
ATOM     11  O   UNL     1      10.758 -15.458   7.848  1.00  0.00    -0.423 OA
ENDROOT
BRANCH   3  12
ATOM     12  O   UNL     1       6.386 -17.224   8.705  1.00  0.00    -0.508 OA
ATOM     13  H   UNL     1       6.041 -16.360   9.107  1.00  0.00     0.293 HD
ENDBRANCH   3  12
TORSDOF 1
ENDMDL
MODEL 6
REMARK VINA RESULT:    -4.647      2.180      4.966
REMARK INTER + INTRA:          -4.782
REMARK INTER:                  -4.782
REMARK INTRA:                   0.000
REMARK UNBOUND:                 0.000
REMARK SMILES O=c1ccc2ccc(O)cc2o1
REMARK SMILES IDX 6 1 7 2 8 3 10 4 11 5 5 6 4 7 3 8 2 9 1 10 12 11 9 12
REMARK H PARENT 9 13
REMARK Flexibility Score: inf
ROOT
ATOM      1  C   UNL     1       9.766 -16.098   7.885  1.00  0.00     0.016 A 
ATOM      2  C   UNL     1       8.618 -16.826   7.554  1.00  0.00     0.047 A 
ATOM      3  C   UNL     1       8.726 -18.127   7.047  1.00  0.00     0.119 A 
ATOM      4  C   UNL     1       9.992 -18.704   6.867  1.00  0.00     0.094 A 
ATOM      5  C   UNL     1      11.146 -17.985   7.196  1.00  0.00     0.142 A 
ATOM      6  C   UNL     1      11.033 -16.673   7.707  1.00  0.00     0.018 A 
ATOM      7  C   UNL     1      12.203 -15.978   8.026  1.00  0.00     0.019 A 
ATOM      8  C   UNL     1      13.440 -16.595   7.831  1.00  0.00     0.094 A 
ATOM      9  C   UNL     1      13.474 -17.897   7.320  1.00  0.00     0.336 A 
ATOM     10  O   UNL     1      14.581 -18.469   7.137  1.00  0.00    -0.246 OA
ATOM     11  O   UNL     1      12.345 -18.535   7.025  1.00  0.00    -0.423 OA
ENDROOT
BRANCH   3  12
ATOM     12  O   UNL     1       7.572 -18.835   6.723  1.00  0.00    -0.508 OA
ATOM     13  H   UNL     1       7.011 -18.594   5.915  1.00  0.00     0.293 HD
ENDBRANCH   3  12
TORSDOF 1
ENDMDL
MODEL 7
REMARK VINA RESULT:    -4.502      1.512      4.267
REMARK INTER + INTRA:          -4.633
REMARK INTER:                  -4.633
REMARK INTRA:                   0.000
REMARK UNBOUND:                 0.000
REMARK SMILES O=c1ccc2ccc(O)cc2o1
REMARK SMILES IDX 6 1 7 2 8 3 10 4 11 5 5 6 4 7 3 8 2 9 1 10 12 11 9 12
REMARK H PARENT 9 13
REMARK Flexibility Score: inf
ROOT
ATOM      1  C   UNL     1      12.373 -18.681   6.376  1.00  0.00     0.016 A 
ATOM      2  C   UNL     1      11.071 -19.125   6.634  1.00  0.00     0.047 A 
ATOM      3  C   UNL     1      10.191 -18.336   7.385  1.00  0.00     0.119 A 
ATOM      4  C   UNL     1      10.614 -17.094   7.881  1.00  0.00     0.094 A 
ATOM      5  C   UNL     1      11.914 -16.642   7.627  1.00  0.00     0.142 A 
ATOM      6  C   UNL     1      12.799 -17.441   6.870  1.00  0.00     0.018 A 
ATOM      7  C   UNL     1      14.091 -16.963   6.633  1.00  0.00     0.019 A 
ATOM      8  C   UNL     1      14.467 -15.721   7.147  1.00  0.00     0.094 A 
ATOM      9  C   UNL     1      13.536 -14.985   7.888  1.00  0.00     0.336 A 
ATOM     10  O   UNL     1      13.857 -13.863   8.360  1.00  0.00    -0.246 OA
ATOM     11  O   UNL     1      12.313 -15.464   8.100  1.00  0.00    -0.423 OA
ENDROOT
BRANCH   3  12
ATOM     12  O   UNL     1       8.899 -18.795   7.632  1.00  0.00    -0.508 OA
ATOM     13  H   UNL     1       8.480 -19.527   7.071  1.00  0.00     0.293 HD
ENDBRANCH   3  12
TORSDOF 1
ENDMDL
MODEL 8
REMARK VINA RESULT:    -4.347      1.331      1.870
REMARK INTER + INTRA:          -4.474
REMARK INTER:                  -4.474
REMARK INTRA:                   0.000
REMARK UNBOUND:                 0.000
REMARK SMILES O=c1ccc2ccc(O)cc2o1
REMARK SMILES IDX 6 1 7 2 8 3 10 4 11 5 5 6 4 7 3 8 2 9 1 10 12 11 9 12
REMARK H PARENT 9 13
REMARK Flexibility Score: inf
ROOT
ATOM      1  C   UNL     1      12.396 -17.910   8.392  1.00  0.00     0.016 A 
ATOM      2  C   UNL     1      13.092 -16.724   8.137  1.00  0.00     0.047 A 
ATOM      3  C   UNL     1      12.398 -15.551   7.817  1.00  0.00     0.119 A 
ATOM      4  C   UNL     1      10.996 -15.563   7.752  1.00  0.00     0.094 A 
ATOM      5  C   UNL     1      10.291 -16.745   8.007  1.00  0.00     0.142 A 
ATOM      6  C   UNL     1      10.995 -17.926   8.328  1.00  0.00     0.018 A 
ATOM      7  C   UNL     1      10.264 -19.091   8.578  1.00  0.00     0.019 A 
ATOM      8  C   UNL     1       8.871 -19.054   8.501  1.00  0.00     0.094 A 
ATOM      9  C   UNL     1       8.242 -17.847   8.177  1.00  0.00     0.336 A 
ATOM     10  O   UNL     1       6.986 -17.795   8.103  1.00  0.00    -0.246 OA
ATOM     11  O   UNL     1       8.962 -16.753   7.944  1.00  0.00    -0.423 OA
ENDROOT
BRANCH   3  12
ATOM     12  O   UNL     1      13.108 -14.380   7.566  1.00  0.00    -0.508 OA
ATOM     13  H   UNL     1      12.809 -13.720   6.857  1.00  0.00     0.293 HD
ENDBRANCH   3  12
TORSDOF 1
ENDMDL
